# generated using pymatgen
data_Tb2Mn3Cr2(PRh)7
_symmetry_space_group_name_H-M   'P 1'
_cell_length_a   9.43572186
_cell_length_b   9.42929963
_cell_length_c   3.81415000
_cell_angle_alpha   90.00000000
_cell_angle_beta   90.00000000
_cell_angle_gamma   120.11000731
_symmetry_Int_Tables_number   1
_chemical_formula_structural   Tb2Mn3Cr2(PRh)7
_chemical_formula_sum   'Tb2 Mn3 Cr2 P7 Rh7'
_cell_volume   293.56243455
_cell_formula_units_Z   1
loop_
 _symmetry_equiv_pos_site_id
 _symmetry_equiv_pos_as_xyz
  1  'x, y, z'
loop_
 _atom_site_type_symbol
 _atom_site_label
 _atom_site_symmetry_multiplicity
 _atom_site_fract_x
 _atom_site_fract_y
 _atom_site_fract_z
 _atom_site_occupancy
  Tb  Tb0  1  0.665443  0.331685  0.000000  1
  Tb  Tb1  1  0.334356  0.666209  0.500000  1
  Mn  Mn2  1  0.269579  0.111854  0.000000  1
  Mn  Mn3  1  0.844139  0.731002  0.000000  1
  Mn  Mn4  1  0.888519  0.159372  0.000000  1
  Cr  Cr5  1  0.782411  0.900077  0.500000  1
  Cr  Cr6  1  0.117936  0.217645  0.500000  1
  P  P7  1  0.298786  0.891277  0.000000  1
  P  P8  1  0.596313  0.705378  0.000000  1
  P  P9  1  0.111275  0.406653  0.000000  1
  P  P10  1  0.395208  0.276505  0.500000  1
  P  P11  1  0.878422  0.602476  0.500000  1
  P  P12  1  0.724099  0.117807  0.500000  1
  P  P13  1  0.998201  0.001585  0.000000  1
  Rh  Rh14  1  0.062808  0.635753  0.000000  1
  Rh  Rh15  1  0.572382  0.937508  0.000000  1
  Rh  Rh16  1  0.365943  0.429169  0.000000  1
  Rh  Rh17  1  0.442034  0.054277  0.500000  1
  Rh  Rh18  1  0.613000  0.558497  0.500000  1
  Rh  Rh19  1  0.946182  0.389503  0.500000  1
  Rh  Rh20  1  0.092963  0.875771  0.500000  1
