# generated using pymatgen
data_DyY3(Er3Pb4)2
_symmetry_space_group_name_H-M   'P 1'
_cell_length_a   8.18484300
_cell_length_b   8.25404500
_cell_length_c   15.58108100
_cell_angle_alpha   89.99755050
_cell_angle_beta   90.00000000
_cell_angle_gamma   90.00000000
_symmetry_Int_Tables_number   1
_chemical_formula_structural   DyY3(Er3Pb4)2
_chemical_formula_sum   'Dy2 Y6 Er12 Pb16'
_cell_volume   1052.62764260
_cell_formula_units_Z   2
loop_
 _symmetry_equiv_pos_site_id
 _symmetry_equiv_pos_as_xyz
  1  'x, y, z'
loop_
 _atom_site_type_symbol
 _atom_site_label
 _atom_site_symmetry_multiplicity
 _atom_site_fract_x
 _atom_site_fract_y
 _atom_site_fract_z
 _atom_site_occupancy
  Dy  Dy0  1  0.536492  0.323426  0.599976  1
  Dy  Dy1  1  0.036492  0.176574  0.900024  1
  Y  Y2  1  0.536575  0.323497  0.900054  1
  Y  Y3  1  0.036575  0.176503  0.599946  1
  Y  Y4  1  0.463436  0.676528  0.400036  1
  Y  Y5  1  0.963436  0.823472  0.099964  1
  Y  Y6  1  0.463448  0.676541  0.099958  1
  Y  Y7  1  0.963448  0.823459  0.400042  1
  Er  Er8  1  0.376427  0.841408  0.878898  1
  Er  Er9  1  0.876427  0.658592  0.621102  1
  Er  Er10  1  0.623474  0.158690  0.378894  1
  Er  Er11  1  0.123474  0.341310  0.121106  1
  Er  Er12  1  0.623506  0.158641  0.121189  1
  Er  Er13  1  0.123506  0.341359  0.378811  1
  Er  Er14  1  0.376418  0.841423  0.621116  1
  Er  Er15  1  0.876418  0.658577  0.878884  1
  Er  Er16  1  0.208361  0.504704  0.750015  1
  Er  Er17  1  0.708361  0.995296  0.749985  1
  Er  Er18  1  0.791713  0.495240  0.249995  1
  Er  Er19  1  0.291713  0.004760  0.250005  1
  Pb  Pb20  1  0.282164  0.033596  0.042915  1
  Pb  Pb21  1  0.782164  0.466404  0.457085  1
  Pb  Pb22  1  0.718164  0.966103  0.542870  1
  Pb  Pb23  1  0.218164  0.533897  0.957130  1
  Pb  Pb24  1  0.718179  0.966188  0.957204  1
  Pb  Pb25  1  0.218179  0.533812  0.542796  1
  Pb  Pb26  1  0.281800  0.033640  0.457134  1
  Pb  Pb27  1  0.781800  0.466360  0.042866  1
  Pb  Pb28  1  0.571318  0.626633  0.750070  1
  Pb  Pb29  1  0.071318  0.873367  0.749930  1
  Pb  Pb30  1  0.428556  0.373591  0.250009  1
  Pb  Pb31  1  0.928556  0.126409  0.249991  1
  Pb  Pb32  1  0.347801  0.153457  0.750034  1
  Pb  Pb33  1  0.847801  0.346543  0.749966  1
  Pb  Pb34  1  0.652168  0.846596  0.250021  1
  Pb  Pb35  1  0.152168  0.653404  0.249979  1
