# generated using pymatgen
data_Tb2AsP6(RuRh)6
_symmetry_space_group_name_H-M   'P 1'
_cell_length_a   3.86571310
_cell_length_b   9.62256625
_cell_length_c   9.62353201
_cell_angle_alpha   119.99117188
_cell_angle_beta   89.99677913
_cell_angle_gamma   90.00052092
_symmetry_Int_Tables_number   1
_chemical_formula_structural   Tb2AsP6(RuRh)6
_chemical_formula_sum   'Tb2 As1 P6 Ru6 Rh6'
_cell_volume   310.04467896
_cell_formula_units_Z   1
loop_
 _symmetry_equiv_pos_site_id
 _symmetry_equiv_pos_as_xyz
  1  'x, y, z'
loop_
 _atom_site_type_symbol
 _atom_site_label
 _atom_site_symmetry_multiplicity
 _atom_site_fract_x
 _atom_site_fract_y
 _atom_site_fract_z
 _atom_site_occupancy
  Tb  Tb0  1  0.253397  0.666789  0.333445  1
  Tb  Tb1  1  0.746603  0.333211  0.666555  1
  As  As2  1  0.500000  0.000000  0.000000  1
  P  P3  1  0.752992  0.882508  0.597192  1
  P  P4  1  0.753026  0.402966  0.285379  1
  P  P5  1  0.753128  0.714704  0.117583  1
  P  P6  1  0.247008  0.117492  0.402808  1
  P  P7  1  0.246974  0.597034  0.714621  1
  P  P8  1  0.246872  0.285296  0.882417  1
  Ru  Ru9  1  0.746159  0.119770  0.847968  1
  Ru  Ru10  1  0.746334  0.152002  0.271641  1
  Ru  Ru11  1  0.746273  0.728259  0.880349  1
  Ru  Ru12  1  0.253841  0.880230  0.152032  1
  Ru  Ru13  1  0.253666  0.847998  0.728359  1
  Ru  Ru14  1  0.253727  0.271741  0.119651  1
  Rh  Rh15  1  0.751981  0.615151  0.550944  1
  Rh  Rh16  1  0.752003  0.449180  0.064328  1
  Rh  Rh17  1  0.752041  0.935812  0.384864  1
  Rh  Rh18  1  0.248019  0.384849  0.449056  1
  Rh  Rh19  1  0.247997  0.550820  0.935672  1
  Rh  Rh20  1  0.247959  0.064188  0.615136  1
