# generated using pymatgen
data_Hf6BiRhPb
_symmetry_space_group_name_H-M   'P 1'
_cell_length_a   8.00442100
_cell_length_b   8.00441945
_cell_length_c   3.57498200
_cell_angle_alpha   90.00000000
_cell_angle_beta   90.00000000
_cell_angle_gamma   119.99999402
_symmetry_Int_Tables_number   1
_chemical_formula_structural   Hf6BiRhPb
_chemical_formula_sum   'Hf6 Bi1 Rh1 Pb1'
_cell_volume   198.36464911
_cell_formula_units_Z   1
loop_
 _symmetry_equiv_pos_site_id
 _symmetry_equiv_pos_as_xyz
  1  'x, y, z'
loop_
 _atom_site_type_symbol
 _atom_site_label
 _atom_site_symmetry_multiplicity
 _atom_site_fract_x
 _atom_site_fract_y
 _atom_site_fract_z
 _atom_site_occupancy
  Hf  Hf0  1  0.610766  0.001491  0.500000  1
  Hf  Hf1  1  0.390725  0.389234  0.500000  1
  Hf  Hf2  1  0.998509  0.609275  0.500000  1
  Hf  Hf3  1  0.246003  0.998505  0.000000  1
  Hf  Hf4  1  0.752503  0.753997  0.000000  1
  Hf  Hf5  1  0.001495  0.247497  0.000000  1
  Bi  Bi6  1  0.666667  0.333333  0.000000  1
  Rh  Rh7  1  0.000000  0.000000  0.500000  1
  Pb  Pb8  1  0.333333  0.666667  0.000000  1
