# generated using pymatgen
data_AlCrAs2(SeO3)8
_symmetry_space_group_name_H-M   'P 1'
_cell_length_a   7.95756364
_cell_length_b   8.02664971
_cell_length_c   7.98538400
_cell_angle_alpha   89.42905641
_cell_angle_beta   89.83340232
_cell_angle_gamma   90.19061383
_symmetry_Int_Tables_number   1
_chemical_formula_structural   AlCrAs2(SeO3)8
_chemical_formula_sum   'Al1 Cr1 As2 Se8 O24'
_cell_volume   510.01669423
_cell_formula_units_Z   1
loop_
 _symmetry_equiv_pos_site_id
 _symmetry_equiv_pos_as_xyz
  1  'x, y, z'
loop_
 _atom_site_type_symbol
 _atom_site_label
 _atom_site_symmetry_multiplicity
 _atom_site_fract_x
 _atom_site_fract_y
 _atom_site_fract_z
 _atom_site_occupancy
  Al  Al0  1  0.000000  0.500000  0.000000  1
  Cr  Cr1  1  0.500000  0.500000  0.500000  1
  As  As2  1  0.000000  0.000000  0.500000  1
  As  As3  1  0.500000  0.000000  0.000000  1
  Se  Se4  1  0.326154  0.672984  0.165799  1
  Se  Se5  1  0.836178  0.326505  0.325199  1
  Se  Se6  1  0.677211  0.834564  0.676689  1
  Se  Se7  1  0.179701  0.173447  0.822095  1
  Se  Se8  1  0.673846  0.327016  0.834201  1
  Se  Se9  1  0.163822  0.673495  0.674801  1
  Se  Se10  1  0.322789  0.165436  0.323311  1
  Se  Se11  1  0.820299  0.826553  0.177905  1
  O  O12  1  0.233812  0.545764  0.023286  1
  O  O13  1  0.747253  0.459198  0.464983  1
  O  O14  1  0.766449  0.988875  0.538620  1
  O  O15  1  0.266551  0.021809  0.963563  1
  O  O16  1  0.535436  0.981811  0.766756  1
  O  O17  1  0.468582  0.540723  0.253879  1
  O  O18  1  0.981877  0.453807  0.233221  1
  O  O19  1  0.035926  0.027310  0.732947  1
  O  O20  1  0.987148  0.228068  0.470394  1
  O  O21  1  0.544797  0.746739  0.538424  1
  O  O22  1  0.475939  0.771471  0.018698  1
  O  O23  1  0.047969  0.264705  0.957701  1
  O  O24  1  0.766188  0.454236  0.976714  1
  O  O25  1  0.252747  0.540802  0.535017  1
  O  O26  1  0.233551  0.011125  0.461380  1
  O  O27  1  0.733449  0.978191  0.036437  1
  O  O28  1  0.464564  0.018189  0.233244  1
  O  O29  1  0.531418  0.459277  0.746121  1
  O  O30  1  0.018123  0.546193  0.766779  1
  O  O31  1  0.964074  0.972690  0.267053  1
  O  O32  1  0.012852  0.771932  0.529606  1
  O  O33  1  0.455203  0.253261  0.461576  1
  O  O34  1  0.524061  0.228529  0.981302  1
  O  O35  1  0.952031  0.735295  0.042299  1
