# generated using pymatgen
data_Y7Tm13(SnPb)8
_symmetry_space_group_name_H-M   'P 1'
_cell_length_a   8.05744632
_cell_length_b   8.11627008
_cell_length_c   15.39312400
_cell_angle_alpha   90.00454624
_cell_angle_beta   90.01626265
_cell_angle_gamma   89.99355350
_symmetry_Int_Tables_number   1
_chemical_formula_structural   Y7Tm13(SnPb)8
_chemical_formula_sum   'Y7 Tm13 Sn8 Pb8'
_cell_volume   1006.65500590
_cell_formula_units_Z   1
loop_
 _symmetry_equiv_pos_site_id
 _symmetry_equiv_pos_as_xyz
  1  'x, y, z'
loop_
 _atom_site_type_symbol
 _atom_site_label
 _atom_site_symmetry_multiplicity
 _atom_site_fract_x
 _atom_site_fract_y
 _atom_site_fract_z
 _atom_site_occupancy
  Y  Y0  1  0.035521  0.176572  0.602692  1
  Y  Y1  1  0.464572  0.676547  0.397427  1
  Y  Y2  1  0.964430  0.823529  0.102622  1
  Y  Y3  1  0.464513  0.676563  0.102551  1
  Y  Y4  1  0.964443  0.823475  0.397365  1
  Y  Y5  1  0.535388  0.323499  0.602583  1
  Y  Y6  1  0.035595  0.176537  0.897335  1
  Tm  Tm7  1  0.378269  0.839568  0.876502  1
  Tm  Tm8  1  0.878202  0.660457  0.623559  1
  Tm  Tm9  1  0.621728  0.160467  0.376432  1
  Tm  Tm10  1  0.121512  0.339402  0.123561  1
  Tm  Tm11  1  0.621519  0.160683  0.123339  1
  Tm  Tm12  1  0.121737  0.339454  0.376410  1
  Tm  Tm13  1  0.378296  0.839580  0.623616  1
  Tm  Tm14  1  0.878196  0.660420  0.876497  1
  Tm  Tm15  1  0.535844  0.323812  0.897096  1
  Tm  Tm16  1  0.209060  0.504637  0.750201  1
  Tm  Tm17  1  0.708640  0.995389  0.750167  1
  Tm  Tm18  1  0.791189  0.495176  0.249947  1
  Tm  Tm19  1  0.291234  0.004826  0.249961  1
  Sn  Sn20  1  0.573910  0.622976  0.750132  1
  Sn  Sn21  1  0.073861  0.876549  0.750038  1
  Sn  Sn22  1  0.426059  0.376595  0.249948  1
  Sn  Sn23  1  0.926072  0.123420  0.249994  1
  Sn  Sn24  1  0.344449  0.149398  0.750637  1
  Sn  Sn25  1  0.843266  0.351297  0.750230  1
  Sn  Sn26  1  0.656361  0.851441  0.249944  1
  Sn  Sn27  1  0.156296  0.648581  0.249976  1
  Pb  Pb28  1  0.283169  0.034312  0.041538  1
  Pb  Pb29  1  0.783324  0.465637  0.458443  1
  Pb  Pb30  1  0.716704  0.965590  0.541447  1
  Pb  Pb31  1  0.217818  0.533415  0.958435  1
  Pb  Pb32  1  0.716155  0.966285  0.958453  1
  Pb  Pb33  1  0.216694  0.534464  0.541427  1
  Pb  Pb34  1  0.283304  0.034338  0.458498  1
  Pb  Pb35  1  0.782673  0.465109  0.040995  1
