# generated using pymatgen
data_TbYb3Ga14(Si2Ir3)2
_symmetry_space_group_name_H-M   'P 1'
_cell_length_a   7.53211710
_cell_length_b   7.48708266
_cell_length_c   9.52059660
_cell_angle_alpha   90.00917200
_cell_angle_beta   89.97715969
_cell_angle_gamma   120.17012647
_symmetry_Int_Tables_number   1
_chemical_formula_structural   TbYb3Ga14(Si2Ir3)2
_chemical_formula_sum   'Tb1 Yb3 Ga14 Si4 Ir6'
_cell_volume   464.17033615
_cell_formula_units_Z   1
loop_
 _symmetry_equiv_pos_site_id
 _symmetry_equiv_pos_as_xyz
  1  'x, y, z'
loop_
 _atom_site_type_symbol
 _atom_site_label
 _atom_site_symmetry_multiplicity
 _atom_site_fract_x
 _atom_site_fract_y
 _atom_site_fract_z
 _atom_site_occupancy
  Tb  Tb0  1  0.000094  0.667094  0.249970  1
  Yb  Yb1  1  0.003393  0.338074  0.749582  1
  Yb  Yb2  1  0.667884  0.001433  0.249980  1
  Yb  Yb3  1  0.327293  0.995932  0.750257  1
  Ga  Ga4  1  0.129418  0.128116  0.249954  1
  Ga  Ga5  1  0.873974  0.870756  0.749952  1
  Ga  Ga6  1  0.997347  0.325557  0.421394  1
  Ga  Ga7  1  0.671106  0.001671  0.581328  1
  Ga  Ga8  1  0.663623  0.999747  0.918797  1
  Ga  Ga9  1  0.340687  0.003602  0.078991  1
  Ga  Ga10  1  0.331666  0.334536  0.569983  1
  Ga  Ga11  1  0.662477  0.670119  0.430093  1
  Ga  Ga12  1  0.661045  0.670227  0.069891  1
  Ga  Ga13  1  0.336571  0.330627  0.929829  1
  Ga  Ga14  1  0.335872  0.546868  0.250283  1
  Ga  Ga15  1  0.664605  0.455295  0.751074  1
  Ga  Ga16  1  0.546822  0.338867  0.249862  1
  Ga  Ga17  1  0.450080  0.662294  0.749114  1
  Si  Si18  1  0.000119  0.327478  0.070137  1
  Si  Si19  1  0.998414  0.670466  0.931551  1
  Si  Si20  1  0.995823  0.661015  0.568223  1
  Si  Si21  1  0.339306  0.004955  0.429608  1
  Ir  Ir22  1  0.695251  0.343161  0.003258  1
  Ir  Ir23  1  0.304144  0.656739  0.998343  1
  Ir  Ir24  1  0.317557  0.680439  0.498739  1
  Ir  Ir25  1  0.671377  0.330604  0.499660  1
  Ir  Ir26  1  0.000586  0.998528  0.001068  1
  Ir  Ir27  1  0.013463  0.985802  0.499083  1
