# generated using pymatgen
data_Nd4GaNi13
_symmetry_space_group_name_H-M   'P 1'
_cell_length_a   5.06659442
_cell_length_b   5.02037700
_cell_length_c   12.66455765
_cell_angle_alpha   78.57124108
_cell_angle_beta   78.46125855
_cell_angle_gamma   59.69499738
_symmetry_Int_Tables_number   1
_chemical_formula_structural   Nd4GaNi13
_chemical_formula_sum   'Nd4 Ga1 Ni13'
_cell_volume   270.69235207
_cell_formula_units_Z   1
loop_
 _symmetry_equiv_pos_site_id
 _symmetry_equiv_pos_as_xyz
  1  'x, y, z'
loop_
 _atom_site_type_symbol
 _atom_site_label
 _atom_site_symmetry_multiplicity
 _atom_site_fract_x
 _atom_site_fract_y
 _atom_site_fract_z
 _atom_site_occupancy
  Nd  Nd0  1  0.947444  0.947076  0.158037  1
  Nd  Nd1  1  0.052556  0.052924  0.841963  1
  Nd  Nd2  1  0.852547  0.853229  0.441677  1
  Nd  Nd3  1  0.147453  0.146771  0.558323  1
  Ga  Ga4  1  0.500000  0.000000  0.000000  1
  Ni  Ni5  1  0.500000  0.500000  0.500000  1
  Ni  Ni6  1  0.723634  0.718352  0.834381  1
  Ni  Ni7  1  0.276366  0.281648  0.165619  1
  Ni  Ni8  1  0.613482  0.608514  0.164521  1
  Ni  Ni9  1  0.386518  0.391486  0.835479  1
  Ni  Ni10  1  0.000000  0.500000  0.000000  1
  Ni  Ni11  1  0.500000  0.500000  0.000000  1
  Ni  Ni12  1  0.391866  0.391850  0.326588  1
  Ni  Ni13  1  0.889695  0.391850  0.326588  1
  Ni  Ni14  1  0.390967  0.891145  0.326920  1
  Ni  Ni15  1  0.608134  0.608150  0.673412  1
  Ni  Ni16  1  0.110305  0.608150  0.673412  1
  Ni  Ni17  1  0.609033  0.108855  0.673080  1
