# generated using pymatgen
data_Dy3ThCdOs
_symmetry_space_group_name_H-M   'P 1'
_cell_length_a   9.73221958
_cell_length_b   9.73221997
_cell_length_c   9.73221600
_cell_angle_alpha   60.00002028
_cell_angle_beta   60.00001896
_cell_angle_gamma   59.99998060
_symmetry_Int_Tables_number   1
_chemical_formula_structural   Dy3ThCdOs
_chemical_formula_sum   'Dy12 Th4 Cd4 Os4'
_cell_volume   651.80940349
_cell_formula_units_Z   4
loop_
 _symmetry_equiv_pos_site_id
 _symmetry_equiv_pos_as_xyz
  1  'x, y, z'
loop_
 _atom_site_type_symbol
 _atom_site_label
 _atom_site_symmetry_multiplicity
 _atom_site_fract_x
 _atom_site_fract_y
 _atom_site_fract_z
 _atom_site_occupancy
  Dy  Dy0  1  0.061493  0.438507  0.438507  1
  Dy  Dy1  1  0.438507  0.061493  0.061493  1
  Dy  Dy2  1  0.438507  0.061493  0.438507  1
  Dy  Dy3  1  0.061493  0.438507  0.061493  1
  Dy  Dy4  1  0.438507  0.438507  0.061493  1
  Dy  Dy5  1  0.061493  0.061493  0.438507  1
  Dy  Dy6  1  0.187328  0.812672  0.812672  1
  Dy  Dy7  1  0.812672  0.187328  0.187328  1
  Dy  Dy8  1  0.812672  0.187328  0.812672  1
  Dy  Dy9  1  0.187328  0.812672  0.187328  1
  Dy  Dy10  1  0.812672  0.812672  0.187328  1
  Dy  Dy11  1  0.187328  0.187328  0.812672  1
  Th  Th12  1  0.597538  0.597538  0.597539  1
  Th  Th13  1  0.597538  0.597538  0.207383  1
  Th  Th14  1  0.597539  0.207383  0.597538  1
  Th  Th15  1  0.207383  0.597539  0.597538  1
  Cd  Cd16  1  0.831192  0.831192  0.831192  1
  Cd  Cd17  1  0.831192  0.831192  0.506424  1
  Cd  Cd18  1  0.831192  0.506424  0.831192  1
  Cd  Cd19  1  0.506424  0.831192  0.831192  1
  Os  Os20  1  0.392231  0.392231  0.392231  1
  Os  Os21  1  0.392231  0.392231  0.823305  1
  Os  Os22  1  0.392231  0.823305  0.392231  1
  Os  Os23  1  0.823305  0.392231  0.392231  1
