# generated using pymatgen
data_Hf16Co4Re3Ir
_symmetry_space_group_name_H-M   'P 1'
_cell_length_a   8.60521505
_cell_length_b   8.60583844
_cell_length_c   8.60584000
_cell_angle_alpha   60.00000170
_cell_angle_beta   59.99760527
_cell_angle_gamma   59.99760566
_symmetry_Int_Tables_number   1
_chemical_formula_structural   Hf16Co4Re3Ir
_chemical_formula_sum   'Hf16 Co4 Re3 Ir1'
_cell_volume   450.62727299
_cell_formula_units_Z   1
loop_
 _symmetry_equiv_pos_site_id
 _symmetry_equiv_pos_as_xyz
  1  'x, y, z'
loop_
 _atom_site_type_symbol
 _atom_site_label
 _atom_site_symmetry_multiplicity
 _atom_site_fract_x
 _atom_site_fract_y
 _atom_site_fract_z
 _atom_site_occupancy
  Hf  Hf0  1  0.696258  0.101247  0.101247  1
  Hf  Hf1  1  0.101519  0.698046  0.100217  1
  Hf  Hf2  1  0.101519  0.100217  0.698046  1
  Hf  Hf3  1  0.101519  0.100217  0.100217  1
  Hf  Hf4  1  0.314844  0.314876  0.685140  1
  Hf  Hf5  1  0.683267  0.687884  0.314424  1
  Hf  Hf6  1  0.314844  0.685140  0.314876  1
  Hf  Hf7  1  0.683267  0.314424  0.687884  1
  Hf  Hf8  1  0.683267  0.314424  0.314424  1
  Hf  Hf9  1  0.314844  0.685140  0.685140  1
  Hf  Hf10  1  0.954147  0.952907  0.546473  1
  Hf  Hf11  1  0.545841  0.545725  0.954217  1
  Hf  Hf12  1  0.954147  0.546473  0.952907  1
  Hf  Hf13  1  0.545841  0.954217  0.545725  1
  Hf  Hf14  1  0.545841  0.954217  0.954217  1
  Hf  Hf15  1  0.954147  0.546473  0.546473  1
  Co  Co16  1  0.329940  0.890020  0.890020  1
  Co  Co17  1  0.890469  0.329897  0.889817  1
  Co  Co18  1  0.890469  0.889817  0.329897  1
  Co  Co19  1  0.890469  0.889817  0.889817  1
  Re  Re20  1  0.334292  0.001027  0.332340  1
  Re  Re21  1  0.334292  0.332340  0.001027  1
  Re  Re22  1  0.334292  0.332340  0.332340  1
  Ir  Ir23  1  0.000665  0.333112  0.333112  1
