# generated using pymatgen
data_La20Sn11Bi5
_symmetry_space_group_name_H-M   'P 1'
_cell_length_a   8.61939962
_cell_length_b   8.61559960
_cell_length_c   16.46863400
_cell_angle_alpha   90.09154720
_cell_angle_beta   90.39188828
_cell_angle_gamma   89.85970204
_symmetry_Int_Tables_number   1
_chemical_formula_structural   La20Sn11Bi5
_chemical_formula_sum   'La20 Sn11 Bi5'
_cell_volume   1222.94830032
_cell_formula_units_Z   1
loop_
 _symmetry_equiv_pos_site_id
 _symmetry_equiv_pos_as_xyz
  1  'x, y, z'
loop_
 _atom_site_type_symbol
 _atom_site_label
 _atom_site_symmetry_multiplicity
 _atom_site_fract_x
 _atom_site_fract_y
 _atom_site_fract_z
 _atom_site_occupancy
  La  La0  1  0.398252  0.835107  0.882094  1
  La  La1  1  0.899001  0.663216  0.618027  1
  La  La2  1  0.600817  0.162769  0.381689  1
  La  La3  1  0.098438  0.335887  0.117253  1
  La  La4  1  0.604324  0.167668  0.118102  1
  La  La5  1  0.108628  0.334636  0.383664  1
  La  La6  1  0.390284  0.835980  0.617142  1
  La  La7  1  0.894508  0.661789  0.883036  1
  La  La8  1  0.555390  0.329531  0.891159  1
  La  La9  1  0.051965  0.176713  0.607107  1
  La  La10  1  0.448411  0.676462  0.393246  1
  La  La11  1  0.947935  0.821912  0.109709  1
  La  La12  1  0.452741  0.671667  0.109040  1
  La  La13  1  0.960076  0.823530  0.393708  1
  La  La14  1  0.539898  0.324250  0.606265  1
  La  La15  1  0.049164  0.177574  0.891102  1
  La  La16  1  0.223322  0.499213  0.745613  1
  La  La17  1  0.723036  0.001985  0.748043  1
  La  La18  1  0.777186  0.500349  0.248565  1
  La  La19  1  0.276879  0.997834  0.253751  1
  Sn  Sn20  1  0.230949  0.522643  0.544641  1
  Sn  Sn21  1  0.269169  0.021481  0.455070  1
  Sn  Sn22  1  0.765325  0.482588  0.045720  1
  Sn  Sn23  1  0.595003  0.622544  0.749597  1
  Sn  Sn24  1  0.094252  0.878866  0.751983  1
  Sn  Sn25  1  0.404062  0.378233  0.249382  1
  Sn  Sn26  1  0.905096  0.120747  0.250568  1
  Sn  Sn27  1  0.350458  0.135540  0.751562  1
  Sn  Sn28  1  0.849980  0.365288  0.749188  1
  Sn  Sn29  1  0.651135  0.864561  0.250775  1
  Sn  Sn30  1  0.150681  0.633104  0.249810  1
  Bi  Bi31  1  0.264783  0.015647  0.045962  1
  Bi  Bi32  1  0.767027  0.479202  0.455503  1
  Bi  Bi33  1  0.732543  0.979800  0.544117  1
  Bi  Bi34  1  0.234455  0.517283  0.953992  1
  Bi  Bi35  1  0.734826  0.984398  0.953809  1
