# generated using pymatgen
data_Ce3Al12Tc2NiRu
_symmetry_space_group_name_H-M   'P 1'
_cell_length_a   8.97164700
_cell_length_b   8.88854744
_cell_length_c   9.54890400
_cell_angle_alpha   90.00000000
_cell_angle_beta   90.00000000
_cell_angle_gamma   120.30973812
_symmetry_Int_Tables_number   1
_chemical_formula_structural   Ce3Al12Tc2NiRu
_chemical_formula_sum   'Ce6 Al24 Tc4 Ni2 Ru2'
_cell_volume   657.39010649
_cell_formula_units_Z   2
loop_
 _symmetry_equiv_pos_site_id
 _symmetry_equiv_pos_as_xyz
  1  'x, y, z'
loop_
 _atom_site_type_symbol
 _atom_site_label
 _atom_site_symmetry_multiplicity
 _atom_site_fract_x
 _atom_site_fract_y
 _atom_site_fract_z
 _atom_site_occupancy
  Ce  Ce0  1  0.803101  0.606203  0.750000  1
  Ce  Ce1  1  0.182047  0.796108  0.250000  1
  Ce  Ce2  1  0.614061  0.796108  0.250000  1
  Ce  Ce3  1  0.385939  0.203892  0.750000  1
  Ce  Ce4  1  0.817953  0.203892  0.750000  1
  Ce  Ce5  1  0.196899  0.393797  0.250000  1
  Al  Al6  1  0.336250  0.672501  0.490454  1
  Al  Al7  1  0.663750  0.327499  0.990454  1
  Al  Al8  1  0.663750  0.327499  0.509546  1
  Al  Al9  1  0.336250  0.672501  0.009546  1
  Al  Al10  1  0.163446  0.326893  0.577763  1
  Al  Al11  1  0.677574  0.840454  0.578459  1
  Al  Al12  1  0.162879  0.840454  0.578459  1
  Al  Al13  1  0.837121  0.159546  0.078459  1
  Al  Al14  1  0.837121  0.159546  0.421541  1
  Al  Al15  1  0.836554  0.673107  0.077763  1
  Al  Al16  1  0.322426  0.159546  0.078459  1
  Al  Al17  1  0.677574  0.840454  0.921541  1
  Al  Al18  1  0.163446  0.326893  0.922237  1
  Al  Al19  1  0.836554  0.673107  0.422237  1
  Al  Al20  1  0.999287  0.998574  0.250000  1
  Al  Al21  1  0.000713  0.001426  0.750000  1
  Al  Al22  1  0.555039  0.110078  0.250000  1
  Al  Al23  1  0.439562  0.569343  0.750000  1
  Al  Al24  1  0.129781  0.569343  0.750000  1
  Al  Al25  1  0.870219  0.430657  0.250000  1
  Al  Al26  1  0.560438  0.430657  0.250000  1
  Al  Al27  1  0.444961  0.889922  0.750000  1
  Al  Al28  1  0.162879  0.840454  0.921541  1
  Al  Al29  1  0.322426  0.159546  0.421541  1
  Tc  Tc30  1  0.500000  0.500000  0.000000  1
  Tc  Tc31  1  0.000000  0.500000  0.000000  1
  Tc  Tc32  1  0.000000  0.500000  0.500000  1
  Tc  Tc33  1  0.500000  0.500000  0.500000  1
  Ni  Ni34  1  0.500000  0.000000  0.500000  1
  Ni  Ni35  1  0.500000  0.000000  0.000000  1
  Ru  Ru36  1  0.000000  0.000000  0.500000  1
  Ru  Ru37  1  0.000000  0.000000  0.000000  1
