# generated using pymatgen
data_CaNdTaMnO6
_symmetry_space_group_name_H-M   'P 1'
_cell_length_a   8.06079544
_cell_length_b   8.06087303
_cell_length_c   9.73401146
_cell_angle_alpha   66.86038451
_cell_angle_beta   66.86106863
_cell_angle_gamma   92.46433656
_symmetry_Int_Tables_number   1
_chemical_formula_structural   CaNdTaMnO6
_chemical_formula_sum   'Ca4 Nd4 Ta4 Mn4 O24'
_cell_volume   520.03561831
_cell_formula_units_Z   4
loop_
 _symmetry_equiv_pos_site_id
 _symmetry_equiv_pos_as_xyz
  1  'x, y, z'
loop_
 _atom_site_type_symbol
 _atom_site_label
 _atom_site_symmetry_multiplicity
 _atom_site_fract_x
 _atom_site_fract_y
 _atom_site_fract_z
 _atom_site_occupancy
  Ca  Ca0  1  0.395663  0.343566  0.249279  1
  Ca  Ca1  1  0.895658  0.843558  0.249289  1
  Ca  Ca2  1  0.093566  0.645659  0.749287  1
  Ca  Ca3  1  0.593565  0.145665  0.749290  1
  Nd  Nd4  1  0.416515  0.853656  0.246201  1
  Nd  Nd5  1  0.916499  0.353660  0.246220  1
  Nd  Nd6  1  0.103659  0.166510  0.746196  1
  Nd  Nd7  1  0.603653  0.666498  0.746212  1
  Ta  Ta8  1  0.747291  0.254367  0.999022  1
  Ta  Ta9  1  0.247312  0.754368  0.999021  1
  Ta  Ta10  1  0.004370  0.997312  0.499026  1
  Ta  Ta11  1  0.504375  0.497298  0.499027  1
  Mn  Mn12  1  0.999058  0.503696  0.499547  1
  Mn  Mn13  1  0.253577  0.249013  0.999551  1
  Mn  Mn14  1  0.499047  0.003656  0.499526  1
  Mn  Mn15  1  0.753674  0.749028  0.999547  1
  O  O16  1  0.336296  0.796805  0.762071  1
  O  O17  1  0.836303  0.296812  0.762070  1
  O  O18  1  0.546811  0.586293  0.262073  1
  O  O19  1  0.046797  0.086293  0.262078  1
  O  O20  1  0.766743  0.986408  0.061151  1
  O  O21  1  0.266731  0.486404  0.061155  1
  O  O22  1  0.236414  0.516739  0.561154  1
  O  O23  1  0.736409  0.016736  0.561154  1
  O  O24  1  0.577668  0.762761  0.449532  1
  O  O25  1  0.077665  0.262765  0.449537  1
  O  O26  1  0.012757  0.327665  0.949533  1
  O  O27  1  0.512764  0.827661  0.949535  1
  O  O28  1  0.482537  0.169746  0.053697  1
  O  O29  1  0.982546  0.669737  0.053707  1
  O  O30  1  0.919739  0.732551  0.553710  1
  O  O31  1  0.419745  0.232546  0.553701  1
  O  O32  1  0.265389  0.969232  0.441547  1
  O  O33  1  0.765397  0.469238  0.441555  1
  O  O34  1  0.719238  0.515385  0.941552  1
  O  O35  1  0.219228  0.015383  0.941547  1
  O  O36  1  0.958750  0.913919  0.737924  1
  O  O37  1  0.458740  0.413917  0.737928  1
  O  O38  1  0.163925  0.708753  0.237922  1
  O  O39  1  0.663926  0.208743  0.237922  1
