# generated using pymatgen
data_PaAgPbS4
_symmetry_space_group_name_H-M   'P 1'
_cell_length_a   8.03024609
_cell_length_b   8.03024627
_cell_length_c   8.03024600
_cell_angle_alpha   119.48051196
_cell_angle_beta   121.01204144
_cell_angle_gamma   89.57912583
_symmetry_Int_Tables_number   1
_chemical_formula_structural   PaAgPbS4
_chemical_formula_sum   'Pa2 Ag2 Pb2 S8'
_cell_volume   364.70465576
_cell_formula_units_Z   2
loop_
 _symmetry_equiv_pos_site_id
 _symmetry_equiv_pos_as_xyz
  1  'x, y, z'
loop_
 _atom_site_type_symbol
 _atom_site_label
 _atom_site_symmetry_multiplicity
 _atom_site_fract_x
 _atom_site_fract_y
 _atom_site_fract_z
 _atom_site_occupancy
  Pa  Pa0  1  0.500000  0.000000  0.000000  1
  Pa  Pa1  1  0.500000  0.500000  0.500000  1
  Ag  Ag2  1  0.867716  0.617716  0.250000  1
  Ag  Ag3  1  0.132284  0.382284  0.750000  1
  Pb  Pb4  1  0.500000  0.000000  0.500000  1
  Pb  Pb5  1  0.000000  0.000000  0.000000  1
  S  S6  1  0.724810  0.715587  0.490778  1
  S  S7  1  0.724810  0.234032  0.009222  1
  S  S8  1  0.721162  0.745384  0.975778  1
  S  S9  1  0.269605  0.745384  0.524222  1
  S  S10  1  0.275190  0.284413  0.509222  1
  S  S11  1  0.275190  0.765968  0.990778  1
  S  S12  1  0.278838  0.254616  0.024222  1
  S  S13  1  0.730395  0.254616  0.475778  1
