# generated using pymatgen
data_Ho10In7Rh4Pb
_symmetry_space_group_name_H-M   'P 1'
_cell_length_a   7.99488798
_cell_length_b   18.27409124
_cell_length_c   3.63888500
_cell_angle_alpha   90.00000000
_cell_angle_beta   90.00000000
_cell_angle_gamma   90.05680468
_symmetry_Int_Tables_number   1
_chemical_formula_structural   Ho10In7Rh4Pb
_chemical_formula_sum   'Ho10 In7 Rh4 Pb1'
_cell_volume   531.63833543
_cell_formula_units_Z   1
loop_
 _symmetry_equiv_pos_site_id
 _symmetry_equiv_pos_as_xyz
  1  'x, y, z'
loop_
 _atom_site_type_symbol
 _atom_site_label
 _atom_site_symmetry_multiplicity
 _atom_site_fract_x
 _atom_site_fract_y
 _atom_site_fract_z
 _atom_site_occupancy
  Ho  Ho0  1  0.499919  0.500068  0.000000  1
  Ho  Ho1  1  0.000139  0.999649  0.000000  1
  Ho  Ho2  1  0.757200  0.278429  0.000000  1
  Ho  Ho3  1  0.242833  0.721628  0.000000  1
  Ho  Ho4  1  0.744273  0.778299  0.000000  1
  Ho  Ho5  1  0.257679  0.222044  0.000000  1
  Ho  Ho6  1  0.622752  0.089320  0.000000  1
  Ho  Ho7  1  0.376039  0.911249  0.000000  1
  Ho  Ho8  1  0.877323  0.588784  0.000000  1
  Ho  Ho9  1  0.122804  0.411115  0.000000  1
  In  In10  1  0.297020  0.067922  0.500000  1
  In  In11  1  0.797372  0.432138  0.500000  1
  In  In12  1  0.202467  0.567444  0.500000  1
  In  In13  1  0.562582  0.650072  0.500000  1
  In  In14  1  0.437767  0.349989  0.500000  1
  In  In15  1  0.937860  0.150389  0.500000  1
  In  In16  1  0.067054  0.849001  0.500000  1
  Rh  Rh17  1  0.533455  0.195081  0.500000  1
  Rh  Rh18  1  0.462045  0.803356  0.500000  1
  Rh  Rh19  1  0.965807  0.695438  0.500000  1
  Rh  Rh20  1  0.032840  0.304829  0.500000  1
  Pb  Pb21  1  0.702771  0.933756  0.500000  1
