# generated using pymatgen
data_Yb4DyU5O18
_symmetry_space_group_name_H-M   'P 1'
_cell_length_a   6.80723063
_cell_length_b   7.46582175
_cell_length_c   8.39353800
_cell_angle_alpha   98.98063881
_cell_angle_beta   98.48729634
_cell_angle_gamma   107.77802721
_symmetry_Int_Tables_number   1
_chemical_formula_structural   Yb4DyU5O18
_chemical_formula_sum   'Yb4 Dy1 U5 O18'
_cell_volume   392.48272491
_cell_formula_units_Z   1
loop_
 _symmetry_equiv_pos_site_id
 _symmetry_equiv_pos_as_xyz
  1  'x, y, z'
loop_
 _atom_site_type_symbol
 _atom_site_label
 _atom_site_symmetry_multiplicity
 _atom_site_fract_x
 _atom_site_fract_y
 _atom_site_fract_z
 _atom_site_occupancy
  Yb  Yb0  1  0.593255  0.697276  0.195544  1
  Yb  Yb1  1  0.406195  0.303481  0.803449  1
  Yb  Yb2  1  0.208377  0.897585  0.419539  1
  Yb  Yb3  1  0.002935  0.510363  0.008221  1
  Dy  Dy4  1  0.796189  0.105923  0.579051  1
  U  U5  1  0.998703  0.997804  0.001163  1
  U  U6  1  0.790519  0.581439  0.591259  1
  U  U7  1  0.625930  0.205774  0.189071  1
  U  U8  1  0.373470  0.793341  0.807606  1
  U  U9  1  0.211436  0.421933  0.409191  1
  O  O10  1  0.818652  0.808179  0.475299  1
  O  O11  1  0.999477  0.255858  0.163306  1
  O  O12  1  0.670238  0.419414  0.060937  1
  O  O13  1  0.474463  0.998753  0.673053  1
  O  O14  1  0.860752  0.337034  0.428848  1
  O  O15  1  0.511036  0.412414  0.343866  1
  O  O16  1  0.255407  0.624872  0.275797  1
  O  O17  1  0.986936  0.829458  0.167536  1
  O  O18  1  0.656512  0.924386  0.007691  1
  O  O19  1  0.340890  0.073242  0.991099  1
  O  O20  1  0.006381  0.158554  0.825872  1
  O  O21  1  0.745872  0.371904  0.723072  1
  O  O22  1  0.490750  0.585803  0.658014  1
  O  O23  1  0.138441  0.663304  0.572418  1
  O  O24  1  0.541971  0.000997  0.325915  1
  O  O25  1  0.325612  0.578899  0.936599  1
  O  O26  1  0.997324  0.742737  0.836649  1
  O  O27  1  0.172278  0.199270  0.529934  1
