# generated using pymatgen
data_TbCe3Ta2(B2Ru5)2
_symmetry_space_group_name_H-M   'P 1'
_cell_length_a   9.75441705
_cell_length_b   9.75441705
_cell_length_c   3.13374000
_cell_angle_alpha   90.00000000
_cell_angle_beta   90.00000000
_cell_angle_gamma   89.98825234
_symmetry_Int_Tables_number   1
_chemical_formula_structural   TbCe3Ta2(B2Ru5)2
_chemical_formula_sum   'Tb1 Ce3 Ta2 B4 Ru10'
_cell_volume   298.17113048
_cell_formula_units_Z   1
loop_
 _symmetry_equiv_pos_site_id
 _symmetry_equiv_pos_as_xyz
  1  'x, y, z'
loop_
 _atom_site_type_symbol
 _atom_site_label
 _atom_site_symmetry_multiplicity
 _atom_site_fract_x
 _atom_site_fract_y
 _atom_site_fract_z
 _atom_site_occupancy
  Tb  Tb0  1  0.824499  0.675501  0.000000  1
  Ce  Ce1  1  0.174561  0.325439  0.000000  1
  Ce  Ce2  1  0.324589  0.824190  0.000000  1
  Ce  Ce3  1  0.675810  0.175411  0.000000  1
  Ta  Ta4  1  0.503087  0.501776  0.000000  1
  Ta  Ta5  1  0.998224  0.996913  0.000000  1
  B  B6  1  0.622846  0.877154  0.000000  1
  B  B7  1  0.379029  0.120971  0.000000  1
  B  B8  1  0.119076  0.620826  0.000000  1
  B  B9  1  0.879174  0.380924  0.000000  1
  Ru  Ru10  1  0.568163  0.719653  0.500000  1
  Ru  Ru11  1  0.428988  0.281681  0.500000  1
  Ru  Ru12  1  0.072287  0.780968  0.500000  1
  Ru  Ru13  1  0.929544  0.218222  0.500000  1
  Ru  Ru14  1  0.281778  0.570456  0.500000  1
  Ru  Ru15  1  0.719032  0.427713  0.500000  1
  Ru  Ru16  1  0.218319  0.071012  0.500000  1
  Ru  Ru17  1  0.780347  0.931837  0.500000  1
  Ru  Ru18  1  0.499533  0.000467  0.500000  1
  Ru  Ru19  1  0.001114  0.498886  0.500000  1
