# generated using pymatgen
data_Sc12Co5Hg
_symmetry_space_group_name_H-M   'P 1'
_cell_length_a   7.72290644
_cell_length_b   7.72290524
_cell_length_c   7.72290462
_cell_angle_alpha   106.23246415
_cell_angle_beta   111.75040825
_cell_angle_gamma   110.48124436
_symmetry_Int_Tables_number   1
_chemical_formula_structural   Sc12Co5Hg
_chemical_formula_sum   'Sc12 Co5 Hg1'
_cell_volume   353.69518377
_cell_formula_units_Z   1
loop_
 _symmetry_equiv_pos_site_id
 _symmetry_equiv_pos_as_xyz
  1  'x, y, z'
loop_
 _atom_site_type_symbol
 _atom_site_label
 _atom_site_symmetry_multiplicity
 _atom_site_fract_x
 _atom_site_fract_y
 _atom_site_fract_z
 _atom_site_occupancy
  Sc  Sc0  1  0.464790  0.280096  0.184694  1
  Sc  Sc1  1  0.095403  0.280096  0.815306  1
  Sc  Sc2  1  0.904597  0.719904  0.184694  1
  Sc  Sc3  1  0.535210  0.719904  0.815306  1
  Sc  Sc4  1  0.302476  0.617438  0.314961  1
  Sc  Sc5  1  0.302476  0.987516  0.685039  1
  Sc  Sc6  1  0.697524  0.382562  0.685039  1
  Sc  Sc7  1  0.697524  0.012484  0.314961  1
  Sc  Sc8  1  0.193474  0.221305  0.414779  1
  Sc  Sc9  1  0.806526  0.778695  0.585221  1
  Sc  Sc10  1  0.193474  0.778695  0.972168  1
  Sc  Sc11  1  0.806526  0.221305  0.027832  1
  Co  Co12  1  0.500000  0.618882  0.118882  1
  Co  Co13  1  0.500000  0.381118  0.881118  1
  Co  Co14  1  0.365192  0.000000  0.365192  1
  Co  Co15  1  0.634808  0.000000  0.634808  1
  Co  Co16  1  0.000000  0.000000  0.000000  1
  Hg  Hg17  1  0.000000  0.500000  0.500000  1
