# generated using pymatgen
data_Ho10SiHgPb6
_symmetry_space_group_name_H-M   'P 1'
_cell_length_a   9.22701700
_cell_length_b   9.22701714
_cell_length_c   6.76378400
_cell_angle_alpha   90.00000000
_cell_angle_beta   90.00000000
_cell_angle_gamma   120.00000307
_symmetry_Int_Tables_number   1
_chemical_formula_structural   Ho10SiHgPb6
_chemical_formula_sum   'Ho10 Si1 Hg1 Pb6'
_cell_volume   498.70416646
_cell_formula_units_Z   1
loop_
 _symmetry_equiv_pos_site_id
 _symmetry_equiv_pos_as_xyz
  1  'x, y, z'
loop_
 _atom_site_type_symbol
 _atom_site_label
 _atom_site_symmetry_multiplicity
 _atom_site_fract_x
 _atom_site_fract_y
 _atom_site_fract_z
 _atom_site_occupancy
  Ho  Ho0  1  0.257626  0.000000  0.723867  1
  Ho  Ho1  1  0.742374  0.000000  0.276133  1
  Ho  Ho2  1  0.000000  0.257626  0.723867  1
  Ho  Ho3  1  0.000000  0.742374  0.276133  1
  Ho  Ho4  1  0.742374  0.742374  0.723867  1
  Ho  Ho5  1  0.257626  0.257626  0.276133  1
  Ho  Ho6  1  0.333333  0.666667  0.500000  1
  Ho  Ho7  1  0.666667  0.333333  0.500000  1
  Ho  Ho8  1  0.666667  0.333333  0.000000  1
  Ho  Ho9  1  0.333333  0.666667  0.000000  1
  Si  Si10  1  0.000000  0.000000  0.500000  1
  Hg  Hg11  1  0.000000  0.000000  0.000000  1
  Pb  Pb12  1  0.608061  0.000000  0.749002  1
  Pb  Pb13  1  0.391939  0.000000  0.250998  1
  Pb  Pb14  1  0.000000  0.608061  0.749002  1
  Pb  Pb15  1  0.000000  0.391939  0.250998  1
  Pb  Pb16  1  0.391939  0.391939  0.749002  1
  Pb  Pb17  1  0.608061  0.608061  0.250998  1
