# generated using pymatgen
data_Yb2Zn14Ru3
_symmetry_space_group_name_H-M   'P 1'
_cell_length_a   6.83920767
_cell_length_b   6.83920775
_cell_length_c   6.83920780
_cell_angle_alpha   98.24054815
_cell_angle_beta   81.75945403
_cell_angle_gamma   98.24055837
_symmetry_Int_Tables_number   1
_chemical_formula_structural   Yb2Zn14Ru3
_chemical_formula_sum   'Yb2 Zn14 Ru3'
_cell_volume   310.85864202
_cell_formula_units_Z   1
loop_
 _symmetry_equiv_pos_site_id
 _symmetry_equiv_pos_as_xyz
  1  'x, y, z'
loop_
 _atom_site_type_symbol
 _atom_site_label
 _atom_site_symmetry_multiplicity
 _atom_site_fract_x
 _atom_site_fract_y
 _atom_site_fract_z
 _atom_site_occupancy
  Yb  Yb0  1  0.326135  0.673865  0.326136  1
  Yb  Yb1  1  0.673865  0.326135  0.673866  1
  Zn  Zn2  1  0.709603  0.709603  0.000000  1
  Zn  Zn3  1  0.290398  0.290398  0.000000  1
  Zn  Zn4  1  0.105908  0.894091  0.105909  1
  Zn  Zn5  1  0.649166  0.350835  0.154036  1
  Zn  Zn6  1  0.000000  0.290397  0.290397  1
  Zn  Zn7  1  0.709601  0.000000  0.290398  1
  Zn  Zn8  1  0.350834  0.154037  0.350835  1
  Zn  Zn9  1  0.845964  0.649166  0.350835  1
  Zn  Zn10  1  0.154036  0.350835  0.649165  1
  Zn  Zn11  1  0.649166  0.845964  0.649165  1
  Zn  Zn12  1  0.290398  0.000000  0.709602  1
  Zn  Zn13  1  0.000000  0.709602  0.709602  1
  Zn  Zn14  1  0.350834  0.649166  0.845964  1
  Zn  Zn15  1  0.894091  0.105908  0.894092  1
  Ru  Ru16  1  0.499999  0.000000  0.000001  1
  Ru  Ru17  1  0.000000  0.500000  0.000000  1
  Ru  Ru18  1  0.000000  0.000000  0.500000  1
