# generated using pymatgen
data_Dy5RuAu2
_symmetry_space_group_name_H-M   'P 1'
_cell_length_a   11.27753000
_cell_length_b   11.27753000
_cell_length_c   6.35546900
_cell_angle_alpha   90.00000000
_cell_angle_beta   90.00000000
_cell_angle_gamma   90.00000000
_symmetry_Int_Tables_number   1
_chemical_formula_structural   Dy5RuAu2
_chemical_formula_sum   'Dy20 Ru4 Au8'
_cell_volume   808.30559851
_cell_formula_units_Z   4
loop_
 _symmetry_equiv_pos_site_id
 _symmetry_equiv_pos_as_xyz
  1  'x, y, z'
loop_
 _atom_site_type_symbol
 _atom_site_label
 _atom_site_symmetry_multiplicity
 _atom_site_fract_x
 _atom_site_fract_y
 _atom_site_fract_z
 _atom_site_occupancy
  Dy  Dy0  1  0.300822  0.083367  0.347926  1
  Dy  Dy1  1  0.300822  0.916633  0.847926  1
  Dy  Dy2  1  0.699178  0.083367  0.847926  1
  Dy  Dy3  1  0.699178  0.916633  0.347926  1
  Dy  Dy4  1  0.583367  0.800822  0.847926  1
  Dy  Dy5  1  0.583367  0.199178  0.347926  1
  Dy  Dy6  1  0.416633  0.800822  0.347926  1
  Dy  Dy7  1  0.416633  0.199178  0.847926  1
  Dy  Dy8  1  0.199178  0.416633  0.652074  1
  Dy  Dy9  1  0.199178  0.583367  0.152074  1
  Dy  Dy10  1  0.800822  0.416633  0.152074  1
  Dy  Dy11  1  0.800822  0.583367  0.652074  1
  Dy  Dy12  1  0.916633  0.699178  0.152074  1
  Dy  Dy13  1  0.916633  0.300822  0.652074  1
  Dy  Dy14  1  0.083367  0.699178  0.652074  1
  Dy  Dy15  1  0.083367  0.300822  0.152074  1
  Dy  Dy16  1  0.000000  0.000000  0.500000  1
  Dy  Dy17  1  0.000000  0.000000  0.000000  1
  Dy  Dy18  1  0.500000  0.500000  0.000000  1
  Dy  Dy19  1  0.500000  0.500000  0.500000  1
  Ru  Ru20  1  0.500000  0.000000  0.097850  1
  Ru  Ru21  1  0.500000  0.000000  0.597850  1
  Ru  Ru22  1  0.000000  0.500000  0.902150  1
  Ru  Ru23  1  0.000000  0.500000  0.402150  1
  Au  Au24  1  0.844411  0.155589  0.250000  1
  Au  Au25  1  0.844411  0.844411  0.750000  1
  Au  Au26  1  0.155589  0.155589  0.750000  1
  Au  Au27  1  0.155589  0.844411  0.250000  1
  Au  Au28  1  0.655589  0.344411  0.750000  1
  Au  Au29  1  0.655589  0.655589  0.250000  1
  Au  Au30  1  0.344411  0.344411  0.250000  1
  Au  Au31  1  0.344411  0.655589  0.750000  1
