# generated using pymatgen
data_Ac3Pr(AgAs2)4
_symmetry_space_group_name_H-M   'P 1'
_cell_length_a   4.16682800
_cell_length_b   4.24427327
_cell_length_c   21.91760233
_cell_angle_alpha   89.83696003
_cell_angle_beta   90.00000000
_cell_angle_gamma   90.00000000
_symmetry_Int_Tables_number   1
_chemical_formula_structural   Ac3Pr(AgAs2)4
_chemical_formula_sum   'Ac3 Pr1 Ag4 As8'
_cell_volume   387.61466219
_cell_formula_units_Z   1
loop_
 _symmetry_equiv_pos_site_id
 _symmetry_equiv_pos_as_xyz
  1  'x, y, z'
loop_
 _atom_site_type_symbol
 _atom_site_label
 _atom_site_symmetry_multiplicity
 _atom_site_fract_x
 _atom_site_fract_y
 _atom_site_fract_z
 _atom_site_occupancy
  Ac  Ac0  1  0.250000  0.779500  0.617368  1
  Ac  Ac1  1  0.750000  0.220809  0.380522  1
  Ac  Ac2  1  0.750000  0.274958  0.886495  1
  Pr  Pr3  1  0.250000  0.726082  0.118426  1
  Ag  Ag4  1  0.250000  0.222824  0.245663  1
  Ag  Ag5  1  0.750000  0.723767  0.245343  1
  Ag  Ag6  1  0.750000  0.777440  0.750905  1
  Ag  Ag7  1  0.250000  0.277007  0.751464  1
  As  As8  1  0.250000  0.776120  0.834695  1
  As  As9  1  0.750000  0.224833  0.161334  1
  As  As10  1  0.750000  0.279770  0.667947  1
  As  As11  1  0.250000  0.720123  0.329145  1
  As  As12  1  0.250000  0.310039  0.501495  1
  As  As13  1  0.250000  0.189501  0.008383  1
  As  As14  1  0.750000  0.807508  0.003798  1
  As  As15  1  0.750000  0.689718  0.497019  1
