# generated using pymatgen
data_Lu4FeSi4Rh
_symmetry_space_group_name_H-M   'P 1'
_cell_length_a   5.53915347
_cell_length_b   5.53915235
_cell_length_c   9.81195900
_cell_angle_alpha   63.62758160
_cell_angle_beta   63.62758443
_cell_angle_gamma   43.93592107
_symmetry_Int_Tables_number   1
_chemical_formula_structural   Lu4FeSi4Rh
_chemical_formula_sum   'Lu4 Fe1 Si4 Rh1'
_cell_volume   183.36573973
_cell_formula_units_Z   1
loop_
 _symmetry_equiv_pos_site_id
 _symmetry_equiv_pos_as_xyz
  1  'x, y, z'
loop_
 _atom_site_type_symbol
 _atom_site_label
 _atom_site_symmetry_multiplicity
 _atom_site_fract_x
 _atom_site_fract_y
 _atom_site_fract_z
 _atom_site_occupancy
  Lu  Lu0  1  0.002584  0.002584  0.324325  1
  Lu  Lu1  1  0.000052  0.000052  0.672685  1
  Lu  Lu2  1  0.813052  0.813052  0.108037  1
  Lu  Lu3  1  0.185873  0.185873  0.890950  1
  Fe  Fe4  1  0.271828  0.271828  0.375074  1
  Si  Si5  1  0.648490  0.648490  0.430857  1
  Si  Si6  1  0.363296  0.363296  0.557615  1
  Si  Si7  1  0.502903  0.502903  0.127450  1
  Si  Si8  1  0.484345  0.484345  0.881961  1
  Rh  Rh9  1  0.727577  0.727577  0.631044  1
