# generated using pymatgen
data_LaNd2(Ga2Ni3)3
_symmetry_space_group_name_H-M   'P 1'
_cell_length_a   8.91654700
_cell_length_b   8.91654656
_cell_length_c   4.14100900
_cell_angle_alpha   90.00000000
_cell_angle_beta   90.00000000
_cell_angle_gamma   119.99999791
_symmetry_Int_Tables_number   1
_chemical_formula_structural   LaNd2(Ga2Ni3)3
_chemical_formula_sum   'La1 Nd2 Ga6 Ni9'
_cell_volume   285.12165299
_cell_formula_units_Z   1
loop_
 _symmetry_equiv_pos_site_id
 _symmetry_equiv_pos_as_xyz
  1  'x, y, z'
loop_
 _atom_site_type_symbol
 _atom_site_label
 _atom_site_symmetry_multiplicity
 _atom_site_fract_x
 _atom_site_fract_y
 _atom_site_fract_z
 _atom_site_occupancy
  La  La0  1  0.333333  0.666667  0.500000  1
  Nd  Nd1  1  0.666667  0.333333  0.500000  1
  Nd  Nd2  1  0.000000  0.000000  0.000000  1
  Ga  Ga3  1  0.477751  0.002665  0.000000  1
  Ga  Ga4  1  0.997335  0.475086  0.000000  1
  Ga  Ga5  1  0.524914  0.522249  0.000000  1
  Ga  Ga6  1  0.729158  0.000957  0.500000  1
  Ga  Ga7  1  0.999043  0.728201  0.500000  1
  Ga  Ga8  1  0.271799  0.270842  0.500000  1
  Ni  Ni9  1  0.200631  0.371212  0.000000  1
  Ni  Ni10  1  0.628788  0.829419  0.000000  1
  Ni  Ni11  1  0.170581  0.799369  0.000000  1
  Ni  Ni12  1  0.829921  0.627455  0.000000  1
  Ni  Ni13  1  0.797534  0.170079  0.000000  1
  Ni  Ni14  1  0.372545  0.202466  0.000000  1
  Ni  Ni15  1  0.289089  0.999934  0.500000  1
  Ni  Ni16  1  0.000066  0.289155  0.500000  1
  Ni  Ni17  1  0.710845  0.710911  0.500000  1
