# generated using pymatgen
data_LuPu4(SiB4)2
_symmetry_space_group_name_H-M   'P 1'
_cell_length_a   7.19172300
_cell_length_b   7.19172300
_cell_length_c   8.06036300
_cell_angle_alpha   90.00000000
_cell_angle_beta   90.00000000
_cell_angle_gamma   90.00000000
_symmetry_Int_Tables_number   1
_chemical_formula_structural   LuPu4(SiB4)2
_chemical_formula_sum   'Lu2 Pu8 Si4 B16'
_cell_volume   416.88906513
_cell_formula_units_Z   2
loop_
 _symmetry_equiv_pos_site_id
 _symmetry_equiv_pos_as_xyz
  1  'x, y, z'
loop_
 _atom_site_type_symbol
 _atom_site_label
 _atom_site_symmetry_multiplicity
 _atom_site_fract_x
 _atom_site_fract_y
 _atom_site_fract_z
 _atom_site_occupancy
  Lu  Lu0  1  0.000000  0.000000  0.500000  1
  Lu  Lu1  1  0.500000  0.500000  0.500000  1
  Pu  Pu2  1  0.681832  0.181832  0.228780  1
  Pu  Pu3  1  0.318168  0.818168  0.771220  1
  Pu  Pu4  1  0.318168  0.818168  0.228780  1
  Pu  Pu5  1  0.818168  0.681832  0.228780  1
  Pu  Pu6  1  0.818168  0.681832  0.771220  1
  Pu  Pu7  1  0.681832  0.181832  0.771220  1
  Pu  Pu8  1  0.181832  0.318168  0.771220  1
  Pu  Pu9  1  0.181832  0.318168  0.228780  1
  Si  Si10  1  0.116001  0.616001  0.500000  1
  Si  Si11  1  0.883999  0.383999  0.500000  1
  Si  Si12  1  0.383999  0.116001  0.500000  1
  Si  Si13  1  0.616001  0.883999  0.500000  1
  B  B14  1  0.173429  0.040717  0.000000  1
  B  B15  1  0.826571  0.959283  0.000000  1
  B  B16  1  0.959283  0.173429  0.000000  1
  B  B17  1  0.326571  0.540717  0.000000  1
  B  B18  1  0.040717  0.826571  0.000000  1
  B  B19  1  0.673429  0.459283  0.000000  1
  B  B20  1  0.540717  0.673429  0.000000  1
  B  B21  1  0.459283  0.326571  0.000000  1
  B  B22  1  0.090280  0.590280  0.000000  1
  B  B23  1  0.909720  0.409720  0.000000  1
  B  B24  1  0.409720  0.090280  0.000000  1
  B  B25  1  0.590280  0.909720  0.000000  1
  B  B26  1  0.000000  0.000000  0.162485  1
  B  B27  1  0.000000  0.000000  0.837515  1
  B  B28  1  0.500000  0.500000  0.837515  1
  B  B29  1  0.500000  0.500000  0.162485  1
