# generated using pymatgen
data_CsSc(CO3)2
_symmetry_space_group_name_H-M   'P 1'
_cell_length_a   7.07837604
_cell_length_b   7.07837550
_cell_length_c   7.07837498
_cell_angle_alpha   43.12919672
_cell_angle_beta   43.12919561
_cell_angle_gamma   43.12919339
_symmetry_Int_Tables_number   1
_chemical_formula_structural   CsSc(CO3)2
_chemical_formula_sum   'Cs1 Sc1 C2 O6'
_cell_volume   150.27900985
_cell_formula_units_Z   1
loop_
 _symmetry_equiv_pos_site_id
 _symmetry_equiv_pos_as_xyz
  1  'x, y, z'
loop_
 _atom_site_type_symbol
 _atom_site_label
 _atom_site_symmetry_multiplicity
 _atom_site_fract_x
 _atom_site_fract_y
 _atom_site_fract_z
 _atom_site_occupancy
  Cs  Cs0  1  0.000000  0.000000  0.000000  1
  Sc  Sc1  1  0.500000  0.500000  0.500000  1
  C  C2  1  0.771233  0.771233  0.771233  1
  C  C3  1  0.228767  0.228767  0.228767  1
  O  O4  1  0.625868  0.056861  0.625868  1
  O  O5  1  0.056861  0.625868  0.625868  1
  O  O6  1  0.374132  0.374132  0.943139  1
  O  O7  1  0.374132  0.943139  0.374132  1
  O  O8  1  0.943139  0.374132  0.374132  1
  O  O9  1  0.625868  0.625868  0.056861  1
