# generated using pymatgen
data_Ru(IF9)2
_symmetry_space_group_name_H-M   'P 1'
_cell_length_a   5.55066992
_cell_length_b   9.34494518
_cell_length_c   9.36278200
_cell_angle_alpha   60.87875380
_cell_angle_beta   85.57361019
_cell_angle_gamma   85.64798714
_symmetry_Int_Tables_number   1
_chemical_formula_structural   Ru(IF9)2
_chemical_formula_sum   'Ru1 I2 F18'
_cell_volume   422.58833351
_cell_formula_units_Z   1
loop_
 _symmetry_equiv_pos_site_id
 _symmetry_equiv_pos_as_xyz
  1  'x, y, z'
loop_
 _atom_site_type_symbol
 _atom_site_label
 _atom_site_symmetry_multiplicity
 _atom_site_fract_x
 _atom_site_fract_y
 _atom_site_fract_z
 _atom_site_occupancy
  Ru  Ru0  1  0.590398  0.331490  0.331368  1
  I  I1  1  0.999432  0.000079  0.999850  1
  I  I2  1  0.410129  0.668534  0.668711  1
  F  F3  1  0.126079  0.897744  0.213141  1
  F  F4  1  0.872398  0.102582  0.786682  1
  F  F5  1  0.870907  0.797161  0.046029  1
  F  F6  1  0.128456  0.203224  0.952976  1
  F  F7  1  0.704668  0.056918  0.084185  1
  F  F8  1  0.294773  0.943043  0.915910  1
  F  F9  1  0.222520  0.584092  0.870774  1
  F  F10  1  0.772904  0.414577  0.133558  1
  F  F11  1  0.597446  0.753415  0.466244  1
  F  F12  1  0.408039  0.248152  0.529215  1
  F  F13  1  0.181652  0.591645  0.581561  1
  F  F14  1  0.812852  0.406046  0.417321  1
  F  F15  1  0.638786  0.744902  0.756374  1
  F  F16  1  0.367992  0.256911  0.245450  1
  F  F17  1  0.229355  0.872995  0.590465  1
  F  F18  1  0.767198  0.131147  0.407686  1
  F  F19  1  0.590461  0.463497  0.747611  1
  F  F20  1  0.413555  0.531847  0.254891  1
