# generated using pymatgen
data_DyTmAl2(Fe3B)2
_symmetry_space_group_name_H-M   'P 1'
_cell_length_a   5.15951600
_cell_length_b   5.16191514
_cell_length_c   6.83486100
_cell_angle_alpha   90.00000000
_cell_angle_beta   90.00000000
_cell_angle_gamma   119.98462649
_symmetry_Int_Tables_number   1
_chemical_formula_structural   DyTmAl2(Fe3B)2
_chemical_formula_sum   'Dy1 Tm1 Al2 Fe6 B2'
_cell_volume   157.66939454
_cell_formula_units_Z   1
loop_
 _symmetry_equiv_pos_site_id
 _symmetry_equiv_pos_as_xyz
  1  'x, y, z'
loop_
 _atom_site_type_symbol
 _atom_site_label
 _atom_site_symmetry_multiplicity
 _atom_site_fract_x
 _atom_site_fract_y
 _atom_site_fract_z
 _atom_site_occupancy
  Dy  Dy0  1  0.999984  0.000000  0.000000  1
  Tm  Tm1  1  0.999985  0.000000  0.500000  1
  Al  Al2  1  0.333237  0.666507  0.000000  1
  Al  Al3  1  0.666731  0.333493  0.000000  1
  Fe  Fe4  1  0.499984  0.000000  0.295082  1
  Fe  Fe5  1  0.499983  0.500000  0.295120  1
  Fe  Fe6  1  0.999983  0.500000  0.295120  1
  Fe  Fe7  1  0.499984  0.000000  0.704918  1
  Fe  Fe8  1  0.499983  0.500000  0.704880  1
  Fe  Fe9  1  0.999983  0.500000  0.704880  1
  B  B10  1  0.333281  0.666597  0.500000  1
  B  B11  1  0.666683  0.333403  0.500000  1
