# generated using pymatgen
data_Sc4Fe4Os3Ru
_symmetry_space_group_name_H-M   'P 1'
_cell_length_a   5.07778093
_cell_length_b   5.07778056
_cell_length_c   8.40017500
_cell_angle_alpha   90.00000000
_cell_angle_beta   90.00000000
_cell_angle_gamma   121.95676669
_symmetry_Int_Tables_number   1
_chemical_formula_structural   Sc4Fe4Os3Ru
_chemical_formula_sum   'Sc4 Fe4 Os3 Ru1'
_cell_volume   183.76436804
_cell_formula_units_Z   1
loop_
 _symmetry_equiv_pos_site_id
 _symmetry_equiv_pos_as_xyz
  1  'x, y, z'
loop_
 _atom_site_type_symbol
 _atom_site_label
 _atom_site_symmetry_multiplicity
 _atom_site_fract_x
 _atom_site_fract_y
 _atom_site_fract_z
 _atom_site_occupancy
  Sc  Sc0  1  0.334767  0.665233  0.435529  1
  Sc  Sc1  1  0.664134  0.335866  0.563822  1
  Sc  Sc2  1  0.664134  0.335866  0.936178  1
  Sc  Sc3  1  0.334767  0.665233  0.064471  1
  Fe  Fe4  1  0.831215  0.659350  0.250000  1
  Fe  Fe5  1  0.340650  0.168785  0.250000  1
  Fe  Fe6  1  0.169357  0.338789  0.750000  1
  Fe  Fe7  1  0.661211  0.830643  0.750000  1
  Os  Os8  1  0.998695  0.001305  0.500960  1
  Os  Os9  1  0.998695  0.001305  0.999040  1
  Os  Os10  1  0.826109  0.173891  0.250000  1
  Ru  Ru11  1  0.176265  0.823735  0.750000  1
