# generated using pymatgen
data_RbV2(SeO3)4
_symmetry_space_group_name_H-M   'P 1'
_cell_length_a   5.33312100
_cell_length_b   10.48310815
_cell_length_c   14.28175225
_cell_angle_alpha   48.38924719
_cell_angle_beta   90.00000000
_cell_angle_gamma   90.00000000
_symmetry_Int_Tables_number   1
_chemical_formula_structural   RbV2(SeO3)4
_chemical_formula_sum   'Rb2 V4 Se8 O24'
_cell_volume   596.98713660
_cell_formula_units_Z   2
loop_
 _symmetry_equiv_pos_site_id
 _symmetry_equiv_pos_as_xyz
  1  'x, y, z'
loop_
 _atom_site_type_symbol
 _atom_site_label
 _atom_site_symmetry_multiplicity
 _atom_site_fract_x
 _atom_site_fract_y
 _atom_site_fract_z
 _atom_site_occupancy
  Rb  Rb0  1  0.061052  0.000000  0.750000  1
  Rb  Rb1  1  0.938948  0.000000  0.250000  1
  V  V2  1  0.000000  0.500000  0.500000  1
  V  V3  1  0.500000  0.000000  0.000000  1
  V  V4  1  0.500000  0.000000  0.500000  1
  V  V5  1  0.000000  0.500000  0.000000  1
  Se  Se6  1  0.493040  0.346882  0.183494  1
  Se  Se7  1  0.006102  0.745125  0.597026  1
  Se  Se8  1  0.006102  0.254875  0.902974  1
  Se  Se9  1  0.993898  0.254875  0.402974  1
  Se  Se10  1  0.506960  0.346882  0.683494  1
  Se  Se11  1  0.506960  0.653118  0.816506  1
  Se  Se12  1  0.493040  0.653118  0.316506  1
  Se  Se13  1  0.993898  0.745125  0.097026  1
  O  O14  1  0.214190  0.694207  0.352478  1
  O  O15  1  0.295564  0.816822  0.031733  1
  O  O16  1  0.785810  0.694207  0.852478  1
  O  O17  1  0.807426  0.912072  0.975139  1
  O  O18  1  0.704436  0.816822  0.531733  1
  O  O19  1  0.307399  0.350275  0.588117  1
  O  O20  1  0.192574  0.087928  0.024861  1
  O  O21  1  0.692601  0.350275  0.088117  1
  O  O22  1  0.785810  0.305793  0.647522  1
  O  O23  1  0.570606  0.137683  0.324618  1
  O  O24  1  0.692601  0.649725  0.411883  1
  O  O25  1  0.295564  0.183178  0.468267  1
  O  O26  1  0.570606  0.862317  0.175382  1
  O  O27  1  0.807426  0.087928  0.524861  1
  O  O28  1  0.429394  0.137683  0.824618  1
  O  O29  1  0.048564  0.412989  0.906725  1
  O  O30  1  0.704436  0.183178  0.968267  1
  O  O31  1  0.951436  0.412989  0.406725  1
  O  O32  1  0.048564  0.587011  0.593275  1
  O  O33  1  0.429394  0.862317  0.675382  1
  O  O34  1  0.307399  0.649725  0.911883  1
  O  O35  1  0.192574  0.912072  0.475139  1
  O  O36  1  0.951436  0.587011  0.093275  1
  O  O37  1  0.214190  0.305793  0.147522  1
