# generated using pymatgen
data_Hf8Ti11Si16Pd
_symmetry_space_group_name_H-M   'P 1'
_cell_length_a   6.59359234
_cell_length_b   6.76632619
_cell_length_c   12.93461700
_cell_angle_alpha   90.00000000
_cell_angle_beta   90.00000000
_cell_angle_gamma   90.16019112
_symmetry_Int_Tables_number   1
_chemical_formula_structural   Hf8Ti11Si16Pd
_chemical_formula_sum   'Hf8 Ti11 Si16 Pd1'
_cell_volume   577.06787628
_cell_formula_units_Z   1
loop_
 _symmetry_equiv_pos_site_id
 _symmetry_equiv_pos_as_xyz
  1  'x, y, z'
loop_
 _atom_site_type_symbol
 _atom_site_label
 _atom_site_symmetry_multiplicity
 _atom_site_fract_x
 _atom_site_fract_y
 _atom_site_fract_z
 _atom_site_occupancy
  Hf  Hf0  1  0.998812  0.173390  0.095431  1
  Hf  Hf1  1  0.003470  0.825410  0.905739  1
  Hf  Hf2  1  0.499677  0.672510  0.907298  1
  Hf  Hf3  1  0.003470  0.825410  0.594261  1
  Hf  Hf4  1  0.500385  0.327720  0.095227  1
  Hf  Hf5  1  0.998812  0.173390  0.404569  1
  Hf  Hf6  1  0.500385  0.327720  0.404773  1
  Hf  Hf7  1  0.499677  0.672510  0.592702  1
  Ti  Ti8  1  0.164242  0.495394  0.750000  1
  Ti  Ti9  1  0.834943  0.504107  0.250000  1
  Ti  Ti10  1  0.334716  0.993318  0.250000  1
  Ti  Ti11  1  0.336637  0.175220  0.625254  1
  Ti  Ti12  1  0.662223  0.826432  0.375001  1
  Ti  Ti13  1  0.163149  0.674275  0.374080  1
  Ti  Ti14  1  0.662223  0.826432  0.124999  1
  Ti  Ti15  1  0.837213  0.328539  0.626054  1
  Ti  Ti16  1  0.336637  0.175220  0.874746  1
  Ti  Ti17  1  0.837213  0.328539  0.873946  1
  Ti  Ti18  1  0.163149  0.674275  0.125920  1
  Si  Si19  1  0.039061  0.116743  0.750000  1
  Si  Si20  1  0.959617  0.881670  0.250000  1
  Si  Si21  1  0.461468  0.616530  0.250000  1
  Si  Si22  1  0.537682  0.391721  0.750000  1
  Si  Si23  1  0.295219  0.864356  0.750000  1
  Si  Si24  1  0.702304  0.134729  0.250000  1
  Si  Si25  1  0.202670  0.363595  0.250000  1
  Si  Si26  1  0.797826  0.634045  0.750000  1
  Si  Si27  1  0.169479  0.462570  0.538301  1
  Si  Si28  1  0.829765  0.537501  0.460740  1
  Si  Si29  1  0.330150  0.963032  0.461818  1
  Si  Si30  1  0.829765  0.537501  0.039260  1
  Si  Si31  1  0.671642  0.041030  0.535753  1
  Si  Si32  1  0.169479  0.462570  0.961699  1
  Si  Si33  1  0.671642  0.041030  0.964247  1
  Si  Si34  1  0.330150  0.963032  0.038182  1
  Pd  Pd35  1  0.665047  0.988533  0.750000  1
