# generated using pymatgen
data_LaTbNd2(MoO6)2
_symmetry_space_group_name_H-M   'P 1'
_cell_length_a   5.54804021
_cell_length_b   10.22945974
_cell_length_c   10.22953312
_cell_angle_alpha   68.62962736
_cell_angle_beta   75.08081487
_cell_angle_gamma   75.08144416
_symmetry_Int_Tables_number   1
_chemical_formula_structural   LaTbNd2(MoO6)2
_chemical_formula_sum   'La2 Tb2 Nd4 Mo4 O24'
_cell_volume   513.70952130
_cell_formula_units_Z   2
loop_
 _symmetry_equiv_pos_site_id
 _symmetry_equiv_pos_as_xyz
  1  'x, y, z'
loop_
 _atom_site_type_symbol
 _atom_site_label
 _atom_site_symmetry_multiplicity
 _atom_site_fract_x
 _atom_site_fract_y
 _atom_site_fract_z
 _atom_site_occupancy
  La  La0  1  0.617330  0.787688  0.551642  1
  La  La1  1  0.117334  0.551639  0.787684  1
  Tb  Tb2  1  0.750121  0.395339  0.602222  1
  Tb  Tb3  1  0.250121  0.602224  0.395338  1
  Nd  Nd4  1  0.378581  0.213641  0.446054  1
  Nd  Nd5  1  0.878581  0.446055  0.213641  1
  Nd  Nd6  1  0.750387  0.864516  0.135321  1
  Nd  Nd7  1  0.250388  0.135320  0.864518  1
  Mo  Mo8  1  0.064946  0.008522  0.295875  1
  Mo  Mo9  1  0.434248  0.702837  0.994685  1
  Mo  Mo10  1  0.934254  0.994686  0.702841  1
  Mo  Mo11  1  0.564957  0.295878  0.008524  1
  O  O12  1  0.926035  0.570095  0.603876  1
  O  O13  1  0.576399  0.392848  0.427825  1
  O  O14  1  0.076399  0.427824  0.392847  1
  O  O15  1  0.426037  0.603875  0.570095  1
  O  O16  1  0.938395  0.808209  0.335510  1
  O  O17  1  0.565928  0.662542  0.193832  1
  O  O18  1  0.065926  0.193830  0.662545  1
  O  O19  1  0.438400  0.335508  0.808209  1
  O  O20  1  0.373370  0.889738  0.326362  1
  O  O21  1  0.125923  0.671285  0.112542  1
  O  O22  1  0.625926  0.112541  0.671286  1
  O  O23  1  0.873378  0.326362  0.889738  1
  O  O24  1  0.635485  0.288330  0.177179  1
  O  O25  1  0.867528  0.825124  0.712246  1
  O  O26  1  0.367530  0.712246  0.825120  1
  O  O27  1  0.135483  0.177173  0.288331  1
  O  O28  1  0.520830  0.115119  0.045537  1
  O  O29  1  0.977976  0.957594  0.884063  1
  O  O30  1  0.765180  0.026104  0.425098  1
  O  O31  1  0.020829  0.045537  0.115114  1
  O  O32  1  0.265187  0.425101  0.026101  1
  O  O33  1  0.231318  0.979476  0.571135  1
  O  O34  1  0.731317  0.571136  0.979474  1
  O  O35  1  0.477978  0.884060  0.957593  1
