# generated using pymatgen
data_Hf16TiCo4Rh3
_symmetry_space_group_name_H-M   'P 1'
_cell_length_a   8.60850021
_cell_length_b   8.58093594
_cell_length_c   8.58093700
_cell_angle_alpha   59.99999975
_cell_angle_beta   60.10586409
_cell_angle_gamma   60.10586546
_symmetry_Int_Tables_number   1
_chemical_formula_structural   Hf16TiCo4Rh3
_chemical_formula_sum   'Hf16 Ti1 Co4 Rh3'
_cell_volume   448.92620061
_cell_formula_units_Z   1
loop_
 _symmetry_equiv_pos_site_id
 _symmetry_equiv_pos_as_xyz
  1  'x, y, z'
loop_
 _atom_site_type_symbol
 _atom_site_label
 _atom_site_symmetry_multiplicity
 _atom_site_fract_x
 _atom_site_fract_y
 _atom_site_fract_z
 _atom_site_occupancy
  Hf  Hf0  1  0.684860  0.105046  0.105046  1
  Hf  Hf1  1  0.097401  0.703119  0.099738  1
  Hf  Hf2  1  0.097401  0.099738  0.703119  1
  Hf  Hf3  1  0.097401  0.099738  0.099738  1
  Hf  Hf4  1  0.313726  0.313614  0.686331  1
  Hf  Hf5  1  0.689692  0.680106  0.315101  1
  Hf  Hf6  1  0.313726  0.686331  0.313614  1
  Hf  Hf7  1  0.689692  0.315101  0.680106  1
  Hf  Hf8  1  0.689692  0.315101  0.315101  1
  Hf  Hf9  1  0.313726  0.686331  0.686331  1
  Hf  Hf10  1  0.939064  0.948794  0.556071  1
  Hf  Hf11  1  0.551937  0.550206  0.948930  1
  Hf  Hf12  1  0.939064  0.556071  0.948794  1
  Hf  Hf13  1  0.551937  0.948930  0.550206  1
  Hf  Hf14  1  0.551937  0.948930  0.948930  1
  Hf  Hf15  1  0.939064  0.556071  0.556071  1
  Ti  Ti16  1  0.036030  0.321323  0.321323  1
  Co  Co17  1  0.329857  0.890048  0.890048  1
  Co  Co18  1  0.889287  0.325807  0.892454  1
  Co  Co19  1  0.889287  0.892454  0.325807  1
  Co  Co20  1  0.889287  0.892454  0.892454  1
  Rh  Rh21  1  0.335310  0.988724  0.337983  1
  Rh  Rh22  1  0.335310  0.337983  0.988724  1
  Rh  Rh23  1  0.335310  0.337983  0.337983  1
