# generated using pymatgen
data_ReTc2(WCl6)3
_symmetry_space_group_name_H-M   'P 1'
_cell_length_a   9.54669686
_cell_length_b   9.56052787
_cell_length_c   9.56052684
_cell_angle_alpha   67.23435264
_cell_angle_beta   66.86036506
_cell_angle_gamma   66.86035562
_symmetry_Int_Tables_number   1
_chemical_formula_structural   ReTc2(WCl6)3
_chemical_formula_sum   'Re1 Tc2 W3 Cl18'
_cell_volume   709.39986405
_cell_formula_units_Z   1
loop_
 _symmetry_equiv_pos_site_id
 _symmetry_equiv_pos_as_xyz
  1  'x, y, z'
loop_
 _atom_site_type_symbol
 _atom_site_label
 _atom_site_symmetry_multiplicity
 _atom_site_fract_x
 _atom_site_fract_y
 _atom_site_fract_z
 _atom_site_occupancy
  Re  Re0  1  0.377274  0.144419  0.144419  1
  Tc  Tc1  1  0.857317  0.622932  0.852697  1
  Tc  Tc2  1  0.857317  0.852697  0.622932  1
  W  W3  1  0.141996  0.387658  0.138619  1
  W  W4  1  0.141996  0.138619  0.387658  1
  W  W5  1  0.619943  0.856561  0.856561  1
  Cl  Cl6  1  0.374162  0.912958  0.370790  1
  Cl  Cl7  1  0.374162  0.370790  0.912958  1
  Cl  Cl8  1  0.915230  0.370743  0.370743  1
  Cl  Cl9  1  0.626406  0.084451  0.629043  1
  Cl  Cl10  1  0.626406  0.629043  0.084451  1
  Cl  Cl11  1  0.086805  0.625011  0.625011  1
  Cl  Cl12  1  0.329005  0.010498  0.010498  1
  Cl  Cl13  1  0.013072  0.329258  0.009469  1
  Cl  Cl14  1  0.013072  0.009469  0.329258  1
  Cl  Cl15  1  0.673933  0.988224  0.988224  1
  Cl  Cl16  1  0.988921  0.673492  0.990337  1
  Cl  Cl17  1  0.988921  0.990337  0.673492  1
  Cl  Cl18  1  0.533273  0.216002  0.216002  1
  Cl  Cl19  1  0.216907  0.540326  0.211034  1
  Cl  Cl20  1  0.216907  0.211034  0.540326  1
  Cl  Cl21  1  0.462215  0.785434  0.785434  1
  Cl  Cl22  1  0.782380  0.468410  0.781635  1
  Cl  Cl23  1  0.782380  0.781635  0.468410  1
