# generated using pymatgen
data_LuTcNi4P3
_symmetry_space_group_name_H-M   'P 1'
_cell_length_a   3.66733900
_cell_length_b   10.48774000
_cell_length_c   11.92146200
_cell_angle_alpha   90.00000000
_cell_angle_beta   90.00000000
_cell_angle_gamma   90.00000000
_symmetry_Int_Tables_number   1
_chemical_formula_structural   LuTcNi4P3
_chemical_formula_sum   'Lu4 Tc4 Ni16 P12'
_cell_volume   458.52443884
_cell_formula_units_Z   4
loop_
 _symmetry_equiv_pos_site_id
 _symmetry_equiv_pos_as_xyz
  1  'x, y, z'
loop_
 _atom_site_type_symbol
 _atom_site_label
 _atom_site_symmetry_multiplicity
 _atom_site_fract_x
 _atom_site_fract_y
 _atom_site_fract_z
 _atom_site_occupancy
  Lu  Lu0  1  0.250000  0.587363  0.706877  1
  Lu  Lu1  1  0.250000  0.912637  0.206877  1
  Lu  Lu2  1  0.750000  0.412637  0.293123  1
  Lu  Lu3  1  0.750000  0.087363  0.793123  1
  Tc  Tc4  1  0.250000  0.714488  0.988538  1
  Tc  Tc5  1  0.250000  0.785512  0.488538  1
  Tc  Tc6  1  0.750000  0.285512  0.011462  1
  Tc  Tc7  1  0.750000  0.214488  0.511462  1
  Ni  Ni8  1  0.250000  0.411937  0.486404  1
  Ni  Ni9  1  0.250000  0.088063  0.986404  1
  Ni  Ni10  1  0.750000  0.588063  0.513596  1
  Ni  Ni11  1  0.750000  0.911937  0.013596  1
  Ni  Ni12  1  0.250000  0.221643  0.181294  1
  Ni  Ni13  1  0.250000  0.278357  0.681294  1
  Ni  Ni14  1  0.750000  0.778357  0.818706  1
  Ni  Ni15  1  0.750000  0.721643  0.318706  1
  Ni  Ni16  1  0.250000  0.888519  0.703542  1
  Ni  Ni17  1  0.250000  0.611481  0.203542  1
  Ni  Ni18  1  0.750000  0.111481  0.296458  1
  Ni  Ni19  1  0.750000  0.388519  0.796458  1
  Ni  Ni20  1  0.250000  0.464897  0.929464  1
  Ni  Ni21  1  0.250000  0.035103  0.429464  1
  Ni  Ni22  1  0.750000  0.535103  0.070536  1
  Ni  Ni23  1  0.750000  0.964897  0.570536  1
  P  P24  1  0.250000  0.417291  0.112938  1
  P  P25  1  0.250000  0.082709  0.612938  1
  P  P26  1  0.750000  0.582709  0.887062  1
  P  P27  1  0.750000  0.917291  0.387062  1
  P  P28  1  0.250000  0.266317  0.870912  1
  P  P29  1  0.250000  0.233683  0.370912  1
  P  P30  1  0.750000  0.733683  0.129088  1
  P  P31  1  0.750000  0.766317  0.629088  1
  P  P32  1  0.250000  0.596002  0.388224  1
  P  P33  1  0.250000  0.903998  0.888224  1
  P  P34  1  0.750000  0.403998  0.611776  1
  P  P35  1  0.750000  0.096002  0.111776  1
