# generated using pymatgen
data_Na2Pr8SnPb7
_symmetry_space_group_name_H-M   'P 1'
_cell_length_a   8.30005600
_cell_length_b   8.57377300
_cell_length_c   16.42273500
_cell_angle_alpha   90.00000000
_cell_angle_beta   90.00000000
_cell_angle_gamma   90.00000000
_symmetry_Int_Tables_number   1
_chemical_formula_structural   Na2Pr8SnPb7
_chemical_formula_sum   'Na4 Pr16 Sn2 Pb14'
_cell_volume   1168.68774108
_cell_formula_units_Z   2
loop_
 _symmetry_equiv_pos_site_id
 _symmetry_equiv_pos_as_xyz
  1  'x, y, z'
loop_
 _atom_site_type_symbol
 _atom_site_label
 _atom_site_symmetry_multiplicity
 _atom_site_fract_x
 _atom_site_fract_y
 _atom_site_fract_z
 _atom_site_occupancy
  Na  Na0  1  0.834736  0.504740  0.750000  1
  Na  Na1  1  0.334736  0.995260  0.750000  1
  Na  Na2  1  0.164206  0.493906  0.250000  1
  Na  Na3  1  0.664206  0.006094  0.250000  1
  Pr  Pr4  1  0.662247  0.172080  0.628252  1
  Pr  Pr5  1  0.162247  0.327920  0.871748  1
  Pr  Pr6  1  0.337831  0.829842  0.125865  1
  Pr  Pr7  1  0.837831  0.670158  0.374135  1
  Pr  Pr8  1  0.337831  0.829842  0.374135  1
  Pr  Pr9  1  0.837831  0.670158  0.125865  1
  Pr  Pr10  1  0.662247  0.172080  0.871748  1
  Pr  Pr11  1  0.162247  0.327920  0.628252  1
  Pr  Pr12  1  0.509634  0.683081  0.598183  1
  Pr  Pr13  1  0.009634  0.816919  0.901817  1
  Pr  Pr14  1  0.490302  0.315034  0.095916  1
  Pr  Pr15  1  0.990302  0.184966  0.404084  1
  Pr  Pr16  1  0.490302  0.315034  0.404084  1
  Pr  Pr17  1  0.990302  0.184966  0.095916  1
  Pr  Pr18  1  0.509634  0.683081  0.901817  1
  Pr  Pr19  1  0.009634  0.816919  0.598183  1
  Sn  Sn20  1  0.468691  0.404263  0.750000  1
  Sn  Sn21  1  0.968691  0.095737  0.750000  1
  Pb  Pb22  1  0.678998  0.962144  0.463170  1
  Pb  Pb23  1  0.178998  0.537856  0.036830  1
  Pb  Pb24  1  0.322329  0.037840  0.961121  1
  Pb  Pb25  1  0.822329  0.462160  0.538879  1
  Pb  Pb26  1  0.322329  0.037840  0.538879  1
  Pb  Pb27  1  0.822329  0.462160  0.961121  1
  Pb  Pb28  1  0.678998  0.962144  0.036830  1
  Pb  Pb29  1  0.178998  0.537856  0.463170  1
  Pb  Pb30  1  0.527227  0.597640  0.250000  1
  Pb  Pb31  1  0.027227  0.902360  0.250000  1
  Pb  Pb32  1  0.705629  0.854756  0.750000  1
  Pb  Pb33  1  0.205629  0.645244  0.750000  1
  Pb  Pb34  1  0.296831  0.146528  0.250000  1
  Pb  Pb35  1  0.796831  0.353472  0.250000  1
