# generated using pymatgen
data_Mn5Cr16(IrC3)2
_symmetry_space_group_name_H-M   'P 1'
_cell_length_a   7.46145561
_cell_length_b   7.48149088
_cell_length_c   7.48149075
_cell_angle_alpha   59.82291220
_cell_angle_beta   60.08853857
_cell_angle_gamma   60.08854651
_symmetry_Int_Tables_number   1
_chemical_formula_structural   Mn5Cr16(IrC3)2
_chemical_formula_sum   'Mn5 Cr16 Ir2 C6'
_cell_volume   295.31032768
_cell_formula_units_Z   1
loop_
 _symmetry_equiv_pos_site_id
 _symmetry_equiv_pos_as_xyz
  1  'x, y, z'
loop_
 _atom_site_type_symbol
 _atom_site_label
 _atom_site_symmetry_multiplicity
 _atom_site_fract_x
 _atom_site_fract_y
 _atom_site_fract_z
 _atom_site_occupancy
  Mn  Mn0  1  0.334843  0.000000  0.000000  1
  Mn  Mn1  1  0.665157  0.000000  0.000000  1
  Mn  Mn2  1  0.000000  0.334843  0.665157  1
  Mn  Mn3  1  0.000000  0.665157  0.334843  1
  Mn  Mn4  1  0.000000  0.000000  0.000000  1
  Cr  Cr5  1  0.000834  0.333549  0.999166  1
  Cr  Cr6  1  0.666451  0.999166  0.333549  1
  Cr  Cr7  1  0.999166  0.666451  0.000834  1
  Cr  Cr8  1  0.333549  0.000834  0.666451  1
  Cr  Cr9  1  0.000834  0.999166  0.333549  1
  Cr  Cr10  1  0.999166  0.000834  0.666451  1
  Cr  Cr11  1  0.666451  0.333549  0.999166  1
  Cr  Cr12  1  0.333549  0.666451  0.000834  1
  Cr  Cr13  1  0.384245  0.385578  0.385578  1
  Cr  Cr14  1  0.615755  0.614422  0.614422  1
  Cr  Cr15  1  0.385578  0.384245  0.844597  1
  Cr  Cr16  1  0.385578  0.844597  0.384245  1
  Cr  Cr17  1  0.614422  0.615755  0.155403  1
  Cr  Cr18  1  0.614422  0.155403  0.615755  1
  Cr  Cr19  1  0.844597  0.385578  0.385578  1
  Cr  Cr20  1  0.155403  0.614422  0.614422  1
  Ir  Ir21  1  0.250000  0.250000  0.250000  1
  Ir  Ir22  1  0.750000  0.750000  0.750000  1
  C  C23  1  0.722432  0.277568  0.277568  1
  C  C24  1  0.277568  0.722432  0.722432  1
  C  C25  1  0.274324  0.725676  0.274324  1
  C  C26  1  0.725676  0.274324  0.725676  1
  C  C27  1  0.274324  0.274324  0.725676  1
  C  C28  1  0.725676  0.725676  0.274324  1
