# generated using pymatgen
data_YEr2Ag(Pt2O7)2
_symmetry_space_group_name_H-M   'P 1'
_cell_length_a   7.31360755
_cell_length_b   7.30982178
_cell_length_c   7.18212424
_cell_angle_alpha   59.34338156
_cell_angle_beta   59.39253971
_cell_angle_gamma   59.98286800
_symmetry_Int_Tables_number   1
_chemical_formula_structural   YEr2Ag(Pt2O7)2
_chemical_formula_sum   'Y1 Er2 Ag1 Pt4 O14'
_cell_volume   268.84710188
_cell_formula_units_Z   1
loop_
 _symmetry_equiv_pos_site_id
 _symmetry_equiv_pos_as_xyz
  1  'x, y, z'
loop_
 _atom_site_type_symbol
 _atom_site_label
 _atom_site_symmetry_multiplicity
 _atom_site_fract_x
 _atom_site_fract_y
 _atom_site_fract_z
 _atom_site_occupancy
  Y  Y0  1  0.625000  0.125000  0.625000  1
  Er  Er1  1  0.625000  0.625000  0.625000  1
  Er  Er2  1  0.125000  0.625000  0.625000  1
  Ag  Ag3  1  0.625000  0.625000  0.125000  1
  Pt  Pt4  1  0.625000  0.125000  0.125000  1
  Pt  Pt5  1  0.125000  0.125000  0.125000  1
  Pt  Pt6  1  0.125000  0.625000  0.125000  1
  Pt  Pt7  1  0.125000  0.125000  0.625000  1
  O  O8  1  0.031188  0.466163  0.471460  1
  O  O9  1  0.792299  0.792001  0.220682  1
  O  O10  1  0.792895  0.195915  0.218297  1
  O  O11  1  0.747429  0.742357  0.762784  1
  O  O12  1  0.054981  0.457999  0.029318  1
  O  O13  1  0.465502  0.030100  0.471260  1
  O  O14  1  0.033138  0.030100  0.471260  1
  O  O15  1  0.502571  0.507643  0.487216  1
  O  O16  1  0.216862  0.219900  0.778740  1
  O  O17  1  0.195019  0.792001  0.220682  1
  O  O18  1  0.784498  0.219900  0.778740  1
  O  O19  1  0.457105  0.054085  0.031703  1
  O  O20  1  0.457701  0.457999  0.029318  1
  O  O21  1  0.218812  0.783837  0.778540  1
