# generated using pymatgen
data_HfZr2(SnIr)3
_symmetry_space_group_name_H-M   'P 1'
_cell_length_a   7.40096710
_cell_length_b   7.40066782
_cell_length_c   7.39062400
_cell_angle_alpha   90.00000000
_cell_angle_beta   90.00000000
_cell_angle_gamma   119.89626374
_symmetry_Int_Tables_number   1
_chemical_formula_structural   HfZr2(SnIr)3
_chemical_formula_sum   'Hf2 Zr4 Sn6 Ir6'
_cell_volume   350.93295272
_cell_formula_units_Z   2
loop_
 _symmetry_equiv_pos_site_id
 _symmetry_equiv_pos_as_xyz
  1  'x, y, z'
loop_
 _atom_site_type_symbol
 _atom_site_label
 _atom_site_symmetry_multiplicity
 _atom_site_fract_x
 _atom_site_fract_y
 _atom_site_fract_z
 _atom_site_occupancy
  Hf  Hf0  1  0.599019  0.615674  0.750000  1
  Hf  Hf1  1  0.015048  0.400227  0.750000  1
  Zr  Zr2  1  0.405633  0.020654  0.250000  1
  Zr  Zr3  1  0.615760  0.593226  0.250000  1
  Zr  Zr4  1  0.978257  0.384641  0.250000  1
  Zr  Zr5  1  0.384231  0.981978  0.750000  1
  Sn  Sn6  1  0.271607  0.269866  0.499990  1
  Sn  Sn7  1  0.271607  0.269866  0.000010  1
  Sn  Sn8  1  0.728736  0.001053  0.001180  1
  Sn  Sn9  1  0.999776  0.729418  0.499549  1
  Sn  Sn10  1  0.728736  0.001053  0.498820  1
  Sn  Sn11  1  0.999776  0.729418  0.000451  1
  Ir  Ir12  1  0.668996  0.336138  0.545933  1
  Ir  Ir13  1  0.668996  0.336138  0.954067  1
  Ir  Ir14  1  0.333388  0.665250  0.029339  1
  Ir  Ir15  1  0.333388  0.665250  0.470661  1
  Ir  Ir16  1  0.997453  0.999892  0.750000  1
  Ir  Ir17  1  0.999591  0.000257  0.250000  1
