# generated using pymatgen
data_CaPr3NdIr2
_symmetry_space_group_name_H-M   'P 1'
_cell_length_a   8.94936778
_cell_length_b   8.94936771
_cell_length_c   7.43761750
_cell_angle_alpha   83.48240753
_cell_angle_beta   83.48240693
_cell_angle_gamma   44.07899981
_symmetry_Int_Tables_number   1
_chemical_formula_structural   CaPr3NdIr2
_chemical_formula_sum   'Ca2 Pr6 Nd2 Ir4'
_cell_volume   411.27103402
_cell_formula_units_Z   2
loop_
 _symmetry_equiv_pos_site_id
 _symmetry_equiv_pos_as_xyz
  1  'x, y, z'
loop_
 _atom_site_type_symbol
 _atom_site_label
 _atom_site_symmetry_multiplicity
 _atom_site_fract_x
 _atom_site_fract_y
 _atom_site_fract_z
 _atom_site_occupancy
  Ca  Ca0  1  0.016709  0.799920  0.916661  1
  Ca  Ca1  1  0.200080  0.983291  0.583339  1
  Pr  Pr2  1  0.981826  0.201200  0.084232  1
  Pr  Pr3  1  0.798800  0.018174  0.415768  1
  Pr  Pr4  1  0.352144  0.213267  0.817598  1
  Pr  Pr5  1  0.786733  0.647856  0.682402  1
  Pr  Pr6  1  0.653722  0.786110  0.183138  1
  Pr  Pr7  1  0.213890  0.346278  0.316862  1
  Nd  Nd8  1  0.561349  0.438651  0.750000  1
  Nd  Nd9  1  0.429779  0.570221  0.250000  1
  Ir  Ir10  1  0.181347  0.588807  0.570060  1
  Ir  Ir11  1  0.411193  0.818653  0.929940  1
  Ir  Ir12  1  0.815403  0.402974  0.425077  1
  Ir  Ir13  1  0.597026  0.184597  0.074923  1
