# generated using pymatgen
data_Zr2Co5P6Ru5
_symmetry_space_group_name_H-M   'P 1'
_cell_length_a   3.74075100
_cell_length_b   10.46530000
_cell_length_c   11.90043800
_cell_angle_alpha   90.00000000
_cell_angle_beta   90.00000000
_cell_angle_gamma   90.00000000
_symmetry_Int_Tables_number   1
_chemical_formula_structural   Zr2Co5P6Ru5
_chemical_formula_sum   'Zr4 Co10 P12 Ru10'
_cell_volume   465.87931600
_cell_formula_units_Z   2
loop_
 _symmetry_equiv_pos_site_id
 _symmetry_equiv_pos_as_xyz
  1  'x, y, z'
loop_
 _atom_site_type_symbol
 _atom_site_label
 _atom_site_symmetry_multiplicity
 _atom_site_fract_x
 _atom_site_fract_y
 _atom_site_fract_z
 _atom_site_occupancy
  Zr  Zr0  1  0.250000  0.586445  0.708890  1
  Zr  Zr1  1  0.250000  0.913555  0.208890  1
  Zr  Zr2  1  0.750000  0.418144  0.293277  1
  Zr  Zr3  1  0.750000  0.081856  0.793277  1
  Co  Co4  1  0.750000  0.773023  0.820536  1
  Co  Co5  1  0.750000  0.726977  0.320536  1
  Co  Co6  1  0.250000  0.880522  0.700864  1
  Co  Co7  1  0.250000  0.619478  0.200864  1
  Co  Co8  1  0.750000  0.106565  0.299659  1
  Co  Co9  1  0.750000  0.393435  0.799659  1
  Co  Co10  1  0.250000  0.463407  0.931326  1
  Co  Co11  1  0.250000  0.036593  0.431326  1
  Co  Co12  1  0.750000  0.538319  0.068485  1
  Co  Co13  1  0.750000  0.961681  0.568485  1
  P  P14  1  0.250000  0.429966  0.114498  1
  P  P15  1  0.250000  0.070034  0.614498  1
  P  P16  1  0.750000  0.578566  0.886695  1
  P  P17  1  0.750000  0.921434  0.386695  1
  P  P18  1  0.250000  0.269688  0.870934  1
  P  P19  1  0.250000  0.230312  0.370934  1
  P  P20  1  0.750000  0.729709  0.136090  1
  P  P21  1  0.750000  0.770291  0.636090  1
  P  P22  1  0.250000  0.600978  0.383465  1
  P  P23  1  0.250000  0.899022  0.883465  1
  P  P24  1  0.750000  0.403403  0.614082  1
  P  P25  1  0.750000  0.096597  0.114082  1
  Ru  Ru26  1  0.250000  0.707640  0.981433  1
  Ru  Ru27  1  0.250000  0.792360  0.481433  1
  Ru  Ru28  1  0.750000  0.289777  0.009600  1
  Ru  Ru29  1  0.750000  0.210223  0.509600  1
  Ru  Ru30  1  0.250000  0.408673  0.482733  1
  Ru  Ru31  1  0.250000  0.091327  0.982733  1
  Ru  Ru32  1  0.750000  0.598223  0.516849  1
  Ru  Ru33  1  0.750000  0.901777  0.016849  1
  Ru  Ru34  1  0.250000  0.226888  0.180583  1
  Ru  Ru35  1  0.250000  0.273112  0.680583  1
