# generated using pymatgen
data_Tb2Y2TmSn4
_symmetry_space_group_name_H-M   'P 1'
_cell_length_a   8.02374900
_cell_length_b   8.18217600
_cell_length_c   15.48198700
_cell_angle_alpha   90.00000000
_cell_angle_beta   90.00000000
_cell_angle_gamma   90.00000000
_symmetry_Int_Tables_number   1
_chemical_formula_structural   Tb2Y2TmSn4
_chemical_formula_sum   'Tb8 Y8 Tm4 Sn16'
_cell_volume   1016.41917617
_cell_formula_units_Z   4
loop_
 _symmetry_equiv_pos_site_id
 _symmetry_equiv_pos_as_xyz
  1  'x, y, z'
loop_
 _atom_site_type_symbol
 _atom_site_label
 _atom_site_symmetry_multiplicity
 _atom_site_fract_x
 _atom_site_fract_y
 _atom_site_fract_z
 _atom_site_occupancy
  Tb  Tb0  1  0.519873  0.320462  0.902627  1
  Tb  Tb1  1  0.019873  0.179538  0.597373  1
  Tb  Tb2  1  0.480127  0.679538  0.402627  1
  Tb  Tb3  1  0.980127  0.820462  0.097373  1
  Tb  Tb4  1  0.480127  0.679538  0.097373  1
  Tb  Tb5  1  0.980127  0.820462  0.402627  1
  Tb  Tb6  1  0.519873  0.320462  0.597373  1
  Tb  Tb7  1  0.019873  0.179538  0.902627  1
  Y  Y8  1  0.366876  0.837143  0.877891  1
  Y  Y9  1  0.866876  0.662857  0.622109  1
  Y  Y10  1  0.633124  0.162857  0.377891  1
  Y  Y11  1  0.133124  0.337143  0.122109  1
  Y  Y12  1  0.633124  0.162857  0.122109  1
  Y  Y13  1  0.133124  0.337143  0.377891  1
  Y  Y14  1  0.366876  0.837143  0.622109  1
  Y  Y15  1  0.866876  0.662857  0.877891  1
  Tm  Tm16  1  0.198315  0.502700  0.750000  1
  Tm  Tm17  1  0.698315  0.997300  0.750000  1
  Tm  Tm18  1  0.801685  0.497300  0.250000  1
  Tm  Tm19  1  0.301685  0.002700  0.250000  1
  Sn  Sn20  1  0.293121  0.035864  0.042550  1
  Sn  Sn21  1  0.793121  0.464136  0.457450  1
  Sn  Sn22  1  0.706879  0.964136  0.542550  1
  Sn  Sn23  1  0.206879  0.535864  0.957450  1
  Sn  Sn24  1  0.706879  0.964136  0.957450  1
  Sn  Sn25  1  0.206879  0.535864  0.542550  1
  Sn  Sn26  1  0.293121  0.035864  0.457450  1
  Sn  Sn27  1  0.793121  0.464136  0.042550  1
  Sn  Sn28  1  0.563782  0.618360  0.750000  1
  Sn  Sn29  1  0.063782  0.881640  0.750000  1
  Sn  Sn30  1  0.436218  0.381640  0.250000  1
  Sn  Sn31  1  0.936218  0.118360  0.250000  1
  Sn  Sn32  1  0.328922  0.148347  0.750000  1
  Sn  Sn33  1  0.828922  0.351653  0.750000  1
  Sn  Sn34  1  0.671078  0.851653  0.250000  1
  Sn  Sn35  1  0.171078  0.648347  0.250000  1
