# generated using pymatgen
data_Lu2USn3Ir2Ru
_symmetry_space_group_name_H-M   'P 1'
_cell_length_a   7.56835600
_cell_length_b   7.50254756
_cell_length_c   3.80425200
_cell_angle_alpha   90.00000000
_cell_angle_beta   90.00000000
_cell_angle_gamma   120.29157819
_symmetry_Int_Tables_number   1
_chemical_formula_structural   Lu2USn3Ir2Ru
_chemical_formula_sum   'Lu2 U1 Sn3 Ir2 Ru1'
_cell_volume   186.52055110
_cell_formula_units_Z   1
loop_
 _symmetry_equiv_pos_site_id
 _symmetry_equiv_pos_as_xyz
  1  'x, y, z'
loop_
 _atom_site_type_symbol
 _atom_site_label
 _atom_site_symmetry_multiplicity
 _atom_site_fract_x
 _atom_site_fract_y
 _atom_site_fract_z
 _atom_site_occupancy
  Lu  Lu0  1  0.998391  0.403594  0.500000  1
  Lu  Lu1  1  0.594800  0.596406  0.500000  1
  U  U2  1  0.410183  0.000002  0.500000  1
  Sn  Sn3  1  0.984056  0.723666  0.000000  1
  Sn  Sn4  1  0.260389  0.276333  0.000000  1
  Sn  Sn5  1  0.755260  0.999999  0.000000  1
  Ir  Ir6  1  0.337310  0.695190  0.000000  1
  Ir  Ir7  1  0.642123  0.304811  0.000000  1
  Ru  Ru8  1  0.017488  0.999998  0.500000  1
