# generated using pymatgen
data_CaMn2Be8Cd(PO4)8
_symmetry_space_group_name_H-M   'P 1'
_cell_length_a   8.20027614
_cell_length_b   8.62439684
_cell_length_c   7.66799200
_cell_angle_alpha   90.08441175
_cell_angle_beta   89.54891108
_cell_angle_gamma   90.01973733
_symmetry_Int_Tables_number   1
_chemical_formula_structural   CaMn2Be8Cd(PO4)8
_chemical_formula_sum   'Ca1 Mn2 Be8 Cd1 P8 O32'
_cell_volume   542.28164517
_cell_formula_units_Z   1
loop_
 _symmetry_equiv_pos_site_id
 _symmetry_equiv_pos_as_xyz
  1  'x, y, z'
loop_
 _atom_site_type_symbol
 _atom_site_label
 _atom_site_symmetry_multiplicity
 _atom_site_fract_x
 _atom_site_fract_y
 _atom_site_fract_z
 _atom_site_occupancy
  Ca  Ca0  1  0.380285  0.086008  0.755637  1
  Mn  Mn1  1  0.114424  0.586150  0.242579  1
  Mn  Mn2  1  0.885911  0.413853  0.757946  1
  Be  Be3  1  0.740026  0.575766  0.069533  1
  Be  Be4  1  0.235842  0.921740  0.070122  1
  Be  Be5  1  0.550161  0.305173  0.430228  1
  Be  Be6  1  0.047930  0.197876  0.428791  1
  Be  Be7  1  0.449811  0.694596  0.569904  1
  Be  Be8  1  0.953338  0.801651  0.570991  1
  Be  Be9  1  0.763809  0.078303  0.929374  1
  Be  Be10  1  0.259769  0.425275  0.931315  1
  Cd  Cd11  1  0.617332  0.913151  0.244803  1
  P  P12  1  0.554152  0.303523  0.059275  1
  P  P13  1  0.051065  0.201407  0.062139  1
  P  P14  1  0.240614  0.917127  0.437789  1
  P  P15  1  0.745634  0.578343  0.442220  1
  P  P16  1  0.760929  0.081456  0.561541  1
  P  P17  1  0.255263  0.421976  0.557336  1
  P  P18  1  0.444598  0.697185  0.941094  1
  P  P19  1  0.948435  0.799026  0.938676  1
  O  O20  1  0.814060  0.911952  0.004396  1
  O  O21  1  0.308412  0.588989  0.012558  1
  O  O22  1  0.617561  0.133486  0.058469  1
  O  O23  1  0.117969  0.370161  0.065436  1
  O  O24  1  0.085427  0.800461  0.076710  1
  O  O25  1  0.586546  0.692884  0.073710  1
  O  O26  1  0.986091  0.152899  0.240024  1
  O  O27  1  0.496927  0.352687  0.239895  1
  O  O28  1  0.830420  0.572156  0.259596  1
  O  O29  1  0.324674  0.927007  0.256498  1
  O  O30  1  0.604007  0.695624  0.434042  1
  O  O31  1  0.100461  0.798353  0.427238  1
  O  O32  1  0.624661  0.129511  0.432586  1
  O  O33  1  0.121963  0.373629  0.425633  1
  O  O34  1  0.822005  0.924703  0.493158  1
  O  O35  1  0.314224  0.578833  0.488622  1
  O  O36  1  0.685585  0.421771  0.511227  1
  O  O37  1  0.180757  0.074619  0.506122  1
  O  O38  1  0.374909  0.868302  0.567189  1
  O  O39  1  0.878949  0.626093  0.574213  1
  O  O40  1  0.396702  0.305464  0.565905  1
  O  O41  1  0.900113  0.201514  0.571701  1
  O  O42  1  0.170105  0.427125  0.740266  1
  O  O43  1  0.676700  0.071824  0.742257  1
  O  O44  1  0.013658  0.847707  0.760574  1
  O  O45  1  0.502929  0.646390  0.761176  1
  O  O46  1  0.914137  0.199868  0.923752  1
  O  O47  1  0.413126  0.309858  0.927294  1
  O  O48  1  0.379383  0.865607  0.938352  1
  O  O49  1  0.881195  0.630504  0.934606  1
  O  O50  1  0.185618  0.089032  0.996214  1
  O  O51  1  0.691407  0.411403  0.989296  1
