# generated using pymatgen
data_Tm3AgSn3RuRh
_symmetry_space_group_name_H-M   'P 1'
_cell_length_a   7.82954400
_cell_length_b   7.82954450
_cell_length_c   3.61713100
_cell_angle_alpha   90.00000000
_cell_angle_beta   90.00000000
_cell_angle_gamma   119.99999903
_symmetry_Int_Tables_number   1
_chemical_formula_structural   Tm3AgSn3RuRh
_chemical_formula_sum   'Tm3 Ag1 Sn3 Ru1 Rh1'
_cell_volume   192.02945056
_cell_formula_units_Z   1
loop_
 _symmetry_equiv_pos_site_id
 _symmetry_equiv_pos_as_xyz
  1  'x, y, z'
loop_
 _atom_site_type_symbol
 _atom_site_label
 _atom_site_symmetry_multiplicity
 _atom_site_fract_x
 _atom_site_fract_y
 _atom_site_fract_z
 _atom_site_occupancy
  Tm  Tm0  1  0.023954  0.404356  0.000000  1
  Tm  Tm1  1  0.595644  0.619599  0.000000  1
  Tm  Tm2  1  0.380401  0.976046  0.000000  1
  Ag  Ag3  1  0.666667  0.333333  0.500000  1
  Sn  Sn4  1  0.270387  0.264690  0.500000  1
  Sn  Sn5  1  0.994303  0.729613  0.500000  1
  Sn  Sn6  1  0.735310  0.005697  0.500000  1
  Ru  Ru7  1  0.000000  0.000000  0.000000  1
  Rh  Rh8  1  0.333333  0.666667  0.500000  1
