# generated using pymatgen
data_Tb9HoTlCd3(InPd)4
_symmetry_space_group_name_H-M   'P 1'
_cell_length_a   3.63444400
_cell_length_b   8.12615919
_cell_length_c   18.42191600
_cell_angle_alpha   90.01239528
_cell_angle_beta   90.00000000
_cell_angle_gamma   90.00000000
_symmetry_Int_Tables_number   1
_chemical_formula_structural   Tb9HoTlCd3(InPd)4
_chemical_formula_sum   'Tb9 Ho1 Tl1 Cd3 In4 Pd4'
_cell_volume   544.07415337
_cell_formula_units_Z   1
loop_
 _symmetry_equiv_pos_site_id
 _symmetry_equiv_pos_as_xyz
  1  'x, y, z'
loop_
 _atom_site_type_symbol
 _atom_site_label
 _atom_site_symmetry_multiplicity
 _atom_site_fract_x
 _atom_site_fract_y
 _atom_site_fract_z
 _atom_site_occupancy
  Tb  Tb0  1  0.000000  0.499719  0.499878  1
  Tb  Tb1  1  0.000000  0.001125  0.000587  1
  Tb  Tb2  1  0.000000  0.742813  0.281238  1
  Tb  Tb3  1  0.000000  0.256864  0.718633  1
  Tb  Tb4  1  0.000000  0.758953  0.780004  1
  Tb  Tb5  1  0.000000  0.242318  0.219079  1
  Tb  Tb6  1  0.000000  0.613005  0.084860  1
  Tb  Tb7  1  0.000000  0.384126  0.915945  1
  Tb  Tb8  1  0.000000  0.887121  0.583256  1
  Ho  Ho9  1  0.000000  0.112464  0.415767  1
  Tl  Tl10  1  0.500000  0.710559  0.932191  1
  Cd  Cd11  1  0.500000  0.287806  0.068736  1
  Cd  Cd12  1  0.500000  0.789942  0.431665  1
  Cd  Cd13  1  0.500000  0.210847  0.567979  1
  In  In14  1  0.500000  0.575758  0.648037  1
  In  In15  1  0.500000  0.423521  0.352333  1
  In  In16  1  0.500000  0.925033  0.148699  1
  In  In17  1  0.500000  0.079714  0.850961  1
  Pd  Pd18  1  0.500000  0.524475  0.196870  1
  Pd  Pd19  1  0.500000  0.473924  0.802620  1
  Pd  Pd20  1  0.500000  0.975344  0.696870  1
  Pd  Pd21  1  0.500000  0.024570  0.303791  1
