# generated using pymatgen
data_CaSm7(Si4Mo3)4
_symmetry_space_group_name_H-M   'P 1'
_cell_length_a   6.84652347
_cell_length_b   7.02116590
_cell_length_c   13.03395960
_cell_angle_alpha   89.99636220
_cell_angle_beta   89.93835296
_cell_angle_gamma   90.05350889
_symmetry_Int_Tables_number   1
_chemical_formula_structural   CaSm7(Si4Mo3)4
_chemical_formula_sum   'Ca1 Sm7 Si16 Mo12'
_cell_volume   626.54932357
_cell_formula_units_Z   1
loop_
 _symmetry_equiv_pos_site_id
 _symmetry_equiv_pos_as_xyz
  1  'x, y, z'
loop_
 _atom_site_type_symbol
 _atom_site_label
 _atom_site_symmetry_multiplicity
 _atom_site_fract_x
 _atom_site_fract_y
 _atom_site_fract_z
 _atom_site_occupancy
  Ca  Ca0  1  0.996728  0.165403  0.092564  1
  Sm  Sm1  1  0.498214  0.334043  0.094644  1
  Sm  Sm2  1  0.997822  0.166017  0.405493  1
  Sm  Sm3  1  0.503165  0.665627  0.594195  1
  Sm  Sm4  1  0.001897  0.835218  0.907520  1
  Sm  Sm5  1  0.502296  0.665394  0.906760  1
  Sm  Sm6  1  0.002928  0.834696  0.594314  1
  Sm  Sm7  1  0.497545  0.334105  0.404495  1
  Si  Si8  1  0.657214  0.045648  0.547630  1
  Si  Si9  1  0.155412  0.453872  0.952201  1
  Si  Si10  1  0.341909  0.956632  0.048989  1
  Si  Si11  1  0.843135  0.545529  0.452073  1
  Si  Si12  1  0.342884  0.954308  0.451666  1
  Si  Si13  1  0.845003  0.541690  0.049157  1
  Si  Si14  1  0.656144  0.045358  0.952767  1
  Si  Si15  1  0.157124  0.454752  0.547523  1
  Si  Si16  1  0.535299  0.361209  0.750379  1
  Si  Si17  1  0.035351  0.138968  0.750782  1
  Si  Si18  1  0.464547  0.638909  0.249941  1
  Si  Si19  1  0.965120  0.863309  0.248969  1
  Si  Si20  1  0.806339  0.623471  0.750658  1
  Si  Si21  1  0.305140  0.876139  0.750473  1
  Si  Si22  1  0.191691  0.375134  0.248198  1
  Si  Si23  1  0.697243  0.122892  0.248000  1
  Mo  Mo24  1  0.830827  0.335508  0.626156  1
  Mo  Mo25  1  0.331238  0.164033  0.874074  1
  Mo  Mo26  1  0.169188  0.666384  0.126982  1
  Mo  Mo27  1  0.669399  0.835854  0.372943  1
  Mo  Mo28  1  0.169024  0.664303  0.373823  1
  Mo  Mo29  1  0.668815  0.833409  0.125669  1
  Mo  Mo30  1  0.830013  0.335563  0.873561  1
  Mo  Mo31  1  0.331083  0.164479  0.626213  1
  Mo  Mo32  1  0.665165  0.003046  0.750007  1
  Mo  Mo33  1  0.165579  0.496889  0.750150  1
  Mo  Mo34  1  0.334819  0.996948  0.250314  1
  Mo  Mo35  1  0.834696  0.505259  0.250725  1
