# generated using pymatgen
data_TbHo4Er7Ni4
_symmetry_space_group_name_H-M   'P 1'
_cell_length_a   6.30951249
_cell_length_b   6.78686045
_cell_length_c   9.48747845
_cell_angle_alpha   89.99163846
_cell_angle_beta   90.02669126
_cell_angle_gamma   89.97581659
_symmetry_Int_Tables_number   1
_chemical_formula_structural   TbHo4Er7Ni4
_chemical_formula_sum   'Tb1 Ho4 Er7 Ni4'
_cell_volume   406.27063799
_cell_formula_units_Z   1
loop_
 _symmetry_equiv_pos_site_id
 _symmetry_equiv_pos_as_xyz
  1  'x, y, z'
loop_
 _atom_site_type_symbol
 _atom_site_label
 _atom_site_symmetry_multiplicity
 _atom_site_fract_x
 _atom_site_fract_y
 _atom_site_fract_z
 _atom_site_occupancy
  Tb  Tb0  1  0.361755  0.968869  0.749916  1
  Ho  Ho1  1  0.320268  0.677615  0.065998  1
  Ho  Ho2  1  0.861029  0.532069  0.250341  1
  Ho  Ho3  1  0.639315  0.032162  0.250061  1
  Ho  Ho4  1  0.138391  0.467661  0.749733  1
  Er  Er5  1  0.179129  0.178395  0.433820  1
  Er  Er6  1  0.679457  0.322119  0.565686  1
  Er  Er7  1  0.821296  0.821628  0.934088  1
  Er  Er8  1  0.679776  0.322302  0.934121  1
  Er  Er9  1  0.821179  0.821679  0.565582  1
  Er  Er10  1  0.320578  0.677628  0.434029  1
  Er  Er11  1  0.178779  0.178384  0.066281  1
  Ni  Ni12  1  0.054138  0.891646  0.250388  1
  Ni  Ni13  1  0.445331  0.391236  0.250469  1
  Ni  Ni14  1  0.944282  0.109315  0.750059  1
  Ni  Ni15  1  0.555299  0.607292  0.749431  1
