# generated using pymatgen
data_Sm3DyOsI4
_symmetry_space_group_name_H-M   'P 1'
_cell_length_a   11.81922453
_cell_length_b   11.76066201
_cell_length_c   6.29431604
_cell_angle_alpha   90.04421609
_cell_angle_beta   89.96863313
_cell_angle_gamma   89.96356883
_symmetry_Int_Tables_number   1
_chemical_formula_structural   Sm3DyOsI4
_chemical_formula_sum   'Sm6 Dy2 Os2 I8'
_cell_volume   874.92135006
_cell_formula_units_Z   2
loop_
 _symmetry_equiv_pos_site_id
 _symmetry_equiv_pos_as_xyz
  1  'x, y, z'
loop_
 _atom_site_type_symbol
 _atom_site_label
 _atom_site_symmetry_multiplicity
 _atom_site_fract_x
 _atom_site_fract_y
 _atom_site_fract_z
 _atom_site_occupancy
  Sm  Sm0  1  0.804197  0.079782  0.000531  1
  Sm  Sm1  1  0.081510  0.804666  0.499867  1
  Sm  Sm2  1  0.079384  0.195749  0.000021  1
  Sm  Sm3  1  0.195915  0.079833  0.499685  1
  Sm  Sm4  1  0.918478  0.804625  0.999145  1
  Sm  Sm5  1  0.920708  0.195681  0.499140  1
  Dy  Dy6  1  0.187769  0.921662  0.997967  1
  Dy  Dy7  1  0.812261  0.921659  0.499003  1
  Os  Os8  1  0.000150  0.000179  0.249514  1
  Os  Os9  1  0.999953  0.000292  0.749496  1
  I  I10  1  0.655200  0.138282  0.492499  1
  I  I11  1  0.853018  0.657001  0.504760  1
  I  I12  1  0.344674  0.138671  0.995346  1
  I  I13  1  0.145242  0.347257  0.494806  1
  I  I14  1  0.653759  0.855200  0.007068  1
  I  I15  1  0.346273  0.855304  0.510801  1
  I  I16  1  0.146556  0.656821  0.992193  1
  I  I17  1  0.854954  0.347338  0.008159  1
