# generated using pymatgen
data_K11Li(CoO4)4
_symmetry_space_group_name_H-M   'P 1'
_cell_length_a   7.92011532
_cell_length_b   7.92008290
_cell_length_c   10.48046833
_cell_angle_alpha   112.20353275
_cell_angle_beta   112.20429806
_cell_angle_gamma   90.00073413
_symmetry_Int_Tables_number   1
_chemical_formula_structural   K11Li(CoO4)4
_chemical_formula_sum   'K11 Li1 Co4 O16'
_cell_volume   555.65414205
_cell_formula_units_Z   1
loop_
 _symmetry_equiv_pos_site_id
 _symmetry_equiv_pos_as_xyz
  1  'x, y, z'
loop_
 _atom_site_type_symbol
 _atom_site_label
 _atom_site_symmetry_multiplicity
 _atom_site_fract_x
 _atom_site_fract_y
 _atom_site_fract_z
 _atom_site_occupancy
  K  K0  1  0.291730  0.291732  0.583451  1
  K  K1  1  0.499999  0.999997  0.000001  1
  K  K2  1  0.249998  0.749999  0.500000  1
  K  K3  1  0.927985  0.927983  0.244202  1
  K  K4  1  0.072010  0.683798  0.755764  1
  K  K5  1  0.708261  0.708263  0.416550  1
  K  K6  1  0.999999  0.500002  0.000002  1
  K  K7  1  0.683798  0.072009  0.755765  1
  K  K8  1  0.316203  0.316205  0.244284  1
  K  K9  1  0.750000  0.250000  0.500000  1
  K  K10  1  0.500002  0.500003  0.000001  1
  Li  Li11  1  0.000009  0.000009  0.000011  1
  Co  Co12  1  0.867002  0.379779  0.246771  1
  Co  Co13  1  0.133020  0.133020  0.753245  1
  Co  Co14  1  0.620223  0.620224  0.753245  1
  Co  Co15  1  0.379782  0.867001  0.246774  1
  O  O16  1  0.411070  0.013617  0.424666  1
  O  O17  1  0.796784  0.796784  0.885867  1
  O  O18  1  0.646604  0.335407  0.227703  1
  O  O19  1  0.335409  0.646603  0.227703  1
  O  O20  1  0.013618  0.411070  0.424667  1
  O  O21  1  0.581123  0.892296  0.227707  1
  O  O22  1  0.353411  0.107692  0.772290  1
  O  O23  1  0.203216  0.910932  0.114135  1
  O  O24  1  0.588922  0.588923  0.575317  1
  O  O25  1  0.089071  0.089070  0.885855  1
  O  O26  1  0.664589  0.418878  0.772288  1
  O  O27  1  0.986364  0.986365  0.575314  1
  O  O28  1  0.892298  0.581123  0.227709  1
  O  O29  1  0.910933  0.203215  0.114133  1
  O  O30  1  0.107691  0.353412  0.772290  1
  O  O31  1  0.418877  0.664588  0.772288  1
