# generated using pymatgen
data_Ce4Fe5Si10Os
_symmetry_space_group_name_H-M   'P 1'
_cell_length_a   8.00093950
_cell_length_b   8.00093834
_cell_length_c   5.62406660
_cell_angle_alpha   70.26220373
_cell_angle_beta   70.26220595
_cell_angle_gamma   93.73080758
_symmetry_Int_Tables_number   1
_chemical_formula_structural   Ce4Fe5Si10Os
_chemical_formula_sum   'Ce4 Fe5 Si10 Os1'
_cell_volume   312.37600171
_cell_formula_units_Z   1
loop_
 _symmetry_equiv_pos_site_id
 _symmetry_equiv_pos_as_xyz
  1  'x, y, z'
loop_
 _atom_site_type_symbol
 _atom_site_label
 _atom_site_symmetry_multiplicity
 _atom_site_fract_x
 _atom_site_fract_y
 _atom_site_fract_z
 _atom_site_occupancy
  Ce  Ce0  1  0.867189  0.598101  0.761836  1
  Ce  Ce1  1  0.401899  0.132811  0.738164  1
  Ce  Ce2  1  0.134050  0.402718  0.227785  1
  Ce  Ce3  1  0.597282  0.865950  0.272215  1
  Fe  Fe4  1  0.258977  0.543029  0.630625  1
  Fe  Fe5  1  0.456971  0.741023  0.869375  1
  Fe  Fe6  1  0.739837  0.457338  0.367722  1
  Fe  Fe7  1  0.542662  0.260163  0.132278  1
  Fe  Fe8  1  0.004585  0.995415  0.750000  1
  Si  Si9  1  0.064264  0.263046  0.821533  1
  Si  Si10  1  0.736954  0.935736  0.678467  1
  Si  Si11  1  0.934766  0.734857  0.158471  1
  Si  Si12  1  0.265143  0.065234  0.341529  1
  Si  Si13  1  0.212086  0.787914  0.750000  1
  Si  Si14  1  0.785727  0.214273  0.250000  1
  Si  Si15  1  0.509952  0.490048  0.750000  1
  Si  Si16  1  0.490219  0.509781  0.250000  1
  Si  Si17  1  0.770778  0.229222  0.750000  1
  Si  Si18  1  0.228648  0.771352  0.250000  1
  Os  Os19  1  0.998012  0.001988  0.250000  1
