# generated using pymatgen
data_Pr10C4Cl15
_symmetry_space_group_name_H-M   'P 1'
_cell_length_a   8.93500410
_cell_length_b   10.00497504
_cell_length_c   10.81706832
_cell_angle_alpha   70.47522164
_cell_angle_beta   66.84300086
_cell_angle_gamma   70.59853916
_symmetry_Int_Tables_number   1
_chemical_formula_structural   Pr10C4Cl15
_chemical_formula_sum   'Pr10 C4 Cl15'
_cell_volume   815.15577311
_cell_formula_units_Z   1
loop_
 _symmetry_equiv_pos_site_id
 _symmetry_equiv_pos_as_xyz
  1  'x, y, z'
loop_
 _atom_site_type_symbol
 _atom_site_label
 _atom_site_symmetry_multiplicity
 _atom_site_fract_x
 _atom_site_fract_y
 _atom_site_fract_z
 _atom_site_occupancy
  Pr  Pr0  1  0.342427  0.752181  0.829049  1
  Pr  Pr1  1  0.657573  0.247820  0.170951  1
  Pr  Pr2  1  0.176382  0.428317  0.046200  1
  Pr  Pr3  1  0.823619  0.571682  0.953800  1
  Pr  Pr4  1  0.081960  0.176792  0.881730  1
  Pr  Pr5  1  0.918040  0.823208  0.118269  1
  Pr  Pr6  1  0.247096  0.541362  0.635067  1
  Pr  Pr7  1  0.752902  0.458639  0.364934  1
  Pr  Pr8  1  0.035796  0.096375  0.266980  1
  Pr  Pr9  1  0.964205  0.903624  0.733019  1
  C  C10  1  0.879425  0.357341  0.175220  1
  C  C11  1  0.120575  0.642659  0.824781  1
  C  C12  1  0.955743  0.293271  0.061513  1
  C  C13  1  0.044259  0.706726  0.938486  1
  Cl  Cl14  1  0.500000  0.500000  0.000000  1
  Cl  Cl15  1  0.126288  0.816580  0.472825  1
  Cl  Cl16  1  0.873711  0.183418  0.527175  1
  Cl  Cl17  1  0.250929  0.020505  0.649927  1
  Cl  Cl18  1  0.749071  0.979495  0.350073  1
  Cl  Cl19  1  0.335167  0.170229  0.219054  1
  Cl  Cl20  1  0.664832  0.829771  0.780947  1
  Cl  Cl21  1  0.459770  0.370782  0.411157  1
  Cl  Cl22  1  0.540231  0.629217  0.588843  1
  Cl  Cl23  1  0.952077  0.441990  0.705350  1
  Cl  Cl24  1  0.047923  0.558010  0.294649  1
  Cl  Cl25  1  0.228631  0.909568  0.059199  1
  Cl  Cl26  1  0.771368  0.090432  0.940801  1
  Cl  Cl27  1  0.376579  0.278277  0.814145  1
  Cl  Cl28  1  0.623421  0.721722  0.185856  1
