# generated using pymatgen
data_Pr19NdSi15Rh
_symmetry_space_group_name_H-M   'P 1'
_cell_length_a   7.93180262
_cell_length_b   7.93452286
_cell_length_c   15.28905602
_cell_angle_alpha   90.07969535
_cell_angle_beta   89.82042660
_cell_angle_gamma   90.17091979
_symmetry_Int_Tables_number   1
_chemical_formula_structural   Pr19NdSi15Rh
_chemical_formula_sum   'Pr19 Nd1 Si15 Rh1'
_cell_volume   962.20787361
_cell_formula_units_Z   1
loop_
 _symmetry_equiv_pos_site_id
 _symmetry_equiv_pos_as_xyz
  1  'x, y, z'
loop_
 _atom_site_type_symbol
 _atom_site_label
 _atom_site_symmetry_multiplicity
 _atom_site_fract_x
 _atom_site_fract_y
 _atom_site_fract_z
 _atom_site_occupancy
  Pr  Pr0  1  0.190386  0.808591  0.249848  1
  Pr  Pr1  1  0.817186  0.187908  0.750388  1
  Pr  Pr2  1  0.692605  0.688294  0.500412  1
  Pr  Pr3  1  0.374010  0.010831  0.448875  1
  Pr  Pr4  1  0.489911  0.875579  0.697904  1
  Pr  Pr5  1  0.510199  0.123934  0.197951  1
  Pr  Pr6  1  0.875516  0.488369  0.300158  1
  Pr  Pr7  1  0.124360  0.509173  0.800260  1
  Pr  Pr8  1  0.626086  0.988299  0.948810  1
  Pr  Pr9  1  0.005471  0.376276  0.551929  1
  Pr  Pr10  1  0.988356  0.625010  0.051256  1
  Pr  Pr11  1  0.133487  0.986418  0.873903  1
  Pr  Pr12  1  0.516488  0.630111  0.125737  1
  Pr  Pr13  1  0.474623  0.361906  0.628248  1
  Pr  Pr14  1  0.627600  0.516202  0.873947  1
  Pr  Pr15  1  0.373286  0.483347  0.373747  1
  Pr  Pr16  1  0.872753  0.019580  0.376616  1
  Pr  Pr17  1  0.982729  0.126909  0.124306  1
  Pr  Pr18  1  0.024990  0.879892  0.625537  1
  Nd  Nd19  1  0.306060  0.306609  0.998226  1
  Si  Si20  1  0.332643  0.695431  0.950647  1
  Si  Si21  1  0.665509  0.303744  0.451710  1
  Si  Si22  1  0.697217  0.334799  0.049866  1
  Si  Si23  1  0.304172  0.668046  0.548454  1
  Si  Si24  1  0.804379  0.832790  0.202237  1
  Si  Si25  1  0.167780  0.197538  0.298509  1
  Si  Si26  1  0.833725  0.802698  0.799143  1
  Si  Si27  1  0.288507  0.922592  0.058562  1
  Si  Si28  1  0.578828  0.787766  0.309865  1
  Si  Si29  1  0.426370  0.208183  0.812011  1
  Si  Si30  1  0.784495  0.580673  0.690363  1
  Si  Si31  1  0.212483  0.421962  0.190275  1
  Si  Si32  1  0.705724  0.074927  0.558709  1
  Si  Si33  1  0.920337  0.288638  0.941690  1
  Si  Si34  1  0.079040  0.714538  0.441641  1
  Rh  Rh35  1  0.192687  0.172437  0.698258  1
