# generated using pymatgen
data_Nb12Zn3Ga8PtN4
_symmetry_space_group_name_H-M   'P 1'
_cell_length_a   8.33510600
_cell_length_b   8.30687382
_cell_length_c   8.30687500
_cell_angle_alpha   59.99999930
_cell_angle_beta   60.11198191
_cell_angle_gamma   60.11198360
_symmetry_Int_Tables_number   1
_chemical_formula_structural   Nb12Zn3Ga8PtN4
_chemical_formula_sum   'Nb12 Zn3 Ga8 Pt1 N4'
_cell_volume   407.38444404
_cell_formula_units_Z   1
loop_
 _symmetry_equiv_pos_site_id
 _symmetry_equiv_pos_as_xyz
  1  'x, y, z'
loop_
 _atom_site_type_symbol
 _atom_site_label
 _atom_site_symmetry_multiplicity
 _atom_site_fract_x
 _atom_site_fract_y
 _atom_site_fract_z
 _atom_site_occupancy
  Nb  Nb0  1  0.443603  0.441533  0.057432  1
  Nb  Nb1  1  0.058528  0.434920  0.071631  1
  Nb  Nb2  1  0.443603  0.057432  0.057432  1
  Nb  Nb3  1  0.058528  0.071631  0.434920  1
  Nb  Nb4  1  0.443603  0.057432  0.441533  1
  Nb  Nb5  1  0.058528  0.434920  0.434920  1
  Nb  Nb6  1  0.806397  0.808467  0.192568  1
  Nb  Nb7  1  0.191472  0.815080  0.178369  1
  Nb  Nb8  1  0.806397  0.192568  0.192568  1
  Nb  Nb9  1  0.191472  0.178369  0.815080  1
  Nb  Nb10  1  0.806397  0.192568  0.808467  1
  Nb  Nb11  1  0.191472  0.815080  0.815080  1
  Zn  Zn12  1  0.625000  0.625000  0.125000  1
  Zn  Zn13  1  0.625000  0.125000  0.625000  1
  Zn  Zn14  1  0.625000  0.625000  0.625000  1
  Ga  Ga15  1  0.840939  0.837981  0.483100  1
  Ga  Ga16  1  0.840939  0.483100  0.837981  1
  Ga  Ga17  1  0.494568  0.835145  0.835145  1
  Ga  Ga18  1  0.840939  0.837981  0.837981  1
  Ga  Ga19  1  0.409061  0.412019  0.766900  1
  Ga  Ga20  1  0.409061  0.766900  0.412019  1
  Ga  Ga21  1  0.755432  0.414855  0.414855  1
  Ga  Ga22  1  0.409061  0.412019  0.412019  1
  Pt  Pt23  1  0.125000  0.625000  0.625000  1
  N  N24  1  0.125000  0.125000  0.625000  1
  N  N25  1  0.125000  0.625000  0.125000  1
  N  N26  1  0.625000  0.125000  0.125000  1
  N  N27  1  0.125000  0.125000  0.125000  1
