# generated using pymatgen
data_La2Y2HoRu2
_symmetry_space_group_name_H-M   'P 1'
_cell_length_a   6.52501021
_cell_length_b   7.24036896
_cell_length_c   8.81530246
_cell_angle_alpha   96.27773464
_cell_angle_beta   111.72151829
_cell_angle_gamma   89.99999535
_symmetry_Int_Tables_number   1
_chemical_formula_structural   La2Y2HoRu2
_chemical_formula_sum   'La4 Y4 Ho2 Ru4'
_cell_volume   384.20438146
_cell_formula_units_Z   2
loop_
 _symmetry_equiv_pos_site_id
 _symmetry_equiv_pos_as_xyz
  1  'x, y, z'
loop_
 _atom_site_type_symbol
 _atom_site_label
 _atom_site_symmetry_multiplicity
 _atom_site_fract_x
 _atom_site_fract_y
 _atom_site_fract_z
 _atom_site_occupancy
  La  La0  1  0.978498  0.909970  0.192908  1
  La  La1  1  0.785588  0.590030  0.807092  1
  La  La2  1  0.021502  0.090030  0.807092  1
  La  La3  1  0.214412  0.409970  0.192908  1
  Y  Y4  1  0.635796  0.815077  0.430640  1
  Y  Y5  1  0.205155  0.684923  0.569360  1
  Y  Y6  1  0.364204  0.184923  0.569360  1
  Y  Y7  1  0.794845  0.315077  0.430640  1
  Ho  Ho8  1  0.426091  0.750000  0.000000  1
  Ho  Ho9  1  0.573909  0.250000  0.000000  1
  Ru  Ru10  1  0.826075  0.581506  0.222990  1
  Ru  Ru11  1  0.603085  0.918494  0.777010  1
  Ru  Ru12  1  0.173925  0.418494  0.777010  1
  Ru  Ru13  1  0.396915  0.081506  0.222990  1
