# generated using pymatgen
data_Pr7ThMgHgIr2
_symmetry_space_group_name_H-M   'P 1'
_cell_length_a   10.03041656
_cell_length_b   10.03041644
_cell_length_c   10.09705100
_cell_angle_alpha   59.78000198
_cell_angle_beta   59.78000239
_cell_angle_gamma   60.14291403
_symmetry_Int_Tables_number   1
_chemical_formula_structural   Pr7ThMgHgIr2
_chemical_formula_sum   'Pr14 Th2 Mg2 Hg2 Ir4'
_cell_volume   716.68617637
_cell_formula_units_Z   2
loop_
 _symmetry_equiv_pos_site_id
 _symmetry_equiv_pos_as_xyz
  1  'x, y, z'
loop_
 _atom_site_type_symbol
 _atom_site_label
 _atom_site_symmetry_multiplicity
 _atom_site_fract_x
 _atom_site_fract_y
 _atom_site_fract_z
 _atom_site_occupancy
  Pr  Pr0  1  0.350278  0.950722  0.349501  1
  Pr  Pr1  1  0.950722  0.350278  0.349501  1
  Pr  Pr2  1  0.810467  0.189146  0.190802  1
  Pr  Pr3  1  0.189146  0.810467  0.809585  1
  Pr  Pr4  1  0.189146  0.810467  0.190802  1
  Pr  Pr5  1  0.810467  0.189146  0.809585  1
  Pr  Pr6  1  0.188757  0.188757  0.811243  1
  Pr  Pr7  1  0.805683  0.805683  0.194317  1
  Pr  Pr8  1  0.940485  0.559915  0.563074  1
  Pr  Pr9  1  0.559915  0.940485  0.936526  1
  Pr  Pr10  1  0.559915  0.940485  0.563074  1
  Pr  Pr11  1  0.940485  0.559915  0.936526  1
  Pr  Pr12  1  0.560517  0.560517  0.939483  1
  Pr  Pr13  1  0.937630  0.937630  0.562370  1
  Th  Th14  1  0.344037  0.344037  0.345656  1
  Th  Th15  1  0.344037  0.344037  0.966271  1
  Mg  Mg16  1  0.577146  0.271249  0.575803  1
  Mg  Mg17  1  0.271249  0.577146  0.575803  1
  Hg  Hg18  1  0.579687  0.579687  0.588685  1
  Hg  Hg19  1  0.579687  0.579687  0.251940  1
  Ir  Ir20  1  0.146590  0.146590  0.138057  1
  Ir  Ir21  1  0.146590  0.146590  0.568765  1
  Ir  Ir22  1  0.151672  0.565694  0.141316  1
  Ir  Ir23  1  0.565694  0.151672  0.141316  1
