# generated using pymatgen
data_Tm(MnH3)2
_symmetry_space_group_name_H-M   'P 1'
_cell_length_a   4.65892015
_cell_length_b   4.66597047
_cell_length_c   4.65936412
_cell_angle_alpha   59.91139313
_cell_angle_beta   59.90501809
_cell_angle_gamma   59.93334728
_symmetry_Int_Tables_number   1
_chemical_formula_structural   Tm(MnH3)2
_chemical_formula_sum   'Tm1 Mn2 H6'
_cell_volume   71.48522731
_cell_formula_units_Z   1
loop_
 _symmetry_equiv_pos_site_id
 _symmetry_equiv_pos_as_xyz
  1  'x, y, z'
loop_
 _atom_site_type_symbol
 _atom_site_label
 _atom_site_symmetry_multiplicity
 _atom_site_fract_x
 _atom_site_fract_y
 _atom_site_fract_z
 _atom_site_occupancy
  Tm  Tm0  1  0.643647  0.892545  0.908129  1
  Mn  Mn1  1  0.143201  0.393934  0.408036  1
  Mn  Mn2  1  0.893359  0.142273  0.158020  1
  H  H3  1  0.142774  0.939941  0.401019  1
  H  H4  1  0.625376  0.394549  0.400138  1
  H  H5  1  0.147529  0.878561  0.927332  1
  H  H6  1  0.636646  0.374756  0.920374  1
  H  H7  1  0.675222  0.866719  0.413941  1
  H  H8  1  0.131143  0.398371  0.884198  1
