# generated using pymatgen
data_Tb4As6RuRh6
_symmetry_space_group_name_H-M   'P 1'
_cell_length_a   7.26603875
_cell_length_b   7.26604046
_cell_length_c   7.26604000
_cell_angle_alpha   109.47121656
_cell_angle_beta   109.47122133
_cell_angle_gamma   109.47122699
_symmetry_Int_Tables_number   1
_chemical_formula_structural   Tb4As6RuRh6
_chemical_formula_sum   'Tb4 As6 Ru1 Rh6'
_cell_volume   295.30540713
_cell_formula_units_Z   1
loop_
 _symmetry_equiv_pos_site_id
 _symmetry_equiv_pos_as_xyz
  1  'x, y, z'
loop_
 _atom_site_type_symbol
 _atom_site_label
 _atom_site_symmetry_multiplicity
 _atom_site_fract_x
 _atom_site_fract_y
 _atom_site_fract_z
 _atom_site_occupancy
  Tb  Tb0  1  0.500000  0.000000  0.000000  1
  Tb  Tb1  1  0.000000  0.500000  0.000000  1
  Tb  Tb2  1  0.000000  0.000000  0.500000  1
  Tb  Tb3  1  0.500000  0.500000  0.500000  1
  As  As4  1  0.000000  0.315901  0.315901  1
  As  As5  1  0.684099  0.000000  0.684099  1
  As  As6  1  0.684099  0.684099  0.000000  1
  As  As7  1  0.000000  0.684099  0.684099  1
  As  As8  1  0.315901  0.000000  0.315901  1
  As  As9  1  0.315901  0.315901  0.000000  1
  Ru  Ru10  1  0.000000  0.000000  0.000000  1
  Rh  Rh11  1  0.500000  0.750000  0.250000  1
  Rh  Rh12  1  0.750000  0.500000  0.250000  1
  Rh  Rh13  1  0.250000  0.750000  0.500000  1
  Rh  Rh14  1  0.250000  0.500000  0.750000  1
  Rh  Rh15  1  0.500000  0.250000  0.750000  1
  Rh  Rh16  1  0.750000  0.250000  0.500000  1
