# generated using pymatgen
data_CaLa(NiC2)2
_symmetry_space_group_name_H-M   'P 1'
_cell_length_a   3.82918349
_cell_length_b   3.79259823
_cell_length_c   7.43377772
_cell_angle_alpha   81.59724473
_cell_angle_beta   81.84806946
_cell_angle_gamma   90.06741524
_symmetry_Int_Tables_number   1
_chemical_formula_structural   CaLa(NiC2)2
_chemical_formula_sum   'Ca1 La1 Ni2 C4'
_cell_volume   105.69297616
_cell_formula_units_Z   1
loop_
 _symmetry_equiv_pos_site_id
 _symmetry_equiv_pos_as_xyz
  1  'x, y, z'
loop_
 _atom_site_type_symbol
 _atom_site_label
 _atom_site_symmetry_multiplicity
 _atom_site_fract_x
 _atom_site_fract_y
 _atom_site_fract_z
 _atom_site_occupancy
  Ca  Ca0  1  0.071436  0.924141  0.002913  1
  La  La1  1  0.923602  0.074443  0.499069  1
  Ni  Ni2  1  0.370023  0.516316  0.697428  1
  Ni  Ni3  1  0.509994  0.367635  0.190522  1
  C  C4  1  0.443776  0.596653  0.424314  1
  C  C5  1  0.600675  0.447981  0.925728  1
  C  C6  1  0.490699  0.848989  0.271706  1
  C  C7  1  0.856793  0.490841  0.782122  1
