# generated using pymatgen
data_Li2Tb16CdInIr3Pd
_symmetry_space_group_name_H-M   'P 1'
_cell_length_a   9.68404472
_cell_length_b   9.67505512
_cell_length_c   9.67505500
_cell_angle_alpha   60.28877022
_cell_angle_beta   60.36577502
_cell_angle_gamma   60.36577151
_symmetry_Int_Tables_number   1
_chemical_formula_structural   Li2Tb16CdInIr3Pd
_chemical_formula_sum   'Li2 Tb16 Cd1 In1 Ir3 Pd1'
_cell_volume   645.91739210
_cell_formula_units_Z   1
loop_
 _symmetry_equiv_pos_site_id
 _symmetry_equiv_pos_as_xyz
  1  'x, y, z'
loop_
 _atom_site_type_symbol
 _atom_site_label
 _atom_site_symmetry_multiplicity
 _atom_site_fract_x
 _atom_site_fract_y
 _atom_site_fract_z
 _atom_site_occupancy
  Li  Li0  1  0.326321  0.321990  0.321702  1
  Li  Li1  1  0.030059  0.321709  0.321071  1
  Tb  Tb2  1  0.102218  0.703332  0.100357  1
  Tb  Tb3  1  0.939461  0.937851  0.558175  1
  Tb  Tb4  1  0.940961  0.556046  0.938723  1
  Tb  Tb5  1  0.312813  0.687722  0.314730  1
  Tb  Tb6  1  0.932787  0.565860  0.566752  1
  Tb  Tb7  1  0.313846  0.314789  0.686702  1
  Tb  Tb8  1  0.098975  0.097153  0.095904  1
  Tb  Tb9  1  0.559434  0.562121  0.939091  1
  Tb  Tb10  1  0.102304  0.100595  0.704449  1
  Tb  Tb11  1  0.686683  0.315888  0.687535  1
  Tb  Tb12  1  0.685746  0.688085  0.316583  1
  Tb  Tb13  1  0.689009  0.313464  0.311503  1
  Tb  Tb14  1  0.316950  0.687915  0.684171  1
  Tb  Tb15  1  0.561548  0.937799  0.563786  1
  Tb  Tb16  1  0.696568  0.102282  0.102894  1
  Tb  Tb17  1  0.552689  0.943840  0.941855  1
  Cd  Cd18  1  0.328858  0.006154  0.333786  1
  In  In19  1  0.328747  0.332703  0.006682  1
  Ir  Ir20  1  0.890055  0.892806  0.323576  1
  Ir  Ir21  1  0.323794  0.891775  0.892599  1
  Ir  Ir22  1  0.889418  0.324215  0.893620  1
  Pd  Pd23  1  0.890759  0.893907  0.893754  1
