# generated using pymatgen
data_Sr2TbY(PPd)4
_symmetry_space_group_name_H-M   'P 1'
_cell_length_a   4.13793600
_cell_length_b   8.24545012
_cell_length_c   7.30473351
_cell_angle_alpha   90.13461800
_cell_angle_beta   90.00000000
_cell_angle_gamma   90.00000000
_symmetry_Int_Tables_number   1
_chemical_formula_structural   Sr2TbY(PPd)4
_chemical_formula_sum   'Sr2 Tb1 Y1 P4 Pd4'
_cell_volume   249.23057302
_cell_formula_units_Z   1
loop_
 _symmetry_equiv_pos_site_id
 _symmetry_equiv_pos_as_xyz
  1  'x, y, z'
loop_
 _atom_site_type_symbol
 _atom_site_label
 _atom_site_symmetry_multiplicity
 _atom_site_fract_x
 _atom_site_fract_y
 _atom_site_fract_z
 _atom_site_occupancy
  Sr  Sr0  1  0.250000  0.499373  0.250416  1
  Sr  Sr1  1  0.750000  0.500626  0.749583  1
  Tb  Tb2  1  0.250000  0.999594  0.249042  1
  Y  Y3  1  0.750000  0.000416  0.750963  1
  P  P4  1  0.250000  0.774247  0.913308  1
  P  P5  1  0.750000  0.225835  0.086266  1
  P  P6  1  0.750000  0.774190  0.413846  1
  P  P7  1  0.250000  0.225723  0.586577  1
  Pd  Pd8  1  0.250000  0.767985  0.583663  1
  Pd  Pd9  1  0.750000  0.232014  0.416617  1
  Pd  Pd10  1  0.750000  0.766684  0.083605  1
  Pd  Pd11  1  0.250000  0.233311  0.916114  1
