# generated using pymatgen
data_Tb11CeDy4(CdRu)4
_symmetry_space_group_name_H-M   'P 1'
_cell_length_a   9.69510349
_cell_length_b   9.69715926
_cell_length_c   9.69743563
_cell_angle_alpha   59.38610202
_cell_angle_beta   59.38031982
_cell_angle_gamma   59.37848607
_symmetry_Int_Tables_number   1
_chemical_formula_structural   Tb11CeDy4(CdRu)4
_chemical_formula_sum   'Tb11 Ce1 Dy4 Cd4 Ru4'
_cell_volume   635.59943517
_cell_formula_units_Z   1
loop_
 _symmetry_equiv_pos_site_id
 _symmetry_equiv_pos_as_xyz
  1  'x, y, z'
loop_
 _atom_site_type_symbol
 _atom_site_label
 _atom_site_symmetry_multiplicity
 _atom_site_fract_x
 _atom_site_fract_y
 _atom_site_fract_z
 _atom_site_occupancy
  Tb  Tb0  1  0.562221  0.561964  0.938460  1
  Tb  Tb1  1  0.938762  0.560829  0.938936  1
  Tb  Tb2  1  0.560956  0.938829  0.938830  1
  Tb  Tb3  1  0.938762  0.938934  0.560827  1
  Tb  Tb4  1  0.562221  0.938460  0.561965  1
  Tb  Tb5  1  0.938432  0.562096  0.562096  1
  Tb  Tb6  1  0.189104  0.189322  0.812100  1
  Tb  Tb7  1  0.810768  0.188574  0.810947  1
  Tb  Tb8  1  0.188535  0.810745  0.810773  1
  Tb  Tb9  1  0.810785  0.810937  0.188574  1
  Tb  Tb10  1  0.189100  0.812086  0.189321  1
  Ce  Ce11  1  0.342143  0.341909  0.341877  1
  Dy  Dy12  1  0.811954  0.189248  0.189251  1
  Dy  Dy13  1  0.346144  0.346243  0.958212  1
  Dy  Dy14  1  0.346157  0.958201  0.346229  1
  Dy  Dy15  1  0.958133  0.346146  0.346124  1
  Cd  Cd16  1  0.579937  0.579802  0.258362  1
  Cd  Cd17  1  0.579937  0.258362  0.579804  1
  Cd  Cd18  1  0.258389  0.579887  0.579886  1
  Cd  Cd19  1  0.579774  0.579799  0.579800  1
  Ru  Ru20  1  0.146661  0.146626  0.574972  1
  Ru  Ru21  1  0.146663  0.574969  0.146625  1
  Ru  Ru22  1  0.575060  0.146652  0.146649  1
  Ru  Ru23  1  0.139395  0.139382  0.139378  1
