# generated using pymatgen
data_UP2NCl12
_symmetry_space_group_name_H-M   'P 1'
_cell_length_a   8.49885755
_cell_length_b   8.49886924
_cell_length_c   16.40581040
_cell_angle_alpha   78.44031445
_cell_angle_beta   78.44079972
_cell_angle_gamma   66.44264000
_symmetry_Int_Tables_number   1
_chemical_formula_structural   UP2NCl12
_chemical_formula_sum   'U2 P4 N2 Cl24'
_cell_volume   1054.62245773
_cell_formula_units_Z   2
loop_
 _symmetry_equiv_pos_site_id
 _symmetry_equiv_pos_as_xyz
  1  'x, y, z'
loop_
 _atom_site_type_symbol
 _atom_site_label
 _atom_site_symmetry_multiplicity
 _atom_site_fract_x
 _atom_site_fract_y
 _atom_site_fract_z
 _atom_site_occupancy
  U  U0  1  0.000000  0.000000  0.500000  1
  U  U1  1  0.000000  0.000000  0.000000  1
  P  P2  1  0.460947  0.322474  0.770405  1
  P  P3  1  0.677527  0.539056  0.729595  1
  P  P4  1  0.322473  0.460944  0.270405  1
  P  P5  1  0.539053  0.677526  0.229595  1
  N  N6  1  0.617304  0.382691  0.750001  1
  N  N7  1  0.382696  0.617309  0.249999  1
  Cl  Cl8  1  0.693444  0.225522  0.009081  1
  Cl  Cl9  1  0.778984  0.892724  0.471338  1
  Cl  Cl10  1  0.306556  0.774478  0.990919  1
  Cl  Cl11  1  0.894847  0.483172  0.651494  1
  Cl  Cl12  1  0.245250  0.492796  0.822899  1
  Cl  Cl13  1  0.516828  0.105152  0.848507  1
  Cl  Cl14  1  0.107280  0.221017  0.028662  1
  Cl  Cl15  1  0.483172  0.894848  0.151493  1
  Cl  Cl16  1  0.951552  0.906068  0.156541  1
  Cl  Cl17  1  0.774480  0.306554  0.490917  1
  Cl  Cl18  1  0.906074  0.951551  0.656539  1
  Cl  Cl19  1  0.221016  0.107276  0.528662  1
  Cl  Cl20  1  0.892720  0.778983  0.971338  1
  Cl  Cl21  1  0.275214  0.403435  0.168957  1
  Cl  Cl22  1  0.596566  0.724786  0.331043  1
  Cl  Cl23  1  0.093926  0.048449  0.343461  1
  Cl  Cl24  1  0.724786  0.596565  0.831043  1
  Cl  Cl25  1  0.225520  0.693446  0.509083  1
  Cl  Cl26  1  0.048448  0.093932  0.843459  1
  Cl  Cl27  1  0.105153  0.516828  0.348506  1
  Cl  Cl28  1  0.754750  0.507204  0.177101  1
  Cl  Cl29  1  0.507203  0.754750  0.677101  1
  Cl  Cl30  1  0.403434  0.275214  0.668957  1
  Cl  Cl31  1  0.492797  0.245250  0.322899  1
