# generated using pymatgen
data_Zr4FeCo(As2Pd)2
_symmetry_space_group_name_H-M   'P 1'
_cell_length_a   3.91652200
_cell_length_b   6.64894422
_cell_length_c   7.57023093
_cell_angle_alpha   92.02194053
_cell_angle_beta   90.00000000
_cell_angle_gamma   90.00000000
_symmetry_Int_Tables_number   1
_chemical_formula_structural   Zr4FeCo(As2Pd)2
_chemical_formula_sum   'Zr4 Fe1 Co1 As4 Pd2'
_cell_volume   197.01164955
_cell_formula_units_Z   1
loop_
 _symmetry_equiv_pos_site_id
 _symmetry_equiv_pos_as_xyz
  1  'x, y, z'
loop_
 _atom_site_type_symbol
 _atom_site_label
 _atom_site_symmetry_multiplicity
 _atom_site_fract_x
 _atom_site_fract_y
 _atom_site_fract_z
 _atom_site_occupancy
  Zr  Zr0  1  0.250000  0.472210  0.194494  1
  Zr  Zr1  1  0.750000  0.526157  0.805198  1
  Zr  Zr2  1  0.750000  0.023181  0.675087  1
  Zr  Zr3  1  0.250000  0.976624  0.325099  1
  Fe  Fe4  1  0.250000  0.368008  0.555748  1
  Co  Co5  1  0.750000  0.633423  0.442772  1
  As  As6  1  0.250000  0.725766  0.602031  1
  As  As7  1  0.750000  0.273195  0.400203  1
  As  As8  1  0.750000  0.750947  0.139276  1
  As  As9  1  0.250000  0.248854  0.859501  1
  Pd  Pd10  1  0.250000  0.849820  0.933824  1
  Pd  Pd11  1  0.750000  0.151815  0.066768  1
