# generated using pymatgen
data_Rb2PS5
_symmetry_space_group_name_H-M   'P 1'
_cell_length_a   7.03791261
_cell_length_b   7.23453488
_cell_length_c   9.67810345
_cell_angle_alpha   86.95153614
_cell_angle_beta   87.26174928
_cell_angle_gamma   84.18136379
_symmetry_Int_Tables_number   1
_chemical_formula_structural   Rb2PS5
_chemical_formula_sum   'Rb4 P2 S10'
_cell_volume   489.09228039
_cell_formula_units_Z   2
loop_
 _symmetry_equiv_pos_site_id
 _symmetry_equiv_pos_as_xyz
  1  'x, y, z'
loop_
 _atom_site_type_symbol
 _atom_site_label
 _atom_site_symmetry_multiplicity
 _atom_site_fract_x
 _atom_site_fract_y
 _atom_site_fract_z
 _atom_site_occupancy
  Rb  Rb0  1  0.797630  0.136630  0.630215  1
  Rb  Rb1  1  0.202370  0.863370  0.369785  1
  Rb  Rb2  1  0.231927  0.278902  0.974543  1
  Rb  Rb3  1  0.768073  0.721098  0.025457  1
  P  P4  1  0.242938  0.794104  0.781561  1
  P  P5  1  0.757062  0.205896  0.218439  1
  S  S6  1  0.983944  0.313884  0.289150  1
  S  S7  1  0.498431  0.591853  0.748355  1
  S  S8  1  0.296884  0.036641  0.682583  1
  S  S9  1  0.016056  0.686116  0.710850  1
  S  S10  1  0.585365  0.597785  0.545990  1
  S  S11  1  0.414635  0.402215  0.454010  1
  S  S12  1  0.261341  0.777320  0.990755  1
  S  S13  1  0.703116  0.963359  0.317417  1
  S  S14  1  0.738659  0.222680  0.009245  1
  S  S15  1  0.501569  0.408147  0.251645  1
