# generated using pymatgen
data_SmTmLu4(Co3P2)6
_symmetry_space_group_name_H-M   'P 1'
_cell_length_a   3.67083600
_cell_length_b   10.48264400
_cell_length_c   12.11916900
_cell_angle_alpha   90.00000000
_cell_angle_beta   90.00000000
_cell_angle_gamma   90.00000000
_symmetry_Int_Tables_number   1
_chemical_formula_structural   SmTmLu4(Co3P2)6
_chemical_formula_sum   'Sm1 Tm1 Lu4 Co18 P12'
_cell_volume   466.34643475
_cell_formula_units_Z   1
loop_
 _symmetry_equiv_pos_site_id
 _symmetry_equiv_pos_as_xyz
  1  'x, y, z'
loop_
 _atom_site_type_symbol
 _atom_site_label
 _atom_site_symmetry_multiplicity
 _atom_site_fract_x
 _atom_site_fract_y
 _atom_site_fract_z
 _atom_site_occupancy
  Sm  Sm0  1  0.000000  0.500000  0.523344  1
  Tm  Tm1  1  0.500000  0.000000  0.477123  1
  Lu  Lu2  1  0.500000  0.818526  0.205901  1
  Lu  Lu3  1  0.500000  0.181474  0.205901  1
  Lu  Lu4  1  0.000000  0.682105  0.794736  1
  Lu  Lu5  1  0.000000  0.317895  0.794736  1
  Co  Co6  1  0.500000  0.500000  0.158319  1
  Co  Co7  1  0.000000  0.000000  0.840248  1
  Co  Co8  1  0.500000  0.500000  0.706466  1
  Co  Co9  1  0.000000  0.000000  0.295699  1
  Co  Co10  1  0.000000  0.500000  0.986864  1
  Co  Co11  1  0.500000  0.000000  0.013589  1
  Co  Co12  1  0.500000  0.332742  0.994719  1
  Co  Co13  1  0.500000  0.667258  0.994719  1
  Co  Co14  1  0.000000  0.166723  0.005241  1
  Co  Co15  1  0.000000  0.833277  0.005241  1
  Co  Co16  1  0.500000  0.294823  0.429925  1
  Co  Co17  1  0.500000  0.705177  0.429925  1
  Co  Co18  1  0.000000  0.200917  0.569601  1
  Co  Co19  1  0.000000  0.799083  0.569601  1
  Co  Co20  1  0.500000  0.878880  0.710092  1
  Co  Co21  1  0.500000  0.121120  0.710092  1
  Co  Co22  1  0.000000  0.622360  0.289287  1
  Co  Co23  1  0.000000  0.377640  0.289287  1
  P  P24  1  0.500000  0.500000  0.883114  1
  P  P25  1  0.000000  0.000000  0.117738  1
  P  P26  1  0.500000  0.500000  0.342442  1
  P  P27  1  0.000000  0.000000  0.654390  1
  P  P28  1  0.500000  0.309235  0.618319  1
  P  P29  1  0.500000  0.690765  0.618319  1
  P  P30  1  0.000000  0.187546  0.382793  1
  P  P31  1  0.000000  0.812454  0.382793  1
  P  P32  1  0.500000  0.846803  0.891915  1
  P  P33  1  0.500000  0.153197  0.891915  1
  P  P34  1  0.000000  0.654042  0.107802  1
  P  P35  1  0.000000  0.345958  0.107802  1
