# generated using pymatgen
data_DyY3Al15(GaIr2)3
_symmetry_space_group_name_H-M   'P 1'
_cell_length_a   7.53628337
_cell_length_b   7.53661063
_cell_length_c   9.54195000
_cell_angle_alpha   90.00000000
_cell_angle_beta   90.00000000
_cell_angle_gamma   119.42126567
_symmetry_Int_Tables_number   1
_chemical_formula_structural   DyY3Al15(GaIr2)3
_chemical_formula_sum   'Dy1 Y3 Al15 Ga3 Ir6'
_cell_volume   472.06773816
_cell_formula_units_Z   1
loop_
 _symmetry_equiv_pos_site_id
 _symmetry_equiv_pos_as_xyz
  1  'x, y, z'
loop_
 _atom_site_type_symbol
 _atom_site_label
 _atom_site_symmetry_multiplicity
 _atom_site_fract_x
 _atom_site_fract_y
 _atom_site_fract_z
 _atom_site_occupancy
  Dy  Dy0  1  0.324389  0.003862  0.250000  1
  Y  Y1  1  0.997930  0.674981  0.750000  1
  Y  Y2  1  0.006015  0.325586  0.250000  1
  Y  Y3  1  0.670309  0.990551  0.750000  1
  Al  Al4  1  0.001403  0.335407  0.572055  1
  Al  Al5  1  0.998431  0.664162  0.426657  1
  Al  Al6  1  0.998431  0.664162  0.073343  1
  Al  Al7  1  0.336161  0.003085  0.927804  1
  Al  Al8  1  0.001403  0.335407  0.927945  1
  Al  Al9  1  0.664364  0.999373  0.073083  1
  Al  Al10  1  0.664364  0.999373  0.426917  1
  Al  Al11  1  0.336161  0.003085  0.572196  1
  Al  Al12  1  0.334276  0.334217  0.055783  1
  Al  Al13  1  0.666190  0.665813  0.949081  1
  Al  Al14  1  0.666190  0.665813  0.550919  1
  Al  Al15  1  0.334276  0.334217  0.444217  1
  Al  Al16  1  0.662308  0.450401  0.250000  1
  Al  Al17  1  0.549981  0.339462  0.750000  1
  Al  Al18  1  0.451216  0.662721  0.250000  1
  Ga  Ga19  1  0.132220  0.132996  0.750000  1
  Ga  Ga20  1  0.864794  0.864189  0.250000  1
  Ga  Ga21  1  0.339179  0.545953  0.750000  1
  Ir  Ir22  1  0.671321  0.329404  0.500353  1
  Ir  Ir23  1  0.328518  0.672593  0.497413  1
  Ir  Ir24  1  0.328518  0.672593  0.002587  1
  Ir  Ir25  1  0.671321  0.329404  0.999647  1
  Ir  Ir26  1  0.000166  0.000592  0.499790  1
  Ir  Ir27  1  0.000166  0.000592  0.000210  1
