# generated using pymatgen
data_LaPrAl6ZnCu
_symmetry_space_group_name_H-M   'P 1'
_cell_length_a   4.26579300
_cell_length_b   4.26579300
_cell_length_c   10.97009900
_cell_angle_alpha   90.00000000
_cell_angle_beta   90.00000000
_cell_angle_gamma   90.00000000
_symmetry_Int_Tables_number   1
_chemical_formula_structural   LaPrAl6ZnCu
_chemical_formula_sum   'La1 Pr1 Al6 Zn1 Cu1'
_cell_volume   199.62278091
_cell_formula_units_Z   1
loop_
 _symmetry_equiv_pos_site_id
 _symmetry_equiv_pos_as_xyz
  1  'x, y, z'
loop_
 _atom_site_type_symbol
 _atom_site_label
 _atom_site_symmetry_multiplicity
 _atom_site_fract_x
 _atom_site_fract_y
 _atom_site_fract_z
 _atom_site_occupancy
  La  La0  1  0.500000  0.500000  0.496745  1
  Pr  Pr1  1  0.000000  0.000000  0.998384  1
  Al  Al2  1  0.000000  0.500000  0.238718  1
  Al  Al3  1  0.500000  0.000000  0.750717  1
  Al  Al4  1  0.500000  0.000000  0.238718  1
  Al  Al5  1  0.000000  0.500000  0.750717  1
  Al  Al6  1  0.000000  0.000000  0.387981  1
  Al  Al7  1  0.500000  0.500000  0.900937  1
  Zn  Zn8  1  0.000000  0.000000  0.615827  1
  Cu  Cu9  1  0.500000  0.500000  0.121256  1
