# generated using pymatgen
data_Pr8Si12HgIr3
_symmetry_space_group_name_H-M   'P 1'
_cell_length_a   8.29599600
_cell_length_b   8.29599575
_cell_length_c   8.66233100
_cell_angle_alpha   90.00000000
_cell_angle_beta   90.00000000
_cell_angle_gamma   120.00000099
_symmetry_Int_Tables_number   1
_chemical_formula_structural   Pr8Si12HgIr3
_chemical_formula_sum   'Pr8 Si12 Hg1 Ir3'
_cell_volume   516.30039477
_cell_formula_units_Z   1
loop_
 _symmetry_equiv_pos_site_id
 _symmetry_equiv_pos_as_xyz
  1  'x, y, z'
loop_
 _atom_site_type_symbol
 _atom_site_label
 _atom_site_symmetry_multiplicity
 _atom_site_fract_x
 _atom_site_fract_y
 _atom_site_fract_z
 _atom_site_occupancy
  Pr  Pr0  1  0.496157  0.503843  0.742980  1
  Pr  Pr1  1  0.497100  0.502900  0.256618  1
  Pr  Pr2  1  0.007687  0.503843  0.742980  1
  Pr  Pr3  1  0.005800  0.502900  0.256618  1
  Pr  Pr4  1  0.496157  0.992313  0.742980  1
  Pr  Pr5  1  0.497100  0.994200  0.256618  1
  Pr  Pr6  1  0.000000  0.000000  0.747799  1
  Pr  Pr7  1  0.000000  0.000000  0.253482  1
  Si  Si8  1  0.843238  0.156762  0.001659  1
  Si  Si9  1  0.169607  0.830393  0.999188  1
  Si  Si10  1  0.313525  0.156762  0.001659  1
  Si  Si11  1  0.166429  0.833571  0.499658  1
  Si  Si12  1  0.660787  0.830393  0.999188  1
  Si  Si13  1  0.832360  0.167640  0.500422  1
  Si  Si14  1  0.843238  0.686475  0.001659  1
  Si  Si15  1  0.667143  0.833571  0.499658  1
  Si  Si16  1  0.169607  0.339213  0.999188  1
  Si  Si17  1  0.335280  0.167640  0.500422  1
  Si  Si18  1  0.166429  0.332857  0.499658  1
  Si  Si19  1  0.832360  0.664720  0.500422  1
  Hg  Hg20  1  0.666667  0.333333  0.996350  1
  Ir  Ir21  1  0.333333  0.666667  0.001076  1
  Ir  Ir22  1  0.333333  0.666667  0.498998  1
  Ir  Ir23  1  0.666667  0.333333  0.500717  1
