# generated using pymatgen
data_Tb4HoOs2
_symmetry_space_group_name_H-M   'P 1'
_cell_length_a   6.39629534
_cell_length_b   7.35998929
_cell_length_c   8.46792077
_cell_angle_alpha   96.82736837
_cell_angle_beta   112.18993442
_cell_angle_gamma   90.00000158
_symmetry_Int_Tables_number   1
_chemical_formula_structural   Tb4HoOs2
_chemical_formula_sum   'Tb8 Ho2 Os4'
_cell_volume   366.06210946
_cell_formula_units_Z   2
loop_
 _symmetry_equiv_pos_site_id
 _symmetry_equiv_pos_as_xyz
  1  'x, y, z'
loop_
 _atom_site_type_symbol
 _atom_site_label
 _atom_site_symmetry_multiplicity
 _atom_site_fract_x
 _atom_site_fract_y
 _atom_site_fract_z
 _atom_site_occupancy
  Tb  Tb0  1  0.976525  0.916309  0.183533  1
  Tb  Tb1  1  0.792992  0.583691  0.816467  1
  Tb  Tb2  1  0.023475  0.083691  0.816467  1
  Tb  Tb3  1  0.207008  0.416309  0.183533  1
  Tb  Tb4  1  0.639085  0.816166  0.434505  1
  Tb  Tb5  1  0.204580  0.683834  0.565495  1
  Tb  Tb6  1  0.360915  0.183834  0.565495  1
  Tb  Tb7  1  0.795420  0.316166  0.434505  1
  Ho  Ho8  1  0.422843  0.750000  0.000000  1
  Ho  Ho9  1  0.577157  0.250000  0.000000  1
  Os  Os10  1  0.821301  0.576782  0.218084  1
  Os  Os11  1  0.603217  0.923218  0.781916  1
  Os  Os12  1  0.178699  0.423218  0.781916  1
  Os  Os13  1  0.396783  0.076782  0.218084  1
