# generated using pymatgen
data_Ho5(GeB4)2
_symmetry_space_group_name_H-M   'P 1'
_cell_length_a   7.23454800
_cell_length_b   7.23454800
_cell_length_c   8.11239900
_cell_angle_alpha   90.00000000
_cell_angle_beta   90.00000000
_cell_angle_gamma   90.00000000
_symmetry_Int_Tables_number   1
_chemical_formula_structural   Ho5(GeB4)2
_chemical_formula_sum   'Ho10 Ge4 B16'
_cell_volume   424.59229394
_cell_formula_units_Z   2
loop_
 _symmetry_equiv_pos_site_id
 _symmetry_equiv_pos_as_xyz
  1  'x, y, z'
loop_
 _atom_site_type_symbol
 _atom_site_label
 _atom_site_symmetry_multiplicity
 _atom_site_fract_x
 _atom_site_fract_y
 _atom_site_fract_z
 _atom_site_occupancy
  Ho  Ho0  1  0.680397  0.180397  0.220597  1
  Ho  Ho1  1  0.319603  0.819603  0.779403  1
  Ho  Ho2  1  0.319603  0.819603  0.220597  1
  Ho  Ho3  1  0.819603  0.680397  0.220597  1
  Ho  Ho4  1  0.819603  0.680397  0.779403  1
  Ho  Ho5  1  0.680397  0.180397  0.779403  1
  Ho  Ho6  1  0.180397  0.319603  0.779403  1
  Ho  Ho7  1  0.180397  0.319603  0.220597  1
  Ho  Ho8  1  0.000000  0.000000  0.500000  1
  Ho  Ho9  1  0.500000  0.500000  0.500000  1
  Ge  Ge10  1  0.120460  0.620460  0.500000  1
  Ge  Ge11  1  0.879540  0.379540  0.500000  1
  Ge  Ge12  1  0.379540  0.120460  0.500000  1
  Ge  Ge13  1  0.620460  0.879540  0.500000  1
  B  B14  1  0.172140  0.039362  0.000000  1
  B  B15  1  0.827860  0.960638  0.000000  1
  B  B16  1  0.960638  0.172140  0.000000  1
  B  B17  1  0.327860  0.539362  0.000000  1
  B  B18  1  0.039362  0.827860  0.000000  1
  B  B19  1  0.672140  0.460638  0.000000  1
  B  B20  1  0.539362  0.672140  0.000000  1
  B  B21  1  0.460638  0.327860  0.000000  1
  B  B22  1  0.090285  0.590285  0.000000  1
  B  B23  1  0.909715  0.409715  0.000000  1
  B  B24  1  0.409715  0.090285  0.000000  1
  B  B25  1  0.590285  0.909715  0.000000  1
  B  B26  1  0.000000  0.000000  0.162862  1
  B  B27  1  0.000000  0.000000  0.837138  1
  B  B28  1  0.500000  0.500000  0.837138  1
  B  B29  1  0.500000  0.500000  0.162862  1
