# generated using pymatgen
data_Dy9Y(ZnB4)4
_symmetry_space_group_name_H-M   'P 1'
_cell_length_a   7.20073700
_cell_length_b   7.20073700
_cell_length_c   8.41591600
_cell_angle_alpha   90.00000000
_cell_angle_beta   90.00000000
_cell_angle_gamma   90.00000000
_symmetry_Int_Tables_number   1
_chemical_formula_structural   Dy9Y(ZnB4)4
_chemical_formula_sum   'Dy9 Y1 Zn4 B16'
_cell_volume   436.37040644
_cell_formula_units_Z   1
loop_
 _symmetry_equiv_pos_site_id
 _symmetry_equiv_pos_as_xyz
  1  'x, y, z'
loop_
 _atom_site_type_symbol
 _atom_site_label
 _atom_site_symmetry_multiplicity
 _atom_site_fract_x
 _atom_site_fract_y
 _atom_site_fract_z
 _atom_site_occupancy
  Dy  Dy0  1  0.681797  0.181994  0.212298  1
  Dy  Dy1  1  0.318203  0.818006  0.787702  1
  Dy  Dy2  1  0.318203  0.818006  0.212298  1
  Dy  Dy3  1  0.818006  0.681797  0.212298  1
  Dy  Dy4  1  0.818006  0.681797  0.787702  1
  Dy  Dy5  1  0.681797  0.181994  0.787702  1
  Dy  Dy6  1  0.181994  0.318203  0.787702  1
  Dy  Dy7  1  0.181994  0.318203  0.212298  1
  Dy  Dy8  1  0.500000  0.500000  0.500000  1
  Y  Y9  1  0.000000  0.000000  0.500000  1
  Zn  Zn10  1  0.118019  0.617531  0.500000  1
  Zn  Zn11  1  0.881981  0.382469  0.500000  1
  Zn  Zn12  1  0.382469  0.118019  0.500000  1
  Zn  Zn13  1  0.617531  0.881981  0.500000  1
  B  B14  1  0.171970  0.040433  0.000000  1
  B  B15  1  0.828030  0.959567  0.000000  1
  B  B16  1  0.959567  0.171970  0.000000  1
  B  B17  1  0.328061  0.540430  0.000000  1
  B  B18  1  0.040433  0.828030  0.000000  1
  B  B19  1  0.671939  0.459570  0.000000  1
  B  B20  1  0.540430  0.671939  0.000000  1
  B  B21  1  0.459570  0.328061  0.000000  1
  B  B22  1  0.090643  0.590653  0.000000  1
  B  B23  1  0.909357  0.409347  0.000000  1
  B  B24  1  0.409347  0.090643  0.000000  1
  B  B25  1  0.590653  0.909357  0.000000  1
  B  B26  1  0.000000  0.000000  0.157377  1
  B  B27  1  0.000000  0.000000  0.842623  1
  B  B28  1  0.500000  0.500000  0.842584  1
  B  B29  1  0.500000  0.500000  0.157416  1
