# generated using pymatgen
data_Cs4Ba4Nb3VSe16
_symmetry_space_group_name_H-M   'P 1'
_cell_length_a   7.37991300
_cell_length_b   10.51523955
_cell_length_c   12.95842457
_cell_angle_alpha   89.86544344
_cell_angle_beta   90.00000000
_cell_angle_gamma   90.00000000
_symmetry_Int_Tables_number   1
_chemical_formula_structural   Cs4Ba4Nb3VSe16
_chemical_formula_sum   'Cs4 Ba4 Nb3 V1 Se16'
_cell_volume   1005.59109876
_cell_formula_units_Z   1
loop_
 _symmetry_equiv_pos_site_id
 _symmetry_equiv_pos_as_xyz
  1  'x, y, z'
loop_
 _atom_site_type_symbol
 _atom_site_label
 _atom_site_symmetry_multiplicity
 _atom_site_fract_x
 _atom_site_fract_y
 _atom_site_fract_z
 _atom_site_occupancy
  Cs  Cs0  1  0.250000  0.869420  0.925521  1
  Cs  Cs1  1  0.250000  0.629194  0.425040  1
  Cs  Cs2  1  0.750000  0.132176  0.070874  1
  Cs  Cs3  1  0.750000  0.371104  0.576994  1
  Ba  Ba4  1  0.250000  0.404806  0.850324  1
  Ba  Ba5  1  0.250000  0.097258  0.350559  1
  Ba  Ba6  1  0.750000  0.598293  0.145562  1
  Ba  Ba7  1  0.750000  0.899208  0.652694  1
  Nb  Nb8  1  0.250000  0.119133  0.665673  1
  Nb  Nb9  1  0.250000  0.381128  0.164707  1
  Nb  Nb10  1  0.750000  0.880247  0.335528  1
  V  V11  1  0.750000  0.619052  0.834159  1
  Se  Se12  1  0.510825  0.131986  0.777461  1
  Se  Se13  1  0.988470  0.368317  0.275830  1
  Se  Se14  1  0.010344  0.868233  0.223188  1
  Se  Se15  1  0.499484  0.631449  0.729878  1
  Se  Se16  1  0.489656  0.868233  0.223188  1
  Se  Se17  1  0.000516  0.631449  0.729878  1
  Se  Se18  1  0.989175  0.131986  0.777461  1
  Se  Se19  1  0.511530  0.368317  0.275830  1
  Se  Se20  1  0.250000  0.302742  0.553120  1
  Se  Se21  1  0.250000  0.198516  0.051611  1
  Se  Se22  1  0.750000  0.696912  0.448553  1
  Se  Se23  1  0.750000  0.792967  0.940815  1
  Se  Se24  1  0.250000  0.923801  0.568502  1
  Se  Se25  1  0.250000  0.576519  0.067392  1
  Se  Se26  1  0.750000  0.074279  0.433982  1
  Se  Se27  1  0.750000  0.433278  0.925679  1
