# generated using pymatgen
data_Y2Er8Cd3Ru
_symmetry_space_group_name_H-M   'P 1'
_cell_length_a   9.53203213
_cell_length_b   9.52926922
_cell_length_c   9.78062500
_cell_angle_alpha   90.00000000
_cell_angle_beta   90.00000000
_cell_angle_gamma   119.99041537
_symmetry_Int_Tables_number   1
_chemical_formula_structural   Y2Er8Cd3Ru
_chemical_formula_sum   'Y4 Er16 Cd6 Ru2'
_cell_volume   769.45685071
_cell_formula_units_Z   2
loop_
 _symmetry_equiv_pos_site_id
 _symmetry_equiv_pos_as_xyz
  1  'x, y, z'
loop_
 _atom_site_type_symbol
 _atom_site_label
 _atom_site_symmetry_multiplicity
 _atom_site_fract_x
 _atom_site_fract_y
 _atom_site_fract_z
 _atom_site_occupancy
  Y  Y0  1  0.917318  0.458659  0.250000  1
  Y  Y1  1  0.459176  0.540708  0.750000  1
  Y  Y2  1  0.459176  0.918468  0.750000  1
  Y  Y3  1  0.081405  0.540703  0.750000  1
  Er  Er4  1  0.000140  0.000070  0.500025  1
  Er  Er5  1  0.000140  0.000070  0.999975  1
  Er  Er6  1  0.210506  0.790564  0.440007  1
  Er  Er7  1  0.210506  0.419942  0.440007  1
  Er  Er8  1  0.580194  0.790097  0.439794  1
  Er  Er9  1  0.789584  0.209699  0.559440  1
  Er  Er10  1  0.789584  0.579885  0.559440  1
  Er  Er11  1  0.420346  0.210173  0.559085  1
  Er  Er12  1  0.789584  0.209699  0.940560  1
  Er  Er13  1  0.789584  0.579885  0.940560  1
  Er  Er14  1  0.420346  0.210173  0.940915  1
  Er  Er15  1  0.210506  0.790564  0.059993  1
  Er  Er16  1  0.210506  0.419942  0.059993  1
  Er  Er17  1  0.580194  0.790097  0.060206  1
  Er  Er18  1  0.540395  0.459037  0.250000  1
  Er  Er19  1  0.540395  0.081357  0.250000  1
  Cd  Cd20  1  0.885238  0.114302  0.250000  1
  Cd  Cd21  1  0.885238  0.770936  0.250000  1
  Cd  Cd22  1  0.229366  0.114684  0.250000  1
  Cd  Cd23  1  0.114491  0.885648  0.750000  1
  Cd  Cd24  1  0.114491  0.228842  0.750000  1
  Cd  Cd25  1  0.771170  0.885585  0.750000  1
  Ru  Ru26  1  0.333668  0.666835  0.250000  1
  Ru  Ru27  1  0.666751  0.333375  0.750000  1
