# generated using pymatgen
data_Sc3Al2CuO
_symmetry_space_group_name_H-M   'P 1'
_cell_length_a   8.53846696
_cell_length_b   8.53846713
_cell_length_c   8.53846600
_cell_angle_alpha   59.99999662
_cell_angle_beta   59.99999598
_cell_angle_gamma   59.99999796
_symmetry_Int_Tables_number   1
_chemical_formula_structural   Sc3Al2CuO
_chemical_formula_sum   'Sc12 Al8 Cu4 O4'
_cell_volume   440.17425483
_cell_formula_units_Z   4
loop_
 _symmetry_equiv_pos_site_id
 _symmetry_equiv_pos_as_xyz
  1  'x, y, z'
loop_
 _atom_site_type_symbol
 _atom_site_label
 _atom_site_symmetry_multiplicity
 _atom_site_fract_x
 _atom_site_fract_y
 _atom_site_fract_z
 _atom_site_occupancy
  Sc  Sc0  1  0.812472  0.812472  0.187528  1
  Sc  Sc1  1  0.062472  0.437528  0.437528  1
  Sc  Sc2  1  0.437528  0.062472  0.062472  1
  Sc  Sc3  1  0.062472  0.062472  0.437528  1
  Sc  Sc4  1  0.062472  0.437528  0.062472  1
  Sc  Sc5  1  0.437528  0.062472  0.437528  1
  Sc  Sc6  1  0.187528  0.812472  0.187528  1
  Sc  Sc7  1  0.187528  0.812472  0.812472  1
  Sc  Sc8  1  0.812472  0.187528  0.187528  1
  Sc  Sc9  1  0.812472  0.187528  0.812472  1
  Sc  Sc10  1  0.437528  0.437528  0.062472  1
  Sc  Sc11  1  0.187528  0.187528  0.812472  1
  Al  Al12  1  0.419848  0.740456  0.419848  1
  Al  Al13  1  0.830152  0.830152  0.509544  1
  Al  Al14  1  0.509544  0.830152  0.830152  1
  Al  Al15  1  0.830152  0.830152  0.830152  1
  Al  Al16  1  0.740456  0.419848  0.419848  1
  Al  Al17  1  0.419848  0.419848  0.419848  1
  Al  Al18  1  0.419848  0.419848  0.740456  1
  Al  Al19  1  0.830152  0.509544  0.830152  1
  Cu  Cu20  1  0.625000  0.125000  0.625000  1
  Cu  Cu21  1  0.625000  0.625000  0.125000  1
  Cu  Cu22  1  0.125000  0.625000  0.625000  1
  Cu  Cu23  1  0.625000  0.625000  0.625000  1
  O  O24  1  0.125000  0.625000  0.125000  1
  O  O25  1  0.125000  0.125000  0.625000  1
  O  O26  1  0.625000  0.125000  0.125000  1
  O  O27  1  0.125000  0.125000  0.125000  1
