# generated using pymatgen
data_Dy11HoTcRu3
_symmetry_space_group_name_H-M   'P 1'
_cell_length_a   6.29862461
_cell_length_b   7.35540803
_cell_length_c   9.15463019
_cell_angle_alpha   90.00912295
_cell_angle_beta   90.02188659
_cell_angle_gamma   90.02072305
_symmetry_Int_Tables_number   1
_chemical_formula_structural   Dy11HoTcRu3
_chemical_formula_sum   'Dy11 Ho1 Tc1 Ru3'
_cell_volume   424.12437760
_cell_formula_units_Z   1
loop_
 _symmetry_equiv_pos_site_id
 _symmetry_equiv_pos_as_xyz
  1  'x, y, z'
loop_
 _atom_site_type_symbol
 _atom_site_label
 _atom_site_symmetry_multiplicity
 _atom_site_fract_x
 _atom_site_fract_y
 _atom_site_fract_z
 _atom_site_occupancy
  Dy  Dy0  1  0.332766  0.676184  0.064423  1
  Dy  Dy1  1  0.167646  0.175943  0.435716  1
  Dy  Dy2  1  0.668118  0.323655  0.564131  1
  Dy  Dy3  1  0.834285  0.824747  0.937103  1
  Dy  Dy4  1  0.668132  0.323618  0.935926  1
  Dy  Dy5  1  0.834160  0.824633  0.562954  1
  Dy  Dy6  1  0.332843  0.676157  0.435549  1
  Dy  Dy7  1  0.867592  0.539691  0.249929  1
  Dy  Dy8  1  0.628526  0.041539  0.249914  1
  Dy  Dy9  1  0.134580  0.457961  0.750061  1
  Dy  Dy10  1  0.365754  0.958476  0.750082  1
  Ho  Ho11  1  0.167669  0.175814  0.064246  1
  Tc  Tc12  1  0.037482  0.885019  0.249951  1
  Ru  Ru13  1  0.461351  0.384004  0.249898  1
  Ru  Ru14  1  0.960490  0.117181  0.750133  1
  Ru  Ru15  1  0.538607  0.615380  0.749983  1
