# generated using pymatgen
data_TmNi21B6Mo
_symmetry_space_group_name_H-M   'P 1'
_cell_length_a   7.45761968
_cell_length_b   7.45761997
_cell_length_c   7.45762000
_cell_angle_alpha   59.99999986
_cell_angle_beta   59.99999857
_cell_angle_gamma   59.99999521
_symmetry_Int_Tables_number   1
_chemical_formula_structural   TmNi21B6Mo
_chemical_formula_sum   'Tm1 Ni21 B6 Mo1'
_cell_volume   293.28220412
_cell_formula_units_Z   1
loop_
 _symmetry_equiv_pos_site_id
 _symmetry_equiv_pos_as_xyz
  1  'x, y, z'
loop_
 _atom_site_type_symbol
 _atom_site_label
 _atom_site_symmetry_multiplicity
 _atom_site_fract_x
 _atom_site_fract_y
 _atom_site_fract_z
 _atom_site_occupancy
  Tm  Tm0  1  0.250000  0.250000  0.250000  1
  Ni  Ni1  1  0.341805  0.997736  0.997736  1
  Ni  Ni2  1  0.662723  0.997736  0.997736  1
  Ni  Ni3  1  0.997736  0.341805  0.662723  1
  Ni  Ni4  1  0.997736  0.662723  0.341805  1
  Ni  Ni5  1  0.997736  0.341805  0.997736  1
  Ni  Ni6  1  0.662723  0.997736  0.341805  1
  Ni  Ni7  1  0.997736  0.662723  0.997736  1
  Ni  Ni8  1  0.341805  0.997736  0.662723  1
  Ni  Ni9  1  0.997736  0.997736  0.341805  1
  Ni  Ni10  1  0.997736  0.997736  0.662723  1
  Ni  Ni11  1  0.662723  0.341805  0.997736  1
  Ni  Ni12  1  0.341805  0.662723  0.997736  1
  Ni  Ni13  1  0.391770  0.391770  0.391770  1
  Ni  Ni14  1  0.619952  0.619952  0.619952  1
  Ni  Ni15  1  0.391770  0.391770  0.824691  1
  Ni  Ni16  1  0.391770  0.824691  0.391770  1
  Ni  Ni17  1  0.619952  0.619952  0.140144  1
  Ni  Ni18  1  0.619952  0.140144  0.619952  1
  Ni  Ni19  1  0.824691  0.391770  0.391770  1
  Ni  Ni20  1  0.140144  0.619952  0.619952  1
  Ni  Ni21  1  0.000000  0.000000  0.000000  1
  B  B22  1  0.732143  0.267857  0.267857  1
  B  B23  1  0.267857  0.732143  0.732143  1
  B  B24  1  0.267857  0.732143  0.267857  1
  B  B25  1  0.732143  0.267857  0.732143  1
  B  B26  1  0.267857  0.267857  0.732143  1
  B  B27  1  0.732143  0.732143  0.267857  1
  Mo  Mo28  1  0.750000  0.750000  0.750000  1
