# generated using pymatgen
data_LaPr5(SiPt5)2
_symmetry_space_group_name_H-M   'P 1'
_cell_length_a   8.46980501
_cell_length_b   8.45678202
_cell_length_c   8.45678277
_cell_angle_alpha   127.20578361
_cell_angle_beta   126.39788938
_cell_angle_gamma   78.54041702
_symmetry_Int_Tables_number   1
_chemical_formula_structural   LaPr5(SiPt5)2
_chemical_formula_sum   'La1 Pr5 Si2 Pt10'
_cell_volume   376.02232328
_cell_formula_units_Z   1
loop_
 _symmetry_equiv_pos_site_id
 _symmetry_equiv_pos_as_xyz
  1  'x, y, z'
loop_
 _atom_site_type_symbol
 _atom_site_label
 _atom_site_symmetry_multiplicity
 _atom_site_fract_x
 _atom_site_fract_y
 _atom_site_fract_z
 _atom_site_occupancy
  La  La0  1  0.773730  0.050220  0.723510  1
  Pr  Pr1  1  0.827765  0.549744  0.278020  1
  Pr  Pr2  1  0.613414  0.250332  0.363082  1
  Pr  Pr3  1  0.172634  0.450405  0.722229  1
  Pr  Pr4  1  0.387236  0.749328  0.637908  1
  Pr  Pr5  1  0.227252  0.949482  0.277770  1
  Si  Si6  1  0.215352  0.250880  0.964472  1
  Si  Si7  1  0.787247  0.749979  0.037267  1
  Pt  Pt8  1  0.171894  0.908402  0.864320  1
  Pt  Pt9  1  0.827738  0.091557  0.134735  1
  Pt  Pt10  1  0.454943  0.192549  0.863132  1
  Pt  Pt11  1  0.544797  0.407928  0.737317  1
  Pt  Pt12  1  0.827738  0.693003  0.736181  1
  Pt  Pt13  1  0.454943  0.591812  0.262393  1
  Pt  Pt14  1  0.544797  0.807480  0.136869  1
  Pt  Pt15  1  0.171894  0.307574  0.263493  1
  Pt  Pt16  1  0.998313  0.001491  0.500479  1
  Pt  Pt17  1  0.998313  0.497833  0.996822  1
