# generated using pymatgen
data_Tb4Sm2CoBr10
_symmetry_space_group_name_H-M   'P 1'
_cell_length_a   7.42039004
_cell_length_b   9.19535235
_cell_length_c   9.31363046
_cell_angle_alpha   108.42143975
_cell_angle_beta   97.12486838
_cell_angle_gamma   105.05920139
_symmetry_Int_Tables_number   1
_chemical_formula_structural   Tb4Sm2CoBr10
_chemical_formula_sum   'Tb4 Sm2 Co1 Br10'
_cell_volume   567.29914722
_cell_formula_units_Z   1
loop_
 _symmetry_equiv_pos_site_id
 _symmetry_equiv_pos_as_xyz
  1  'x, y, z'
loop_
 _atom_site_type_symbol
 _atom_site_label
 _atom_site_symmetry_multiplicity
 _atom_site_fract_x
 _atom_site_fract_y
 _atom_site_fract_z
 _atom_site_occupancy
  Tb  Tb0  1  0.877236  0.954847  0.744245  1
  Tb  Tb1  1  0.122764  0.045153  0.255755  1
  Tb  Tb2  1  0.357583  0.134087  0.678483  1
  Tb  Tb3  1  0.642417  0.865913  0.321517  1
  Sm  Sm4  1  0.029901  0.712903  0.410604  1
  Sm  Sm5  1  0.970099  0.287097  0.589396  1
  Co  Co6  1  0.000000  0.000000  0.500000  1
  Br  Br7  1  0.455758  0.822253  0.584350  1
  Br  Br8  1  0.544242  0.177747  0.415650  1
  Br  Br9  1  0.911910  0.632732  0.675786  1
  Br  Br10  1  0.088090  0.367268  0.324214  1
  Br  Br11  1  0.251904  0.085131  0.957202  1
  Br  Br12  1  0.748096  0.914869  0.042798  1
  Br  Br13  1  0.357476  0.454140  0.773127  1
  Br  Br14  1  0.642524  0.545860  0.226873  1
  Br  Br15  1  0.784237  0.255230  0.849431  1
  Br  Br16  1  0.215763  0.744770  0.150569  1
