# generated using pymatgen
data_Zr10Ga3Si3O
_symmetry_space_group_name_H-M   'P 1'
_cell_length_a   8.04246300
_cell_length_b   8.04246388
_cell_length_c   5.65692500
_cell_angle_alpha   90.00000000
_cell_angle_beta   90.00000000
_cell_angle_gamma   120.00000047
_symmetry_Int_Tables_number   1
_chemical_formula_structural   Zr10Ga3Si3O
_chemical_formula_sum   'Zr10 Ga3 Si3 O1'
_cell_volume   316.87592279
_cell_formula_units_Z   1
loop_
 _symmetry_equiv_pos_site_id
 _symmetry_equiv_pos_as_xyz
  1  'x, y, z'
loop_
 _atom_site_type_symbol
 _atom_site_label
 _atom_site_symmetry_multiplicity
 _atom_site_fract_x
 _atom_site_fract_y
 _atom_site_fract_z
 _atom_site_occupancy
  Zr  Zr0  1  0.000000  0.758622  0.253604  1
  Zr  Zr1  1  0.241378  0.241378  0.253604  1
  Zr  Zr2  1  0.758622  0.000000  0.253604  1
  Zr  Zr3  1  0.000000  0.241949  0.745785  1
  Zr  Zr4  1  0.758051  0.758051  0.745785  1
  Zr  Zr5  1  0.241949  0.000000  0.745785  1
  Zr  Zr6  1  0.333333  0.666667  0.502608  1
  Zr  Zr7  1  0.666667  0.333333  0.502608  1
  Zr  Zr8  1  0.666667  0.333333  0.997424  1
  Zr  Zr9  1  0.333333  0.666667  0.997424  1
  Ga  Ga10  1  0.000000  0.395811  0.246018  1
  Ga  Ga11  1  0.604189  0.604189  0.246018  1
  Ga  Ga12  1  0.395811  0.000000  0.246018  1
  Si  Si13  1  0.000000  0.606654  0.754452  1
  Si  Si14  1  0.393346  0.393346  0.754452  1
  Si  Si15  1  0.606654  0.000000  0.754452  1
  O  O16  1  0.000000  0.000000  0.500359  1
