# generated using pymatgen
data_Zr10Sn3Ge2Bi3
_symmetry_space_group_name_H-M   'P 1'
_cell_length_a   8.79679100
_cell_length_b   8.79679120
_cell_length_c   5.94305700
_cell_angle_alpha   90.00000000
_cell_angle_beta   90.00000000
_cell_angle_gamma   119.99999548
_symmetry_Int_Tables_number   1
_chemical_formula_structural   Zr10Sn3Ge2Bi3
_chemical_formula_sum   'Zr10 Sn3 Ge2 Bi3'
_cell_volume   398.28055601
_cell_formula_units_Z   1
loop_
 _symmetry_equiv_pos_site_id
 _symmetry_equiv_pos_as_xyz
  1  'x, y, z'
loop_
 _atom_site_type_symbol
 _atom_site_label
 _atom_site_symmetry_multiplicity
 _atom_site_fract_x
 _atom_site_fract_y
 _atom_site_fract_z
 _atom_site_occupancy
  Zr  Zr0  1  0.666667  0.333333  0.993038  1
  Zr  Zr1  1  0.333333  0.666667  0.993038  1
  Zr  Zr2  1  0.333333  0.666667  0.506962  1
  Zr  Zr3  1  0.666667  0.333333  0.506962  1
  Zr  Zr4  1  0.734524  0.734524  0.750000  1
  Zr  Zr5  1  0.265476  0.000000  0.750000  1
  Zr  Zr6  1  0.000000  0.265476  0.750000  1
  Zr  Zr7  1  0.258230  0.258230  0.250000  1
  Zr  Zr8  1  0.741770  0.000000  0.250000  1
  Zr  Zr9  1  0.000000  0.741770  0.250000  1
  Sn  Sn10  1  0.388517  0.388517  0.750000  1
  Sn  Sn11  1  0.611483  0.000000  0.750000  1
  Sn  Sn12  1  0.000000  0.611483  0.750000  1
  Ge  Ge13  1  0.000000  0.000000  0.996974  1
  Ge  Ge14  1  0.000000  0.000000  0.503026  1
  Bi  Bi15  1  0.603138  0.603138  0.250000  1
  Bi  Bi16  1  0.396862  0.000000  0.250000  1
  Bi  Bi17  1  0.000000  0.396862  0.250000  1
