# generated using pymatgen
data_Ho5Er(TcB7)2
_symmetry_space_group_name_H-M   'P 1'
_cell_length_a   8.04143227
_cell_length_b   8.04143253
_cell_length_c   9.32656033
_cell_angle_alpha   89.97019173
_cell_angle_beta   90.02980823
_cell_angle_gamma   154.68615195
_symmetry_Int_Tables_number   1
_chemical_formula_structural   Ho5Er(TcB7)2
_chemical_formula_sum   'Ho5 Er1 Tc2 B14'
_cell_volume   257.87067741
_cell_formula_units_Z   1
loop_
 _symmetry_equiv_pos_site_id
 _symmetry_equiv_pos_as_xyz
  1  'x, y, z'
loop_
 _atom_site_type_symbol
 _atom_site_label
 _atom_site_symmetry_multiplicity
 _atom_site_fract_x
 _atom_site_fract_y
 _atom_site_fract_z
 _atom_site_occupancy
  Ho  Ho0  1  0.895162  0.104838  0.440369  1
  Ho  Ho1  1  0.104864  0.895136  0.559638  1
  Ho  Ho2  1  0.895165  0.104835  0.059573  1
  Ho  Ho3  1  0.241946  0.758054  0.249963  1
  Ho  Ho4  1  0.757929  0.242071  0.750012  1
  Er  Er5  1  0.104721  0.895279  0.940830  1
  Tc  Tc6  1  0.052702  0.947298  0.249815  1
  Tc  Tc7  1  0.947393  0.052607  0.750116  1
  B  B8  1  0.727212  0.272788  0.466753  1
  B  B9  1  0.272785  0.727215  0.533237  1
  B  B10  1  0.727072  0.272928  0.033130  1
  B  B11  1  0.272614  0.727386  0.966699  1
  B  B12  1  0.631889  0.368111  0.150917  1
  B  B13  1  0.368096  0.631904  0.848791  1
  B  B14  1  0.631900  0.368100  0.348805  1
  B  B15  1  0.368099  0.631901  0.651191  1
  B  B16  1  0.520609  0.479391  0.095624  1
  B  B17  1  0.479591  0.520409  0.904291  1
  B  B18  1  0.520556  0.479444  0.404146  1
  B  B19  1  0.479495  0.520505  0.595895  1
  B  B20  1  0.456555  0.543445  0.249940  1
  B  B21  1  0.543648  0.456352  0.750266  1
