# generated using pymatgen
data_Er2TlCuPd
_symmetry_space_group_name_H-M   'P 1'
_cell_length_a   7.62450600
_cell_length_b   7.60340000
_cell_length_c   3.68686600
_cell_angle_alpha   90.00000000
_cell_angle_beta   90.00000000
_cell_angle_gamma   90.00000000
_symmetry_Int_Tables_number   1
_chemical_formula_structural   Er2TlCuPd
_chemical_formula_sum   'Er4 Tl2 Cu2 Pd2'
_cell_volume   213.73561854
_cell_formula_units_Z   2
loop_
 _symmetry_equiv_pos_site_id
 _symmetry_equiv_pos_as_xyz
  1  'x, y, z'
loop_
 _atom_site_type_symbol
 _atom_site_label
 _atom_site_symmetry_multiplicity
 _atom_site_fract_x
 _atom_site_fract_y
 _atom_site_fract_z
 _atom_site_occupancy
  Er  Er0  1  0.327279  0.823701  0.500000  1
  Er  Er1  1  0.827279  0.676299  0.500000  1
  Er  Er2  1  0.174146  0.331063  0.500000  1
  Er  Er3  1  0.674146  0.168937  0.500000  1
  Tl  Tl4  1  0.005073  0.007233  0.000000  1
  Tl  Tl5  1  0.505073  0.492767  0.000000  1
  Cu  Cu6  1  0.375942  0.123249  0.000000  1
  Cu  Cu7  1  0.875942  0.376751  0.000000  1
  Pd  Pd8  1  0.117560  0.620412  0.000000  1
  Pd  Pd9  1  0.617560  0.879588  0.000000  1
