# generated using pymatgen
data_La3Eu(Ni12P5)2
_symmetry_space_group_name_H-M   'P 1'
_cell_length_a   3.68837600
_cell_length_b   10.94630654
_cell_length_c   13.19266905
_cell_angle_alpha   72.02670381
_cell_angle_beta   90.00000000
_cell_angle_gamma   90.00000000
_symmetry_Int_Tables_number   1
_chemical_formula_structural   La3Eu(Ni12P5)2
_chemical_formula_sum   'La3 Eu1 Ni24 P10'
_cell_volume   506.64936448
_cell_formula_units_Z   1
loop_
 _symmetry_equiv_pos_site_id
 _symmetry_equiv_pos_as_xyz
  1  'x, y, z'
loop_
 _atom_site_type_symbol
 _atom_site_label
 _atom_site_symmetry_multiplicity
 _atom_site_fract_x
 _atom_site_fract_y
 _atom_site_fract_z
 _atom_site_occupancy
  La  La0  1  0.750000  0.252222  0.812630  1
  La  La1  1  0.250000  0.779789  0.683196  1
  La  La2  1  0.750000  0.220661  0.316674  1
  Eu  Eu3  1  0.250000  0.747945  0.187467  1
  Ni  Ni4  1  0.250000  0.571876  0.014446  1
  Ni  Ni5  1  0.250000  0.566009  0.448259  1
  Ni  Ni6  1  0.750000  0.507158  0.340888  1
  Ni  Ni7  1  0.250000  0.492874  0.659282  1
  Ni  Ni8  1  0.750000  0.511189  0.150278  1
  Ni  Ni9  1  0.250000  0.488756  0.849446  1
  Ni  Ni10  1  0.750000  0.434066  0.551839  1
  Ni  Ni11  1  0.250000  0.344348  0.135068  1
  Ni  Ni12  1  0.750000  0.656893  0.561135  1
  Ni  Ni13  1  0.250000  0.343346  0.438182  1
  Ni  Ni14  1  0.750000  0.904472  0.305118  1
  Ni  Ni15  1  0.250000  0.095461  0.695010  1
  Ni  Ni16  1  0.750000  0.918057  0.990882  1
  Ni  Ni17  1  0.250000  0.081633  0.009222  1
  Ni  Ni18  1  0.750000  0.921089  0.490514  1
  Ni  Ni19  1  0.250000  0.079022  0.509438  1
  Ni  Ni20  1  0.750000  0.939666  0.796171  1
  Ni  Ni21  1  0.250000  0.060220  0.203774  1
  Ni  Ni22  1  0.250000  0.786535  0.438150  1
  Ni  Ni23  1  0.750000  0.213320  0.561629  1
  Ni  Ni24  1  0.250000  0.798152  0.918573  1
  Ni  Ni25  1  0.750000  0.200738  0.081746  1
  Ni  Ni26  1  0.750000  0.656165  0.865360  1
  Ni  Ni27  1  0.750000  0.428011  0.985650  1
  P  P28  1  0.250000  0.007080  0.871528  1
  P  P29  1  0.750000  0.991032  0.128965  1
  P  P30  1  0.250000  0.299303  0.984485  1
  P  P31  1  0.750000  0.700807  0.016543  1
  P  P32  1  0.250000  0.452853  0.259366  1
  P  P33  1  0.750000  0.549099  0.740247  1
  P  P34  1  0.250000  0.992046  0.378773  1
  P  P35  1  0.750000  0.007866  0.621205  1
  P  P36  1  0.250000  0.311212  0.611251  1
  P  P37  1  0.750000  0.689029  0.387607  1
