# generated using pymatgen
data_Y4HoEr5Pb8
_symmetry_space_group_name_H-M   'P 1'
_cell_length_a   8.17835200
_cell_length_b   8.25319803
_cell_length_c   15.58265700
_cell_angle_alpha   89.99483496
_cell_angle_beta   90.00000000
_cell_angle_gamma   90.00000000
_symmetry_Int_Tables_number   1
_chemical_formula_structural   Y4HoEr5Pb8
_chemical_formula_sum   'Y8 Ho2 Er10 Pb16'
_cell_volume   1051.79130041
_cell_formula_units_Z   2
loop_
 _symmetry_equiv_pos_site_id
 _symmetry_equiv_pos_as_xyz
  1  'x, y, z'
loop_
 _atom_site_type_symbol
 _atom_site_label
 _atom_site_symmetry_multiplicity
 _atom_site_fract_x
 _atom_site_fract_y
 _atom_site_fract_z
 _atom_site_occupancy
  Y  Y0  1  0.536502  0.323379  0.899876  1
  Y  Y1  1  0.036502  0.176621  0.600124  1
  Y  Y2  1  0.463542  0.676607  0.399977  1
  Y  Y3  1  0.963542  0.823393  0.100023  1
  Y  Y4  1  0.463544  0.676616  0.100100  1
  Y  Y5  1  0.963544  0.823384  0.399900  1
  Y  Y6  1  0.536481  0.323312  0.600097  1
  Y  Y7  1  0.036481  0.176688  0.899903  1
  Ho  Ho8  1  0.376567  0.841330  0.878908  1
  Ho  Ho9  1  0.876567  0.658670  0.621092  1
  Er  Er10  1  0.623495  0.158608  0.378888  1
  Er  Er11  1  0.123495  0.341392  0.121112  1
  Er  Er12  1  0.623507  0.158563  0.121038  1
  Er  Er13  1  0.123507  0.341437  0.378962  1
  Er  Er14  1  0.376468  0.841396  0.621175  1
  Er  Er15  1  0.876468  0.658604  0.878825  1
  Er  Er16  1  0.208280  0.504571  0.749984  1
  Er  Er17  1  0.708280  0.995429  0.750016  1
  Er  Er18  1  0.791704  0.495341  0.249981  1
  Er  Er19  1  0.291704  0.004659  0.250019  1
  Pb  Pb20  1  0.281788  0.033778  0.042995  1
  Pb  Pb21  1  0.781788  0.466222  0.457005  1
  Pb  Pb22  1  0.717892  0.966729  0.542952  1
  Pb  Pb23  1  0.217892  0.533271  0.957048  1
  Pb  Pb24  1  0.718395  0.966505  0.957057  1
  Pb  Pb25  1  0.218395  0.533495  0.542943  1
  Pb  Pb26  1  0.281886  0.033561  0.457176  1
  Pb  Pb27  1  0.781886  0.466439  0.042824  1
  Pb  Pb28  1  0.571165  0.627049  0.749967  1
  Pb  Pb29  1  0.071165  0.872951  0.750033  1
  Pb  Pb30  1  0.428745  0.372949  0.249991  1
  Pb  Pb31  1  0.928745  0.127051  0.250009  1
  Pb  Pb32  1  0.347786  0.153512  0.749907  1
  Pb  Pb33  1  0.847786  0.346488  0.750093  1
  Pb  Pb34  1  0.652252  0.846618  0.250011  1
  Pb  Pb35  1  0.152252  0.653382  0.249989  1
