# generated using pymatgen
data_AcSiBr
_symmetry_space_group_name_H-M   'P 1'
_cell_length_a   4.33574500
_cell_length_b   4.33574534
_cell_length_c   12.30679900
_cell_angle_alpha   90.00000000
_cell_angle_beta   90.00000000
_cell_angle_gamma   119.99998975
_symmetry_Int_Tables_number   1
_chemical_formula_structural   AcSiBr
_chemical_formula_sum   'Ac2 Si2 Br2'
_cell_volume   200.35642895
_cell_formula_units_Z   2
loop_
 _symmetry_equiv_pos_site_id
 _symmetry_equiv_pos_as_xyz
  1  'x, y, z'
loop_
 _atom_site_type_symbol
 _atom_site_label
 _atom_site_symmetry_multiplicity
 _atom_site_fract_x
 _atom_site_fract_y
 _atom_site_fract_z
 _atom_site_occupancy
  Ac  Ac0  1  0.000000  0.000000  0.172738  1
  Ac  Ac1  1  0.000000  0.000000  0.827262  1
  Si  Si2  1  0.666666  0.333333  0.007619  1
  Si  Si3  1  0.333333  0.666667  0.992380  1
  Br  Br4  1  0.333333  0.666667  0.333764  1
  Br  Br5  1  0.666666  0.333333  0.666236  1
