# generated using pymatgen
data_ErTm7Cd2NiOs
_symmetry_space_group_name_H-M   'P 1'
_cell_length_a   9.47245790
_cell_length_b   9.47245862
_cell_length_c   9.57198400
_cell_angle_alpha   59.65183141
_cell_angle_beta   59.65182886
_cell_angle_gamma   59.30196256
_symmetry_Int_Tables_number   1
_chemical_formula_structural   ErTm7Cd2NiOs
_chemical_formula_sum   'Er2 Tm14 Cd4 Ni2 Os2'
_cell_volume   600.87928864
_cell_formula_units_Z   2
loop_
 _symmetry_equiv_pos_site_id
 _symmetry_equiv_pos_as_xyz
  1  'x, y, z'
loop_
 _atom_site_type_symbol
 _atom_site_label
 _atom_site_symmetry_multiplicity
 _atom_site_fract_x
 _atom_site_fract_y
 _atom_site_fract_z
 _atom_site_occupancy
  Er  Er0  1  0.350335  0.350335  0.341860  1
  Er  Er1  1  0.350335  0.350335  0.957471  1
  Tm  Tm2  1  0.353918  0.955720  0.345181  1
  Tm  Tm3  1  0.955720  0.353918  0.345181  1
  Tm  Tm4  1  0.810975  0.185960  0.190078  1
  Tm  Tm5  1  0.185960  0.810975  0.812988  1
  Tm  Tm6  1  0.185960  0.810975  0.190078  1
  Tm  Tm7  1  0.810975  0.185960  0.812988  1
  Tm  Tm8  1  0.187742  0.187742  0.812258  1
  Tm  Tm9  1  0.810431  0.810431  0.189569  1
  Tm  Tm10  1  0.938581  0.556666  0.567114  1
  Tm  Tm11  1  0.556666  0.938581  0.937639  1
  Tm  Tm12  1  0.556666  0.938581  0.567114  1
  Tm  Tm13  1  0.938581  0.556666  0.937639  1
  Tm  Tm14  1  0.565585  0.565585  0.934415  1
  Tm  Tm15  1  0.942982  0.942982  0.557018  1
  Cd  Cd16  1  0.578858  0.578858  0.583575  1
  Cd  Cd17  1  0.578858  0.578858  0.258710  1
  Cd  Cd18  1  0.579256  0.255728  0.582508  1
  Cd  Cd19  1  0.255728  0.579256  0.582508  1
  Ni  Ni20  1  0.141519  0.578001  0.140240  1
  Ni  Ni21  1  0.578001  0.141519  0.140240  1
  Os  Os22  1  0.143184  0.143184  0.140043  1
  Os  Os23  1  0.143184  0.143184  0.573589  1
