# generated using pymatgen
data_Cs6PrTe4Br
_symmetry_space_group_name_H-M   'P 1'
_cell_length_a   12.56047100
_cell_length_b   12.56047178
_cell_length_c   9.23190000
_cell_angle_alpha   90.00000000
_cell_angle_beta   90.00000000
_cell_angle_gamma   120.00000586
_symmetry_Int_Tables_number   1
_chemical_formula_structural   Cs6PrTe4Br
_chemical_formula_sum   'Cs12 Pr2 Te8 Br2'
_cell_volume   1261.34408444
_cell_formula_units_Z   2
loop_
 _symmetry_equiv_pos_site_id
 _symmetry_equiv_pos_as_xyz
  1  'x, y, z'
loop_
 _atom_site_type_symbol
 _atom_site_label
 _atom_site_symmetry_multiplicity
 _atom_site_fract_x
 _atom_site_fract_y
 _atom_site_fract_z
 _atom_site_occupancy
  Cs  Cs0  1  0.127022  0.872978  0.511479  1
  Cs  Cs1  1  0.745955  0.872978  0.511479  1
  Cs  Cs2  1  0.942269  0.471135  0.316811  1
  Cs  Cs3  1  0.528865  0.471135  0.316811  1
  Cs  Cs4  1  0.872978  0.745955  0.011479  1
  Cs  Cs5  1  0.254045  0.127022  0.011479  1
  Cs  Cs6  1  0.528865  0.057731  0.316811  1
  Cs  Cs7  1  0.127022  0.254045  0.511479  1
  Cs  Cs8  1  0.872978  0.127022  0.011479  1
  Cs  Cs9  1  0.057731  0.528865  0.816811  1
  Cs  Cs10  1  0.471135  0.942269  0.816811  1
  Cs  Cs11  1  0.471135  0.528865  0.816811  1
  Pr  Pr12  1  0.666667  0.333333  0.716714  1
  Pr  Pr13  1  0.333333  0.666667  0.216714  1
  Te  Te14  1  0.402418  0.201209  0.606866  1
  Te  Te15  1  0.597582  0.798791  0.106866  1
  Te  Te16  1  0.666667  0.333333  0.047472  1
  Te  Te17  1  0.798791  0.597582  0.606866  1
  Te  Te18  1  0.201209  0.402418  0.106866  1
  Te  Te19  1  0.333333  0.666667  0.547472  1
  Te  Te20  1  0.201209  0.798791  0.106866  1
  Te  Te21  1  0.798791  0.201209  0.606866  1
  Br  Br22  1  0.000000  0.000000  0.270944  1
  Br  Br23  1  0.000000  0.000000  0.770944  1
