# generated using pymatgen
data_LaYbZn19Cu3
_symmetry_space_group_name_H-M   'P 1'
_cell_length_a   8.23607021
_cell_length_b   8.23093557
_cell_length_c   8.23093453
_cell_angle_alpha   99.67339106
_cell_angle_beta   99.57699620
_cell_angle_gamma   131.68804676
_symmetry_Int_Tables_number   1
_chemical_formula_structural   LaYbZn19Cu3
_chemical_formula_sum   'La1 Yb1 Zn19 Cu3'
_cell_volume   380.31780731
_cell_formula_units_Z   1
loop_
 _symmetry_equiv_pos_site_id
 _symmetry_equiv_pos_as_xyz
  1  'x, y, z'
loop_
 _atom_site_type_symbol
 _atom_site_label
 _atom_site_symmetry_multiplicity
 _atom_site_fract_x
 _atom_site_fract_y
 _atom_site_fract_z
 _atom_site_occupancy
  La  La0  1  0.999814  0.001035  0.998782  1
  Yb  Yb1  1  0.250649  0.749789  0.500866  1
  Zn  Zn2  1  0.895739  0.569517  0.083579  1
  Zn  Zn3  1  0.430646  0.512598  0.325018  1
  Zn  Zn4  1  0.491080  0.571217  0.673958  1
  Zn  Zn5  1  0.430647  0.105628  0.918047  1
  Zn  Zn6  1  0.757199  0.177668  0.825598  1
  Zn  Zn7  1  0.491082  0.817121  0.919864  1
  Zn  Zn8  1  0.506651  0.502831  0.003822  1
  Zn  Zn9  1  0.757196  0.931600  0.579529  1
  Zn  Zn10  1  0.742925  0.246822  0.496100  1
  Zn  Zn11  1  0.063219  0.651359  0.828277  1
  Zn  Zn12  1  0.124068  0.374588  0.749479  1
  Zn  Zn13  1  0.353731  0.179567  0.417014  1
  Zn  Zn14  1  0.820369  0.644942  0.581227  1
  Zn  Zn15  1  0.895736  0.812159  0.326221  1
  Zn  Zn16  1  0.187976  0.098909  0.671313  1
  Zn  Zn17  1  0.063220  0.234943  0.411857  1
  Zn  Zn18  1  0.353734  0.936716  0.174164  1
  Zn  Zn19  1  0.820371  0.239144  0.175427  1
  Zn  Zn20  1  0.187975  0.516661  0.089068  1
  Cu  Cu21  1  0.625232  0.876034  0.250799  1
  Cu  Cu22  1  0.625510  0.374716  0.250792  1
  Cu  Cu23  1  0.625231  0.374434  0.749198  1
