# generated using pymatgen
data_Dy4Lu6GaSb5
_symmetry_space_group_name_H-M   'P 1'
_cell_length_a   6.25688600
_cell_length_b   8.84611686
_cell_length_c   8.78880063
_cell_angle_alpha   120.21597631
_cell_angle_beta   90.00006019
_cell_angle_gamma   89.99988832
_symmetry_Int_Tables_number   1
_chemical_formula_structural   Dy4Lu6GaSb5
_chemical_formula_sum   'Dy4 Lu6 Ga1 Sb5'
_cell_volume   420.36047569
_cell_formula_units_Z   1
loop_
 _symmetry_equiv_pos_site_id
 _symmetry_equiv_pos_as_xyz
  1  'x, y, z'
loop_
 _atom_site_type_symbol
 _atom_site_label
 _atom_site_symmetry_multiplicity
 _atom_site_fract_x
 _atom_site_fract_y
 _atom_site_fract_z
 _atom_site_occupancy
  Dy  Dy0  1  0.750009  0.753781  0.764711  1
  Dy  Dy1  1  0.750009  0.989071  0.235289  1
  Dy  Dy2  1  0.249995  0.243722  0.243161  1
  Dy  Dy3  1  0.249995  0.000561  0.756839  1
  Lu  Lu4  1  0.501902  0.340049  0.674888  1
  Lu  Lu5  1  0.501902  0.665160  0.325112  1
  Lu  Lu6  1  0.998094  0.665165  0.325098  1
  Lu  Lu7  1  0.998094  0.340068  0.674902  1
  Lu  Lu8  1  0.750015  0.250726  0.000000  1
  Lu  Lu9  1  0.249997  0.754542  0.000000  1
  Ga  Ga10  1  0.750004  0.602973  0.000000  1
  Sb  Sb11  1  0.749998  0.389504  0.389980  1
  Sb  Sb12  1  0.749998  0.999524  0.610020  1
  Sb  Sb13  1  0.249999  0.394931  0.000000  1
  Sb  Sb14  1  0.249997  0.608617  0.607014  1
  Sb  Sb15  1  0.249997  0.001604  0.392986  1
