# generated using pymatgen
data_TbHo4Sc3(P3Ir4)4
_symmetry_space_group_name_H-M   'P 1'
_cell_length_a   12.85648700
_cell_length_b   12.85648745
_cell_length_c   3.96145700
_cell_angle_alpha   90.00000000
_cell_angle_beta   90.00000000
_cell_angle_gamma   120.00000656
_symmetry_Int_Tables_number   1
_chemical_formula_structural   TbHo4Sc3(P3Ir4)4
_chemical_formula_sum   'Tb1 Ho4 Sc3 P12 Ir16'
_cell_volume   567.06154191
_cell_formula_units_Z   1
loop_
 _symmetry_equiv_pos_site_id
 _symmetry_equiv_pos_as_xyz
  1  'x, y, z'
loop_
 _atom_site_type_symbol
 _atom_site_label
 _atom_site_symmetry_multiplicity
 _atom_site_fract_x
 _atom_site_fract_y
 _atom_site_fract_z
 _atom_site_occupancy
  Tb  Tb0  1  0.666667  0.333333  0.000000  1
  Ho  Ho1  1  0.333333  0.666667  0.000000  1
  Ho  Ho2  1  0.812120  0.812053  0.500000  1
  Ho  Ho3  1  0.187947  0.000067  0.500000  1
  Ho  Ho4  1  0.999933  0.187880  0.500000  1
  Sc  Sc5  1  0.443894  0.444059  0.000000  1
  Sc  Sc6  1  0.555941  0.999833  0.000000  1
  Sc  Sc7  1  0.000167  0.556106  0.000000  1
  P  P8  1  0.686837  0.169407  0.500000  1
  P  P9  1  0.830593  0.517430  0.500000  1
  P  P10  1  0.482570  0.313163  0.500000  1
  P  P11  1  0.170001  0.686912  0.500000  1
  P  P12  1  0.516912  0.829999  0.500000  1
  P  P13  1  0.313088  0.483088  0.500000  1
  P  P14  1  0.176204  0.176319  0.000000  1
  P  P15  1  0.823681  0.999885  0.000000  1
  P  P16  1  0.000115  0.823796  0.000000  1
  P  P17  1  0.645242  0.645223  0.000000  1
  P  P18  1  0.354777  0.000020  0.000000  1
  P  P19  1  0.999980  0.354758  0.000000  1
  Ir  Ir20  1  0.868703  0.358059  0.500000  1
  Ir  Ir21  1  0.641941  0.510644  0.500000  1
  Ir  Ir22  1  0.489356  0.131297  0.500000  1
  Ir  Ir23  1  0.357904  0.867473  0.500000  1
  Ir  Ir24  1  0.509568  0.642096  0.500000  1
  Ir  Ir25  1  0.132527  0.490432  0.500000  1
  Ir  Ir26  1  0.807264  0.178909  0.000000  1
  Ir  Ir27  1  0.821091  0.628356  0.000000  1
  Ir  Ir28  1  0.371644  0.192736  0.000000  1
  Ir  Ir29  1  0.179240  0.807363  0.000000  1
  Ir  Ir30  1  0.628123  0.820760  0.000000  1
  Ir  Ir31  1  0.192637  0.371877  0.000000  1
  Ir  Ir32  1  0.276724  0.276914  0.500000  1
  Ir  Ir33  1  0.723086  0.999810  0.500000  1
  Ir  Ir34  1  0.000190  0.723276  0.500000  1
  Ir  Ir35  1  0.000000  0.000000  0.000000  1
