# generated using pymatgen
data_La2Tc3B4C
_symmetry_space_group_name_H-M   'P 1'
_cell_length_a   5.75696197
_cell_length_b   5.75696136
_cell_length_c   8.24655888
_cell_angle_alpha   123.58288212
_cell_angle_beta   123.58287891
_cell_angle_gamma   41.68659879
_symmetry_Int_Tables_number   1
_chemical_formula_structural   La2Tc3B4C
_chemical_formula_sum   'La2 Tc3 B4 C1'
_cell_volume   146.51018626
_cell_formula_units_Z   1
loop_
 _symmetry_equiv_pos_site_id
 _symmetry_equiv_pos_as_xyz
  1  'x, y, z'
loop_
 _atom_site_type_symbol
 _atom_site_label
 _atom_site_symmetry_multiplicity
 _atom_site_fract_x
 _atom_site_fract_y
 _atom_site_fract_z
 _atom_site_occupancy
  La  La0  1  0.382928  0.953981  0.259056  1
  La  La1  1  0.046018  0.617071  0.740942  1
  Tc  Tc2  1  0.599599  0.144333  0.094576  1
  Tc  Tc3  1  0.990121  0.009879  0.499999  1
  Tc  Tc4  1  0.855667  0.400401  0.905425  1
  B  B5  1  0.077642  0.643758  0.188439  1
  B  B6  1  0.463800  0.489186  0.381598  1
  B  B7  1  0.510814  0.536200  0.618402  1
  B  B8  1  0.356242  0.922358  0.811562  1
  C  C9  1  0.712561  0.287439  0.000000  1
