# generated using pymatgen
data_Pr2Ho3In3Pb
_symmetry_space_group_name_H-M   'P 1'
_cell_length_a   8.01238500
_cell_length_b   8.44192800
_cell_length_c   15.98495600
_cell_angle_alpha   90.00000000
_cell_angle_beta   90.00000000
_cell_angle_gamma   90.00000000
_symmetry_Int_Tables_number   1
_chemical_formula_structural   Pr2Ho3In3Pb
_chemical_formula_sum   'Pr8 Ho12 In12 Pb4'
_cell_volume   1081.22206063
_cell_formula_units_Z   4
loop_
 _symmetry_equiv_pos_site_id
 _symmetry_equiv_pos_as_xyz
  1  'x, y, z'
loop_
 _atom_site_type_symbol
 _atom_site_label
 _atom_site_symmetry_multiplicity
 _atom_site_fract_x
 _atom_site_fract_y
 _atom_site_fract_z
 _atom_site_occupancy
  Pr  Pr0  1  0.503723  0.683042  0.595257  1
  Pr  Pr1  1  0.003723  0.816958  0.904743  1
  Pr  Pr2  1  0.496277  0.316958  0.095257  1
  Pr  Pr3  1  0.996277  0.183042  0.404743  1
  Pr  Pr4  1  0.503400  0.318295  0.404335  1
  Pr  Pr5  1  0.003400  0.181705  0.095665  1
  Pr  Pr6  1  0.496600  0.681705  0.904335  1
  Pr  Pr7  1  0.996600  0.818295  0.595665  1
  Ho  Ho8  1  0.662148  0.168238  0.624582  1
  Ho  Ho9  1  0.162148  0.331762  0.875418  1
  Ho  Ho10  1  0.337852  0.831762  0.124582  1
  Ho  Ho11  1  0.837852  0.668238  0.375418  1
  Ho  Ho12  1  0.344675  0.829448  0.374782  1
  Ho  Ho13  1  0.844675  0.670552  0.125218  1
  Ho  Ho14  1  0.655325  0.170552  0.874782  1
  Ho  Ho15  1  0.155325  0.329448  0.625218  1
  Ho  Ho16  1  0.822501  0.503059  0.749235  1
  Ho  Ho17  1  0.322501  0.996941  0.750765  1
  Ho  Ho18  1  0.177499  0.496941  0.249235  1
  Ho  Ho19  1  0.677499  0.003059  0.250765  1
  In  In20  1  0.679153  0.962138  0.459421  1
  In  In21  1  0.179153  0.537862  0.040579  1
  In  In22  1  0.320847  0.037862  0.959421  1
  In  In23  1  0.820847  0.462138  0.540579  1
  In  In24  1  0.457957  0.385642  0.747225  1
  In  In25  1  0.957957  0.114358  0.752775  1
  In  In26  1  0.542043  0.614358  0.247225  1
  In  In27  1  0.042043  0.885642  0.252775  1
  In  In28  1  0.698308  0.867007  0.750618  1
  In  In29  1  0.198308  0.632993  0.749382  1
  In  In30  1  0.301692  0.132993  0.250618  1
  In  In31  1  0.801692  0.367007  0.249382  1
  Pb  Pb32  1  0.322451  0.037119  0.538940  1
  Pb  Pb33  1  0.822451  0.462881  0.961060  1
  Pb  Pb34  1  0.677549  0.962881  0.038940  1
  Pb  Pb35  1  0.177549  0.537119  0.461060  1
