# generated using pymatgen
data_ThPd2Au3
_symmetry_space_group_name_H-M   'P 1'
_cell_length_a   5.47852815
_cell_length_b   5.47852820
_cell_length_c   5.47852848
_cell_angle_alpha   120.20432694
_cell_angle_beta   119.23247367
_cell_angle_gamma   90.49048296
_symmetry_Int_Tables_number   1
_chemical_formula_structural   ThPd2Au3
_chemical_formula_sum   'Th1 Pd2 Au3'
_cell_volume   116.75230266
_cell_formula_units_Z   1
loop_
 _symmetry_equiv_pos_site_id
 _symmetry_equiv_pos_as_xyz
  1  'x, y, z'
loop_
 _atom_site_type_symbol
 _atom_site_label
 _atom_site_symmetry_multiplicity
 _atom_site_fract_x
 _atom_site_fract_y
 _atom_site_fract_z
 _atom_site_occupancy
  Th  Th0  1  0.003882  0.003882  0.000000  1
  Pd  Pd1  1  0.623824  0.374379  0.249444  1
  Pd  Pd2  1  0.124935  0.374379  0.750556  1
  Au  Au3  1  0.623399  0.374370  0.750972  1
  Au  Au4  1  0.623399  0.872427  0.249028  1
  Au  Au5  1  0.250562  0.750562  0.500000  1
