# generated using pymatgen
data_Y3Mg2ZnPdPt2
_symmetry_space_group_name_H-M   'P 1'
_cell_length_a   7.46084016
_cell_length_b   7.47067086
_cell_length_c   3.93104700
_cell_angle_alpha   90.00000000
_cell_angle_beta   90.00000000
_cell_angle_gamma   120.04358522
_symmetry_Int_Tables_number   1
_chemical_formula_structural   Y3Mg2ZnPdPt2
_chemical_formula_sum   'Y3 Mg2 Zn1 Pd1 Pt2'
_cell_volume   189.66853944
_cell_formula_units_Z   1
loop_
 _symmetry_equiv_pos_site_id
 _symmetry_equiv_pos_as_xyz
  1  'x, y, z'
loop_
 _atom_site_type_symbol
 _atom_site_label
 _atom_site_symmetry_multiplicity
 _atom_site_fract_x
 _atom_site_fract_y
 _atom_site_fract_z
 _atom_site_occupancy
  Y  Y0  1  0.601851  0.591372  0.000000  1
  Y  Y1  1  0.398149  0.989520  0.000000  1
  Y  Y2  1  0.000000  0.428096  0.000000  1
  Mg  Mg3  1  0.246042  0.248676  0.500000  1
  Mg  Mg4  1  0.753958  0.002634  0.500000  1
  Zn  Zn5  1  0.000000  0.748323  0.500000  1
  Pd  Pd6  1  0.000000  0.993678  0.000000  1
  Pt  Pt7  1  0.336590  0.667146  0.500000  1
  Pt  Pt8  1  0.663410  0.330555  0.500000  1
