# generated using pymatgen
data_DyTa8SnSe16
_symmetry_space_group_name_H-M   'P 1'
_cell_length_a   7.00933200
_cell_length_b   7.00933064
_cell_length_c   14.64769600
_cell_angle_alpha   90.00000000
_cell_angle_beta   90.00000000
_cell_angle_gamma   120.00000644
_symmetry_Int_Tables_number   1
_chemical_formula_structural   DyTa8SnSe16
_chemical_formula_sum   'Dy1 Ta8 Sn1 Se16'
_cell_volume   623.23681430
_cell_formula_units_Z   1
loop_
 _symmetry_equiv_pos_site_id
 _symmetry_equiv_pos_as_xyz
  1  'x, y, z'
loop_
 _atom_site_type_symbol
 _atom_site_label
 _atom_site_symmetry_multiplicity
 _atom_site_fract_x
 _atom_site_fract_y
 _atom_site_fract_z
 _atom_site_occupancy
  Dy  Dy0  1  0.000000  0.000000  0.500000  1
  Ta  Ta1  1  0.507758  0.492168  0.745245  1
  Ta  Ta2  1  0.015601  0.507822  0.254765  1
  Ta  Ta3  1  0.492279  0.984410  0.254771  1
  Ta  Ta4  1  0.507721  0.015590  0.745229  1
  Ta  Ta5  1  0.984399  0.492178  0.745235  1
  Ta  Ta6  1  0.492242  0.507832  0.254755  1
  Ta  Ta7  1  0.000002  0.999947  0.743943  1
  Ta  Ta8  1  0.999998  0.000053  0.256057  1
  Sn  Sn9  1  0.000000  0.000000  0.000000  1
  Se  Se10  1  0.830021  0.170002  0.367489  1
  Se  Se11  1  0.830001  0.659995  0.367499  1
  Se  Se12  1  0.339961  0.169978  0.367488  1
  Se  Se13  1  0.661375  0.830706  0.856278  1
  Se  Se14  1  0.169999  0.340005  0.632501  1
  Se  Se15  1  0.169351  0.830711  0.856262  1
  Se  Se16  1  0.169321  0.338630  0.856265  1
  Se  Se17  1  0.830649  0.169289  0.143738  1
  Se  Se18  1  0.338625  0.169294  0.143722  1
  Se  Se19  1  0.660039  0.830022  0.632512  1
  Se  Se20  1  0.333350  0.666688  0.136953  1
  Se  Se21  1  0.666669  0.333304  0.627159  1
  Se  Se22  1  0.666650  0.333312  0.863047  1
  Se  Se23  1  0.333331  0.666696  0.372841  1
  Se  Se24  1  0.830679  0.661370  0.143735  1
  Se  Se25  1  0.169979  0.829998  0.632511  1
