# generated using pymatgen
data_YbEu4U3O12
_symmetry_space_group_name_H-M   'P 1'
_cell_length_a   6.14659524
_cell_length_b   6.01271628
_cell_length_c   8.54557600
_cell_angle_alpha   89.51776463
_cell_angle_beta   90.09382142
_cell_angle_gamma   89.96297822
_symmetry_Int_Tables_number   1
_chemical_formula_structural   YbEu4U3O12
_chemical_formula_sum   'Yb1 Eu4 U3 O12'
_cell_volume   315.81343973
_cell_formula_units_Z   1
loop_
 _symmetry_equiv_pos_site_id
 _symmetry_equiv_pos_as_xyz
  1  'x, y, z'
loop_
 _atom_site_type_symbol
 _atom_site_label
 _atom_site_symmetry_multiplicity
 _atom_site_fract_x
 _atom_site_fract_y
 _atom_site_fract_z
 _atom_site_occupancy
  Yb  Yb0  1  0.000000  0.500000  0.000000  1
  Eu  Eu1  1  0.040025  0.983839  0.761198  1
  Eu  Eu2  1  0.447752  0.479799  0.235532  1
  Eu  Eu3  1  0.552248  0.520201  0.764468  1
  Eu  Eu4  1  0.959976  0.016161  0.238802  1
  U  U5  1  0.000000  0.500000  0.500000  1
  U  U6  1  0.500000  0.000000  0.500000  1
  U  U7  1  0.500000  0.000000  0.000000  1
  O  O8  1  0.214852  0.190474  0.061801  1
  O  O9  1  0.544835  0.878540  0.250123  1
  O  O10  1  0.707665  0.290554  0.426089  1
  O  O11  1  0.689786  0.284838  0.055002  1
  O  O12  1  0.793781  0.792395  0.570571  1
  O  O13  1  0.044755  0.615784  0.267405  1
  O  O14  1  0.206219  0.207605  0.429429  1
  O  O15  1  0.310214  0.715162  0.944998  1
  O  O16  1  0.292335  0.709446  0.573911  1
  O  O17  1  0.455165  0.121460  0.749877  1
  O  O18  1  0.785148  0.809526  0.938199  1
  O  O19  1  0.955245  0.384216  0.732595  1
