# generated using pymatgen
data_La5Pr4NdIr6
_symmetry_space_group_name_H-M   'P 1'
_cell_length_a   11.38748293
_cell_length_b   11.39071578
_cell_length_c   6.64263473
_cell_angle_alpha   90.17117995
_cell_angle_beta   90.19132731
_cell_angle_gamma   89.98294427
_symmetry_Int_Tables_number   1
_chemical_formula_structural   La5Pr4NdIr6
_chemical_formula_sum   'La10 Pr8 Nd2 Ir12'
_cell_volume   861.61797188
_cell_formula_units_Z   2
loop_
 _symmetry_equiv_pos_site_id
 _symmetry_equiv_pos_as_xyz
  1  'x, y, z'
loop_
 _atom_site_type_symbol
 _atom_site_label
 _atom_site_symmetry_multiplicity
 _atom_site_fract_x
 _atom_site_fract_y
 _atom_site_fract_z
 _atom_site_occupancy
  La  La0  1  0.091699  0.291476  0.112740  1
  La  La1  1  0.791451  0.408843  0.113896  1
  La  La2  1  0.208639  0.592129  0.111981  1
  La  La3  1  0.908391  0.708804  0.112885  1
  La  La4  1  0.408387  0.791792  0.388053  1
  La  La5  1  0.591838  0.209570  0.387862  1
  La  La6  1  0.290808  0.090774  0.388040  1
  La  La7  1  0.708711  0.907346  0.387857  1
  La  La8  1  0.408693  0.208168  0.887162  1
  La  La9  1  0.708802  0.089721  0.887180  1
  Pr  Pr10  1  0.291062  0.909308  0.885000  1
  Pr  Pr11  1  0.589024  0.790680  0.884860  1
  Pr  Pr12  1  0.089296  0.708405  0.614102  1
  Pr  Pr13  1  0.911110  0.292289  0.613618  1
  Pr  Pr14  1  0.207944  0.411302  0.613344  1
  Pr  Pr15  1  0.791937  0.589551  0.614552  1
  Pr  Pr16  1  0.000873  0.998968  0.999038  1
  Pr  Pr17  1  0.500318  0.500644  0.998911  1
  Nd  Nd18  1  0.499727  0.500015  0.500689  1
  Nd  Nd19  1  0.000273  0.000256  0.500911  1
  Ir  Ir20  1  0.153554  0.846462  0.251087  1
  Ir  Ir21  1  0.346799  0.345758  0.248891  1
  Ir  Ir22  1  0.653219  0.653717  0.251333  1
  Ir  Ir23  1  0.845490  0.152877  0.249268  1
  Ir  Ir24  1  0.346403  0.653850  0.748162  1
  Ir  Ir25  1  0.154126  0.153974  0.749553  1
  Ir  Ir26  1  0.846207  0.845943  0.748128  1
  Ir  Ir27  1  0.654413  0.346184  0.749482  1
  Ir  Ir28  1  0.000276  0.499479  0.374145  1
  Ir  Ir29  1  0.500251  0.999711  0.123786  1
  Ir  Ir30  1  0.500488  0.001518  0.619053  1
  Ir  Ir31  1  0.999792  0.500485  0.884430  1
