# generated using pymatgen
data_Y4Co12Si4B3C
_symmetry_space_group_name_H-M   'P 1'
_cell_length_a   5.12781200
_cell_length_b   5.12781284
_cell_length_c   12.87822200
_cell_angle_alpha   90.00000000
_cell_angle_beta   90.00000000
_cell_angle_gamma   119.99998171
_symmetry_Int_Tables_number   1
_chemical_formula_structural   Y4Co12Si4B3C
_chemical_formula_sum   'Y4 Co12 Si4 B3 C1'
_cell_volume   293.25868213
_cell_formula_units_Z   1
loop_
 _symmetry_equiv_pos_site_id
 _symmetry_equiv_pos_as_xyz
  1  'x, y, z'
loop_
 _atom_site_type_symbol
 _atom_site_label
 _atom_site_symmetry_multiplicity
 _atom_site_fract_x
 _atom_site_fract_y
 _atom_site_fract_z
 _atom_site_occupancy
  Y  Y0  1  0.333333  0.666667  0.250350  1
  Y  Y1  1  0.333333  0.666667  0.749650  1
  Y  Y2  1  0.333333  0.666667  0.000000  1
  Y  Y3  1  0.333333  0.666667  0.500000  1
  Co  Co4  1  0.831003  0.662006  0.104805  1
  Co  Co5  1  0.833528  0.667057  0.609012  1
  Co  Co6  1  0.337994  0.168997  0.104805  1
  Co  Co7  1  0.332943  0.166472  0.609012  1
  Co  Co8  1  0.831003  0.168997  0.104805  1
  Co  Co9  1  0.833528  0.166472  0.609012  1
  Co  Co10  1  0.831003  0.662006  0.895195  1
  Co  Co11  1  0.833528  0.667057  0.390988  1
  Co  Co12  1  0.337994  0.168997  0.895195  1
  Co  Co13  1  0.332943  0.166472  0.390988  1
  Co  Co14  1  0.831003  0.168997  0.895195  1
  Co  Co15  1  0.833528  0.166472  0.390988  1
  Si  Si16  1  0.666667  0.333333  0.249855  1
  Si  Si17  1  0.666667  0.333333  0.750145  1
  Si  Si18  1  0.000000  0.000000  0.751618  1
  Si  Si19  1  0.000000  0.000000  0.248382  1
  B  B20  1  0.666667  0.333333  0.500000  1
  B  B21  1  0.000000  0.000000  0.000000  1
  B  B22  1  0.000000  0.000000  0.500000  1
  C  C23  1  0.666667  0.333333  0.000000  1
