# generated using pymatgen
data_Tb3YbDy3NiI12
_symmetry_space_group_name_H-M   'P 1'
_cell_length_a   9.78343087
_cell_length_b   9.78342997
_cell_length_c   9.78343207
_cell_angle_alpha   106.84035612
_cell_angle_beta   106.84034764
_cell_angle_gamma   106.84035972
_symmetry_Int_Tables_number   1
_chemical_formula_structural   Tb3YbDy3NiI12
_chemical_formula_sum   'Tb3 Yb1 Dy3 Ni1 I12'
_cell_volume   783.23615292
_cell_formula_units_Z   1
loop_
 _symmetry_equiv_pos_site_id
 _symmetry_equiv_pos_as_xyz
  1  'x, y, z'
loop_
 _atom_site_type_symbol
 _atom_site_label
 _atom_site_symmetry_multiplicity
 _atom_site_fract_x
 _atom_site_fract_y
 _atom_site_fract_z
 _atom_site_occupancy
  Tb  Tb0  1  0.095328  0.023717  0.293938  1
  Tb  Tb1  1  0.293938  0.095328  0.023717  1
  Tb  Tb2  1  0.023717  0.293938  0.095328  1
  Yb  Yb3  1  0.499905  0.499905  0.499905  1
  Dy  Dy4  1  0.904436  0.975470  0.707231  1
  Dy  Dy5  1  0.707231  0.904436  0.975470  1
  Dy  Dy6  1  0.975470  0.707231  0.904436  1
  Ni  Ni7  1  0.000503  0.000503  0.000503  1
  I  I8  1  0.926887  0.321192  0.776293  1
  I  I9  1  0.776293  0.926887  0.321192  1
  I  I10  1  0.321192  0.776293  0.926887  1
  I  I11  1  0.072607  0.678210  0.222066  1
  I  I12  1  0.222066  0.072607  0.678210  1
  I  I13  1  0.678210  0.222066  0.072607  1
  I  I14  1  0.543750  0.848487  0.621267  1
  I  I15  1  0.621267  0.543750  0.848487  1
  I  I16  1  0.848487  0.621267  0.543750  1
  I  I17  1  0.457293  0.151900  0.379520  1
  I  I18  1  0.379520  0.457293  0.151900  1
  I  I19  1  0.151900  0.379520  0.457293  1
