# generated using pymatgen
data_Yb3Pr(Al3Pt)6
_symmetry_space_group_name_H-M   'P 1'
_cell_length_a   7.64911512
_cell_length_b   7.65810902
_cell_length_c   9.49803700
_cell_angle_alpha   90.00000000
_cell_angle_beta   90.00000000
_cell_angle_gamma   119.65418998
_symmetry_Int_Tables_number   1
_chemical_formula_structural   Yb3Pr(Al3Pt)6
_chemical_formula_sum   'Yb3 Pr1 Al18 Pt6'
_cell_volume   483.50398246
_cell_formula_units_Z   1
loop_
 _symmetry_equiv_pos_site_id
 _symmetry_equiv_pos_as_xyz
  1  'x, y, z'
loop_
 _atom_site_type_symbol
 _atom_site_label
 _atom_site_symmetry_multiplicity
 _atom_site_fract_x
 _atom_site_fract_y
 _atom_site_fract_z
 _atom_site_occupancy
  Yb  Yb0  1  0.003158  0.328168  0.750000  1
  Yb  Yb1  1  0.670311  0.996151  0.250000  1
  Yb  Yb2  1  0.330091  0.004887  0.750000  1
  Pr  Pr3  1  0.996273  0.669561  0.250000  1
  Al  Al4  1  0.131503  0.131826  0.250000  1
  Al  Al5  1  0.868025  0.869077  0.750000  1
  Al  Al6  1  0.999486  0.331605  0.074466  1
  Al  Al7  1  0.000807  0.665190  0.920273  1
  Al  Al8  1  0.000807  0.665190  0.579727  1
  Al  Al9  1  0.337719  0.002628  0.425280  1
  Al  Al10  1  0.999486  0.331605  0.425534  1
  Al  Al11  1  0.665273  0.000429  0.576647  1
  Al  Al12  1  0.665273  0.000429  0.923353  1
  Al  Al13  1  0.337719  0.002628  0.074720  1
  Al  Al14  1  0.332418  0.332496  0.557580  1
  Al  Al15  1  0.665474  0.667838  0.444958  1
  Al  Al16  1  0.665474  0.667838  0.055042  1
  Al  Al17  1  0.332418  0.332496  0.942420  1
  Al  Al18  1  0.340573  0.545496  0.250000  1
  Al  Al19  1  0.658622  0.453906  0.750000  1
  Al  Al20  1  0.544813  0.340237  0.250000  1
  Al  Al21  1  0.453466  0.659690  0.750000  1
  Pt  Pt22  1  0.671338  0.328129  0.999170  1
  Pt  Pt23  1  0.328785  0.671683  0.999543  1
  Pt  Pt24  1  0.328785  0.671683  0.500457  1
  Pt  Pt25  1  0.671338  0.328129  0.500830  1
  Pt  Pt26  1  0.000282  0.000501  0.999225  1
  Pt  Pt27  1  0.000282  0.000501  0.500775  1
