# generated using pymatgen
data_Sr3CaPb12
_symmetry_space_group_name_H-M   'P 1'
_cell_length_a   12.57249459
_cell_length_b   12.57249479
_cell_length_c   12.57249457
_cell_angle_alpha   32.40810036
_cell_angle_beta   32.40809926
_cell_angle_gamma   32.40810445
_symmetry_Int_Tables_number   1
_chemical_formula_structural   Sr3CaPb12
_chemical_formula_sum   'Sr3 Ca1 Pb12'
_cell_volume   507.50671960
_cell_formula_units_Z   1
loop_
 _symmetry_equiv_pos_site_id
 _symmetry_equiv_pos_as_xyz
  1  'x, y, z'
loop_
 _atom_site_type_symbol
 _atom_site_label
 _atom_site_symmetry_multiplicity
 _atom_site_fract_x
 _atom_site_fract_y
 _atom_site_fract_z
 _atom_site_occupancy
  Sr  Sr0  1  0.124882  0.124882  0.124882  1
  Sr  Sr1  1  0.706360  0.706360  0.706360  1
  Sr  Sr2  1  0.292535  0.292535  0.292535  1
  Ca  Ca3  1  0.875081  0.875081  0.875081  1
  Pb  Pb4  1  0.282168  0.795141  0.795141  1
  Pb  Pb5  1  0.795141  0.795141  0.282168  1
  Pb  Pb6  1  0.862449  0.381455  0.381455  1
  Pb  Pb7  1  0.381455  0.381455  0.862449  1
  Pb  Pb8  1  0.381455  0.862449  0.381455  1
  Pb  Pb9  1  0.621492  0.135299  0.621492  1
  Pb  Pb10  1  0.135299  0.621492  0.621492  1
  Pb  Pb11  1  0.621492  0.621492  0.135299  1
  Pb  Pb12  1  0.795141  0.282168  0.795141  1
  Pb  Pb13  1  0.207817  0.709418  0.207817  1
  Pb  Pb14  1  0.207817  0.207817  0.709418  1
  Pb  Pb15  1  0.709418  0.207817  0.207817  1
