# generated using pymatgen
data_Th4InPd4Pb
_symmetry_space_group_name_H-M   'P 1'
_cell_length_a   8.00230000
_cell_length_b   8.00230000
_cell_length_c   3.83309800
_cell_angle_alpha   90.00000000
_cell_angle_beta   90.00000000
_cell_angle_gamma   90.00000000
_symmetry_Int_Tables_number   1
_chemical_formula_structural   Th4InPd4Pb
_chemical_formula_sum   'Th4 In1 Pd4 Pb1'
_cell_volume   245.45935028
_cell_formula_units_Z   1
loop_
 _symmetry_equiv_pos_site_id
 _symmetry_equiv_pos_as_xyz
  1  'x, y, z'
loop_
 _atom_site_type_symbol
 _atom_site_label
 _atom_site_symmetry_multiplicity
 _atom_site_fract_x
 _atom_site_fract_y
 _atom_site_fract_z
 _atom_site_occupancy
  Th  Th0  1  0.328242  0.823987  0.500000  1
  Th  Th1  1  0.823987  0.671758  0.500000  1
  Th  Th2  1  0.176013  0.328242  0.500000  1
  Th  Th3  1  0.671758  0.176013  0.500000  1
  In  In4  1  0.500000  0.500000  0.000000  1
  Pd  Pd5  1  0.376714  0.130505  0.000000  1
  Pd  Pd6  1  0.869495  0.376714  0.000000  1
  Pd  Pd7  1  0.130505  0.623286  0.000000  1
  Pd  Pd8  1  0.623286  0.869495  0.000000  1
  Pb  Pb9  1  0.000000  0.000000  0.000000  1
