# generated using pymatgen
data_Ba3ScTc2O9
_symmetry_space_group_name_H-M   'P 1'
_cell_length_a   5.89674600
_cell_length_b   5.89674614
_cell_length_c   14.21499600
_cell_angle_alpha   90.00000000
_cell_angle_beta   90.00000000
_cell_angle_gamma   119.99999920
_symmetry_Int_Tables_number   1
_chemical_formula_structural   Ba3ScTc2O9
_chemical_formula_sum   'Ba6 Sc2 Tc4 O18'
_cell_volume   428.05761729
_cell_formula_units_Z   2
loop_
 _symmetry_equiv_pos_site_id
 _symmetry_equiv_pos_as_xyz
  1  'x, y, z'
loop_
 _atom_site_type_symbol
 _atom_site_label
 _atom_site_symmetry_multiplicity
 _atom_site_fract_x
 _atom_site_fract_y
 _atom_site_fract_z
 _atom_site_occupancy
  Ba  Ba0  1  0.666667  0.333333  0.591897  1
  Ba  Ba1  1  0.333333  0.666667  0.408103  1
  Ba  Ba2  1  0.666667  0.333333  0.908103  1
  Ba  Ba3  1  0.000000  0.000000  0.250000  1
  Ba  Ba4  1  0.333333  0.666667  0.091897  1
  Ba  Ba5  1  0.000000  0.000000  0.750000  1
  Sc  Sc6  1  0.000000  0.000000  0.500000  1
  Sc  Sc7  1  0.000000  0.000000  0.000000  1
  Tc  Tc8  1  0.333333  0.666667  0.661602  1
  Tc  Tc9  1  0.666667  0.333333  0.161602  1
  Tc  Tc10  1  0.333333  0.666667  0.838398  1
  Tc  Tc11  1  0.666667  0.333333  0.338398  1
  O  O12  1  0.828434  0.171566  0.415547  1
  O  O13  1  0.828434  0.656869  0.084453  1
  O  O14  1  0.656869  0.828434  0.584453  1
  O  O15  1  0.828434  0.171566  0.084453  1
  O  O16  1  0.171566  0.343131  0.915547  1
  O  O17  1  0.828434  0.656869  0.415547  1
  O  O18  1  0.507932  0.492068  0.250000  1
  O  O19  1  0.343131  0.171566  0.415547  1
  O  O20  1  0.171566  0.828434  0.915547  1
  O  O21  1  0.507932  0.015863  0.250000  1
  O  O22  1  0.171566  0.828434  0.584453  1
  O  O23  1  0.492068  0.984137  0.750000  1
  O  O24  1  0.015863  0.507932  0.750000  1
  O  O25  1  0.492068  0.507932  0.750000  1
  O  O26  1  0.171566  0.343131  0.584453  1
  O  O27  1  0.656869  0.828434  0.915547  1
  O  O28  1  0.984137  0.492068  0.250000  1
  O  O29  1  0.343131  0.171566  0.084453  1
