# generated using pymatgen
data_Nd3GaPt3Au2
_symmetry_space_group_name_H-M   'P 1'
_cell_length_a   7.63769500
_cell_length_b   7.63769561
_cell_length_c   3.97656200
_cell_angle_alpha   90.00000000
_cell_angle_beta   90.00000000
_cell_angle_gamma   121.03732435
_symmetry_Int_Tables_number   1
_chemical_formula_structural   Nd3GaPt3Au2
_chemical_formula_sum   'Nd3 Ga1 Pt3 Au2'
_cell_volume   198.75949928
_cell_formula_units_Z   1
loop_
 _symmetry_equiv_pos_site_id
 _symmetry_equiv_pos_as_xyz
  1  'x, y, z'
loop_
 _atom_site_type_symbol
 _atom_site_label
 _atom_site_symmetry_multiplicity
 _atom_site_fract_x
 _atom_site_fract_y
 _atom_site_fract_z
 _atom_site_occupancy
  Nd  Nd0  1  0.602723  0.009890  0.499999  1
  Nd  Nd1  1  0.389121  0.389120  0.499999  1
  Nd  Nd2  1  0.009890  0.602724  0.499999  1
  Ga  Ga3  1  0.742779  0.742779  0.000000  1
  Pt  Pt4  1  0.674123  0.358862  0.000000  1
  Pt  Pt5  1  0.358861  0.674122  0.000000  1
  Pt  Pt6  1  0.958267  0.958267  0.499999  1
  Au  Au7  1  0.259938  0.004297  0.000000  1
  Au  Au8  1  0.004297  0.259939  0.000000  1
