# generated using pymatgen
data_Y3HoSc4(B6Ir)4
_symmetry_space_group_name_H-M   'P 1'
_cell_length_a   3.54936000
_cell_length_b   9.01440900
_cell_length_c   11.38642000
_cell_angle_alpha   89.99874679
_cell_angle_beta   90.00000000
_cell_angle_gamma   90.00000000
_symmetry_Int_Tables_number   1
_chemical_formula_structural   Y3HoSc4(B6Ir)4
_chemical_formula_sum   'Y3 Ho1 Sc4 B24 Ir4'
_cell_volume   364.31286576
_cell_formula_units_Z   1
loop_
 _symmetry_equiv_pos_site_id
 _symmetry_equiv_pos_as_xyz
  1  'x, y, z'
loop_
 _atom_site_type_symbol
 _atom_site_label
 _atom_site_symmetry_multiplicity
 _atom_site_fract_x
 _atom_site_fract_y
 _atom_site_fract_z
 _atom_site_occupancy
  Y  Y0  1  0.500000  0.319845  0.414061  1
  Y  Y1  1  0.500000  0.680151  0.585921  1
  Y  Y2  1  0.500000  0.180144  0.914077  1
  Ho  Ho3  1  0.500000  0.819835  0.085956  1
  Sc  Sc4  1  0.500000  0.445196  0.124276  1
  Sc  Sc5  1  0.500000  0.554965  0.875788  1
  Sc  Sc6  1  0.500000  0.054901  0.624290  1
  Sc  Sc7  1  0.500000  0.945080  0.375661  1
  B  B8  1  0.000000  0.100172  0.472917  1
  B  B9  1  0.000000  0.899812  0.527064  1
  B  B10  1  0.000000  0.399809  0.972930  1
  B  B11  1  0.000000  0.600538  0.027178  1
  B  B12  1  0.000000  0.129729  0.318359  1
  B  B13  1  0.000000  0.870227  0.681627  1
  B  B14  1  0.000000  0.370242  0.818408  1
  B  B15  1  0.000000  0.630080  0.181421  1
  B  B16  1  0.000000  0.054472  0.065809  1
  B  B17  1  0.000000  0.945017  0.934478  1
  B  B18  1  0.000000  0.445218  0.565777  1
  B  B19  1  0.000000  0.554802  0.434188  1
  B  B20  1  0.000000  0.481886  0.284907  1
  B  B21  1  0.000000  0.518182  0.715076  1
  B  B22  1  0.000000  0.018137  0.784964  1
  B  B23  1  0.000000  0.981578  0.214851  1
  B  B24  1  0.000000  0.254033  0.080397  1
  B  B25  1  0.000000  0.746059  0.919943  1
  B  B26  1  0.000000  0.245925  0.580381  1
  B  B27  1  0.000000  0.754070  0.419571  1
  B  B28  1  0.000000  0.295701  0.235326  1
  B  B29  1  0.000000  0.704304  0.764702  1
  B  B30  1  0.000000  0.204268  0.735355  1
  B  B31  1  0.000000  0.795771  0.264358  1
  Ir  Ir32  1  0.500000  0.141174  0.181473  1
  Ir  Ir33  1  0.500000  0.858493  0.818714  1
  Ir  Ir34  1  0.500000  0.358493  0.681584  1
  Ir  Ir35  1  0.500000  0.641691  0.318210  1
