# generated using pymatgen
data_HoTh3ScRu3
_symmetry_space_group_name_H-M   'P 1'
_cell_length_a   6.35320900
_cell_length_b   8.23309488
_cell_length_c   8.23309400
_cell_angle_alpha   120.00000448
_cell_angle_beta   90.00000000
_cell_angle_gamma   90.00000000
_symmetry_Int_Tables_number   1
_chemical_formula_structural   HoTh3ScRu3
_chemical_formula_sum   'Ho2 Th6 Sc2 Ru6'
_cell_volume   372.94943114
_cell_formula_units_Z   2
loop_
 _symmetry_equiv_pos_site_id
 _symmetry_equiv_pos_as_xyz
  1  'x, y, z'
loop_
 _atom_site_type_symbol
 _atom_site_label
 _atom_site_symmetry_multiplicity
 _atom_site_fract_x
 _atom_site_fract_y
 _atom_site_fract_z
 _atom_site_occupancy
  Ho  Ho0  1  0.000000  0.666667  0.333333  1
  Ho  Ho1  1  0.000000  0.333333  0.666667  1
  Th  Th2  1  0.746200  0.743258  0.743258  1
  Th  Th3  1  0.253800  0.256742  0.256742  1
  Th  Th4  1  0.746200  0.000000  0.256742  1
  Th  Th5  1  0.253800  0.000000  0.743258  1
  Th  Th6  1  0.746200  0.256742  0.000000  1
  Th  Th7  1  0.253800  0.743258  0.000000  1
  Sc  Sc8  1  0.500000  0.333333  0.666667  1
  Sc  Sc9  1  0.500000  0.666667  0.333333  1
  Ru  Ru10  1  0.731559  0.380158  0.380158  1
  Ru  Ru11  1  0.268441  0.619842  0.619842  1
  Ru  Ru12  1  0.731559  0.000000  0.619842  1
  Ru  Ru13  1  0.268441  0.000000  0.380158  1
  Ru  Ru14  1  0.731559  0.619842  0.000000  1
  Ru  Ru15  1  0.268441  0.380158  0.000000  1
