# generated using pymatgen
data_Y6Ho14Cd6OsRh
_symmetry_space_group_name_H-M   'P 1'
_cell_length_a   9.60915300
_cell_length_b   9.60915136
_cell_length_c   9.79793300
_cell_angle_alpha   90.00000000
_cell_angle_beta   90.00000000
_cell_angle_gamma   120.00000221
_symmetry_Int_Tables_number   1
_chemical_formula_structural   Y6Ho14Cd6OsRh
_chemical_formula_sum   'Y6 Ho14 Cd6 Os1 Rh1'
_cell_volume   783.49319724
_cell_formula_units_Z   1
loop_
 _symmetry_equiv_pos_site_id
 _symmetry_equiv_pos_as_xyz
  1  'x, y, z'
loop_
 _atom_site_type_symbol
 _atom_site_label
 _atom_site_symmetry_multiplicity
 _atom_site_fract_x
 _atom_site_fract_y
 _atom_site_fract_z
 _atom_site_occupancy
  Y  Y0  1  0.539729  0.460271  0.250000  1
  Y  Y1  1  0.539729  0.079460  0.250000  1
  Y  Y2  1  0.920540  0.460271  0.250000  1
  Y  Y3  1  0.458487  0.541513  0.750000  1
  Y  Y4  1  0.458487  0.916973  0.750000  1
  Y  Y5  1  0.083027  0.541513  0.750000  1
  Ho  Ho6  1  0.000000  0.000000  0.499831  1
  Ho  Ho7  1  0.000000  0.000000  0.000169  1
  Ho  Ho8  1  0.209805  0.790195  0.440383  1
  Ho  Ho9  1  0.209805  0.419609  0.440383  1
  Ho  Ho10  1  0.580391  0.790195  0.440383  1
  Ho  Ho11  1  0.790372  0.209628  0.559870  1
  Ho  Ho12  1  0.790372  0.580740  0.559870  1
  Ho  Ho13  1  0.419260  0.209628  0.559870  1
  Ho  Ho14  1  0.790372  0.209628  0.940130  1
  Ho  Ho15  1  0.790372  0.580740  0.940130  1
  Ho  Ho16  1  0.419260  0.209628  0.940130  1
  Ho  Ho17  1  0.209805  0.790195  0.059617  1
  Ho  Ho18  1  0.209805  0.419609  0.059617  1
  Ho  Ho19  1  0.580391  0.790195  0.059617  1
  Cd  Cd20  1  0.885654  0.114346  0.250000  1
  Cd  Cd21  1  0.885654  0.771310  0.250000  1
  Cd  Cd22  1  0.228690  0.114346  0.250000  1
  Cd  Cd23  1  0.114378  0.885622  0.750000  1
  Cd  Cd24  1  0.114378  0.228755  0.750000  1
  Cd  Cd25  1  0.771245  0.885622  0.750000  1
  Os  Os26  1  0.333333  0.666667  0.250000  1
  Rh  Rh27  1  0.666667  0.333333  0.750000  1
