# generated using pymatgen
data_LiTb12Pr4Cd3Pt4
_symmetry_space_group_name_H-M   'P 1'
_cell_length_a   9.81538297
_cell_length_b   9.78607029
_cell_length_c   9.78607021
_cell_angle_alpha   60.29253669
_cell_angle_beta   60.10314560
_cell_angle_gamma   60.10314538
_symmetry_Int_Tables_number   1
_chemical_formula_structural   LiTb12Pr4Cd3Pt4
_chemical_formula_sum   'Li1 Tb12 Pr4 Cd3 Pt4'
_cell_volume   667.17260269
_cell_formula_units_Z   1
loop_
 _symmetry_equiv_pos_site_id
 _symmetry_equiv_pos_as_xyz
  1  'x, y, z'
loop_
 _atom_site_type_symbol
 _atom_site_label
 _atom_site_symmetry_multiplicity
 _atom_site_fract_x
 _atom_site_fract_y
 _atom_site_fract_z
 _atom_site_occupancy
  Li  Li0  1  0.572311  0.570908  0.570908  1
  Tb  Tb1  1  0.350414  0.350382  0.350382  1
  Tb  Tb2  1  0.350816  0.350380  0.948925  1
  Tb  Tb3  1  0.350816  0.948925  0.350380  1
  Tb  Tb4  1  0.947399  0.351822  0.351822  1
  Tb  Tb5  1  0.811996  0.190001  0.190001  1
  Tb  Tb6  1  0.185172  0.814120  0.814120  1
  Tb  Tb7  1  0.190863  0.811464  0.190213  1
  Tb  Tb8  1  0.813884  0.184971  0.813280  1
  Tb  Tb9  1  0.190863  0.190213  0.811464  1
  Tb  Tb10  1  0.813884  0.813280  0.184971  1
  Tb  Tb11  1  0.941936  0.559367  0.559367  1
  Tb  Tb12  1  0.558502  0.940885  0.940885  1
  Pr  Pr13  1  0.564458  0.934479  0.565129  1
  Pr  Pr14  1  0.936527  0.562682  0.936110  1
  Pr  Pr15  1  0.564458  0.565129  0.934479  1
  Pr  Pr16  1  0.936527  0.936110  0.562682  1
  Cd  Cd17  1  0.579805  0.583951  0.258246  1
  Cd  Cd18  1  0.579805  0.258246  0.583951  1
  Cd  Cd19  1  0.258347  0.580495  0.580495  1
  Pt  Pt20  1  0.145170  0.143413  0.143413  1
  Pt  Pt21  1  0.142152  0.145268  0.571546  1
  Pt  Pt22  1  0.142152  0.571546  0.145268  1
  Pt  Pt23  1  0.571741  0.141961  0.141961  1
