# generated using pymatgen
data_Ti8Al15Pd2Ru5
_symmetry_space_group_name_H-M   'P 1'
_cell_length_a   8.69087819
_cell_length_b   8.66772992
_cell_length_c   8.69087956
_cell_angle_alpha   120.22122352
_cell_angle_beta   119.91563203
_cell_angle_gamma   89.95842834
_symmetry_Int_Tables_number   1
_chemical_formula_structural   Ti8Al15Pd2Ru5
_chemical_formula_sum   'Ti8 Al15 Pd2 Ru5'
_cell_volume   462.13876471
_cell_formula_units_Z   1
loop_
 _symmetry_equiv_pos_site_id
 _symmetry_equiv_pos_as_xyz
  1  'x, y, z'
loop_
 _atom_site_type_symbol
 _atom_site_label
 _atom_site_symmetry_multiplicity
 _atom_site_fract_x
 _atom_site_fract_y
 _atom_site_fract_z
 _atom_site_occupancy
  Ti  Ti0  1  0.790971  0.286844  0.068098  1
  Ti  Ti1  1  0.218747  0.286844  0.495873  1
  Ti  Ti2  1  0.211123  0.708066  0.496943  1
  Ti  Ti3  1  0.213556  0.717759  0.929213  1
  Ti  Ti4  1  0.788546  0.717759  0.504204  1
  Ti  Ti5  1  0.779693  0.284441  0.504749  1
  Ti  Ti6  1  0.387058  0.129805  0.742747  1
  Ti  Ti7  1  0.378344  0.635121  0.256777  1
  Al  Al8  1  0.996067  0.495368  0.499301  1
  Al  Al9  1  0.155175  0.344522  0.189346  1
  Al  Al10  1  0.154229  0.964587  0.810359  1
  Al  Al11  1  0.152054  0.348745  0.805738  1
  Al  Al12  1  0.543005  0.348745  0.196691  1
  Al  Al13  1  0.845878  0.653842  0.807966  1
  Al  Al14  1  0.848630  0.044378  0.195748  1
  Al  Al15  1  0.842989  0.650585  0.188293  1
  Al  Al16  1  0.462292  0.650585  0.807596  1
  Al  Al17  1  0.377008  0.123471  0.260925  1
  Al  Al18  1  0.862548  0.123471  0.746463  1
  Al  Al19  1  0.616990  0.872635  0.255646  1
  Al  Al20  1  0.622027  0.366307  0.744279  1
  Al  Al21  1  0.622225  0.875439  0.738777  1
  Al  Al22  1  0.136660  0.875439  0.253213  1
  Pd  Pd23  1  0.997908  0.999093  0.498510  1
  Pd  Pd24  1  0.500583  0.999093  0.001186  1
  Ru  Ru25  1  0.497773  0.497154  0.999381  1
  Ru  Ru26  1  0.498469  0.499654  0.498954  1
  Ru  Ru27  1  0.000700  0.499654  0.001186  1
  Ru  Ru28  1  0.999600  0.000123  0.000523  1
  Ru  Ru29  1  0.499150  0.000467  0.501317  1
