# generated using pymatgen
data_YHoPa2(Al8Pt3)3
_symmetry_space_group_name_H-M   'P 1'
_cell_length_a   7.57381000
_cell_length_b   7.58332218
_cell_length_c   13.12383505
_cell_angle_alpha   84.49566097
_cell_angle_beta   78.92246528
_cell_angle_gamma   59.92477973
_symmetry_Int_Tables_number   1
_chemical_formula_structural   YHoPa2(Al8Pt3)3
_chemical_formula_sum   'Y1 Ho1 Pa2 Al24 Pt9'
_cell_volume   640.12901453
_cell_formula_units_Z   1
loop_
 _symmetry_equiv_pos_site_id
 _symmetry_equiv_pos_as_xyz
  1  'x, y, z'
loop_
 _atom_site_type_symbol
 _atom_site_label
 _atom_site_symmetry_multiplicity
 _atom_site_fract_x
 _atom_site_fract_y
 _atom_site_fract_z
 _atom_site_occupancy
  Y  Y0  1  0.733865  0.498444  0.807991  1
  Ho  Ho1  1  0.266042  0.501557  0.192189  1
  Pa  Pa2  1  0.395006  0.168196  0.805111  1
  Pa  Pa3  1  0.605013  0.831771  0.194905  1
  Al  Al4  1  0.684276  0.833621  0.944437  1
  Al  Al5  1  0.315656  0.166597  0.055636  1
  Al  Al6  1  0.145637  0.832742  0.561321  1
  Al  Al7  1  0.854376  0.167254  0.438659  1
  Al  Al8  1  0.480190  0.167536  0.558170  1
  Al  Al9  1  0.519799  0.832464  0.441827  1
  Al  Al10  1  0.214996  0.167759  0.330539  1
  Al  Al11  1  0.785018  0.832401  0.669379  1
  Al  Al12  1  0.437345  0.508896  0.670064  1
  Al  Al13  1  0.562528  0.491080  0.329858  1
  Al  Al14  1  0.107852  0.159674  0.668390  1
  Al  Al15  1  0.892362  0.840179  0.331530  1
  Al  Al16  1  0.353215  0.499588  0.943626  1
  Al  Al17  1  0.646533  0.500371  0.056578  1
  Al  Al18  1  0.015717  0.167750  0.952227  1
  Al  Al19  1  0.984441  0.832103  0.047872  1
  Al  Al20  1  0.185898  0.500072  0.441230  1
  Al  Al21  1  0.814134  0.499932  0.558670  1
  Al  Al22  1  0.735934  0.162680  0.182846  1
  Al  Al23  1  0.263866  0.837517  0.817155  1
  Al  Al24  1  0.062740  0.631160  0.815929  1
  Al  Al25  1  0.937449  0.368848  0.184071  1
  Al  Al26  1  0.855137  0.040349  0.816728  1
  Al  Al27  1  0.144865  0.959439  0.183277  1
  Pt  Pt28  1  0.120143  0.491053  0.639859  1
  Pt  Pt29  1  0.880101  0.508948  0.360059  1
  Pt  Pt30  1  0.656679  0.172617  0.999893  1
  Pt  Pt31  1  0.343249  0.827396  0.000132  1
  Pt  Pt32  1  0.537405  0.166300  0.360394  1
  Pt  Pt33  1  0.462438  0.833893  0.639524  1
  Pt  Pt34  1  0.777719  0.175328  0.638495  1
  Pt  Pt35  1  0.222321  0.824468  0.361410  1
  Pt  Pt36  1  0.000050  0.500016  0.000017  1
