# generated using pymatgen
data_Tb3Dy3(Si3Pt2)4
_symmetry_space_group_name_H-M   'P 1'
_cell_length_a   4.24465800
_cell_length_b   8.55698370
_cell_length_c   12.92227900
_cell_angle_alpha   80.23719283
_cell_angle_beta   90.00000000
_cell_angle_gamma   90.00000000
_symmetry_Int_Tables_number   1
_chemical_formula_structural   Tb3Dy3(Si3Pt2)4
_chemical_formula_sum   'Tb3 Dy3 Si12 Pt8'
_cell_volume   462.55902866
_cell_formula_units_Z   1
loop_
 _symmetry_equiv_pos_site_id
 _symmetry_equiv_pos_as_xyz
  1  'x, y, z'
loop_
 _atom_site_type_symbol
 _atom_site_label
 _atom_site_symmetry_multiplicity
 _atom_site_fract_x
 _atom_site_fract_y
 _atom_site_fract_z
 _atom_site_occupancy
  Tb  Tb0  1  0.750000  0.416460  0.813767  1
  Tb  Tb1  1  0.750000  0.926310  0.815904  1
  Tb  Tb2  1  0.250000  0.073708  0.184107  1
  Dy  Dy3  1  0.250000  0.766200  0.439543  1
  Dy  Dy4  1  0.250000  0.583511  0.186219  1
  Dy  Dy5  1  0.750000  0.233784  0.560485  1
  Si  Si6  1  0.750000  0.588477  0.571819  1
  Si  Si7  1  0.750000  0.126995  0.004537  1
  Si  Si8  1  0.750000  0.872856  0.574009  1
  Si  Si9  1  0.250000  0.696396  0.713625  1
  Si  Si10  1  0.750000  0.303639  0.286370  1
  Si  Si11  1  0.750000  0.805809  0.276839  1
  Si  Si12  1  0.250000  0.873020  0.995417  1
  Si  Si13  1  0.250000  0.194190  0.723151  1
  Si  Si14  1  0.250000  0.378426  0.001397  1
  Si  Si15  1  0.250000  0.127155  0.426000  1
  Si  Si16  1  0.750000  0.621567  0.998603  1
  Si  Si17  1  0.250000  0.411521  0.428200  1
  Pt  Pt18  1  0.750000  0.352143  0.098952  1
  Pt  Pt19  1  0.250000  0.970903  0.624195  1
  Pt  Pt20  1  0.750000  0.849336  0.088683  1
  Pt  Pt21  1  0.750000  0.029097  0.375799  1
  Pt  Pt22  1  0.250000  0.647960  0.901117  1
  Pt  Pt23  1  0.250000  0.150517  0.911357  1
  Pt  Pt24  1  0.750000  0.533052  0.375960  1
  Pt  Pt25  1  0.250000  0.466968  0.623943  1
