# generated using pymatgen
data_Dy10RhPb6Cl
_symmetry_space_group_name_H-M   'P 1'
_cell_length_a   9.16977900
_cell_length_b   9.16977913
_cell_length_c   6.76558400
_cell_angle_alpha   90.00000000
_cell_angle_beta   90.00000000
_cell_angle_gamma   119.99999592
_symmetry_Int_Tables_number   1
_chemical_formula_structural   Dy10RhPb6Cl
_chemical_formula_sum   'Dy10 Rh1 Pb6 Cl1'
_cell_volume   492.66723919
_cell_formula_units_Z   1
loop_
 _symmetry_equiv_pos_site_id
 _symmetry_equiv_pos_as_xyz
  1  'x, y, z'
loop_
 _atom_site_type_symbol
 _atom_site_label
 _atom_site_symmetry_multiplicity
 _atom_site_fract_x
 _atom_site_fract_y
 _atom_site_fract_z
 _atom_site_occupancy
  Dy  Dy0  1  0.246571  0.000000  0.238609  1
  Dy  Dy1  1  0.753429  0.000000  0.761391  1
  Dy  Dy2  1  0.000000  0.246571  0.238609  1
  Dy  Dy3  1  0.000000  0.753429  0.761391  1
  Dy  Dy4  1  0.753429  0.753429  0.238609  1
  Dy  Dy5  1  0.246571  0.246571  0.761391  1
  Dy  Dy6  1  0.333333  0.666667  0.000000  1
  Dy  Dy7  1  0.666667  0.333333  0.000000  1
  Dy  Dy8  1  0.666667  0.333333  0.500000  1
  Dy  Dy9  1  0.333333  0.666667  0.500000  1
  Rh  Rh10  1  0.000000  0.000000  0.000000  1
  Pb  Pb11  1  0.603930  0.000000  0.252551  1
  Pb  Pb12  1  0.396070  0.000000  0.747449  1
  Pb  Pb13  1  0.000000  0.603930  0.252551  1
  Pb  Pb14  1  0.000000  0.396070  0.747449  1
  Pb  Pb15  1  0.396070  0.396070  0.252551  1
  Pb  Pb16  1  0.603930  0.603930  0.747449  1
  Cl  Cl17  1  0.000000  0.000000  0.500000  1
