# generated using pymatgen
data_Ac9Yb4Tm7Sn16
_symmetry_space_group_name_H-M   'P 1'
_cell_length_a   8.27603760
_cell_length_b   8.50838916
_cell_length_c   16.21456227
_cell_angle_alpha   90.24075359
_cell_angle_beta   90.09796685
_cell_angle_gamma   90.03334428
_symmetry_Int_Tables_number   1
_chemical_formula_structural   Ac9Yb4Tm7Sn16
_chemical_formula_sum   'Ac9 Yb4 Tm7 Sn16'
_cell_volume   1141.74859411
_cell_formula_units_Z   1
loop_
 _symmetry_equiv_pos_site_id
 _symmetry_equiv_pos_as_xyz
  1  'x, y, z'
loop_
 _atom_site_type_symbol
 _atom_site_label
 _atom_site_symmetry_multiplicity
 _atom_site_fract_x
 _atom_site_fract_y
 _atom_site_fract_z
 _atom_site_occupancy
  Ac  Ac0  1  0.154137  0.329632  0.619422  1
  Ac  Ac1  1  0.494161  0.676358  0.596657  1
  Ac  Ac2  1  0.995583  0.822254  0.907033  1
  Ac  Ac3  1  0.504596  0.321917  0.096293  1
  Ac  Ac4  1  0.001240  0.180355  0.401340  1
  Ac  Ac5  1  0.503611  0.325742  0.401552  1
  Ac  Ac6  1  0.004021  0.178021  0.095863  1
  Ac  Ac7  1  0.496489  0.678200  0.906753  1
  Ac  Ac8  1  0.995777  0.818493  0.595438  1
  Yb  Yb9  1  0.818374  0.499286  0.751515  1
  Yb  Yb10  1  0.318992  0.001905  0.752154  1
  Yb  Yb11  1  0.182681  0.502686  0.248396  1
  Yb  Yb12  1  0.682483  0.997649  0.249724  1
  Tm  Tm13  1  0.654452  0.169437  0.624988  1
  Tm  Tm14  1  0.154745  0.332238  0.878611  1
  Tm  Tm15  1  0.347380  0.831598  0.124238  1
  Tm  Tm16  1  0.848021  0.666318  0.375997  1
  Tm  Tm17  1  0.349185  0.831001  0.371245  1
  Tm  Tm18  1  0.845335  0.668548  0.123421  1
  Tm  Tm19  1  0.650895  0.167269  0.878652  1
  Sn  Sn20  1  0.677265  0.956343  0.460407  1
  Sn  Sn21  1  0.178792  0.544282  0.040067  1
  Sn  Sn22  1  0.321147  0.044026  0.962000  1
  Sn  Sn23  1  0.801762  0.456908  0.536311  1
  Sn  Sn24  1  0.335555  0.031847  0.533786  1
  Sn  Sn25  1  0.822621  0.455753  0.961555  1
  Sn  Sn26  1  0.678288  0.955930  0.040030  1
  Sn  Sn27  1  0.181911  0.553754  0.452158  1
  Sn  Sn28  1  0.457504  0.374860  0.757545  1
  Sn  Sn29  1  0.946195  0.119327  0.754122  1
  Sn  Sn30  1  0.549791  0.628408  0.248353  1
  Sn  Sn31  1  0.046407  0.873252  0.249144  1
  Sn  Sn32  1  0.690085  0.872570  0.752249  1
  Sn  Sn33  1  0.194670  0.632758  0.754723  1
  Sn  Sn34  1  0.307444  0.124852  0.248880  1
  Sn  Sn35  1  0.808408  0.376223  0.249375  1
