# generated using pymatgen
data_Li3Gd3HgGe2
_symmetry_space_group_name_H-M   'P 1'
_cell_length_a   7.31795600
_cell_length_b   7.31795617
_cell_length_c   4.23384400
_cell_angle_alpha   90.00000000
_cell_angle_beta   90.00000000
_cell_angle_gamma   119.99999922
_symmetry_Int_Tables_number   1
_chemical_formula_structural   Li3Gd3HgGe2
_chemical_formula_sum   'Li3 Gd3 Hg1 Ge2'
_cell_volume   196.35641089
_cell_formula_units_Z   1
loop_
 _symmetry_equiv_pos_site_id
 _symmetry_equiv_pos_as_xyz
  1  'x, y, z'
loop_
 _atom_site_type_symbol
 _atom_site_label
 _atom_site_symmetry_multiplicity
 _atom_site_fract_x
 _atom_site_fract_y
 _atom_site_fract_z
 _atom_site_occupancy
  Li  Li0  1  0.752683  0.752683  0.500000  1
  Li  Li1  1  0.247317  0.000000  0.500000  1
  Li  Li2  1  0.000000  0.247317  0.500000  1
  Gd  Gd3  1  0.431792  0.431792  0.000000  1
  Gd  Gd4  1  0.568208  0.000000  0.000000  1
  Gd  Gd5  1  0.000000  0.568208  0.000000  1
  Hg  Hg6  1  0.000000  0.000000  0.000000  1
  Ge  Ge7  1  0.666667  0.333333  0.500000  1
  Ge  Ge8  1  0.333333  0.666667  0.500000  1
