# generated using pymatgen
data_Y3AsPS
_symmetry_space_group_name_H-M   'P 1'
_cell_length_a   6.98041022
_cell_length_b   6.98041029
_cell_length_c   6.98040978
_cell_angle_alpha   146.48314053
_cell_angle_beta   132.01409993
_cell_angle_gamma   59.79888177
_symmetry_Int_Tables_number   1
_chemical_formula_structural   Y3AsPS
_chemical_formula_sum   'Y3 As1 P1 S1'
_cell_volume   138.28226152
_cell_formula_units_Z   1
loop_
 _symmetry_equiv_pos_site_id
 _symmetry_equiv_pos_as_xyz
  1  'x, y, z'
loop_
 _atom_site_type_symbol
 _atom_site_label
 _atom_site_symmetry_multiplicity
 _atom_site_fract_x
 _atom_site_fract_y
 _atom_site_fract_z
 _atom_site_occupancy
  Y  Y0  1  0.495122  0.995122  0.500000  1
  Y  Y1  1  0.171983  0.671983  0.500000  1
  Y  Y2  1  0.833380  0.333380  0.500000  1
  As  As3  1  0.665447  0.665447  0.000000  1
  P  P4  1  0.333653  0.333653  0.000000  1
  S  S5  1  0.000416  0.000416  0.000000  1
