# generated using pymatgen
data_Tb4LuSc5Pb8
_symmetry_space_group_name_H-M   'P 1'
_cell_length_a   7.97430100
_cell_length_b   8.05613958
_cell_length_c   15.21075200
_cell_angle_alpha   90.02180559
_cell_angle_beta   90.00000000
_cell_angle_gamma   90.00000000
_symmetry_Int_Tables_number   1
_chemical_formula_structural   Tb4LuSc5Pb8
_chemical_formula_sum   'Tb8 Lu2 Sc10 Pb16'
_cell_volume   977.17030553
_cell_formula_units_Z   2
loop_
 _symmetry_equiv_pos_site_id
 _symmetry_equiv_pos_as_xyz
  1  'x, y, z'
loop_
 _atom_site_type_symbol
 _atom_site_label
 _atom_site_symmetry_multiplicity
 _atom_site_fract_x
 _atom_site_fract_y
 _atom_site_fract_z
 _atom_site_occupancy
  Tb  Tb0  1  0.528732  0.321497  0.905802  1
  Tb  Tb1  1  0.028732  0.178503  0.594198  1
  Tb  Tb2  1  0.470970  0.675949  0.402601  1
  Tb  Tb3  1  0.970970  0.824051  0.097399  1
  Tb  Tb4  1  0.473901  0.678065  0.096607  1
  Tb  Tb5  1  0.973901  0.821935  0.403393  1
  Tb  Tb6  1  0.527769  0.322401  0.595415  1
  Tb  Tb7  1  0.027769  0.177599  0.904585  1
  Lu  Lu8  1  0.366716  0.844427  0.621320  1
  Lu  Lu9  1  0.866716  0.655573  0.878680  1
  Sc  Sc10  1  0.365587  0.843276  0.875432  1
  Sc  Sc11  1  0.865587  0.656724  0.624568  1
  Sc  Sc12  1  0.634256  0.155249  0.375342  1
  Sc  Sc13  1  0.134256  0.344751  0.124658  1
  Sc  Sc14  1  0.631300  0.155388  0.126778  1
  Sc  Sc15  1  0.131300  0.344612  0.373222  1
  Sc  Sc16  1  0.197728  0.507185  0.749513  1
  Sc  Sc17  1  0.697728  0.992815  0.750487  1
  Sc  Sc18  1  0.801247  0.492639  0.251195  1
  Sc  Sc19  1  0.301247  0.007361  0.248805  1
  Pb  Pb20  1  0.295099  0.042780  0.044060  1
  Pb  Pb21  1  0.795099  0.457220  0.455940  1
  Pb  Pb22  1  0.710917  0.958380  0.542676  1
  Pb  Pb23  1  0.210917  0.541620  0.957324  1
  Pb  Pb24  1  0.700664  0.962074  0.958086  1
  Pb  Pb25  1  0.200664  0.537926  0.541914  1
  Pb  Pb26  1  0.295320  0.046594  0.451912  1
  Pb  Pb27  1  0.795320  0.453406  0.048088  1
  Pb  Pb28  1  0.558007  0.628615  0.750379  1
  Pb  Pb29  1  0.058007  0.871385  0.749621  1
  Pb  Pb30  1  0.440787  0.367705  0.250612  1
  Pb  Pb31  1  0.940787  0.132295  0.249388  1
  Pb  Pb32  1  0.340226  0.156129  0.750914  1
  Pb  Pb33  1  0.840226  0.343871  0.749086  1
  Pb  Pb34  1  0.660771  0.847072  0.250605  1
  Pb  Pb35  1  0.160771  0.652928  0.249395  1
