# generated using pymatgen
data_Sc6Ta2Ti2Al12Os7
_symmetry_space_group_name_H-M   'P 1'
_cell_length_a   8.87343687
_cell_length_b   8.86550449
_cell_length_c   8.86550441
_cell_angle_alpha   59.95566991
_cell_angle_beta   59.97039812
_cell_angle_gamma   59.97039514
_symmetry_Int_Tables_number   1
_chemical_formula_structural   Sc6Ta2Ti2Al12Os7
_chemical_formula_sum   'Sc6 Ta2 Ti2 Al12 Os7'
_cell_volume   492.76938509
_cell_formula_units_Z   1
loop_
 _symmetry_equiv_pos_site_id
 _symmetry_equiv_pos_as_xyz
  1  'x, y, z'
loop_
 _atom_site_type_symbol
 _atom_site_label
 _atom_site_symmetry_multiplicity
 _atom_site_fract_x
 _atom_site_fract_y
 _atom_site_fract_z
 _atom_site_occupancy
  Sc  Sc0  1  0.710889  0.711675  0.291394  1
  Sc  Sc1  1  0.286043  0.711675  0.291394  1
  Sc  Sc2  1  0.712835  0.287165  0.287165  1
  Sc  Sc3  1  0.286043  0.291394  0.711675  1
  Sc  Sc4  1  0.710889  0.291394  0.711675  1
  Sc  Sc5  1  0.290497  0.709503  0.709503  1
  Ta  Ta6  1  0.362308  0.879688  0.879688  1
  Ta  Ta7  1  0.878314  0.879688  0.879688  1
  Ti  Ti8  1  0.879441  0.880729  0.360387  1
  Ti  Ti9  1  0.879441  0.360387  0.880729  1
  Al  Al10  1  0.119559  0.122072  0.638809  1
  Al  Al11  1  0.119559  0.638809  0.122072  1
  Al  Al12  1  0.638575  0.121307  0.121307  1
  Al  Al13  1  0.118811  0.121307  0.121307  1
  Al  Al14  1  0.665281  0.659999  0.009442  1
  Al  Al15  1  0.665281  0.009442  0.659999  1
  Al  Al16  1  0.004894  0.663363  0.663363  1
  Al  Al17  1  0.668381  0.663363  0.663363  1
  Al  Al18  1  0.335169  0.334129  0.995533  1
  Al  Al19  1  0.335169  0.995533  0.334129  1
  Al  Al20  1  0.996056  0.334288  0.334288  1
  Al  Al21  1  0.335368  0.334288  0.334288  1
  Os  Os22  1  0.999972  0.000028  0.000028  1
  Os  Os23  1  0.998691  0.997556  0.503180  1
  Os  Os24  1  0.500573  0.997556  0.503180  1
  Os  Os25  1  0.999414  0.500586  0.500586  1
  Os  Os26  1  0.500573  0.503180  0.997556  1
  Os  Os27  1  0.998691  0.503180  0.997556  1
  Os  Os28  1  0.503283  0.996717  0.996717  1
