# generated using pymatgen
data_Y9Tm11Si15Os
_symmetry_space_group_name_H-M   'P 1'
_cell_length_a   7.34154946
_cell_length_b   7.70756836
_cell_length_c   14.44345200
_cell_angle_alpha   90.05079450
_cell_angle_beta   89.96388942
_cell_angle_gamma   90.14978412
_symmetry_Int_Tables_number   1
_chemical_formula_structural   Y9Tm11Si15Os
_chemical_formula_sum   'Y9 Tm11 Si15 Os1'
_cell_volume   817.28659548
_cell_formula_units_Z   1
loop_
 _symmetry_equiv_pos_site_id
 _symmetry_equiv_pos_as_xyz
  1  'x, y, z'
loop_
 _atom_site_type_symbol
 _atom_site_label
 _atom_site_symmetry_multiplicity
 _atom_site_fract_x
 _atom_site_fract_y
 _atom_site_fract_z
 _atom_site_occupancy
  Y  Y0  1  0.190500  0.324939  0.625695  1
  Y  Y1  1  0.521848  0.673509  0.596818  1
  Y  Y2  1  0.023709  0.819534  0.903974  1
  Y  Y3  1  0.475885  0.316894  0.097398  1
  Y  Y4  1  0.975628  0.181487  0.402075  1
  Y  Y5  1  0.476157  0.316970  0.402284  1
  Y  Y6  1  0.976069  0.181059  0.097144  1
  Y  Y7  1  0.520552  0.672030  0.903426  1
  Y  Y8  1  0.024389  0.818800  0.596651  1
  Tm  Tm9  1  0.671689  0.185351  0.626147  1
  Tm  Tm10  1  0.191952  0.325766  0.873993  1
  Tm  Tm11  1  0.319250  0.820118  0.124645  1
  Tm  Tm12  1  0.817814  0.676589  0.374896  1
  Tm  Tm13  1  0.318973  0.820784  0.375052  1
  Tm  Tm14  1  0.817799  0.676312  0.124376  1
  Tm  Tm15  1  0.669615  0.185789  0.874163  1
  Tm  Tm16  1  0.840206  0.510185  0.750390  1
  Tm  Tm17  1  0.354145  0.990715  0.750389  1
  Tm  Tm18  1  0.151241  0.486690  0.249769  1
  Tm  Tm19  1  0.650937  0.011642  0.249856  1
  Si  Si20  1  0.648770  0.969061  0.460380  1
  Si  Si21  1  0.149918  0.530119  0.040204  1
  Si  Si22  1  0.347035  0.025878  0.961926  1
  Si  Si23  1  0.852103  0.471128  0.538020  1
  Si  Si24  1  0.349697  0.024103  0.538461  1
  Si  Si25  1  0.854550  0.469988  0.961078  1
  Si  Si26  1  0.647982  0.969058  0.039323  1
  Si  Si27  1  0.148431  0.531020  0.458808  1
  Si  Si28  1  0.979171  0.102067  0.750949  1
  Si  Si29  1  0.521916  0.608360  0.249964  1
  Si  Si30  1  0.019712  0.891620  0.249933  1
  Si  Si31  1  0.738061  0.875642  0.750159  1
  Si  Si32  1  0.229605  0.634009  0.750801  1
  Si  Si33  1  0.271021  0.129300  0.249945  1
  Si  Si34  1  0.772800  0.369914  0.249982  1
  Os  Os35  1  0.480871  0.403568  0.750928  1
