# generated using pymatgen
data_Cs4Mn3CrN8
_symmetry_space_group_name_H-M   'P 1'
_cell_length_a   5.77197400
_cell_length_b   8.15539410
_cell_length_c   11.54403462
_cell_angle_alpha   89.98993033
_cell_angle_beta   89.99976106
_cell_angle_gamma   89.99588698
_symmetry_Int_Tables_number   1
_chemical_formula_structural   Cs4Mn3CrN8
_chemical_formula_sum   'Cs8 Mn6 Cr2 N16'
_cell_volume   543.40913100
_cell_formula_units_Z   2
loop_
 _symmetry_equiv_pos_site_id
 _symmetry_equiv_pos_as_xyz
  1  'x, y, z'
loop_
 _atom_site_type_symbol
 _atom_site_label
 _atom_site_symmetry_multiplicity
 _atom_site_fract_x
 _atom_site_fract_y
 _atom_site_fract_z
 _atom_site_occupancy
  Cs  Cs0  1  0.750273  0.125211  0.999958  1
  Cs  Cs1  1  0.250046  0.874958  0.500100  1
  Cs  Cs2  1  0.250205  0.875338  0.999986  1
  Cs  Cs3  1  0.750084  0.124823  0.499955  1
  Cs  Cs4  1  0.748960  0.374889  0.251524  1
  Cs  Cs5  1  0.249004  0.624904  0.248334  1
  Cs  Cs6  1  0.250672  0.624907  0.751733  1
  Cs  Cs7  1  0.750650  0.374793  0.748388  1
  Mn  Mn8  1  0.250231  0.370813  0.000008  1
  Mn  Mn9  1  0.749893  0.629318  0.500072  1
  Mn  Mn10  1  0.249286  0.123065  0.249239  1
  Mn  Mn11  1  0.749530  0.876921  0.250765  1
  Mn  Mn12  1  0.750559  0.876999  0.749177  1
  Mn  Mn13  1  0.250419  0.123123  0.750810  1
  Cr  Cr14  1  0.750004  0.624168  0.999900  1
  Cr  Cr15  1  0.250090  0.375590  0.500021  1
  N  N16  1  0.999111  0.000240  0.249968  1
  N  N17  1  0.499253  0.999676  0.249962  1
  N  N18  1  0.000597  0.999941  0.750018  1
  N  N19  1  0.500637  0.000212  0.750014  1
  N  N20  1  0.249777  0.249454  0.374904  1
  N  N21  1  0.749843  0.750567  0.125078  1
  N  N22  1  0.750252  0.750567  0.874889  1
  N  N23  1  0.250193  0.249529  0.625150  1
  N  N24  1  0.750175  0.752146  0.624248  1
  N  N25  1  0.250312  0.247939  0.875809  1
  N  N26  1  0.249849  0.247960  0.124232  1
  N  N27  1  0.749726  0.752054  0.375700  1
  N  N28  1  0.501017  0.501808  0.499993  1
  N  N29  1  0.001298  0.498178  0.000023  1
  N  N30  1  0.499091  0.498031  0.000043  1
  N  N31  1  0.998962  0.501878  0.499997  1
