# generated using pymatgen
data_K2Sm(ScI4)3
_symmetry_space_group_name_H-M   'P 1'
_cell_length_a   8.48289500
_cell_length_b   8.48289686
_cell_length_c   14.11112600
_cell_angle_alpha   90.00000000
_cell_angle_beta   90.00000000
_cell_angle_gamma   119.99998886
_symmetry_Int_Tables_number   1
_chemical_formula_structural   K2Sm(ScI4)3
_chemical_formula_sum   'K2 Sm1 Sc3 I12'
_cell_volume   879.38818839
_cell_formula_units_Z   1
loop_
 _symmetry_equiv_pos_site_id
 _symmetry_equiv_pos_as_xyz
  1  'x, y, z'
loop_
 _atom_site_type_symbol
 _atom_site_label
 _atom_site_symmetry_multiplicity
 _atom_site_fract_x
 _atom_site_fract_y
 _atom_site_fract_z
 _atom_site_occupancy
  K  K0  1  0.333333  0.666667  0.866259  1
  K  K1  1  0.666667  0.333333  0.381669  1
  Sm  Sm2  1  0.000000  0.000000  0.125517  1
  Sc  Sc3  1  0.000000  0.000000  0.383112  1
  Sc  Sc4  1  0.000000  0.000000  0.625900  1
  Sc  Sc5  1  0.000000  0.000000  0.868378  1
  I  I6  1  0.978778  0.702361  0.990404  1
  I  I7  1  0.273602  0.973878  0.260947  1
  I  I8  1  0.026122  0.299724  0.260947  1
  I  I9  1  0.297639  0.276417  0.990404  1
  I  I10  1  0.270942  0.288227  0.504329  1
  I  I11  1  0.723583  0.021222  0.990404  1
  I  I12  1  0.289974  0.021322  0.747194  1
  I  I13  1  0.700276  0.726398  0.260947  1
  I  I14  1  0.731348  0.710026  0.747194  1
  I  I15  1  0.017285  0.729058  0.504329  1
  I  I16  1  0.711773  0.982715  0.504329  1
  I  I17  1  0.978678  0.268652  0.747194  1
