# generated using pymatgen
data_Be7Fe5(Mo6C)2
_symmetry_space_group_name_H-M   'P 1'
_cell_length_a   7.56287982
_cell_length_b   7.56584678
_cell_length_c   7.56287900
_cell_angle_alpha   60.01297065
_cell_angle_beta   59.99999922
_cell_angle_gamma   60.01297344
_symmetry_Int_Tables_number   1
_chemical_formula_structural   Be7Fe5(Mo6C)2
_chemical_formula_sum   'Be7 Fe5 Mo12 C2'
_cell_volume   306.05678961
_cell_formula_units_Z   1
loop_
 _symmetry_equiv_pos_site_id
 _symmetry_equiv_pos_as_xyz
  1  'x, y, z'
loop_
 _atom_site_type_symbol
 _atom_site_label
 _atom_site_symmetry_multiplicity
 _atom_site_fract_x
 _atom_site_fract_y
 _atom_site_fract_z
 _atom_site_occupancy
  Be  Be0  1  0.327693  0.330485  0.014129  1
  Be  Be1  1  0.327693  0.330485  0.327693  1
  Be  Be2  1  0.237025  0.919594  0.921692  1
  Be  Be3  1  0.921692  0.919594  0.921692  1
  Be  Be4  1  0.014129  0.330485  0.327693  1
  Be  Be5  1  0.330826  0.007522  0.330826  1
  Be  Be6  1  0.921692  0.919594  0.237025  1
  Fe  Fe7  1  0.125101  0.624698  0.125101  1
  Fe  Fe8  1  0.126843  0.123871  0.622442  1
  Fe  Fe9  1  0.622442  0.123871  0.126843  1
  Fe  Fe10  1  0.126843  0.123871  0.126843  1
  Fe  Fe11  1  0.923302  0.230095  0.923302  1
  Mo  Mo12  1  0.298621  0.700044  0.702712  1
  Mo  Mo13  1  0.702712  0.700044  0.298621  1
  Mo  Mo14  1  0.698992  0.298747  0.698992  1
  Mo  Mo15  1  0.298621  0.700044  0.298621  1
  Mo  Mo16  1  0.547925  0.953431  0.547925  1
  Mo  Mo17  1  0.547925  0.953431  0.950720  1
  Mo  Mo18  1  0.950796  0.551950  0.546459  1
  Mo  Mo19  1  0.950796  0.551950  0.950796  1
  Mo  Mo20  1  0.303268  0.298747  0.698992  1
  Mo  Mo21  1  0.546459  0.551950  0.950796  1
  Mo  Mo22  1  0.950720  0.953431  0.547925  1
  Mo  Mo23  1  0.698992  0.298747  0.303268  1
  C  C24  1  0.499243  0.502272  0.499243  1
  C  C25  1  0.749649  0.751053  0.749649  1
