# generated using pymatgen
data_Ba2NdCoO5
_symmetry_space_group_name_H-M   'P 1'
_cell_length_a   6.28720000
_cell_length_b   8.06997407
_cell_length_c   12.71011484
_cell_angle_alpha   91.05366749
_cell_angle_beta   90.00000000
_cell_angle_gamma   90.00000000
_symmetry_Int_Tables_number   1
_chemical_formula_structural   Ba2NdCoO5
_chemical_formula_sum   'Ba8 Nd4 Co4 O20'
_cell_volume   644.77092934
_cell_formula_units_Z   4
loop_
 _symmetry_equiv_pos_site_id
 _symmetry_equiv_pos_as_xyz
  1  'x, y, z'
loop_
 _atom_site_type_symbol
 _atom_site_label
 _atom_site_symmetry_multiplicity
 _atom_site_fract_x
 _atom_site_fract_y
 _atom_site_fract_z
 _atom_site_occupancy
  Ba  Ba0  1  0.775979  0.482130  0.352620  1
  Ba  Ba1  1  0.724021  0.982130  0.852620  1
  Ba  Ba2  1  0.224021  0.517870  0.647380  1
  Ba  Ba3  1  0.275979  0.017870  0.147380  1
  Ba  Ba4  1  0.766582  0.994198  0.381701  1
  Ba  Ba5  1  0.733418  0.494198  0.881701  1
  Ba  Ba6  1  0.233418  0.005802  0.618299  1
  Ba  Ba7  1  0.266582  0.505802  0.118299  1
  Nd  Nd8  1  0.741949  0.266362  0.625416  1
  Nd  Nd9  1  0.758051  0.766362  0.125416  1
  Nd  Nd10  1  0.258051  0.733638  0.374584  1
  Nd  Nd11  1  0.241949  0.233638  0.874584  1
  Co  Co12  1  0.733674  0.745187  0.590683  1
  Co  Co13  1  0.766326  0.245187  0.090683  1
  Co  Co14  1  0.266326  0.254813  0.409317  1
  Co  Co15  1  0.233674  0.754813  0.909317  1
  O  O16  1  0.766042  0.968283  0.631702  1
  O  O17  1  0.733958  0.468283  0.131702  1
  O  O18  1  0.233958  0.031717  0.368298  1
  O  O19  1  0.266042  0.531717  0.868298  1
  O  O20  1  0.726293  0.061629  0.173881  1
  O  O21  1  0.773707  0.561629  0.673881  1
  O  O22  1  0.273707  0.938371  0.826119  1
  O  O23  1  0.226293  0.438371  0.326119  1
  O  O24  1  0.571170  0.744060  0.283103  1
  O  O25  1  0.928830  0.244060  0.783103  1
  O  O26  1  0.428830  0.255940  0.716897  1
  O  O27  1  0.071170  0.755940  0.216897  1
  O  O28  1  0.550849  0.224447  0.984007  1
  O  O29  1  0.949151  0.724447  0.484007  1
  O  O30  1  0.449151  0.775553  0.015993  1
  O  O31  1  0.050849  0.275553  0.515993  1
  O  O32  1  0.048532  0.238093  0.036964  1
  O  O33  1  0.451468  0.738093  0.536964  1
  O  O34  1  0.951468  0.761907  0.963036  1
  O  O35  1  0.548532  0.261907  0.463036  1
