# generated using pymatgen
data_KP4PdO12
_symmetry_space_group_name_H-M   'P 1'
_cell_length_a   10.56907119
_cell_length_b   10.56907116
_cell_length_c   5.33504319
_cell_angle_alpha   79.97327551
_cell_angle_beta   79.97327496
_cell_angle_gamma   72.63569783
_symmetry_Int_Tables_number   1
_chemical_formula_structural   KP4PdO12
_chemical_formula_sum   'K2 P8 Pd2 O24'
_cell_volume   555.35502974
_cell_formula_units_Z   2
loop_
 _symmetry_equiv_pos_site_id
 _symmetry_equiv_pos_as_xyz
  1  'x, y, z'
loop_
 _atom_site_type_symbol
 _atom_site_label
 _atom_site_symmetry_multiplicity
 _atom_site_fract_x
 _atom_site_fract_y
 _atom_site_fract_z
 _atom_site_occupancy
  K  K0  1  0.401544  0.401544  0.721317  1
  K  K1  1  0.598456  0.598456  0.278683  1
  P  P2  1  0.797653  0.356176  0.831783  1
  P  P3  1  0.070357  0.306766  0.516482  1
  P  P4  1  0.306766  0.070357  0.516482  1
  P  P5  1  0.643824  0.202347  0.168217  1
  P  P6  1  0.356176  0.797653  0.831783  1
  P  P7  1  0.693234  0.929643  0.483518  1
  P  P8  1  0.929643  0.693234  0.483518  1
  P  P9  1  0.202347  0.643824  0.168217  1
  Pd  Pd10  1  0.500000  0.000000  0.000000  1
  Pd  Pd11  1  0.000000  0.500000  0.000000  1
  O  O12  1  0.433826  0.837506  0.008471  1
  O  O13  1  0.399582  0.113046  0.647430  1
  O  O14  1  0.426745  0.677010  0.706728  1
  O  O15  1  0.162494  0.566174  0.991529  1
  O  O16  1  0.566174  0.162494  0.991529  1
  O  O17  1  0.915028  0.671794  0.776378  1
  O  O18  1  0.216107  0.783893  0.000000  1
  O  O19  1  0.573255  0.322990  0.293272  1
  O  O20  1  0.600418  0.886954  0.352570  1
  O  O21  1  0.705381  0.075963  0.372229  1
  O  O22  1  0.322990  0.573255  0.293272  1
  O  O23  1  0.886954  0.600418  0.352570  1
  O  O24  1  0.837506  0.433826  0.008471  1
  O  O25  1  0.075963  0.705381  0.372229  1
  O  O26  1  0.153259  0.153259  0.587706  1
  O  O27  1  0.113046  0.399582  0.647430  1
  O  O28  1  0.677010  0.426745  0.706728  1
  O  O29  1  0.294619  0.924037  0.627771  1
  O  O30  1  0.783893  0.216107  0.000000  1
  O  O31  1  0.328206  0.084972  0.223622  1
  O  O32  1  0.671794  0.915028  0.776378  1
  O  O33  1  0.846741  0.846741  0.412294  1
  O  O34  1  0.924037  0.294619  0.627771  1
  O  O35  1  0.084972  0.328206  0.223622  1
