# generated using pymatgen
data_Ca7Tm(Al4Au3)4
_symmetry_space_group_name_H-M   'P 1'
_cell_length_a   14.43371400
_cell_length_b   14.16038252
_cell_length_c   4.17583800
_cell_angle_alpha   90.00000000
_cell_angle_beta   90.00000000
_cell_angle_gamma   120.64060412
_symmetry_Int_Tables_number   1
_chemical_formula_structural   Ca7Tm(Al4Au3)4
_chemical_formula_sum   'Ca7 Tm1 Al16 Au12'
_cell_volume   734.32373731
_cell_formula_units_Z   1
loop_
 _symmetry_equiv_pos_site_id
 _symmetry_equiv_pos_as_xyz
  1  'x, y, z'
loop_
 _atom_site_type_symbol
 _atom_site_label
 _atom_site_symmetry_multiplicity
 _atom_site_fract_x
 _atom_site_fract_y
 _atom_site_fract_z
 _atom_site_occupancy
  Ca  Ca0  1  0.001519  0.450684  0.000000  1
  Ca  Ca1  1  0.550834  0.549316  0.000000  1
  Ca  Ca2  1  0.338982  0.673623  0.000000  1
  Ca  Ca3  1  0.665360  0.326377  0.000000  1
  Ca  Ca4  1  0.817824  0.000000  0.500000  1
  Ca  Ca5  1  0.000347  0.821123  0.500000  1
  Ca  Ca6  1  0.179224  0.178877  0.500000  1
  Tm  Tm7  1  0.447251  0.000000  0.000000  1
  Al  Al8  1  0.189515  0.386739  0.000000  1
  Al  Al9  1  0.623029  0.806670  0.000000  1
  Al  Al10  1  0.377577  0.181327  0.000000  1
  Al  Al11  1  0.196248  0.818673  0.000000  1
  Al  Al12  1  0.802777  0.613261  0.000000  1
  Al  Al13  1  0.816361  0.193330  0.000000  1
  Al  Al14  1  0.280450  0.000000  0.500000  1
  Al  Al15  1  0.999751  0.282317  0.500000  1
  Al  Al16  1  0.717433  0.717683  0.500000  1
  Al  Al17  1  0.349144  0.470671  0.500000  1
  Al  Al18  1  0.529741  0.881944  0.500000  1
  Al  Al19  1  0.467953  0.345271  0.500000  1
  Al  Al20  1  0.122682  0.654729  0.500000  1
  Al  Al21  1  0.878473  0.529329  0.500000  1
  Al  Al22  1  0.647797  0.118056  0.500000  1
  Al  Al23  1  0.997388  0.000000  0.000000  1
  Au  Au24  1  0.177221  0.494872  0.500000  1
  Au  Au25  1  0.511866  0.685401  0.500000  1
  Au  Au26  1  0.487375  0.168489  0.500000  1
  Au  Au27  1  0.318885  0.831511  0.500000  1
  Au  Au28  1  0.682350  0.505128  0.500000  1
  Au  Au29  1  0.826464  0.314599  0.500000  1
  Au  Au30  1  0.176686  0.000000  0.000000  1
  Au  Au31  1  0.004345  0.183354  0.000000  1
  Au  Au32  1  0.820991  0.816646  0.000000  1
  Au  Au33  1  0.649607  0.000000  0.000000  1
  Au  Au34  1  0.001077  0.655602  0.000000  1
  Au  Au35  1  0.345476  0.344398  0.000000  1
