# generated using pymatgen
data_LaPr10NdFe2I17
_symmetry_space_group_name_H-M   'P 1'
_cell_length_a   10.04712338
_cell_length_b   12.17029791
_cell_length_c   12.14395272
_cell_angle_alpha   74.03518670
_cell_angle_beta   75.24946448
_cell_angle_gamma   65.46920939
_symmetry_Int_Tables_number   1
_chemical_formula_structural   LaPr10NdFe2I17
_chemical_formula_sum   'La1 Pr10 Nd1 Fe2 I17'
_cell_volume   1281.93961922
_cell_formula_units_Z   1
loop_
 _symmetry_equiv_pos_site_id
 _symmetry_equiv_pos_as_xyz
  1  'x, y, z'
loop_
 _atom_site_type_symbol
 _atom_site_label
 _atom_site_symmetry_multiplicity
 _atom_site_fract_x
 _atom_site_fract_y
 _atom_site_fract_z
 _atom_site_occupancy
  La  La0  1  0.148038  0.714817  0.153131  1
  Pr  Pr1  1  0.453533  0.487179  0.323047  1
  Pr  Pr2  1  0.556211  0.670230  0.008023  1
  Pr  Pr3  1  0.272717  0.988361  0.107157  1
  Pr  Pr4  1  0.861772  0.287918  0.848534  1
  Pr  Pr5  1  0.406356  0.241168  0.718598  1
  Pr  Pr6  1  0.725515  0.019595  0.890899  1
  Pr  Pr7  1  0.548402  0.504502  0.678751  1
  Pr  Pr8  1  0.451101  0.326775  0.987172  1
  Pr  Pr9  1  0.581153  0.757236  0.279355  1
  Pr  Pr10  1  0.818523  0.192803  0.586411  1
  Nd  Nd11  1  0.174824  0.810730  0.418419  1
  Fe  Fe12  1  0.359097  0.737635  0.212386  1
  Fe  Fe13  1  0.634506  0.261848  0.786570  1
  I  I14  1  0.055308  0.102026  0.325630  1
  I  I15  1  0.465094  0.947927  0.844014  1
  I  I16  1  0.427794  0.810092  0.535379  1
  I  I17  1  0.571119  0.184857  0.464286  1
  I  I18  1  0.837219  0.713627  0.046387  1
  I  I19  1  0.227059  0.417312  0.239952  1
  I  I20  1  0.688525  0.369846  0.102771  1
  I  I21  1  0.535582  0.049635  0.158177  1
  I  I22  1  0.742331  0.472350  0.416198  1
  I  I23  1  0.887667  0.784096  0.372616  1
  I  I24  1  0.947121  0.898498  0.675078  1
  I  I25  1  0.158366  0.292960  0.954781  1
  I  I26  1  0.317884  0.629701  0.896916  1
  I  I27  1  0.000760  0.002655  0.000226  1
  I  I28  1  0.112900  0.215334  0.630757  1
  I  I29  1  0.777793  0.580340  0.758056  1
  I  I30  1  0.255732  0.527946  0.580319  1
