# generated using pymatgen
data_Tb4Pr4Sc12Si15Ir
_symmetry_space_group_name_H-M   'P 1'
_cell_length_a   7.17988904
_cell_length_b   7.53153047
_cell_length_c   14.11632209
_cell_angle_alpha   89.98834001
_cell_angle_beta   90.08627907
_cell_angle_gamma   90.22784904
_symmetry_Int_Tables_number   1
_chemical_formula_structural   Tb4Pr4Sc12Si15Ir
_chemical_formula_sum   'Tb4 Pr4 Sc12 Si15 Ir1'
_cell_volume   763.34100792
_cell_formula_units_Z   1
loop_
 _symmetry_equiv_pos_site_id
 _symmetry_equiv_pos_as_xyz
  1  'x, y, z'
loop_
 _atom_site_type_symbol
 _atom_site_label
 _atom_site_symmetry_multiplicity
 _atom_site_fract_x
 _atom_site_fract_y
 _atom_site_fract_z
 _atom_site_occupancy
  Tb  Tb0  1  0.510479  0.324207  0.098414  1
  Tb  Tb1  1  0.012506  0.179658  0.401601  1
  Tb  Tb2  1  0.510905  0.323650  0.403339  1
  Tb  Tb3  1  0.488017  0.676297  0.595629  1
  Pr  Pr4  1  0.010768  0.176469  0.097351  1
  Pr  Pr5  1  0.991452  0.827130  0.903969  1
  Pr  Pr6  1  0.489701  0.672670  0.905763  1
  Pr  Pr7  1  0.991181  0.826587  0.594185  1
  Sc  Sc8  1  0.156120  0.494901  0.749334  1
  Sc  Sc9  1  0.838592  0.497138  0.250510  1
  Sc  Sc10  1  0.339339  0.003551  0.250835  1
  Sc  Sc11  1  0.668191  0.002271  0.749364  1
  Sc  Sc12  1  0.320796  0.173098  0.626262  1
  Sc  Sc13  1  0.670221  0.825554  0.373248  1
  Sc  Sc14  1  0.172529  0.675968  0.373997  1
  Sc  Sc15  1  0.671396  0.826285  0.128165  1
  Sc  Sc16  1  0.834965  0.319659  0.626095  1
  Sc  Sc17  1  0.321719  0.172686  0.872359  1
  Sc  Sc18  1  0.833372  0.321272  0.872479  1
  Sc  Sc19  1  0.171753  0.675824  0.127270  1
  Si  Si20  1  0.969072  0.879642  0.251602  1
  Si  Si21  1  0.469008  0.615183  0.250674  1
  Si  Si22  1  0.530332  0.384472  0.748099  1
  Si  Si23  1  0.290475  0.875567  0.748080  1
  Si  Si24  1  0.709708  0.127663  0.252234  1
  Si  Si25  1  0.214975  0.375083  0.251978  1
  Si  Si26  1  0.778751  0.619686  0.747588  1
  Si  Si27  1  0.159710  0.463790  0.536165  1
  Si  Si28  1  0.843975  0.532532  0.459519  1
  Si  Si29  1  0.347624  0.966603  0.459060  1
  Si  Si30  1  0.843537  0.536258  0.040242  1
  Si  Si31  1  0.651074  0.036507  0.537290  1
  Si  Si32  1  0.155391  0.465099  0.963310  1
  Si  Si33  1  0.651469  0.040190  0.963146  1
  Si  Si34  1  0.351178  0.967546  0.041265  1
  Ir  Ir35  1  0.029717  0.119309  0.749581  1
