# generated using pymatgen
data_MgSc5(InRh2)6
_symmetry_space_group_name_H-M   'P 1'
_cell_length_a   4.58925700
_cell_length_b   6.37764100
_cell_length_c   13.71065100
_cell_angle_alpha   90.00000000
_cell_angle_beta   89.99977481
_cell_angle_gamma   90.00000000
_symmetry_Int_Tables_number   1
_chemical_formula_structural   MgSc5(InRh2)6
_chemical_formula_sum   'Mg1 Sc5 In6 Rh12'
_cell_volume   401.29202057
_cell_formula_units_Z   1
loop_
 _symmetry_equiv_pos_site_id
 _symmetry_equiv_pos_as_xyz
  1  'x, y, z'
loop_
 _atom_site_type_symbol
 _atom_site_label
 _atom_site_symmetry_multiplicity
 _atom_site_fract_x
 _atom_site_fract_y
 _atom_site_fract_z
 _atom_site_occupancy
  Mg  Mg0  1  0.500094  0.000000  0.833327  1
  Sc  Sc1  1  0.000002  0.500000  0.998972  1
  Sc  Sc2  1  0.499881  0.000000  0.166203  1
  Sc  Sc3  1  0.999917  0.500000  0.333329  1
  Sc  Sc4  1  0.499999  0.000000  0.500470  1
  Sc  Sc5  1  0.000095  0.500000  0.667697  1
  In  In6  1  0.999989  0.000000  0.998917  1
  In  In7  1  0.499914  0.500000  0.164796  1
  In  In8  1  0.999899  0.000000  0.333337  1
  In  In9  1  0.499998  0.500000  0.501860  1
  In  In10  1  0.000153  0.000000  0.667743  1
  In  In11  1  0.500089  0.500000  0.833336  1
  Rh  Rh12  1  0.499992  0.248414  0.998991  1
  Rh  Rh13  1  0.499992  0.751587  0.998991  1
  Rh  Rh14  1  0.999909  0.249370  0.166816  1
  Rh  Rh15  1  0.999909  0.750629  0.166816  1
  Rh  Rh16  1  0.499907  0.249550  0.333334  1
  Rh  Rh17  1  0.499907  0.750449  0.333334  1
  Rh  Rh18  1  0.000001  0.249373  0.499853  1
  Rh  Rh19  1  0.000001  0.750627  0.499853  1
  Rh  Rh20  1  0.500098  0.248408  0.667678  1
  Rh  Rh21  1  0.500098  0.751591  0.667678  1
  Rh  Rh22  1  0.000080  0.249980  0.833334  1
  Rh  Rh23  1  0.000080  0.750019  0.833334  1
