# generated using pymatgen
data_Lu2GeB2Ir2Ru3
_symmetry_space_group_name_H-M   'P 1'
_cell_length_a   9.53581080
_cell_length_b   9.54668080
_cell_length_c   3.07180700
_cell_angle_alpha   90.00000000
_cell_angle_beta   90.00000000
_cell_angle_gamma   89.95309441
_symmetry_Int_Tables_number   1
_chemical_formula_structural   Lu2GeB2Ir2Ru3
_chemical_formula_sum   'Lu4 Ge2 B4 Ir4 Ru6'
_cell_volume   279.64290668
_cell_formula_units_Z   2
loop_
 _symmetry_equiv_pos_site_id
 _symmetry_equiv_pos_as_xyz
  1  'x, y, z'
loop_
 _atom_site_type_symbol
 _atom_site_label
 _atom_site_symmetry_multiplicity
 _atom_site_fract_x
 _atom_site_fract_y
 _atom_site_fract_z
 _atom_site_occupancy
  Lu  Lu0  1  0.680675  0.177971  0.000000  1
  Lu  Lu1  1  0.319325  0.822029  0.000000  1
  Lu  Lu2  1  0.174902  0.322319  0.000000  1
  Lu  Lu3  1  0.825098  0.677681  0.000000  1
  Ge  Ge4  1  0.000000  0.000000  0.000000  1
  Ge  Ge5  1  0.500000  0.500000  0.000000  1
  B  B6  1  0.125471  0.624715  0.000000  1
  B  B7  1  0.874529  0.375285  0.000000  1
  B  B8  1  0.626915  0.877145  0.000000  1
  B  B9  1  0.373085  0.122855  0.000000  1
  Ir  Ir10  1  0.568789  0.719543  0.500000  1
  Ir  Ir11  1  0.431211  0.280457  0.500000  1
  Ir  Ir12  1  0.500000  0.000000  0.500000  1
  Ir  Ir13  1  0.000000  0.500000  0.500000  1
  Ru  Ru14  1  0.215977  0.067653  0.500000  1
  Ru  Ru15  1  0.784023  0.932347  0.500000  1
  Ru  Ru16  1  0.068416  0.783574  0.500000  1
  Ru  Ru17  1  0.714315  0.433510  0.500000  1
  Ru  Ru18  1  0.931584  0.216426  0.500000  1
  Ru  Ru19  1  0.285685  0.566490  0.500000  1
