# generated using pymatgen
data_AcB2IrRu
_symmetry_space_group_name_H-M   'P 1'
_cell_length_a   7.11955495
_cell_length_b   6.19389711
_cell_length_c   5.69674622
_cell_angle_alpha   73.42696269
_cell_angle_beta   56.49545736
_cell_angle_gamma   50.07757040
_symmetry_Int_Tables_number   1
_chemical_formula_structural   AcB2IrRu
_chemical_formula_sum   'Ac2 B4 Ir2 Ru2'
_cell_volume   159.70939344
_cell_formula_units_Z   2
loop_
 _symmetry_equiv_pos_site_id
 _symmetry_equiv_pos_as_xyz
  1  'x, y, z'
loop_
 _atom_site_type_symbol
 _atom_site_label
 _atom_site_symmetry_multiplicity
 _atom_site_fract_x
 _atom_site_fract_y
 _atom_site_fract_z
 _atom_site_occupancy
  Ac  Ac0  1  0.997420  0.997420  0.002580  1
  Ac  Ac1  1  0.247420  0.247420  0.252580  1
  B  B2  1  0.326387  0.675898  0.326652  1
  B  B3  1  0.578937  0.923348  0.574102  1
  B  B4  1  0.675898  0.326387  0.671063  1
  B  B5  1  0.923348  0.578937  0.923613  1
  Ir  Ir6  1  0.616903  0.616903  0.883097  1
  Ir  Ir7  1  0.366903  0.366903  0.633097  1
  Ru  Ru8  1  0.633392  0.633392  0.366608  1
  Ru  Ru9  1  0.883392  0.883392  0.616608  1
