# generated using pymatgen
data_Na2PuO4
_symmetry_space_group_name_H-M   'P 1'
_cell_length_a   5.80028700
_cell_length_b   5.98856600
_cell_length_c   11.75193000
_cell_angle_alpha   90.00000000
_cell_angle_beta   90.00000000
_cell_angle_gamma   90.00056361
_symmetry_Int_Tables_number   1
_chemical_formula_structural   Na2PuO4
_chemical_formula_sum   'Na8 Pu4 O16'
_cell_volume   408.20800716
_cell_formula_units_Z   4
loop_
 _symmetry_equiv_pos_site_id
 _symmetry_equiv_pos_as_xyz
  1  'x, y, z'
loop_
 _atom_site_type_symbol
 _atom_site_label
 _atom_site_symmetry_multiplicity
 _atom_site_fract_x
 _atom_site_fract_y
 _atom_site_fract_z
 _atom_site_occupancy
  Na  Na0  1  0.507745  0.054221  0.160263  1
  Na  Na1  1  0.992332  0.554170  0.160279  1
  Na  Na2  1  0.007745  0.054221  0.339737  1
  Na  Na3  1  0.492331  0.554170  0.339721  1
  Na  Na4  1  0.507669  0.445831  0.660278  1
  Na  Na5  1  0.992256  0.945780  0.660262  1
  Na  Na6  1  0.007669  0.445831  0.839721  1
  Na  Na7  1  0.492255  0.945780  0.839737  1
  Pu  Pu8  1  0.000000  0.000000  0.000000  1
  Pu  Pu9  1  0.500000  0.500000  0.000000  1
  Pu  Pu10  1  0.500000  0.000000  0.500000  1
  Pu  Pu11  1  0.000000  0.500000  0.500000  1
  O  O12  1  0.791532  0.284766  0.047450  1
  O  O13  1  0.708424  0.784739  0.047462  1
  O  O14  1  0.392064  0.467811  0.152026  1
  O  O15  1  0.107970  0.967861  0.152027  1
  O  O16  1  0.892065  0.467811  0.347974  1
  O  O17  1  0.607969  0.967861  0.347973  1
  O  O18  1  0.291533  0.284766  0.452551  1
  O  O19  1  0.208424  0.784739  0.452539  1
  O  O20  1  0.791575  0.215261  0.547461  1
  O  O21  1  0.708467  0.715235  0.547449  1
  O  O22  1  0.392030  0.032139  0.652027  1
  O  O23  1  0.107936  0.532189  0.652026  1
  O  O24  1  0.892031  0.032139  0.847973  1
  O  O25  1  0.607935  0.532189  0.847974  1
  O  O26  1  0.291576  0.215261  0.952539  1
  O  O27  1  0.208467  0.715235  0.952551  1
