# generated using pymatgen
data_LiSmH6Os
_symmetry_space_group_name_H-M   'P 1'
_cell_length_a   7.11418300
_cell_length_b   7.11418300
_cell_length_c   7.11418300
_cell_angle_alpha   90.00000000
_cell_angle_beta   90.00000000
_cell_angle_gamma   90.00000000
_symmetry_Int_Tables_number   1
_chemical_formula_structural   LiSmH6Os
_chemical_formula_sum   'Li4 Sm4 H24 Os4'
_cell_volume   360.06018260
_cell_formula_units_Z   4
loop_
 _symmetry_equiv_pos_site_id
 _symmetry_equiv_pos_as_xyz
  1  'x, y, z'
loop_
 _atom_site_type_symbol
 _atom_site_label
 _atom_site_symmetry_multiplicity
 _atom_site_fract_x
 _atom_site_fract_y
 _atom_site_fract_z
 _atom_site_occupancy
  Li  Li0  1  0.000000  0.000000  0.500000  1
  Li  Li1  1  0.000000  0.500000  0.000000  1
  Li  Li2  1  0.500000  0.000000  0.000000  1
  Li  Li3  1  0.000000  0.000000  0.000000  1
  Sm  Sm4  1  0.500000  0.500000  0.500000  1
  Sm  Sm5  1  0.000000  0.500000  0.500000  1
  Sm  Sm6  1  0.500000  0.000000  0.500000  1
  Sm  Sm7  1  0.500000  0.500000  0.000000  1
  H  H8  1  0.754798  0.754798  0.500768  1
  H  H9  1  0.245202  0.245202  0.500768  1
  H  H10  1  0.017929  0.748852  0.748852  1
  H  H11  1  0.251148  0.982071  0.748852  1
  H  H12  1  0.748852  0.017929  0.748852  1
  H  H13  1  0.982071  0.251148  0.748852  1
  H  H14  1  0.754798  0.500768  0.754798  1
  H  H15  1  0.500768  0.754798  0.754798  1
  H  H16  1  0.499232  0.245202  0.754798  1
  H  H17  1  0.245202  0.499232  0.754798  1
  H  H18  1  0.251148  0.748852  0.982071  1
  H  H19  1  0.748852  0.251148  0.982071  1
  H  H20  1  0.748852  0.748852  0.017929  1
  H  H21  1  0.251148  0.251148  0.017929  1
  H  H22  1  0.245202  0.500768  0.245202  1
  H  H23  1  0.499232  0.754798  0.245202  1
  H  H24  1  0.500768  0.245202  0.245202  1
  H  H25  1  0.754798  0.499232  0.245202  1
  H  H26  1  0.982071  0.748852  0.251148  1
  H  H27  1  0.748852  0.982071  0.251148  1
  H  H28  1  0.251148  0.017929  0.251148  1
  H  H29  1  0.017929  0.251148  0.251148  1
  H  H30  1  0.245202  0.754798  0.499232  1
  H  H31  1  0.754798  0.245202  0.499232  1
  Os  Os32  1  0.257840  0.742160  0.742160  1
  Os  Os33  1  0.742160  0.257840  0.742160  1
  Os  Os34  1  0.742160  0.742160  0.257840  1
  Os  Os35  1  0.257840  0.257840  0.257840  1
