# generated using pymatgen
data_Al3Fe4Co8Si
_symmetry_space_group_name_H-M   'P 1'
_cell_length_a   13.33668899
_cell_length_b   13.33668911
_cell_length_c   13.33668974
_cell_angle_alpha   17.32160150
_cell_angle_beta   17.32159932
_cell_angle_gamma   17.32160162
_symmetry_Int_Tables_number   1
_chemical_formula_structural   Al3Fe4Co8Si
_chemical_formula_sum   'Al3 Fe4 Co8 Si1'
_cell_volume   183.49686789
_cell_formula_units_Z   1
loop_
 _symmetry_equiv_pos_site_id
 _symmetry_equiv_pos_as_xyz
  1  'x, y, z'
loop_
 _atom_site_type_symbol
 _atom_site_label
 _atom_site_symmetry_multiplicity
 _atom_site_fract_x
 _atom_site_fract_y
 _atom_site_fract_z
 _atom_site_occupancy
  Al  Al0  1  0.750519  0.750519  0.750519  1
  Al  Al1  1  0.000000  0.000000  0.000000  1
  Al  Al2  1  0.249481  0.249481  0.249481  1
  Fe  Fe3  1  0.624691  0.624691  0.624691  1
  Fe  Fe4  1  0.375309  0.375309  0.375309  1
  Fe  Fe5  1  0.875211  0.875211  0.875211  1
  Fe  Fe6  1  0.124789  0.124789  0.124789  1
  Co  Co7  1  0.937138  0.937138  0.937138  1
  Co  Co8  1  0.687698  0.687698  0.687698  1
  Co  Co9  1  0.186208  0.186208  0.186208  1
  Co  Co10  1  0.439336  0.439336  0.439336  1
  Co  Co11  1  0.560664  0.560664  0.560664  1
  Co  Co12  1  0.312302  0.312302  0.312302  1
  Co  Co13  1  0.813792  0.813792  0.813792  1
  Co  Co14  1  0.062862  0.062862  0.062862  1
  Si  Si15  1  0.500000  0.500000  0.500000  1
