# generated using pymatgen
data_K3V2Cu3S8
_symmetry_space_group_name_H-M   'P 1'
_cell_length_a   11.98175170
_cell_length_b   11.98175186
_cell_length_c   14.21008317
_cell_angle_alpha   61.24330053
_cell_angle_beta   61.24329920
_cell_angle_gamma   26.16976884
_symmetry_Int_Tables_number   1
_chemical_formula_structural   K3V2Cu3S8
_chemical_formula_sum   'K6 V4 Cu6 S16'
_cell_volume   782.31610486
_cell_formula_units_Z   2
loop_
 _symmetry_equiv_pos_site_id
 _symmetry_equiv_pos_as_xyz
  1  'x, y, z'
loop_
 _atom_site_type_symbol
 _atom_site_label
 _atom_site_symmetry_multiplicity
 _atom_site_fract_x
 _atom_site_fract_y
 _atom_site_fract_z
 _atom_site_occupancy
  K  K0  1  0.641494  0.745328  0.402511  1
  K  K1  1  0.358506  0.254672  0.597489  1
  K  K2  1  0.745328  0.641494  0.902511  1
  K  K3  1  0.000000  0.000000  0.500000  1
  K  K4  1  0.254672  0.358506  0.097489  1
  K  K5  1  0.000000  0.000000  0.000000  1
  V  V6  1  0.162956  0.587952  0.778479  1
  V  V7  1  0.837044  0.412048  0.221521  1
  V  V8  1  0.587952  0.162956  0.278479  1
  V  V9  1  0.412048  0.837044  0.721521  1
  Cu  Cu10  1  0.283099  0.716901  0.750000  1
  Cu  Cu11  1  0.716901  0.283099  0.250000  1
  Cu  Cu12  1  0.663863  0.089168  0.780652  1
  Cu  Cu13  1  0.910832  0.336137  0.719348  1
  Cu  Cu14  1  0.336137  0.910832  0.219348  1
  Cu  Cu15  1  0.089168  0.663863  0.280652  1
  S  S16  1  0.524887  0.559009  0.337717  1
  S  S17  1  0.105370  0.206279  0.311982  1
  S  S18  1  0.275106  0.312014  0.385741  1
  S  S19  1  0.968907  0.847183  0.872195  1
  S  S20  1  0.031093  0.152817  0.127805  1
  S  S21  1  0.440991  0.475113  0.162283  1
  S  S22  1  0.847183  0.968907  0.372195  1
  S  S23  1  0.475113  0.440991  0.662283  1
  S  S24  1  0.152817  0.031093  0.627805  1
  S  S25  1  0.312014  0.275106  0.885741  1
  S  S26  1  0.687986  0.724894  0.114259  1
  S  S27  1  0.724894  0.687986  0.614259  1
  S  S28  1  0.793721  0.894630  0.188018  1
  S  S29  1  0.894630  0.793721  0.688018  1
  S  S30  1  0.559009  0.524887  0.837717  1
  S  S31  1  0.206279  0.105370  0.811982  1
