# generated using pymatgen
data_Ho10Tl5Sb
_symmetry_space_group_name_H-M   'P 1'
_cell_length_a   8.95421900
_cell_length_b   8.93796950
_cell_length_c   6.65549100
_cell_angle_alpha   90.00000000
_cell_angle_beta   90.00000000
_cell_angle_gamma   120.06014709
_symmetry_Int_Tables_number   1
_chemical_formula_structural   Ho10Tl5Sb
_chemical_formula_sum   'Ho10 Tl5 Sb1'
_cell_volume   461.01364039
_cell_formula_units_Z   1
loop_
 _symmetry_equiv_pos_site_id
 _symmetry_equiv_pos_as_xyz
  1  'x, y, z'
loop_
 _atom_site_type_symbol
 _atom_site_label
 _atom_site_symmetry_multiplicity
 _atom_site_fract_x
 _atom_site_fract_y
 _atom_site_fract_z
 _atom_site_occupancy
  Ho  Ho0  1  0.997049  0.761106  0.750000  1
  Ho  Ho1  1  0.999789  0.235817  0.250000  1
  Ho  Ho2  1  0.763972  0.764183  0.250000  1
  Ho  Ho3  1  0.764477  0.000000  0.750000  1
  Ho  Ho4  1  0.235942  0.238894  0.750000  1
  Ho  Ho5  1  0.237684  0.000000  0.250000  1
  Ho  Ho6  1  0.334255  0.666571  0.497386  1
  Ho  Ho7  1  0.667686  0.333429  0.002614  1
  Ho  Ho8  1  0.667686  0.333429  0.497386  1
  Ho  Ho9  1  0.334255  0.666571  0.002614  1
  Tl  Tl10  1  0.399859  0.398383  0.250000  1
  Tl  Tl11  1  0.001476  0.601617  0.250000  1
  Tl  Tl12  1  0.999478  0.400111  0.750000  1
  Tl  Tl13  1  0.599366  0.599889  0.750000  1
  Tl  Tl14  1  0.603745  0.000000  0.250000  1
  Sb  Sb15  1  0.393280  0.000000  0.750000  1
