# generated using pymatgen
data_Lu2Ga3Si11Ir6
_symmetry_space_group_name_H-M   'P 1'
_cell_length_a   8.04149679
_cell_length_b   7.99271049
_cell_length_c   8.00868605
_cell_angle_alpha   57.37315743
_cell_angle_beta   57.61727740
_cell_angle_gamma   57.85512456
_symmetry_Int_Tables_number   1
_chemical_formula_structural   Lu2Ga3Si11Ir6
_chemical_formula_sum   'Lu2 Ga3 Si11 Ir6'
_cell_volume   344.01451376
_cell_formula_units_Z   1
loop_
 _symmetry_equiv_pos_site_id
 _symmetry_equiv_pos_as_xyz
  1  'x, y, z'
loop_
 _atom_site_type_symbol
 _atom_site_label
 _atom_site_symmetry_multiplicity
 _atom_site_fract_x
 _atom_site_fract_y
 _atom_site_fract_z
 _atom_site_occupancy
  Lu  Lu0  1  0.999835  0.999552  0.997909  1
  Lu  Lu1  1  0.499376  0.499769  0.500921  1
  Ga  Ga2  1  0.750333  0.751604  0.748441  1
  Ga  Ga3  1  0.248119  0.248649  0.252996  1
  Ga  Ga4  1  0.857705  0.073560  0.659687  1
  Si  Si5  1  0.667607  0.853201  0.065719  1
  Si  Si6  1  0.062148  0.667956  0.855931  1
  Si  Si7  1  0.647887  0.828165  0.436368  1
  Si  Si8  1  0.438735  0.643955  0.833520  1
  Si  Si9  1  0.828178  0.437871  0.651111  1
  Si  Si10  1  0.168426  0.562025  0.354557  1
  Si  Si11  1  0.559373  0.358321  0.168557  1
  Si  Si12  1  0.354991  0.167932  0.561940  1
  Si  Si13  1  0.938196  0.331391  0.144364  1
  Si  Si14  1  0.332600  0.146309  0.936562  1
  Si  Si15  1  0.143993  0.937151  0.331955  1
  Ir  Ir16  1  0.084309  0.415061  0.750276  1
  Ir  Ir17  1  0.260826  0.907557  0.583058  1
  Ir  Ir18  1  0.576788  0.253437  0.923313  1
  Ir  Ir19  1  0.916871  0.581008  0.252490  1
  Ir  Ir20  1  0.414716  0.750758  0.084142  1
  Ir  Ir21  1  0.748987  0.084768  0.406183  1
