# generated using pymatgen
data_PrSmEr2(WN3)4
_symmetry_space_group_name_H-M   'P 1'
_cell_length_a   7.28546750
_cell_length_b   7.28546798
_cell_length_c   6.21709211
_cell_angle_alpha   75.62275496
_cell_angle_beta   75.62276741
_cell_angle_gamma   82.94216871
_symmetry_Int_Tables_number   1
_chemical_formula_structural   PrSmEr2(WN3)4
_chemical_formula_sum   'Pr1 Sm1 Er2 W4 N12'
_cell_volume   308.98570125
_cell_formula_units_Z   1
loop_
 _symmetry_equiv_pos_site_id
 _symmetry_equiv_pos_as_xyz
  1  'x, y, z'
loop_
 _atom_site_type_symbol
 _atom_site_label
 _atom_site_symmetry_multiplicity
 _atom_site_fract_x
 _atom_site_fract_y
 _atom_site_fract_z
 _atom_site_occupancy
  Pr  Pr0  1  0.696494  0.303506  0.750000  1
  Sm  Sm1  1  0.300735  0.699265  0.250000  1
  Er  Er2  1  0.088521  0.911479  0.750000  1
  Er  Er3  1  0.914195  0.085805  0.250000  1
  W  W4  1  0.380253  0.198211  0.252095  1
  W  W5  1  0.618528  0.801982  0.749745  1
  W  W6  1  0.801789  0.619747  0.247905  1
  W  W7  1  0.198018  0.381472  0.750255  1
  N  N8  1  0.621460  0.106388  0.166347  1
  N  N9  1  0.367143  0.349361  0.472651  1
  N  N10  1  0.005496  0.212659  0.855978  1
  N  N11  1  0.377754  0.894805  0.839087  1
  N  N12  1  0.787341  0.994504  0.644022  1
  N  N13  1  0.105195  0.622246  0.660913  1
  N  N14  1  0.893612  0.378540  0.333652  1
  N  N15  1  0.633055  0.654406  0.525053  1
  N  N16  1  0.650639  0.632857  0.027349  1
  N  N17  1  0.345594  0.366945  0.974947  1
  N  N18  1  0.998659  0.784479  0.144309  1
  N  N19  1  0.215521  0.001341  0.355691  1
