# generated using pymatgen
data_Lu10Zn3AgBi2
_symmetry_space_group_name_H-M   'P 1'
_cell_length_a   8.50600373
_cell_length_b   8.50600394
_cell_length_c   8.51771689
_cell_angle_alpha   124.11445768
_cell_angle_beta   124.11445443
_cell_angle_gamma   82.92085055
_symmetry_Int_Tables_number   1
_chemical_formula_structural   Lu10Zn3AgBi2
_chemical_formula_sum   'Lu10 Zn3 Ag1 Bi2'
_cell_volume   405.63877479
_cell_formula_units_Z   1
loop_
 _symmetry_equiv_pos_site_id
 _symmetry_equiv_pos_as_xyz
  1  'x, y, z'
loop_
 _atom_site_type_symbol
 _atom_site_label
 _atom_site_symmetry_multiplicity
 _atom_site_fract_x
 _atom_site_fract_y
 _atom_site_fract_z
 _atom_site_occupancy
  Lu  Lu0  1  0.999571  0.000820  0.000391  1
  Lu  Lu1  1  0.500820  0.499571  0.000391  1
  Lu  Lu2  1  0.795047  0.295047  0.805544  1
  Lu  Lu3  1  0.205654  0.705654  0.197465  1
  Lu  Lu4  1  0.491812  0.991812  0.197465  1
  Lu  Lu5  1  0.296226  0.488463  0.498653  1
  Lu  Lu6  1  0.010190  0.202427  0.498653  1
  Lu  Lu7  1  0.510496  0.010496  0.805544  1
  Lu  Lu8  1  0.702427  0.510190  0.498653  1
  Lu  Lu9  1  0.988463  0.796226  0.498653  1
  Zn  Zn10  1  0.863116  0.363116  0.226232  1
  Zn  Zn11  1  0.636826  0.863779  0.500605  1
  Zn  Zn12  1  0.363779  0.136826  0.500605  1
  Ag  Ag13  1  0.135382  0.635382  0.770765  1
  Bi  Bi14  1  0.250095  0.250095  0.000190  1
  Bi  Bi15  1  0.750095  0.750095  0.000190  1
