# generated using pymatgen
data_Ca6Mn2N6Cl
_symmetry_space_group_name_H-M   'P 1'
_cell_length_a   6.08586245
_cell_length_b   6.08586310
_cell_length_c   6.08586286
_cell_angle_alpha   96.35055997
_cell_angle_beta   96.35056937
_cell_angle_gamma   96.35056050
_symmetry_Int_Tables_number   1
_chemical_formula_structural   Ca6Mn2N6Cl
_chemical_formula_sum   'Ca6 Mn2 N6 Cl1'
_cell_volume   220.92008837
_cell_formula_units_Z   1
loop_
 _symmetry_equiv_pos_site_id
 _symmetry_equiv_pos_as_xyz
  1  'x, y, z'
loop_
 _atom_site_type_symbol
 _atom_site_label
 _atom_site_symmetry_multiplicity
 _atom_site_fract_x
 _atom_site_fract_y
 _atom_site_fract_z
 _atom_site_occupancy
  Ca  Ca0  1  0.610558  0.106316  0.780557  1
  Ca  Ca1  1  0.106316  0.780557  0.610558  1
  Ca  Ca2  1  0.780557  0.610558  0.106316  1
  Ca  Ca3  1  0.389442  0.893684  0.219443  1
  Ca  Ca4  1  0.893684  0.219443  0.389442  1
  Ca  Ca5  1  0.219443  0.389442  0.893684  1
  Mn  Mn6  1  0.615847  0.615847  0.615847  1
  Mn  Mn7  1  0.384153  0.384153  0.384153  1
  N  N8  1  0.721520  0.841937  0.469386  1
  N  N9  1  0.841937  0.469386  0.721520  1
  N  N10  1  0.469386  0.721520  0.841937  1
  N  N11  1  0.278480  0.158063  0.530614  1
  N  N12  1  0.158063  0.530614  0.278480  1
  N  N13  1  0.530614  0.278480  0.158063  1
  Cl  Cl14  1  0.000000  0.000000  0.000000  1
