# generated using pymatgen
data_Tm2MgSi2Rh5
_symmetry_space_group_name_H-M   'P 1'
_cell_length_a   9.84896800
_cell_length_b   9.84896800
_cell_length_c   3.39939600
_cell_angle_alpha   90.00000000
_cell_angle_beta   90.00000000
_cell_angle_gamma   90.00000000
_symmetry_Int_Tables_number   1
_chemical_formula_structural   Tm2MgSi2Rh5
_chemical_formula_sum   'Tm4 Mg2 Si4 Rh10'
_cell_volume   329.74879095
_cell_formula_units_Z   2
loop_
 _symmetry_equiv_pos_site_id
 _symmetry_equiv_pos_as_xyz
  1  'x, y, z'
loop_
 _atom_site_type_symbol
 _atom_site_label
 _atom_site_symmetry_multiplicity
 _atom_site_fract_x
 _atom_site_fract_y
 _atom_site_fract_z
 _atom_site_occupancy
  Tm  Tm0  1  0.673926  0.173926  0.000000  1
  Tm  Tm1  1  0.326074  0.826074  0.000000  1
  Tm  Tm2  1  0.173926  0.326074  0.000000  1
  Tm  Tm3  1  0.826074  0.673926  0.000000  1
  Mg  Mg4  1  0.000000  0.000000  0.000000  1
  Mg  Mg5  1  0.500000  0.500000  0.000000  1
  Si  Si6  1  0.125554  0.625554  0.000000  1
  Si  Si7  1  0.874446  0.374446  0.000000  1
  Si  Si8  1  0.625554  0.874446  0.000000  1
  Si  Si9  1  0.374446  0.125554  0.000000  1
  Rh  Rh10  1  0.500000  0.000000  0.500000  1
  Rh  Rh11  1  0.000000  0.500000  0.500000  1
  Rh  Rh12  1  0.215509  0.068462  0.500000  1
  Rh  Rh13  1  0.784491  0.931538  0.500000  1
  Rh  Rh14  1  0.068462  0.784491  0.500000  1
  Rh  Rh15  1  0.715509  0.431538  0.500000  1
  Rh  Rh16  1  0.931538  0.215509  0.500000  1
  Rh  Rh17  1  0.284491  0.568462  0.500000  1
  Rh  Rh18  1  0.568462  0.715509  0.500000  1
  Rh  Rh19  1  0.431538  0.284491  0.500000  1
