# generated using pymatgen
data_Dy2Lu2CrOsC4
_symmetry_space_group_name_H-M   'P 1'
_cell_length_a   5.00724600
_cell_length_b   6.45926156
_cell_length_c   9.63133002
_cell_angle_alpha   90.33852989
_cell_angle_beta   90.00000000
_cell_angle_gamma   90.00000000
_symmetry_Int_Tables_number   1
_chemical_formula_structural   Dy2Lu2CrOsC4
_chemical_formula_sum   'Dy4 Lu4 Cr2 Os2 C8'
_cell_volume   311.50174447
_cell_formula_units_Z   2
loop_
 _symmetry_equiv_pos_site_id
 _symmetry_equiv_pos_as_xyz
  1  'x, y, z'
loop_
 _atom_site_type_symbol
 _atom_site_label
 _atom_site_symmetry_multiplicity
 _atom_site_fract_x
 _atom_site_fract_y
 _atom_site_fract_z
 _atom_site_occupancy
  Dy  Dy0  1  0.250000  0.532522  0.212937  1
  Dy  Dy1  1  0.750000  0.467478  0.787063  1
  Dy  Dy2  1  0.750000  0.972224  0.714330  1
  Dy  Dy3  1  0.250000  0.027776  0.285670  1
  Lu  Lu4  1  0.250000  0.677679  0.559747  1
  Lu  Lu5  1  0.750000  0.322321  0.440253  1
  Lu  Lu6  1  0.750000  0.827601  0.055712  1
  Lu  Lu7  1  0.250000  0.172399  0.944288  1
  Cr  Cr8  1  0.250000  0.725972  0.862828  1
  Cr  Cr9  1  0.750000  0.274028  0.137172  1
  Os  Os10  1  0.750000  0.775122  0.363470  1
  Os  Os11  1  0.250000  0.224878  0.636530  1
  C  C12  1  0.250000  0.462536  0.765536  1
  C  C13  1  0.750000  0.537464  0.234464  1
  C  C14  1  0.750000  0.048386  0.257526  1
  C  C15  1  0.250000  0.951614  0.742474  1
  C  C16  1  0.250000  0.820819  0.041660  1
  C  C17  1  0.750000  0.179181  0.958340  1
  C  C18  1  0.750000  0.672159  0.549571  1
  C  C19  1  0.250000  0.327841  0.450429  1
