# generated using pymatgen
data_UBr3O
_symmetry_space_group_name_H-M   'P 1'
_cell_length_a   4.13348934
_cell_length_b   13.00356200
_cell_length_c   12.99846934
_cell_angle_alpha   90.00000000
_cell_angle_beta   89.75024623
_cell_angle_gamma   90.00000000
_symmetry_Int_Tables_number   1
_chemical_formula_structural   UBr3O
_chemical_formula_sum   'U4 Br12 O4'
_cell_volume   698.66219270
_cell_formula_units_Z   4
loop_
 _symmetry_equiv_pos_site_id
 _symmetry_equiv_pos_as_xyz
  1  'x, y, z'
loop_
 _atom_site_type_symbol
 _atom_site_label
 _atom_site_symmetry_multiplicity
 _atom_site_fract_x
 _atom_site_fract_y
 _atom_site_fract_z
 _atom_site_occupancy
  U  U0  1  0.491108  0.379916  0.620145  1
  U  U1  1  0.991108  0.120084  0.120145  1
  U  U2  1  0.508892  0.620084  0.379855  1
  U  U3  1  0.008892  0.879916  0.879855  1
  Br  Br4  1  0.488541  0.393872  0.823589  1
  Br  Br5  1  0.511459  0.606128  0.176411  1
  Br  Br6  1  0.988541  0.106128  0.323589  1
  Br  Br7  1  0.011459  0.893872  0.676411  1
  Br  Br8  1  0.512974  0.823441  0.393817  1
  Br  Br9  1  0.487026  0.176559  0.606183  1
  Br  Br10  1  0.987026  0.323441  0.106183  1
  Br  Br11  1  0.012974  0.676559  0.893817  1
  Br  Br12  1  0.500889  0.601873  0.601903  1
  Br  Br13  1  0.499111  0.398127  0.398097  1
  Br  Br14  1  0.000889  0.898127  0.101903  1
  Br  Br15  1  0.999111  0.101873  0.898097  1
  O  O16  1  0.991006  0.384236  0.615775  1
  O  O17  1  0.008994  0.615764  0.384225  1
  O  O18  1  0.491006  0.115764  0.115775  1
  O  O19  1  0.508994  0.884236  0.884225  1
