# generated using pymatgen
data_MnV2Fe3(P2W)2
_symmetry_space_group_name_H-M   'P 1'
_cell_length_a   3.52633800
_cell_length_b   5.96924597
_cell_length_c   6.76674025
_cell_angle_alpha   90.09328468
_cell_angle_beta   90.00000000
_cell_angle_gamma   90.00000000
_symmetry_Int_Tables_number   1
_chemical_formula_structural   MnV2Fe3(P2W)2
_chemical_formula_sum   'Mn1 V2 Fe3 P4 W2'
_cell_volume   142.43684400
_cell_formula_units_Z   1
loop_
 _symmetry_equiv_pos_site_id
 _symmetry_equiv_pos_as_xyz
  1  'x, y, z'
loop_
 _atom_site_type_symbol
 _atom_site_label
 _atom_site_symmetry_multiplicity
 _atom_site_fract_x
 _atom_site_fract_y
 _atom_site_fract_z
 _atom_site_occupancy
  Mn  Mn0  1  0.250000  0.644223  0.938846  1
  V  V1  1  0.250000  0.522451  0.323250  1
  V  V2  1  0.250000  0.025487  0.173036  1
  Fe  Fe3  1  0.750000  0.356113  0.062729  1
  Fe  Fe4  1  0.750000  0.858346  0.437462  1
  Fe  Fe5  1  0.250000  0.143768  0.562255  1
  P  P6  1  0.750000  0.727407  0.131854  1
  P  P7  1  0.750000  0.227794  0.371316  1
  P  P8  1  0.250000  0.272685  0.881280  1
  P  P9  1  0.250000  0.774075  0.615470  1
  W  W10  1  0.750000  0.476873  0.668967  1
  W  W11  1  0.750000  0.970780  0.833535  1
