# generated using pymatgen
data_Dy2Ho8Si5P
_symmetry_space_group_name_H-M   'P 1'
_cell_length_a   8.38244907
_cell_length_b   8.39020112
_cell_length_c   6.27564800
_cell_angle_alpha   90.00000000
_cell_angle_beta   90.00000000
_cell_angle_gamma   119.95513079
_symmetry_Int_Tables_number   1
_chemical_formula_structural   Dy2Ho8Si5P
_chemical_formula_sum   'Dy2 Ho8 Si5 P1'
_cell_volume   382.40950914
_cell_formula_units_Z   1
loop_
 _symmetry_equiv_pos_site_id
 _symmetry_equiv_pos_as_xyz
  1  'x, y, z'
loop_
 _atom_site_type_symbol
 _atom_site_label
 _atom_site_symmetry_multiplicity
 _atom_site_fract_x
 _atom_site_fract_y
 _atom_site_fract_z
 _atom_site_occupancy
  Dy  Dy0  1  0.001120  0.757140  0.750000  1
  Dy  Dy1  1  0.755291  0.000015  0.750000  1
  Ho  Ho2  1  0.000966  0.244064  0.250000  1
  Ho  Ho3  1  0.756832  0.755900  0.250000  1
  Ho  Ho4  1  0.244027  0.242911  0.750000  1
  Ho  Ho5  1  0.243501  0.000035  0.250000  1
  Ho  Ho6  1  0.333739  0.667453  0.500458  1
  Ho  Ho7  1  0.666231  0.332513  0.999539  1
  Ho  Ho8  1  0.666231  0.332513  0.500461  1
  Ho  Ho9  1  0.333739  0.667453  0.999542  1
  Si  Si10  1  0.394384  0.393756  0.250000  1
  Si  Si11  1  0.000627  0.606261  0.250000  1
  Si  Si12  1  0.000190  0.393728  0.750000  1
  Si  Si13  1  0.606261  0.606151  0.750000  1
  Si  Si14  1  0.607081  0.000004  0.250000  1
  P  P15  1  0.389780  0.000103  0.750000  1
