# generated using pymatgen
data_TmPa5(GaPt)6
_symmetry_space_group_name_H-M   'P 1'
_cell_length_a   7.09257301
_cell_length_b   7.08290921
_cell_length_c   8.24202716
_cell_angle_alpha   89.99907339
_cell_angle_beta   90.00080445
_cell_angle_gamma   120.02222430
_symmetry_Int_Tables_number   1
_chemical_formula_structural   TmPa5(GaPt)6
_chemical_formula_sum   'Tm1 Pa5 Ga6 Pt6'
_cell_volume   358.49480018
_cell_formula_units_Z   1
loop_
 _symmetry_equiv_pos_site_id
 _symmetry_equiv_pos_as_xyz
  1  'x, y, z'
loop_
 _atom_site_type_symbol
 _atom_site_label
 _atom_site_symmetry_multiplicity
 _atom_site_fract_x
 _atom_site_fract_y
 _atom_site_fract_z
 _atom_site_occupancy
  Tm  Tm0  1  0.999809  0.591132  0.749998  1
  Pa  Pa1  1  0.415318  0.416349  0.250010  1
  Pa  Pa2  1  0.579040  0.998725  0.750015  1
  Pa  Pa3  1  0.420876  0.420479  0.749982  1
  Pa  Pa4  1  0.999208  0.575175  0.250010  1
  Pa  Pa5  1  0.585823  0.001821  0.249998  1
  Ga  Ga6  1  0.240678  0.993881  0.998182  1
  Ga  Ga7  1  0.240660  0.993881  0.501810  1
  Ga  Ga8  1  0.999642  0.249137  0.502518  1
  Ga  Ga9  1  0.999629  0.249135  0.997484  1
  Ga  Ga10  1  0.759558  0.754378  0.998230  1
  Ga  Ga11  1  0.759551  0.754379  0.501770  1
  Pt  Pt12  1  0.659876  0.328991  0.499884  1
  Pt  Pt13  1  0.000531  0.010173  0.749998  1
  Pt  Pt14  1  0.659877  0.328990  0.000113  1
  Pt  Pt15  1  0.339469  0.668269  0.000790  1
  Pt  Pt16  1  0.339470  0.668272  0.499204  1
  Pt  Pt17  1  0.000986  0.996834  0.250004  1
