# generated using pymatgen
data_Tb4Er(GaSb)2
_symmetry_space_group_name_H-M   'P 1'
_cell_length_a   8.66297049
_cell_length_b   8.66297004
_cell_length_c   7.94463000
_cell_angle_alpha   90.00000000
_cell_angle_beta   90.00000000
_cell_angle_gamma   125.44352085
_symmetry_Int_Tables_number   1
_chemical_formula_structural   Tb4Er(GaSb)2
_chemical_formula_sum   'Tb8 Er2 Ga4 Sb4'
_cell_volume   485.73388659
_cell_formula_units_Z   2
loop_
 _symmetry_equiv_pos_site_id
 _symmetry_equiv_pos_as_xyz
  1  'x, y, z'
loop_
 _atom_site_type_symbol
 _atom_site_label
 _atom_site_symmetry_multiplicity
 _atom_site_fract_x
 _atom_site_fract_y
 _atom_site_fract_z
 _atom_site_occupancy
  Tb  Tb0  1  0.038975  0.301130  0.331892  1
  Tb  Tb1  1  0.961025  0.698870  0.668108  1
  Tb  Tb2  1  0.461025  0.198870  0.831892  1
  Tb  Tb3  1  0.801130  0.538975  0.168108  1
  Tb  Tb4  1  0.538975  0.801130  0.168108  1
  Tb  Tb5  1  0.198870  0.461025  0.831892  1
  Tb  Tb6  1  0.698870  0.961025  0.668108  1
  Tb  Tb7  1  0.301130  0.038975  0.331892  1
  Er  Er8  1  0.000000  0.000000  0.000000  1
  Er  Er9  1  0.500000  0.500000  0.500000  1
  Ga  Ga10  1  0.375320  0.375320  0.124480  1
  Ga  Ga11  1  0.624680  0.624680  0.875520  1
  Ga  Ga12  1  0.124680  0.124680  0.624480  1
  Ga  Ga13  1  0.875320  0.875320  0.375520  1
  Sb  Sb14  1  0.795908  0.204092  0.000000  1
  Sb  Sb15  1  0.204092  0.795908  0.000000  1
  Sb  Sb16  1  0.704092  0.295908  0.500000  1
  Sb  Sb17  1  0.295908  0.704092  0.500000  1
