# generated using pymatgen
data_Yb4Mg4IrPt3
_symmetry_space_group_name_H-M   'P 1'
_cell_length_a   4.21391500
_cell_length_b   7.20305282
_cell_length_c   8.35217800
_cell_angle_alpha   89.97270059
_cell_angle_beta   90.00000000
_cell_angle_gamma   90.00000000
_symmetry_Int_Tables_number   1
_chemical_formula_structural   Yb4Mg4IrPt3
_chemical_formula_sum   'Yb4 Mg4 Ir1 Pt3'
_cell_volume   253.51406699
_cell_formula_units_Z   1
loop_
 _symmetry_equiv_pos_site_id
 _symmetry_equiv_pos_as_xyz
  1  'x, y, z'
loop_
 _atom_site_type_symbol
 _atom_site_label
 _atom_site_symmetry_multiplicity
 _atom_site_fract_x
 _atom_site_fract_y
 _atom_site_fract_z
 _atom_site_occupancy
  Yb  Yb0  1  0.250000  0.036985  0.319960  1
  Yb  Yb1  1  0.250000  0.525255  0.173327  1
  Yb  Yb2  1  0.750000  0.968512  0.675303  1
  Yb  Yb3  1  0.750000  0.464513  0.828494  1
  Mg  Mg4  1  0.250000  0.140138  0.941704  1
  Mg  Mg5  1  0.250000  0.637966  0.562063  1
  Mg  Mg6  1  0.750000  0.865718  0.062950  1
  Mg  Mg7  1  0.750000  0.360866  0.435204  1
  Ir  Ir8  1  0.750000  0.234075  0.126634  1
  Pt  Pt9  1  0.250000  0.266625  0.625472  1
  Pt  Pt10  1  0.250000  0.766085  0.873231  1
  Pt  Pt11  1  0.750000  0.733264  0.375658  1
