# generated using pymatgen
data_Y3Er5Cd2IrRu
_symmetry_space_group_name_H-M   'P 1'
_cell_length_a   9.59159092
_cell_length_b   9.59168672
_cell_length_c   9.62376200
_cell_angle_alpha   59.88723767
_cell_angle_beta   59.88751382
_cell_angle_gamma   59.77961282
_symmetry_Int_Tables_number   1
_chemical_formula_structural   Y3Er5Cd2IrRu
_chemical_formula_sum   'Y6 Er10 Cd4 Ir2 Ru2'
_cell_volume   623.94741675
_cell_formula_units_Z   2
loop_
 _symmetry_equiv_pos_site_id
 _symmetry_equiv_pos_as_xyz
  1  'x, y, z'
loop_
 _atom_site_type_symbol
 _atom_site_label
 _atom_site_symmetry_multiplicity
 _atom_site_fract_x
 _atom_site_fract_y
 _atom_site_fract_z
 _atom_site_occupancy
  Y  Y0  1  0.939365  0.559402  0.561814  1
  Y  Y1  1  0.559397  0.939368  0.939412  1
  Y  Y2  1  0.559385  0.939368  0.561825  1
  Y  Y3  1  0.939369  0.559399  0.939419  1
  Y  Y4  1  0.560747  0.560750  0.939244  1
  Y  Y5  1  0.939751  0.939751  0.560243  1
  Er  Er6  1  0.347638  0.347637  0.347437  1
  Er  Er7  1  0.347643  0.347640  0.957287  1
  Er  Er8  1  0.347040  0.959319  0.346829  1
  Er  Er9  1  0.959319  0.347039  0.346824  1
  Er  Er10  1  0.812319  0.187827  0.189354  1
  Er  Er11  1  0.187832  0.812327  0.810495  1
  Er  Er12  1  0.187830  0.812317  0.189350  1
  Er  Er13  1  0.812327  0.187828  0.810498  1
  Er  Er14  1  0.187789  0.187791  0.812200  1
  Er  Er15  1  0.810048  0.810047  0.189956  1
  Cd  Cd16  1  0.580181  0.580175  0.580486  1
  Cd  Cd17  1  0.580178  0.580177  0.259160  1
  Cd  Cd18  1  0.580345  0.258167  0.580746  1
  Cd  Cd19  1  0.258166  0.580343  0.580747  1
  Ir  Ir20  1  0.143030  0.577221  0.139875  1
  Ir  Ir21  1  0.577222  0.143033  0.139877  1
  Ru  Ru22  1  0.141538  0.141541  0.138308  1
  Ru  Ru23  1  0.141542  0.141536  0.578615  1
