# generated using pymatgen
data_Y2AgPd5
_symmetry_space_group_name_H-M   'P 1'
_cell_length_a   5.81296900
_cell_length_b   5.81296864
_cell_length_c   4.23514900
_cell_angle_alpha   90.00000000
_cell_angle_beta   90.00000000
_cell_angle_gamma   93.19661731
_symmetry_Int_Tables_number   1
_chemical_formula_structural   Y2AgPd5
_chemical_formula_sum   'Y2 Ag1 Pd5'
_cell_volume   142.88558525
_cell_formula_units_Z   1
loop_
 _symmetry_equiv_pos_site_id
 _symmetry_equiv_pos_as_xyz
  1  'x, y, z'
loop_
 _atom_site_type_symbol
 _atom_site_label
 _atom_site_symmetry_multiplicity
 _atom_site_fract_x
 _atom_site_fract_y
 _atom_site_fract_z
 _atom_site_occupancy
  Y  Y0  1  0.764102  0.235896  0.000000  1
  Y  Y1  1  0.235896  0.764102  0.000000  1
  Ag  Ag2  1  0.499999  0.499999  0.499999  1
  Pd  Pd3  1  0.258679  0.258679  0.000000  1
  Pd  Pd4  1  0.741322  0.741322  0.000000  1
  Pd  Pd5  1  0.000000  0.000000  0.499999  1
  Pd  Pd6  1  0.500000  0.000000  0.499999  1
  Pd  Pd7  1  0.000000  0.500000  0.499999  1
