# generated using pymatgen
data_Er5Tm3Re2(B12Os)2
_symmetry_space_group_name_H-M   'P 1'
_cell_length_a   3.63795200
_cell_length_b   9.10092739
_cell_length_c   11.47832204
_cell_angle_alpha   90.13044846
_cell_angle_beta   90.00000000
_cell_angle_gamma   90.00000000
_symmetry_Int_Tables_number   1
_chemical_formula_structural   Er5Tm3Re2(B12Os)2
_chemical_formula_sum   'Er5 Tm3 Re2 B24 Os2'
_cell_volume   380.03176056
_cell_formula_units_Z   1
loop_
 _symmetry_equiv_pos_site_id
 _symmetry_equiv_pos_as_xyz
  1  'x, y, z'
loop_
 _atom_site_type_symbol
 _atom_site_label
 _atom_site_symmetry_multiplicity
 _atom_site_fract_x
 _atom_site_fract_y
 _atom_site_fract_z
 _atom_site_occupancy
  Er  Er0  1  0.000000  0.320451  0.412440  1
  Er  Er1  1  0.000000  0.679578  0.587653  1
  Er  Er2  1  0.000000  0.824239  0.084589  1
  Er  Er3  1  0.000000  0.175751  0.915308  1
  Er  Er4  1  0.000000  0.943371  0.370950  1
  Tm  Tm5  1  0.000000  0.056688  0.629263  1
  Tm  Tm6  1  0.000000  0.442713  0.128572  1
  Tm  Tm7  1  0.000000  0.557302  0.871381  1
  Re  Re8  1  0.000000  0.138739  0.179645  1
  Re  Re9  1  0.000000  0.861446  0.820188  1
  B  B10  1  0.500000  0.553496  0.433402  1
  B  B11  1  0.500000  0.446415  0.566637  1
  B  B12  1  0.500000  0.053000  0.066667  1
  B  B13  1  0.500000  0.947030  0.933262  1
  B  B14  1  0.500000  0.748940  0.419093  1
  B  B15  1  0.500000  0.250781  0.580950  1
  B  B16  1  0.500000  0.249390  0.080751  1
  B  B17  1  0.500000  0.750646  0.919228  1
  B  B18  1  0.500000  0.790941  0.265593  1
  B  B19  1  0.500000  0.208821  0.734331  1
  B  B20  1  0.500000  0.292369  0.234812  1
  B  B21  1  0.500000  0.707722  0.765162  1
  B  B22  1  0.500000  0.630528  0.185541  1
  B  B23  1  0.500000  0.369418  0.814422  1
  B  B24  1  0.500000  0.131258  0.315221  1
  B  B25  1  0.500000  0.868980  0.684693  1
  B  B26  1  0.500000  0.981969  0.212551  1
  B  B27  1  0.500000  0.018185  0.787245  1
  B  B28  1  0.500000  0.482254  0.287809  1
  B  B29  1  0.500000  0.517706  0.712176  1
  B  B30  1  0.500000  0.602583  0.028661  1
  B  B31  1  0.500000  0.397419  0.971319  1
  B  B32  1  0.500000  0.103127  0.471907  1
  B  B33  1  0.500000  0.897102  0.528578  1
  Os  Os34  1  0.000000  0.637174  0.321657  1
  Os  Os35  1  0.000000  0.362467  0.678342  1
