# generated using pymatgen
data_Tb5Er5Si5Pb
_symmetry_space_group_name_H-M   'P 1'
_cell_length_a   8.49828900
_cell_length_b   8.53314049
_cell_length_c   6.36424900
_cell_angle_alpha   90.00000000
_cell_angle_beta   90.00000000
_cell_angle_gamma   119.92685775
_symmetry_Int_Tables_number   1
_chemical_formula_structural   Tb5Er5Si5Pb
_chemical_formula_sum   'Tb5 Er5 Si5 Pb1'
_cell_volume   399.97956409
_cell_formula_units_Z   1
loop_
 _symmetry_equiv_pos_site_id
 _symmetry_equiv_pos_as_xyz
  1  'x, y, z'
loop_
 _atom_site_type_symbol
 _atom_site_label
 _atom_site_symmetry_multiplicity
 _atom_site_fract_x
 _atom_site_fract_y
 _atom_site_fract_z
 _atom_site_occupancy
  Tb  Tb0  1  0.998141  0.243643  0.250000  1
  Tb  Tb1  1  0.755645  0.757287  0.250000  1
  Tb  Tb2  1  0.766670  0.999881  0.750000  1
  Tb  Tb3  1  0.241055  0.252809  0.750000  1
  Tb  Tb4  1  0.240589  0.999736  0.250000  1
  Er  Er5  1  0.987587  0.746237  0.750000  1
  Er  Er6  1  0.675313  0.344599  0.003553  1
  Er  Er7  1  0.330845  0.655701  0.496242  1
  Er  Er8  1  0.330845  0.655701  0.003758  1
  Er  Er9  1  0.675313  0.344599  0.496447  1
  Si  Si10  1  0.394452  0.392659  0.250000  1
  Si  Si11  1  0.001682  0.607118  0.250000  1
  Si  Si12  1  0.998138  0.396033  0.750000  1
  Si  Si13  1  0.604405  0.605358  0.750000  1
  Si  Si14  1  0.604752  0.999971  0.250000  1
  Pb  Pb15  1  0.394567  0.998668  0.750000  1
