# generated using pymatgen
data_Sc5(SnPb)2
_symmetry_space_group_name_H-M   'P 1'
_cell_length_a   8.34152482
_cell_length_b   8.34152592
_cell_length_c   7.75226800
_cell_angle_alpha   90.00000000
_cell_angle_beta   90.00000000
_cell_angle_gamma   124.08639058
_symmetry_Int_Tables_number   1
_chemical_formula_structural   Sc5(SnPb)2
_chemical_formula_sum   'Sc10 Sn4 Pb4'
_cell_volume   446.73660009
_cell_formula_units_Z   2
loop_
 _symmetry_equiv_pos_site_id
 _symmetry_equiv_pos_as_xyz
  1  'x, y, z'
loop_
 _atom_site_type_symbol
 _atom_site_label
 _atom_site_symmetry_multiplicity
 _atom_site_fract_x
 _atom_site_fract_y
 _atom_site_fract_z
 _atom_site_occupancy
  Sc  Sc0  1  0.032853  0.299141  0.334755  1
  Sc  Sc1  1  0.967147  0.700859  0.665245  1
  Sc  Sc2  1  0.467147  0.200859  0.834755  1
  Sc  Sc3  1  0.799141  0.532853  0.165245  1
  Sc  Sc4  1  0.532853  0.799141  0.165245  1
  Sc  Sc5  1  0.200859  0.467147  0.834755  1
  Sc  Sc6  1  0.700859  0.967147  0.665245  1
  Sc  Sc7  1  0.299141  0.032853  0.334755  1
  Sc  Sc8  1  0.000000  0.000000  0.000000  1
  Sc  Sc9  1  0.500000  0.500000  0.500000  1
  Sn  Sn10  1  0.361100  0.361100  0.139397  1
  Sn  Sn11  1  0.638900  0.638900  0.860603  1
  Sn  Sn12  1  0.138900  0.138900  0.639397  1
  Sn  Sn13  1  0.861100  0.861100  0.360603  1
  Pb  Pb14  1  0.792388  0.207612  0.000000  1
  Pb  Pb15  1  0.207612  0.792388  0.000000  1
  Pb  Pb16  1  0.707612  0.292388  0.500000  1
  Pb  Pb17  1  0.292388  0.707612  0.500000  1
