# generated using pymatgen
data_Ac2Ho(InRh)3
_symmetry_space_group_name_H-M   'P 1'
_cell_length_a   7.73253000
_cell_length_b   7.82453131
_cell_length_c   4.11713500
_cell_angle_alpha   90.00000000
_cell_angle_beta   90.00000000
_cell_angle_gamma   119.61180280
_symmetry_Int_Tables_number   1
_chemical_formula_structural   Ac2Ho(InRh)3
_chemical_formula_sum   'Ac2 Ho1 In3 Rh3'
_cell_volume   216.56649758
_cell_formula_units_Z   1
loop_
 _symmetry_equiv_pos_site_id
 _symmetry_equiv_pos_as_xyz
  1  'x, y, z'
loop_
 _atom_site_type_symbol
 _atom_site_label
 _atom_site_symmetry_multiplicity
 _atom_site_fract_x
 _atom_site_fract_y
 _atom_site_fract_z
 _atom_site_occupancy
  Ac  Ac0  1  0.002183  0.415443  0.500000  1
  Ac  Ac1  1  0.586740  0.584557  0.500000  1
  Ho  Ho2  1  0.408392  0.000000  0.500000  1
  In  In3  1  0.249309  0.232199  0.000000  1
  In  In4  1  0.017110  0.767801  0.000000  1
  In  In5  1  0.740416  0.000000  0.000000  1
  Rh  Rh6  1  0.337202  0.679347  0.000000  1
  Rh  Rh7  1  0.000793  0.000000  0.500000  1
  Rh  Rh8  1  0.657855  0.320653  0.000000  1
