# generated using pymatgen
data_Nd2LuFe(Co4P3)2
_symmetry_space_group_name_H-M   'P 1'
_cell_length_a   3.72906900
_cell_length_b   10.58396000
_cell_length_c   12.26585300
_cell_angle_alpha   90.00000000
_cell_angle_beta   90.00000000
_cell_angle_gamma   90.00000000
_symmetry_Int_Tables_number   1
_chemical_formula_structural   Nd2LuFe(Co4P3)2
_chemical_formula_sum   'Nd4 Lu2 Fe2 Co16 P12'
_cell_volume   484.11257611
_cell_formula_units_Z   2
loop_
 _symmetry_equiv_pos_site_id
 _symmetry_equiv_pos_as_xyz
  1  'x, y, z'
loop_
 _atom_site_type_symbol
 _atom_site_label
 _atom_site_symmetry_multiplicity
 _atom_site_fract_x
 _atom_site_fract_y
 _atom_site_fract_z
 _atom_site_occupancy
  Nd  Nd0  1  0.000000  0.500000  0.520336  1
  Nd  Nd1  1  0.500000  0.000000  0.476654  1
  Nd  Nd2  1  0.000000  0.682628  0.795493  1
  Nd  Nd3  1  0.000000  0.317372  0.795493  1
  Lu  Lu4  1  0.500000  0.819056  0.204574  1
  Lu  Lu5  1  0.500000  0.180944  0.204574  1
  Fe  Fe6  1  0.500000  0.500000  0.156194  1
  Fe  Fe7  1  0.000000  0.000000  0.845818  1
  Co  Co8  1  0.500000  0.500000  0.703686  1
  Co  Co9  1  0.000000  0.000000  0.294181  1
  Co  Co10  1  0.000000  0.500000  0.992293  1
  Co  Co11  1  0.500000  0.000000  0.017983  1
  Co  Co12  1  0.500000  0.330790  0.999001  1
  Co  Co13  1  0.500000  0.669210  0.999001  1
  Co  Co14  1  0.000000  0.164954  0.009123  1
  Co  Co15  1  0.000000  0.835046  0.009123  1
  Co  Co16  1  0.500000  0.295272  0.425388  1
  Co  Co17  1  0.500000  0.704728  0.425388  1
  Co  Co18  1  0.000000  0.202885  0.566407  1
  Co  Co19  1  0.000000  0.797115  0.566407  1
  Co  Co20  1  0.500000  0.880989  0.709812  1
  Co  Co21  1  0.500000  0.119011  0.709812  1
  Co  Co22  1  0.000000  0.621868  0.286762  1
  Co  Co23  1  0.000000  0.378132  0.286762  1
  P  P24  1  0.500000  0.500000  0.889524  1
  P  P25  1  0.000000  0.000000  0.119785  1
  P  P26  1  0.500000  0.500000  0.337844  1
  P  P27  1  0.000000  0.000000  0.661015  1
  P  P28  1  0.500000  0.305358  0.612297  1
  P  P29  1  0.500000  0.694642  0.612297  1
  P  P30  1  0.000000  0.191505  0.378921  1
  P  P31  1  0.000000  0.808495  0.378921  1
  P  P32  1  0.500000  0.850766  0.896238  1
  P  P33  1  0.500000  0.149234  0.896238  1
  P  P34  1  0.000000  0.656224  0.108329  1
  P  P35  1  0.000000  0.343776  0.108329  1
