# generated using pymatgen
data_Tb6AlCoRu
_symmetry_space_group_name_H-M   'P 1'
_cell_length_a   8.37086813
_cell_length_b   8.37108622
_cell_length_c   8.37086834
_cell_angle_alpha   105.36523463
_cell_angle_beta   110.86952907
_cell_angle_gamma   112.25758242
_symmetry_Int_Tables_number   1
_chemical_formula_structural   Tb6AlCoRu
_chemical_formula_sum   'Tb12 Al2 Co2 Ru2'
_cell_volume   449.75653104
_cell_formula_units_Z   2
loop_
 _symmetry_equiv_pos_site_id
 _symmetry_equiv_pos_as_xyz
  1  'x, y, z'
loop_
 _atom_site_type_symbol
 _atom_site_label
 _atom_site_symmetry_multiplicity
 _atom_site_fract_x
 _atom_site_fract_y
 _atom_site_fract_z
 _atom_site_occupancy
  Tb  Tb0  1  0.694540  0.256719  0.951239  1
  Tb  Tb1  1  0.305460  0.743281  0.048761  1
  Tb  Tb2  1  0.694520  0.743281  0.437822  1
  Tb  Tb3  1  0.305480  0.256719  0.562178  1
  Tb  Tb4  1  0.814715  0.137723  0.323007  1
  Tb  Tb5  1  0.814701  0.491690  0.676989  1
  Tb  Tb6  1  0.185285  0.862277  0.676993  1
  Tb  Tb7  1  0.185299  0.508310  0.323011  1
  Tb  Tb8  1  0.599799  0.781556  0.818242  1
  Tb  Tb9  1  0.963312  0.781556  0.181757  1
  Tb  Tb10  1  0.036688  0.218444  0.818243  1
  Tb  Tb11  1  0.400201  0.218444  0.181758  1
  Al  Al12  1  0.500000  0.500000  0.000000  1
  Al  Al13  1  0.500000  0.000000  0.500000  1
  Co  Co14  1  0.999993  0.111180  0.111187  1
  Co  Co15  1  0.000007  0.888820  0.888813  1
  Ru  Ru16  1  0.822113  0.500000  0.322113  1
  Ru  Ru17  1  0.177887  0.500000  0.677887  1
