# generated using pymatgen
data_Ho5Cu6Ni13
_symmetry_space_group_name_H-M   'P 1'
_cell_length_a   4.95655226
_cell_length_b   4.95655161
_cell_length_c   16.46118671
_cell_angle_alpha   81.34103898
_cell_angle_beta   81.34104081
_cell_angle_gamma   60.00000912
_symmetry_Int_Tables_number   1
_chemical_formula_structural   Ho5Cu6Ni13
_chemical_formula_sum   'Ho5 Cu6 Ni13'
_cell_volume   344.89540556
_cell_formula_units_Z   1
loop_
 _symmetry_equiv_pos_site_id
 _symmetry_equiv_pos_as_xyz
  1  'x, y, z'
loop_
 _atom_site_type_symbol
 _atom_site_label
 _atom_site_symmetry_multiplicity
 _atom_site_fract_x
 _atom_site_fract_y
 _atom_site_fract_z
 _atom_site_occupancy
  Ho  Ho0  1  0.000000  0.000000  0.000000  1
  Ho  Ho1  1  0.922771  0.922771  0.231689  1
  Ho  Ho2  1  0.077229  0.077229  0.768311  1
  Ho  Ho3  1  0.848204  0.848204  0.455387  1
  Ho  Ho4  1  0.151796  0.151796  0.544613  1
  Cu  Cu5  1  0.749643  0.749644  0.751071  1
  Cu  Cu6  1  0.250356  0.250356  0.248930  1
  Cu  Cu7  1  0.666715  0.666715  0.999856  1
  Cu  Cu8  1  0.333285  0.333285  0.000144  1
  Cu  Cu9  1  0.583570  0.583570  0.249289  1
  Cu  Cu10  1  0.416430  0.416430  0.750711  1
  Ni  Ni11  1  0.500000  0.500000  0.500000  1
  Ni  Ni12  1  0.374929  0.374929  0.373785  1
  Ni  Ni13  1  0.876356  0.374929  0.373785  1
  Ni  Ni14  1  0.374929  0.876356  0.373785  1
  Ni  Ni15  1  0.625071  0.625071  0.626215  1
  Ni  Ni16  1  0.123644  0.625071  0.626215  1
  Ni  Ni17  1  0.625071  0.123644  0.626215  1
  Ni  Ni18  1  0.458780  0.458780  0.123897  1
  Ni  Ni19  1  0.958544  0.458780  0.123897  1
  Ni  Ni20  1  0.458780  0.958544  0.123897  1
  Ni  Ni21  1  0.541220  0.541220  0.876103  1
  Ni  Ni22  1  0.041456  0.541220  0.876103  1
  Ni  Ni23  1  0.541220  0.041456  0.876103  1
