# generated using pymatgen
data_CeH5Pt
_symmetry_space_group_name_H-M   'P 1'
_cell_length_a   4.76584800
_cell_length_b   4.61592000
_cell_length_c   13.00019900
_cell_angle_alpha   90.00000000
_cell_angle_beta   90.00000000
_cell_angle_gamma   90.00000000
_symmetry_Int_Tables_number   1
_chemical_formula_structural   CeH5Pt
_chemical_formula_sum   'Ce4 H20 Pt4'
_cell_volume   285.98842806
_cell_formula_units_Z   4
loop_
 _symmetry_equiv_pos_site_id
 _symmetry_equiv_pos_as_xyz
  1  'x, y, z'
loop_
 _atom_site_type_symbol
 _atom_site_label
 _atom_site_symmetry_multiplicity
 _atom_site_fract_x
 _atom_site_fract_y
 _atom_site_fract_z
 _atom_site_occupancy
  Ce  Ce0  1  0.278545  0.013896  0.631294  1
  Ce  Ce1  1  0.778545  0.486104  0.368706  1
  Ce  Ce2  1  0.221455  0.986104  0.131294  1
  Ce  Ce3  1  0.721455  0.513896  0.868706  1
  H  H4  1  0.749961  0.220093  0.550343  1
  H  H5  1  0.249961  0.279907  0.449657  1
  H  H6  1  0.750039  0.779907  0.050343  1
  H  H7  1  0.250039  0.720093  0.949657  1
  H  H8  1  0.021085  0.903546  0.798670  1
  H  H9  1  0.521085  0.596454  0.201330  1
  H  H10  1  0.478915  0.096454  0.298670  1
  H  H11  1  0.978915  0.403546  0.701330  1
  H  H12  1  0.214020  0.352275  0.828720  1
  H  H13  1  0.714020  0.147725  0.171280  1
  H  H14  1  0.285980  0.647725  0.328720  1
  H  H15  1  0.785980  0.852275  0.671280  1
  H  H16  1  0.554354  0.995833  0.805408  1
  H  H17  1  0.054354  0.504167  0.194592  1
  H  H18  1  0.945646  0.004167  0.305408  1
  H  H19  1  0.445646  0.495833  0.694592  1
  H  H20  1  0.936076  0.307816  0.022391  1
  H  H21  1  0.436076  0.192184  0.977609  1
  H  H22  1  0.563924  0.692184  0.522391  1
  H  H23  1  0.063924  0.807816  0.477609  1
  Pt  Pt24  1  0.248462  0.030636  0.884624  1
  Pt  Pt25  1  0.748462  0.469364  0.115376  1
  Pt  Pt26  1  0.251538  0.969364  0.384624  1
  Pt  Pt27  1  0.751538  0.530636  0.615376  1
