# generated using pymatgen
data_Tm2ZrScAl13Ga5Ir6
_symmetry_space_group_name_H-M   'P 1'
_cell_length_a   7.48318100
_cell_length_b   7.48821921
_cell_length_c   9.46039100
_cell_angle_alpha   90.00000000
_cell_angle_beta   90.00000000
_cell_angle_gamma   119.62447570
_symmetry_Int_Tables_number   1
_chemical_formula_structural   Tm2ZrScAl13Ga5Ir6
_chemical_formula_sum   'Tm2 Zr1 Sc1 Al13 Ga5 Ir6'
_cell_volume   460.82443056
_cell_formula_units_Z   1
loop_
 _symmetry_equiv_pos_site_id
 _symmetry_equiv_pos_as_xyz
  1  'x, y, z'
loop_
 _atom_site_type_symbol
 _atom_site_label
 _atom_site_symmetry_multiplicity
 _atom_site_fract_x
 _atom_site_fract_y
 _atom_site_fract_z
 _atom_site_occupancy
  Tm  Tm0  1  0.995258  0.671745  0.250000  1
  Tm  Tm1  1  0.670855  0.995490  0.250000  1
  Zr  Zr2  1  0.998239  0.325986  0.750000  1
  Sc  Sc3  1  0.329449  0.004288  0.750000  1
  Al  Al4  1  0.002933  0.334897  0.069866  1
  Al  Al5  1  0.002662  0.665544  0.920264  1
  Al  Al6  1  0.002662  0.665544  0.579736  1
  Al  Al7  1  0.335252  0.002787  0.430399  1
  Al  Al8  1  0.002933  0.334897  0.430134  1
  Al  Al9  1  0.664707  0.000918  0.579480  1
  Al  Al10  1  0.664707  0.000918  0.920520  1
  Al  Al11  1  0.335252  0.002787  0.069601  1
  Al  Al12  1  0.330820  0.330788  0.567906  1
  Al  Al13  1  0.664974  0.664627  0.448238  1
  Al  Al14  1  0.664974  0.664627  0.051762  1
  Al  Al15  1  0.330820  0.330788  0.932094  1
  Al  Al16  1  0.441853  0.661230  0.750000  1
  Ga  Ga17  1  0.129993  0.129773  0.250000  1
  Ga  Ga18  1  0.875031  0.874763  0.750000  1
  Ga  Ga19  1  0.340197  0.548079  0.250000  1
  Ga  Ga20  1  0.662616  0.448987  0.750000  1
  Ga  Ga21  1  0.548275  0.340032  0.250000  1
  Ir  Ir22  1  0.673529  0.328085  0.998641  1
  Ir  Ir23  1  0.329041  0.672100  0.997117  1
  Ir  Ir24  1  0.329041  0.672100  0.502883  1
  Ir  Ir25  1  0.673529  0.328085  0.501359  1
  Ir  Ir26  1  0.000201  0.000067  0.999015  1
  Ir  Ir27  1  0.000201  0.000067  0.500985  1
