# generated using pymatgen
data_LiZr2ZnIr2
_symmetry_space_group_name_H-M   'P 1'
_cell_length_a   4.95691331
_cell_length_b   4.95691321
_cell_length_c   5.15068800
_cell_angle_alpha   89.11799696
_cell_angle_beta   90.88200303
_cell_angle_gamma   129.12144875
_symmetry_Int_Tables_number   1
_chemical_formula_structural   LiZr2ZnIr2
_chemical_formula_sum   'Li1 Zr2 Zn1 Ir2'
_cell_volume   98.17033998
_cell_formula_units_Z   1
loop_
 _symmetry_equiv_pos_site_id
 _symmetry_equiv_pos_as_xyz
  1  'x, y, z'
loop_
 _atom_site_type_symbol
 _atom_site_label
 _atom_site_symmetry_multiplicity
 _atom_site_fract_x
 _atom_site_fract_y
 _atom_site_fract_z
 _atom_site_occupancy
  Li  Li0  1  0.000000  0.000000  0.500000  1
  Zr  Zr1  1  0.714876  0.285124  0.251037  1
  Zr  Zr2  1  0.285124  0.714876  0.748963  1
  Zn  Zn3  1  0.000000  0.000000  0.000000  1
  Ir  Ir4  1  0.401647  0.598353  0.255823  1
  Ir  Ir5  1  0.598353  0.401647  0.744177  1
