# generated using pymatgen
data_Cs2Ho7BBr18
_symmetry_space_group_name_H-M   'P 1'
_cell_length_a   10.65899560
_cell_length_b   10.65899538
_cell_length_c   11.55327173
_cell_angle_alpha   117.47088161
_cell_angle_beta   62.52911841
_cell_angle_gamma   120.00000427
_symmetry_Int_Tables_number   1
_chemical_formula_structural   Cs2Ho7BBr18
_chemical_formula_sum   'Cs2 Ho7 B1 Br18'
_cell_volume   962.07138829
_cell_formula_units_Z   1
loop_
 _symmetry_equiv_pos_site_id
 _symmetry_equiv_pos_as_xyz
  1  'x, y, z'
loop_
 _atom_site_type_symbol
 _atom_site_label
 _atom_site_symmetry_multiplicity
 _atom_site_fract_x
 _atom_site_fract_y
 _atom_site_fract_z
 _atom_site_occupancy
  Cs  Cs0  1  0.222076  0.777924  0.333775  1
  Cs  Cs1  1  0.777925  0.222075  0.666225  1
  Ho  Ho2  1  0.777753  0.107861  0.155510  1
  Ho  Ho3  1  0.892138  0.825402  0.155510  1
  Ho  Ho4  1  0.174599  0.222247  0.155510  1
  Ho  Ho5  1  0.500000  0.500000  0.500000  1
  Ho  Ho6  1  0.825402  0.777754  0.844490  1
  Ho  Ho7  1  0.107861  0.174597  0.844490  1
  Ho  Ho8  1  0.222246  0.892137  0.844490  1
  B  B9  1  0.000000  0.000000  0.000000  1
  Br  Br10  1  0.285886  0.423304  0.007427  1
  Br  Br11  1  0.576694  0.870009  0.007427  1
  Br  Br12  1  0.129992  0.714115  0.007427  1
  Br  Br13  1  0.946198  0.347874  0.333061  1
  Br  Br14  1  0.068615  0.053802  0.333061  1
  Br  Br15  1  0.652125  0.931385  0.333061  1
  Br  Br16  1  0.523542  0.214820  0.334781  1
  Br  Br17  1  0.785179  0.643504  0.334781  1
  Br  Br18  1  0.356496  0.476457  0.334781  1
  Br  Br19  1  0.643504  0.523543  0.665219  1
  Br  Br20  1  0.214822  0.356498  0.665219  1
  Br  Br21  1  0.476457  0.785179  0.665219  1
  Br  Br22  1  0.347874  0.068614  0.666938  1
  Br  Br23  1  0.931386  0.946197  0.666938  1
  Br  Br24  1  0.053802  0.652125  0.666938  1
  Br  Br25  1  0.870010  0.285886  0.992573  1
  Br  Br26  1  0.423304  0.129990  0.992573  1
  Br  Br27  1  0.714114  0.576696  0.992573  1
