# generated using pymatgen
data_Li(TcSn3)2
_symmetry_space_group_name_H-M   'P 1'
_cell_length_a   6.68514200
_cell_length_b   6.68514200
_cell_length_c   8.49714800
_cell_angle_alpha   90.00000000
_cell_angle_beta   90.00000000
_cell_angle_gamma   90.00000000
_symmetry_Int_Tables_number   1
_chemical_formula_structural   Li(TcSn3)2
_chemical_formula_sum   'Li2 Tc4 Sn12'
_cell_volume   379.74709118
_cell_formula_units_Z   2
loop_
 _symmetry_equiv_pos_site_id
 _symmetry_equiv_pos_as_xyz
  1  'x, y, z'
loop_
 _atom_site_type_symbol
 _atom_site_label
 _atom_site_symmetry_multiplicity
 _atom_site_fract_x
 _atom_site_fract_y
 _atom_site_fract_z
 _atom_site_occupancy
  Li  Li0  1  0.000000  0.000000  0.500000  1
  Li  Li1  1  0.500000  0.500000  0.500000  1
  Tc  Tc2  1  0.500000  0.500000  0.155579  1
  Tc  Tc3  1  0.500000  0.500000  0.844421  1
  Tc  Tc4  1  0.000000  0.000000  0.155579  1
  Tc  Tc5  1  0.000000  0.000000  0.844421  1
  Sn  Sn6  1  0.846336  0.346336  0.000000  1
  Sn  Sn7  1  0.660993  0.160993  0.316251  1
  Sn  Sn8  1  0.339007  0.839007  0.316251  1
  Sn  Sn9  1  0.160993  0.339007  0.683749  1
  Sn  Sn10  1  0.160993  0.339007  0.316251  1
  Sn  Sn11  1  0.339007  0.839007  0.683749  1
  Sn  Sn12  1  0.653664  0.846336  0.000000  1
  Sn  Sn13  1  0.153664  0.653664  0.000000  1
  Sn  Sn14  1  0.346336  0.153664  0.000000  1
  Sn  Sn15  1  0.660993  0.160993  0.683749  1
  Sn  Sn16  1  0.839007  0.660993  0.316251  1
  Sn  Sn17  1  0.839007  0.660993  0.683749  1
