# generated using pymatgen
data_Tb8Tm12Si15Pt
_symmetry_space_group_name_H-M   'P 1'
_cell_length_a   7.32314600
_cell_length_b   7.67312993
_cell_length_c   14.46595900
_cell_angle_alpha   90.00000000
_cell_angle_beta   90.00000000
_cell_angle_gamma   90.10918353
_symmetry_Int_Tables_number   1
_chemical_formula_structural   Tb8Tm12Si15Pt
_chemical_formula_sum   'Tb8 Tm12 Si15 Pt1'
_cell_volume   812.86174707
_cell_formula_units_Z   1
loop_
 _symmetry_equiv_pos_site_id
 _symmetry_equiv_pos_as_xyz
  1  'x, y, z'
loop_
 _atom_site_type_symbol
 _atom_site_label
 _atom_site_symmetry_multiplicity
 _atom_site_fract_x
 _atom_site_fract_y
 _atom_site_fract_z
 _atom_site_occupancy
  Tb  Tb0  1  0.521408  0.680528  0.594252  1
  Tb  Tb1  1  0.023257  0.819851  0.904965  1
  Tb  Tb2  1  0.476380  0.317837  0.097245  1
  Tb  Tb3  1  0.976467  0.180606  0.402675  1
  Tb  Tb4  1  0.476380  0.317837  0.402755  1
  Tb  Tb5  1  0.976467  0.180606  0.097325  1
  Tb  Tb6  1  0.521408  0.680528  0.905748  1
  Tb  Tb7  1  0.023257  0.819851  0.595035  1
  Tm  Tm8  1  0.677885  0.179398  0.623971  1
  Tm  Tm9  1  0.187159  0.325205  0.875789  1
  Tm  Tm10  1  0.318763  0.820778  0.124145  1
  Tm  Tm11  1  0.817830  0.676062  0.375372  1
  Tm  Tm12  1  0.318763  0.820778  0.375855  1
  Tm  Tm13  1  0.817830  0.676062  0.124628  1
  Tm  Tm14  1  0.677885  0.179398  0.876029  1
  Tm  Tm15  1  0.187159  0.325205  0.624211  1
  Tm  Tm16  1  0.843551  0.509162  0.750000  1
  Tm  Tm17  1  0.353809  0.986817  0.750000  1
  Tm  Tm18  1  0.149741  0.487589  0.250000  1
  Tm  Tm19  1  0.649963  0.010880  0.250000  1
  Si  Si20  1  0.649686  0.969071  0.459993  1
  Si  Si21  1  0.148145  0.529733  0.040113  1
  Si  Si22  1  0.349014  0.028068  0.961166  1
  Si  Si23  1  0.851090  0.470307  0.539280  1
  Si  Si24  1  0.349014  0.028068  0.538834  1
  Si  Si25  1  0.851090  0.470307  0.960720  1
  Si  Si26  1  0.649686  0.969071  0.040007  1
  Si  Si27  1  0.148145  0.529733  0.459887  1
  Si  Si28  1  0.979577  0.105644  0.750000  1
  Si  Si29  1  0.520428  0.607533  0.250000  1
  Si  Si30  1  0.021136  0.891459  0.250000  1
  Si  Si31  1  0.737121  0.875848  0.750000  1
  Si  Si32  1  0.226428  0.631978  0.750000  1
  Si  Si33  1  0.271026  0.128224  0.250000  1
  Si  Si34  1  0.771262  0.370498  0.250000  1
  Pt  Pt35  1  0.481783  0.399480  0.750000  1
