# generated using pymatgen
data_Np(BO3)2
_symmetry_space_group_name_H-M   'P 1'
_cell_length_a   4.20554903
_cell_length_b   6.69542222
_cell_length_c   9.65627411
_cell_angle_alpha   97.86692036
_cell_angle_beta   102.57763825
_cell_angle_gamma   71.69583275
_symmetry_Int_Tables_number   1
_chemical_formula_structural   Np(BO3)2
_chemical_formula_sum   'Np2 B4 O12'
_cell_volume   251.25922588
_cell_formula_units_Z   2
loop_
 _symmetry_equiv_pos_site_id
 _symmetry_equiv_pos_as_xyz
  1  'x, y, z'
loop_
 _atom_site_type_symbol
 _atom_site_label
 _atom_site_symmetry_multiplicity
 _atom_site_fract_x
 _atom_site_fract_y
 _atom_site_fract_z
 _atom_site_occupancy
  Np  Np0  1  0.233033  0.250000  0.250000  1
  Np  Np1  1  0.766967  0.750000  0.750000  1
  B  B2  1  0.849715  0.852184  0.250477  1
  B  B3  1  0.451422  0.647816  0.249523  1
  B  B4  1  0.548578  0.352184  0.750476  1
  B  B5  1  0.150285  0.147816  0.749523  1
  O  O6  1  0.153042  0.230789  0.061032  1
  O  O7  1  0.525037  0.832820  0.240439  1
  O  O8  1  0.655580  0.449491  0.245120  1
  O  O9  1  0.859951  0.050508  0.254879  1
  O  O10  1  0.117417  0.667182  0.259561  1
  O  O11  1  0.322798  0.269212  0.438967  1
  O  O12  1  0.677203  0.730788  0.561033  1
  O  O13  1  0.882583  0.332820  0.740438  1
  O  O14  1  0.140049  0.949492  0.745121  1
  O  O15  1  0.344420  0.550509  0.754879  1
  O  O16  1  0.474963  0.167180  0.759562  1
  O  O17  1  0.846958  0.769211  0.938967  1
