# generated using pymatgen
data_AcDySi4(PtAu)2
_symmetry_space_group_name_H-M   'P 1'
_cell_length_a   4.34349100
_cell_length_b   4.34349100
_cell_length_c   10.13164400
_cell_angle_alpha   90.00000000
_cell_angle_beta   90.00000000
_cell_angle_gamma   90.00000000
_symmetry_Int_Tables_number   1
_chemical_formula_structural   AcDySi4(PtAu)2
_chemical_formula_sum   'Ac1 Dy1 Si4 Pt2 Au2'
_cell_volume   191.14272506
_cell_formula_units_Z   1
loop_
 _symmetry_equiv_pos_site_id
 _symmetry_equiv_pos_as_xyz
  1  'x, y, z'
loop_
 _atom_site_type_symbol
 _atom_site_label
 _atom_site_symmetry_multiplicity
 _atom_site_fract_x
 _atom_site_fract_y
 _atom_site_fract_z
 _atom_site_occupancy
  Ac  Ac0  1  0.500000  0.000000  0.744662  1
  Dy  Dy1  1  0.000000  0.500000  0.256630  1
  Si  Si2  1  0.500000  0.500000  0.492605  1
  Si  Si3  1  0.500000  0.000000  0.147290  1
  Si  Si4  1  0.000000  0.000000  0.492605  1
  Si  Si5  1  0.000000  0.500000  0.858528  1
  Pt  Pt6  1  0.000000  0.500000  0.609555  1
  Pt  Pt7  1  0.500000  0.000000  0.380223  1
  Au  Au8  1  0.000000  0.000000  0.008952  1
  Au  Au9  1  0.500000  0.500000  0.008952  1
