# generated using pymatgen
data_DyY11Fe2I17
_symmetry_space_group_name_H-M   'P 1'
_cell_length_a   9.75847087
_cell_length_b   11.72004856
_cell_length_c   11.73086431
_cell_angle_alpha   93.57194059
_cell_angle_beta   104.68824269
_cell_angle_gamma   114.07127065
_symmetry_Int_Tables_number   1
_chemical_formula_structural   DyY11Fe2I17
_chemical_formula_sum   'Dy1 Y11 Fe2 I17'
_cell_volume   1163.90457833
_cell_formula_units_Z   1
loop_
 _symmetry_equiv_pos_site_id
 _symmetry_equiv_pos_as_xyz
  1  'x, y, z'
loop_
 _atom_site_type_symbol
 _atom_site_label
 _atom_site_symmetry_multiplicity
 _atom_site_fract_x
 _atom_site_fract_y
 _atom_site_fract_z
 _atom_site_occupancy
  Dy  Dy0  1  0.860453  0.713290  0.845402  1
  Y  Y1  1  0.052874  0.503103  0.319920  1
  Y  Y2  1  0.992309  0.809173  0.588864  1
  Y  Y3  1  0.656469  0.241490  0.280394  1
  Y  Y4  1  0.007805  0.190541  0.411925  1
  Y  Y5  1  0.219103  0.671271  0.983146  1
  Y  Y6  1  0.254571  0.977908  0.888749  1
  Y  Y7  1  0.344268  0.758453  0.719463  1
  Y  Y8  1  0.947408  0.497567  0.680339  1
  Y  Y9  1  0.744577  0.021265  0.110988  1
  Y  Y10  1  0.140162  0.286878  0.154525  1
  Y  Y11  1  0.780510  0.329026  0.016122  1
  Fe  Fe12  1  0.103638  0.738008  0.786048  1
  Fe  Fe13  1  0.895843  0.261852  0.213858  1
  I  I14  1  0.783814  0.528294  0.417350  1
  I  I15  1  0.644522  0.419693  0.762553  1
  I  I16  1  0.844130  0.895960  0.327169  1
  I  I17  1  0.327792  0.213831  0.368195  1
  I  I18  1  0.155908  0.104123  0.672754  1
  I  I19  1  0.586093  0.053089  0.843000  1
  I  I20  1  0.758273  0.188590  0.538668  1
  I  I21  1  0.551892  0.711257  0.954239  1
  I  I22  1  0.355502  0.580410  0.237619  1
  I  I23  1  0.216274  0.471530  0.582459  1
  I  I24  1  0.056530  0.367500  0.897080  1
  I  I25  1  0.448006  0.288813  0.045809  1
  I  I26  1  0.999892  0.000083  0.000093  1
  I  I27  1  0.241713  0.811399  0.461244  1
  I  I28  1  0.414157  0.947172  0.157088  1
  I  I29  1  0.672179  0.786080  0.632026  1
  I  I30  1  0.943335  0.632350  0.102909  1
