# generated using pymatgen
data_Lu2GaB2Ir2Rh3
_symmetry_space_group_name_H-M   'P 1'
_cell_length_a   9.44851111
_cell_length_b   9.44403611
_cell_length_c   3.17329800
_cell_angle_alpha   90.00000000
_cell_angle_beta   90.00000000
_cell_angle_gamma   89.98225253
_symmetry_Int_Tables_number   1
_chemical_formula_structural   Lu2GaB2Ir2Rh3
_chemical_formula_sum   'Lu4 Ga2 B4 Ir4 Rh6'
_cell_volume   283.15996796
_cell_formula_units_Z   2
loop_
 _symmetry_equiv_pos_site_id
 _symmetry_equiv_pos_as_xyz
  1  'x, y, z'
loop_
 _atom_site_type_symbol
 _atom_site_label
 _atom_site_symmetry_multiplicity
 _atom_site_fract_x
 _atom_site_fract_y
 _atom_site_fract_z
 _atom_site_occupancy
  Lu  Lu0  1  0.822940  0.323381  0.000000  1
  Lu  Lu1  1  0.324624  0.176509  0.000000  1
  Lu  Lu2  1  0.676381  0.823494  0.000000  1
  Lu  Lu3  1  0.175886  0.675704  0.000000  1
  Ga  Ga4  1  0.998788  0.999173  0.000000  1
  Ga  Ga5  1  0.500052  0.500251  0.000000  1
  B  B6  1  0.622674  0.122165  0.000000  1
  B  B7  1  0.122242  0.375265  0.000000  1
  B  B8  1  0.877923  0.622529  0.000000  1
  B  B9  1  0.375498  0.878002  0.000000  1
  Ir  Ir10  1  0.070245  0.218635  0.500000  1
  Ir  Ir11  1  0.219065  0.930595  0.500000  1
  Ir  Ir12  1  0.501324  0.000136  0.500000  1
  Ir  Ir13  1  0.999135  0.500090  0.500000  1
  Rh  Rh14  1  0.782382  0.070588  0.500000  1
  Rh  Rh15  1  0.929971  0.781923  0.500000  1
  Rh  Rh16  1  0.430058  0.717954  0.500000  1
  Rh  Rh17  1  0.570475  0.282308  0.500000  1
  Rh  Rh18  1  0.718007  0.570842  0.500000  1
  Rh  Rh19  1  0.282331  0.430456  0.500000  1
