# generated using pymatgen
data_Zr6Ti4SnSb5C2
_symmetry_space_group_name_H-M   'P 1'
_cell_length_a   8.29712401
_cell_length_b   8.29712363
_cell_length_c   5.66896300
_cell_angle_alpha   90.00000000
_cell_angle_beta   90.00000000
_cell_angle_gamma   120.00306386
_symmetry_Int_Tables_number   1
_chemical_formula_structural   Zr6Ti4SnSb5C2
_chemical_formula_sum   'Zr6 Ti4 Sn1 Sb5 C2'
_cell_volume   337.96831576
_cell_formula_units_Z   1
loop_
 _symmetry_equiv_pos_site_id
 _symmetry_equiv_pos_as_xyz
  1  'x, y, z'
loop_
 _atom_site_type_symbol
 _atom_site_label
 _atom_site_symmetry_multiplicity
 _atom_site_fract_x
 _atom_site_fract_y
 _atom_site_fract_z
 _atom_site_occupancy
  Zr  Zr0  1  0.775339  0.775339  0.250000  1
  Zr  Zr1  1  0.224017  0.999677  0.250000  1
  Zr  Zr2  1  0.999677  0.224017  0.250000  1
  Zr  Zr3  1  0.223906  0.223906  0.750000  1
  Zr  Zr4  1  0.775763  0.999735  0.750000  1
  Zr  Zr5  1  0.999735  0.775763  0.750000  1
  Ti  Ti6  1  0.668443  0.332906  0.499581  1
  Ti  Ti7  1  0.332906  0.668443  0.499581  1
  Ti  Ti8  1  0.332906  0.668443  0.000419  1
  Ti  Ti9  1  0.668443  0.332906  0.000419  1
  Sn  Sn10  1  0.409851  0.409851  0.250000  1
  Sb  Sb11  1  0.591239  0.999815  0.250000  1
  Sb  Sb12  1  0.999815  0.591239  0.250000  1
  Sb  Sb13  1  0.588220  0.588220  0.750000  1
  Sb  Sb14  1  0.409257  0.001266  0.750000  1
  Sb  Sb15  1  0.001266  0.409257  0.750000  1
  C  C16  1  0.999608  0.999608  0.500053  1
  C  C17  1  0.999608  0.999608  0.999947  1
