# generated using pymatgen
data_LiHo16Hg3Pt4
_symmetry_space_group_name_H-M   'P 1'
_cell_length_a   9.59274103
_cell_length_b   9.59274231
_cell_length_c   9.59274107
_cell_angle_alpha   60.07761071
_cell_angle_beta   60.07760928
_cell_angle_gamma   60.07761198
_symmetry_Int_Tables_number   1
_chemical_formula_structural   LiHo16Hg3Pt4
_chemical_formula_sum   'Li1 Ho16 Hg3 Pt4'
_cell_volume   625.28264306
_cell_formula_units_Z   1
loop_
 _symmetry_equiv_pos_site_id
 _symmetry_equiv_pos_as_xyz
  1  'x, y, z'
loop_
 _atom_site_type_symbol
 _atom_site_label
 _atom_site_symmetry_multiplicity
 _atom_site_fract_x
 _atom_site_fract_y
 _atom_site_fract_z
 _atom_site_occupancy
  Li  Li0  1  0.818068  0.818068  0.818068  1
  Ho  Ho1  1  0.603036  0.603036  0.603036  1
  Ho  Ho2  1  0.604159  0.604159  0.188880  1
  Ho  Ho3  1  0.604159  0.188880  0.604159  1
  Ho  Ho4  1  0.188880  0.604159  0.604159  1
  Ho  Ho5  1  0.059506  0.442637  0.442637  1
  Ho  Ho6  1  0.438690  0.062714  0.062714  1
  Ho  Ho7  1  0.442637  0.059506  0.442637  1
  Ho  Ho8  1  0.062714  0.438690  0.062714  1
  Ho  Ho9  1  0.442637  0.442637  0.059506  1
  Ho  Ho10  1  0.062714  0.062714  0.438690  1
  Ho  Ho11  1  0.186880  0.815206  0.815206  1
  Ho  Ho12  1  0.813313  0.186784  0.186784  1
  Ho  Ho13  1  0.815206  0.186880  0.815206  1
  Ho  Ho14  1  0.186784  0.813313  0.186784  1
  Ho  Ho15  1  0.815206  0.815206  0.186880  1
  Ho  Ho16  1  0.186784  0.186784  0.813313  1
  Hg  Hg17  1  0.837665  0.837665  0.492017  1
  Hg  Hg18  1  0.837665  0.492017  0.837665  1
  Hg  Hg19  1  0.492017  0.837665  0.837665  1
  Pt  Pt20  1  0.394935  0.394935  0.394935  1
  Pt  Pt21  1  0.393323  0.393323  0.819697  1
  Pt  Pt22  1  0.393323  0.819697  0.393323  1
  Pt  Pt23  1  0.819697  0.393323  0.393323  1
