# generated using pymatgen
data_NaSr(Si2Pd3)2
_symmetry_space_group_name_H-M   'P 1'
_cell_length_a   6.84012361
_cell_length_b   6.84012237
_cell_length_c   6.84012354
_cell_angle_alpha   129.90445831
_cell_angle_beta   117.33608697
_cell_angle_gamma   84.21945524
_symmetry_Int_Tables_number   1
_chemical_formula_structural   NaSr(Si2Pd3)2
_chemical_formula_sum   'Na1 Sr1 Si4 Pd6'
_cell_volume   209.07326082
_cell_formula_units_Z   1
loop_
 _symmetry_equiv_pos_site_id
 _symmetry_equiv_pos_as_xyz
  1  'x, y, z'
loop_
 _atom_site_type_symbol
 _atom_site_label
 _atom_site_symmetry_multiplicity
 _atom_site_fract_x
 _atom_site_fract_y
 _atom_site_fract_z
 _atom_site_occupancy
  Na  Na0  1  0.500000  0.021551  0.521551  1
  Sr  Sr1  1  0.000000  0.962283  0.962283  1
  Si  Si2  1  0.319501  0.389695  0.070194  1
  Si  Si3  1  0.835784  0.275954  0.440170  1
  Si  Si4  1  0.680499  0.750692  0.070194  1
  Si  Si5  1  0.164216  0.604386  0.440170  1
  Pd  Pd6  1  0.948977  0.489651  0.947208  1
  Pd  Pd7  1  0.542442  0.489651  0.540674  1
  Pd  Pd8  1  0.051023  0.998230  0.540674  1
  Pd  Pd9  1  0.725880  0.502339  0.228219  1
  Pd  Pd10  1  0.274120  0.502339  0.776458  1
  Pd  Pd11  1  0.457558  0.998230  0.947208  1
