# generated using pymatgen
data_ScPa(NiSn)2
_symmetry_space_group_name_H-M   'P 1'
_cell_length_a   7.65427437
_cell_length_b   7.65427438
_cell_length_c   7.65427390
_cell_angle_alpha   33.90939740
_cell_angle_beta   33.90939784
_cell_angle_gamma   33.90939799
_symmetry_Int_Tables_number   1
_chemical_formula_structural   ScPa(NiSn)2
_chemical_formula_sum   'Sc1 Pa1 Ni2 Sn2'
_cell_volume   124.39163087
_cell_formula_units_Z   1
loop_
 _symmetry_equiv_pos_site_id
 _symmetry_equiv_pos_as_xyz
  1  'x, y, z'
loop_
 _atom_site_type_symbol
 _atom_site_label
 _atom_site_symmetry_multiplicity
 _atom_site_fract_x
 _atom_site_fract_y
 _atom_site_fract_z
 _atom_site_occupancy
  Sc  Sc0  1  0.874133  0.874133  0.874133  1
  Pa  Pa1  1  0.375552  0.375552  0.375552  1
  Ni  Ni2  1  0.001633  0.001633  0.001633  1
  Ni  Ni3  1  0.497005  0.497005  0.497005  1
  Sn  Sn4  1  0.131440  0.131440  0.131440  1
  Sn  Sn5  1  0.620237  0.620237  0.620237  1
