# generated using pymatgen
data_Er7Lu3GaSb5
_symmetry_space_group_name_H-M   'P 1'
_cell_length_a   8.79285210
_cell_length_b   8.79001390
_cell_length_c   6.27492305
_cell_angle_alpha   90.01402738
_cell_angle_beta   89.99088558
_cell_angle_gamma   120.02569161
_symmetry_Int_Tables_number   1
_chemical_formula_structural   Er7Lu3GaSb5
_chemical_formula_sum   'Er7 Lu3 Ga1 Sb5'
_cell_volume   419.89998780
_cell_formula_units_Z   1
loop_
 _symmetry_equiv_pos_site_id
 _symmetry_equiv_pos_as_xyz
  1  'x, y, z'
loop_
 _atom_site_type_symbol
 _atom_site_label
 _atom_site_symmetry_multiplicity
 _atom_site_fract_x
 _atom_site_fract_y
 _atom_site_fract_z
 _atom_site_occupancy
  Er  Er0  1  0.011012  0.764947  0.749961  1
  Er  Er1  1  0.999906  0.243672  0.250074  1
  Er  Er2  1  0.755959  0.756471  0.250065  1
  Er  Er3  1  0.751251  0.999927  0.749995  1
  Er  Er4  1  0.246165  0.235139  0.749822  1
  Er  Er5  1  0.243892  0.000045  0.250414  1
  Er  Er6  1  0.335124  0.675503  0.998383  1
  Lu  Lu7  1  0.335070  0.675696  0.501910  1
  Lu  Lu8  1  0.658892  0.323641  0.997802  1
  Lu  Lu9  1  0.659239  0.324221  0.502068  1
  Ga  Ga10  1  0.395908  0.001287  0.748852  1
  Sb  Sb11  1  0.390878  0.393689  0.250566  1
  Sb  Sb12  1  0.995630  0.605561  0.250484  1
  Sb  Sb13  1  0.001434  0.391144  0.749334  1
  Sb  Sb14  1  0.611295  0.608294  0.749405  1
  Sb  Sb15  1  0.608344  0.000762  0.250866  1
