# generated using pymatgen
data_Dy6Al6GeAu5
_symmetry_space_group_name_H-M   'P 1'
_cell_length_a   7.17376500
_cell_length_b   7.17376498
_cell_length_c   8.43379300
_cell_angle_alpha   90.00000000
_cell_angle_beta   90.00000000
_cell_angle_gamma   119.99999547
_symmetry_Int_Tables_number   1
_chemical_formula_structural   Dy6Al6GeAu5
_chemical_formula_sum   'Dy6 Al6 Ge1 Au5'
_cell_volume   375.87884150
_cell_formula_units_Z   1
loop_
 _symmetry_equiv_pos_site_id
 _symmetry_equiv_pos_as_xyz
  1  'x, y, z'
loop_
 _atom_site_type_symbol
 _atom_site_label
 _atom_site_symmetry_multiplicity
 _atom_site_fract_x
 _atom_site_fract_y
 _atom_site_fract_z
 _atom_site_occupancy
  Dy  Dy0  1  0.583808  0.001465  0.746846  1
  Dy  Dy1  1  0.998535  0.582343  0.746846  1
  Dy  Dy2  1  0.417657  0.416192  0.746846  1
  Dy  Dy3  1  0.997630  0.582111  0.253132  1
  Dy  Dy4  1  0.584481  0.002370  0.253132  1
  Dy  Dy5  1  0.417889  0.415519  0.253132  1
  Al  Al6  1  0.753983  0.763602  0.000013  1
  Al  Al7  1  0.236398  0.990380  0.000013  1
  Al  Al8  1  0.009620  0.246017  0.000013  1
  Al  Al9  1  0.759969  0.759946  0.500024  1
  Al  Al10  1  0.240054  0.000022  0.500024  1
  Al  Al11  1  0.999978  0.240031  0.500024  1
  Ge  Ge12  1  0.666667  0.333333  0.999615  1
  Au  Au13  1  0.000000  0.000000  0.753067  1
  Au  Au14  1  0.000000  0.000000  0.246975  1
  Au  Au15  1  0.666667  0.333333  0.500569  1
  Au  Au16  1  0.333333  0.666667  0.499164  1
  Au  Au17  1  0.333333  0.666667  0.000565  1
