# generated using pymatgen
data_Rb11Mn4AgO16
_symmetry_space_group_name_H-M   'P 1'
_cell_length_a   8.46231296
_cell_length_b   8.47103902
_cell_length_c   10.90163471
_cell_angle_alpha   112.83415505
_cell_angle_beta   112.82062305
_cell_angle_gamma   90.01950045
_symmetry_Int_Tables_number   1
_chemical_formula_structural   Rb11Mn4AgO16
_chemical_formula_sum   'Rb11 Mn4 Ag1 O16'
_cell_volume   653.30784800
_cell_formula_units_Z   1
loop_
 _symmetry_equiv_pos_site_id
 _symmetry_equiv_pos_as_xyz
  1  'x, y, z'
loop_
 _atom_site_type_symbol
 _atom_site_label
 _atom_site_symmetry_multiplicity
 _atom_site_fract_x
 _atom_site_fract_y
 _atom_site_fract_z
 _atom_site_occupancy
  Rb  Rb0  1  0.286365  0.286403  0.572599  1
  Rb  Rb1  1  0.499996  0.000121  0.999993  1
  Rb  Rb2  1  0.249872  0.750036  0.499945  1
  Rb  Rb3  1  0.914878  0.914845  0.243210  1
  Rb  Rb4  1  0.085063  0.671047  0.756213  1
  Rb  Rb5  1  0.713532  0.713727  0.427349  1
  Rb  Rb6  1  0.000150  0.500072  0.000159  1
  Rb  Rb7  1  0.671166  0.085221  0.756308  1
  Rb  Rb8  1  0.328389  0.328558  0.243467  1
  Rb  Rb9  1  0.749903  0.249936  0.499890  1
  Rb  Rb10  1  0.500036  0.500092  0.000136  1
  Mn  Mn11  1  0.858355  0.381650  0.240170  1
  Mn  Mn12  1  0.141644  0.142051  0.760089  1
  Mn  Mn13  1  0.618542  0.617999  0.760062  1
  Mn  Mn14  1  0.381701  0.858088  0.239752  1
  Ag  Ag15  1  0.999635  0.999650  0.999176  1
  O  O16  1  0.386555  0.014000  0.400196  1
  O  O17  1  0.779706  0.779332  0.916361  1
  O  O18  1  0.655568  0.345881  0.236801  1
  O  O19  1  0.346000  0.655743  0.236764  1
  O  O20  1  0.013869  0.387000  0.400704  1
  O  O21  1  0.581044  0.890709  0.236466  1
  O  O22  1  0.344166  0.109229  0.763115  1
  O  O23  1  0.220411  0.863022  0.083669  1
  O  O24  1  0.613714  0.613288  0.599710  1
  O  O25  1  0.137259  0.137366  0.916711  1
  O  O26  1  0.654260  0.418910  0.763455  1
  O  O27  1  0.985878  0.986177  0.600083  1
  O  O28  1  0.890560  0.580969  0.236650  1
  O  O29  1  0.863430  0.220490  0.084091  1
  O  O30  1  0.109146  0.344374  0.763244  1
  O  O31  1  0.419204  0.654011  0.763461  1
