# generated using pymatgen
data_Dy11(Fe2C3)6
_symmetry_space_group_name_H-M   'P 1'
_cell_length_a   8.78755249
_cell_length_b   8.78755234
_cell_length_c   8.78755200
_cell_angle_alpha   109.47121986
_cell_angle_beta   109.47121950
_cell_angle_gamma   109.47121561
_symmetry_Int_Tables_number   1
_chemical_formula_structural   Dy11(Fe2C3)6
_chemical_formula_sum   'Dy11 Fe12 C18'
_cell_volume   522.37443102
_cell_formula_units_Z   1
loop_
 _symmetry_equiv_pos_site_id
 _symmetry_equiv_pos_as_xyz
  1  'x, y, z'
loop_
 _atom_site_type_symbol
 _atom_site_label
 _atom_site_symmetry_multiplicity
 _atom_site_fract_x
 _atom_site_fract_y
 _atom_site_fract_z
 _atom_site_occupancy
  Dy  Dy0  1  0.250000  0.750000  0.500000  1
  Dy  Dy1  1  0.750000  0.250000  0.500000  1
  Dy  Dy2  1  0.750000  0.500000  0.250000  1
  Dy  Dy3  1  0.250000  0.500000  0.750000  1
  Dy  Dy4  1  0.500000  0.250000  0.750000  1
  Dy  Dy5  1  0.500000  0.750000  0.250000  1
  Dy  Dy6  1  0.408945  0.408945  0.408945  1
  Dy  Dy7  1  0.591055  0.000000  0.000000  1
  Dy  Dy8  1  0.000000  0.591055  0.000000  1
  Dy  Dy9  1  0.000000  0.000000  0.591055  1
  Dy  Dy10  1  0.000000  0.000000  0.000000  1
  Fe  Fe11  1  0.838508  0.643208  0.643208  1
  Fe  Fe12  1  0.161492  0.804701  0.804701  1
  Fe  Fe13  1  0.000000  0.356792  0.195299  1
  Fe  Fe14  1  0.643208  0.643208  0.838508  1
  Fe  Fe15  1  0.000000  0.195299  0.356792  1
  Fe  Fe16  1  0.804701  0.804701  0.161492  1
  Fe  Fe17  1  0.356792  0.195299  0.000000  1
  Fe  Fe18  1  0.195299  0.356792  0.000000  1
  Fe  Fe19  1  0.643208  0.838508  0.643208  1
  Fe  Fe20  1  0.195299  0.000000  0.356792  1
  Fe  Fe21  1  0.356792  0.000000  0.195299  1
  Fe  Fe22  1  0.804701  0.161492  0.804701  1
  C  C23  1  0.569196  0.569196  0.000000  1
  C  C24  1  0.430804  0.430804  0.000000  1
  C  C25  1  0.569196  0.000000  0.569196  1
  C  C26  1  0.430804  0.000000  0.430804  1
  C  C27  1  0.000000  0.569196  0.569196  1
  C  C28  1  0.000000  0.430804  0.430804  1
  C  C29  1  0.490237  0.701702  0.701702  1
  C  C30  1  0.509763  0.211466  0.211466  1
  C  C31  1  0.000000  0.298298  0.788534  1
  C  C32  1  0.701702  0.701702  0.490237  1
  C  C33  1  0.000000  0.788534  0.298298  1
  C  C34  1  0.211466  0.211466  0.509763  1
  C  C35  1  0.298298  0.788534  0.000000  1
  C  C36  1  0.788534  0.298298  0.000000  1
  C  C37  1  0.701702  0.490237  0.701702  1
  C  C38  1  0.788534  0.000000  0.298298  1
  C  C39  1  0.298298  0.000000  0.788534  1
  C  C40  1  0.211466  0.509763  0.211466  1
