# generated using pymatgen
data_Ce4Al2PdRh
_symmetry_space_group_name_H-M   'P 1'
_cell_length_a   7.81385400
_cell_length_b   7.81385394
_cell_length_c   9.84298800
_cell_angle_alpha   90.00000000
_cell_angle_beta   90.00000000
_cell_angle_gamma   120.00000024
_symmetry_Int_Tables_number   1
_chemical_formula_structural   Ce4Al2PdRh
_chemical_formula_sum   'Ce12 Al6 Pd3 Rh3'
_cell_volume   520.46097106
_cell_formula_units_Z   3
loop_
 _symmetry_equiv_pos_site_id
 _symmetry_equiv_pos_as_xyz
  1  'x, y, z'
loop_
 _atom_site_type_symbol
 _atom_site_label
 _atom_site_symmetry_multiplicity
 _atom_site_fract_x
 _atom_site_fract_y
 _atom_site_fract_z
 _atom_site_occupancy
  Ce  Ce0  1  0.000000  0.606281  0.519651  1
  Ce  Ce1  1  0.606281  0.000000  0.519651  1
  Ce  Ce2  1  0.393719  0.393719  0.519651  1
  Ce  Ce3  1  0.000000  0.405001  0.007318  1
  Ce  Ce4  1  0.405001  0.000000  0.007318  1
  Ce  Ce5  1  0.594999  0.594999  0.007318  1
  Ce  Ce6  1  0.000000  0.728339  0.158804  1
  Ce  Ce7  1  0.728339  0.000000  0.158804  1
  Ce  Ce8  1  0.271661  0.271661  0.158804  1
  Ce  Ce9  1  0.000000  0.262579  0.666278  1
  Ce  Ce10  1  0.262579  0.000000  0.666278  1
  Ce  Ce11  1  0.737421  0.737421  0.666278  1
  Al  Al12  1  0.666667  0.333333  0.282143  1
  Al  Al13  1  0.333333  0.666667  0.282143  1
  Al  Al14  1  0.333333  0.666667  0.774978  1
  Al  Al15  1  0.666667  0.333333  0.774978  1
  Al  Al16  1  0.000000  0.000000  0.411427  1
  Al  Al17  1  0.000000  0.000000  0.915923  1
  Pd  Pd18  1  0.000000  0.332545  0.338535  1
  Pd  Pd19  1  0.332545  0.000000  0.338535  1
  Pd  Pd20  1  0.667455  0.667455  0.338535  1
  Rh  Rh21  1  0.000000  0.663859  0.838631  1
  Rh  Rh22  1  0.663859  0.000000  0.838631  1
  Rh  Rh23  1  0.336141  0.336141  0.838631  1
