# generated using pymatgen
data_Th4CuSi6Os
_symmetry_space_group_name_H-M   'P 1'
_cell_length_a   8.25854321
_cell_length_b   8.20189904
_cell_length_c   5.90199604
_cell_angle_alpha   69.50266014
_cell_angle_beta   68.47598404
_cell_angle_gamma   42.02135784
_symmetry_Int_Tables_number   1
_chemical_formula_structural   Th4CuSi6Os
_chemical_formula_sum   'Th4 Cu1 Si6 Os1'
_cell_volume   247.01022786
_cell_formula_units_Z   1
loop_
 _symmetry_equiv_pos_site_id
 _symmetry_equiv_pos_as_xyz
  1  'x, y, z'
loop_
 _atom_site_type_symbol
 _atom_site_label
 _atom_site_symmetry_multiplicity
 _atom_site_fract_x
 _atom_site_fract_y
 _atom_site_fract_z
 _atom_site_occupancy
  Th  Th0  1  0.752280  0.752280  0.747720  1
  Th  Th1  1  0.746978  0.246794  0.753206  1
  Th  Th2  1  0.252280  0.252280  0.247720  1
  Th  Th3  1  0.246794  0.746978  0.253022  1
  Cu  Cu4  1  0.665517  0.665517  0.334483  1
  Si  Si5  1  0.833731  0.335588  0.166269  1
  Si  Si6  1  0.667658  0.166275  0.332342  1
  Si  Si7  1  0.166275  0.667658  0.833725  1
  Si  Si8  1  0.335588  0.833731  0.664412  1
  Si  Si9  1  0.167698  0.167698  0.832302  1
  Si  Si10  1  0.830551  0.830551  0.169449  1
  Os  Os11  1  0.334650  0.334650  0.665350  1
