# generated using pymatgen
data_TbTm2Hf(Co4P3)2
_symmetry_space_group_name_H-M   'P 1'
_cell_length_a   3.71332500
_cell_length_b   10.66746600
_cell_length_c   12.36792500
_cell_angle_alpha   90.00000000
_cell_angle_beta   90.00000000
_cell_angle_gamma   90.00000000
_symmetry_Int_Tables_number   1
_chemical_formula_structural   TbTm2Hf(Co4P3)2
_chemical_formula_sum   'Tb2 Tm4 Hf2 Co16 P12'
_cell_volume   489.91537802
_cell_formula_units_Z   2
loop_
 _symmetry_equiv_pos_site_id
 _symmetry_equiv_pos_as_xyz
  1  'x, y, z'
loop_
 _atom_site_type_symbol
 _atom_site_label
 _atom_site_symmetry_multiplicity
 _atom_site_fract_x
 _atom_site_fract_y
 _atom_site_fract_z
 _atom_site_occupancy
  Tb  Tb0  1  0.000000  0.500000  0.529399  1
  Tb  Tb1  1  0.500000  0.000000  0.470601  1
  Tm  Tm2  1  0.500000  0.822238  0.204083  1
  Tm  Tm3  1  0.500000  0.177762  0.204083  1
  Tm  Tm4  1  0.000000  0.677762  0.795917  1
  Tm  Tm5  1  0.000000  0.322238  0.795917  1
  Hf  Hf6  1  0.500000  0.500000  0.156854  1
  Hf  Hf7  1  0.000000  0.000000  0.843146  1
  Co  Co8  1  0.500000  0.500000  0.705023  1
  Co  Co9  1  0.000000  0.000000  0.294977  1
  Co  Co10  1  0.000000  0.500000  0.986850  1
  Co  Co11  1  0.500000  0.000000  0.013150  1
  Co  Co12  1  0.500000  0.331812  0.993510  1
  Co  Co13  1  0.500000  0.668188  0.993510  1
  Co  Co14  1  0.000000  0.168188  0.006490  1
  Co  Co15  1  0.000000  0.831812  0.006490  1
  Co  Co16  1  0.500000  0.295048  0.432643  1
  Co  Co17  1  0.500000  0.704952  0.432643  1
  Co  Co18  1  0.000000  0.204952  0.567357  1
  Co  Co19  1  0.000000  0.795048  0.567357  1
  Co  Co20  1  0.500000  0.877288  0.703795  1
  Co  Co21  1  0.500000  0.122712  0.703795  1
  Co  Co22  1  0.000000  0.622712  0.296205  1
  Co  Co23  1  0.000000  0.377288  0.296205  1
  P  P24  1  0.500000  0.500000  0.883608  1
  P  P25  1  0.000000  0.000000  0.116392  1
  P  P26  1  0.500000  0.500000  0.361535  1
  P  P27  1  0.000000  0.000000  0.638465  1
  P  P28  1  0.500000  0.309982  0.616851  1
  P  P29  1  0.500000  0.690018  0.616851  1
  P  P30  1  0.000000  0.190018  0.383149  1
  P  P31  1  0.000000  0.809982  0.383149  1
  P  P32  1  0.500000  0.837814  0.892250  1
  P  P33  1  0.500000  0.162186  0.892250  1
  P  P34  1  0.000000  0.662186  0.107750  1
  P  P35  1  0.000000  0.337814  0.107750  1
