# generated using pymatgen
data_Tb2LuZr(Co5P3)4
_symmetry_space_group_name_H-M   'P 1'
_cell_length_a   3.63422300
_cell_length_b   10.23543923
_cell_length_c   11.68795685
_cell_angle_alpha   90.00967496
_cell_angle_beta   90.00000000
_cell_angle_gamma   90.00000000
_symmetry_Int_Tables_number   1
_chemical_formula_structural   Tb2LuZr(Co5P3)4
_chemical_formula_sum   'Tb2 Lu1 Zr1 Co20 P12'
_cell_volume   434.76707766
_cell_formula_units_Z   1
loop_
 _symmetry_equiv_pos_site_id
 _symmetry_equiv_pos_as_xyz
  1  'x, y, z'
loop_
 _atom_site_type_symbol
 _atom_site_label
 _atom_site_symmetry_multiplicity
 _atom_site_fract_x
 _atom_site_fract_y
 _atom_site_fract_z
 _atom_site_occupancy
  Tb  Tb0  1  0.750000  0.417365  0.297113  1
  Tb  Tb1  1  0.750000  0.082622  0.797324  1
  Lu  Lu2  1  0.250000  0.917285  0.202256  1
  Zr  Zr3  1  0.250000  0.582077  0.700945  1
  Co  Co4  1  0.250000  0.717372  0.993110  1
  Co  Co5  1  0.250000  0.781975  0.493251  1
  Co  Co6  1  0.750000  0.283178  0.007476  1
  Co  Co7  1  0.750000  0.217372  0.509809  1
  Co  Co8  1  0.250000  0.409672  0.490914  1
  Co  Co9  1  0.250000  0.092483  0.989301  1
  Co  Co10  1  0.750000  0.593668  0.515812  1
  Co  Co11  1  0.750000  0.906541  0.013625  1
  Co  Co12  1  0.250000  0.221285  0.177050  1
  Co  Co13  1  0.250000  0.279258  0.677212  1
  Co  Co14  1  0.750000  0.775995  0.822578  1
  Co  Co15  1  0.750000  0.721564  0.323504  1
  Co  Co16  1  0.250000  0.879833  0.699012  1
  Co  Co17  1  0.250000  0.618262  0.198107  1
  Co  Co18  1  0.750000  0.115977  0.301206  1
  Co  Co19  1  0.750000  0.386361  0.798806  1
  Co  Co20  1  0.250000  0.470580  0.928017  1
  Co  Co21  1  0.250000  0.030574  0.430919  1
  Co  Co22  1  0.750000  0.533781  0.065824  1
  Co  Co23  1  0.750000  0.965395  0.567901  1
  P  P24  1  0.250000  0.418818  0.109747  1
  P  P25  1  0.250000  0.080712  0.611528  1
  P  P26  1  0.750000  0.581500  0.884013  1
  P  P27  1  0.750000  0.918209  0.386446  1
  P  P28  1  0.250000  0.271244  0.870945  1
  P  P29  1  0.250000  0.229225  0.371913  1
  P  P30  1  0.750000  0.730860  0.130482  1
  P  P31  1  0.750000  0.767625  0.631580  1
  P  P32  1  0.250000  0.602324  0.391139  1
  P  P33  1  0.250000  0.897579  0.891620  1
  P  P34  1  0.750000  0.400595  0.609826  1
  P  P35  1  0.750000  0.100832  0.109690  1
