# generated using pymatgen
data_V10Ga4Si2C
_symmetry_space_group_name_H-M   'P 1'
_cell_length_a   7.27798066
_cell_length_b   7.29822088
_cell_length_c   4.88800004
_cell_angle_alpha   89.93665817
_cell_angle_beta   90.03175966
_cell_angle_gamma   120.09203343
_symmetry_Int_Tables_number   1
_chemical_formula_structural   V10Ga4Si2C
_chemical_formula_sum   'V10 Ga4 Si2 C1'
_cell_volume   224.63941490
_cell_formula_units_Z   1
loop_
 _symmetry_equiv_pos_site_id
 _symmetry_equiv_pos_as_xyz
  1  'x, y, z'
loop_
 _atom_site_type_symbol
 _atom_site_label
 _atom_site_symmetry_multiplicity
 _atom_site_fract_x
 _atom_site_fract_y
 _atom_site_fract_z
 _atom_site_occupancy
  V  V0  1  0.000000  0.771149  0.254126  1
  V  V1  1  0.234737  0.234045  0.254129  1
  V  V2  1  0.765263  0.999308  0.254129  1
  V  V3  1  0.000000  0.228144  0.745015  1
  V  V4  1  0.763683  0.769944  0.745482  1
  V  V5  1  0.236317  0.006261  0.745482  1
  V  V6  1  0.339578  0.667825  0.995845  1
  V  V7  1  0.660422  0.328247  0.995845  1
  V  V8  1  0.659774  0.327851  0.504274  1
  V  V9  1  0.340226  0.668078  0.504274  1
  Ga  Ga10  1  0.000000  0.403663  0.244878  1
  Ga  Ga11  1  0.600517  0.596880  0.244836  1
  Ga  Ga12  1  0.399483  0.996363  0.244836  1
  Ga  Ga13  1  0.000000  0.600332  0.755161  1
  Si  Si14  1  0.400051  0.401569  0.756762  1
  Si  Si15  1  0.599949  0.001518  0.756762  1
  C  C16  1  0.000000  0.998825  0.498164  1
