# generated using pymatgen
data_Ca5Pr9(Ho3Sn8)2
_symmetry_space_group_name_H-M   'P 1'
_cell_length_a   8.04600626
_cell_length_b   8.44564548
_cell_length_c   15.92453300
_cell_angle_alpha   90.04900128
_cell_angle_beta   89.70277437
_cell_angle_gamma   90.01758724
_symmetry_Int_Tables_number   1
_chemical_formula_structural   Ca5Pr9(Ho3Sn8)2
_chemical_formula_sum   'Ca5 Pr9 Ho6 Sn16'
_cell_volume   1082.11619322
_cell_formula_units_Z   1
loop_
 _symmetry_equiv_pos_site_id
 _symmetry_equiv_pos_as_xyz
  1  'x, y, z'
loop_
 _atom_site_type_symbol
 _atom_site_label
 _atom_site_symmetry_multiplicity
 _atom_site_fract_x
 _atom_site_fract_y
 _atom_site_fract_z
 _atom_site_occupancy
  Ca  Ca0  1  0.333912  0.830759  0.877324  1
  Ca  Ca1  1  0.170506  0.499501  0.749348  1
  Ca  Ca2  1  0.669652  0.003039  0.749378  1
  Ca  Ca3  1  0.828681  0.502599  0.251558  1
  Ca  Ca4  1  0.328484  0.996021  0.251060  1
  Pr  Pr5  1  0.837492  0.674512  0.876404  1
  Pr  Pr6  1  0.494962  0.318368  0.904265  1
  Pr  Pr7  1  0.998566  0.181691  0.593667  1
  Pr  Pr8  1  0.504173  0.680076  0.403904  1
  Pr  Pr9  1  0.005228  0.818974  0.097842  1
  Pr  Pr10  1  0.503835  0.678452  0.097365  1
  Pr  Pr11  1  0.003235  0.820411  0.403364  1
  Pr  Pr12  1  0.496165  0.318226  0.593627  1
  Pr  Pr13  1  0.995856  0.181978  0.903293  1
  Ho  Ho14  1  0.840295  0.671558  0.621886  1
  Ho  Ho15  1  0.659924  0.170452  0.375728  1
  Ho  Ho16  1  0.163217  0.327563  0.126608  1
  Ho  Ho17  1  0.662238  0.170669  0.127105  1
  Ho  Ho18  1  0.160144  0.328773  0.375831  1
  Ho  Ho19  1  0.342522  0.828633  0.622268  1
  Sn  Sn20  1  0.327967  0.040473  0.041536  1
  Sn  Sn21  1  0.822027  0.458595  0.463016  1
  Sn  Sn22  1  0.679655  0.960178  0.536111  1
  Sn  Sn23  1  0.175250  0.533017  0.964767  1
  Sn  Sn24  1  0.674142  0.965875  0.965964  1
  Sn  Sn25  1  0.178476  0.541381  0.535643  1
  Sn  Sn26  1  0.321004  0.040756  0.463009  1
  Sn  Sn27  1  0.826010  0.456444  0.040589  1
  Sn  Sn28  1  0.537958  0.611304  0.745284  1
  Sn  Sn29  1  0.039326  0.888800  0.744519  1
  Sn  Sn30  1  0.461628  0.382530  0.250900  1
  Sn  Sn31  1  0.961642  0.116861  0.251295  1
  Sn  Sn32  1  0.297445  0.138888  0.747149  1
  Sn  Sn33  1  0.796800  0.364163  0.747211  1
  Sn  Sn34  1  0.700966  0.864710  0.250406  1
  Sn  Sn35  1  0.200610  0.633774  0.250776  1
