# generated using pymatgen
data_La12TcOs3
_symmetry_space_group_name_H-M   'P 1'
_cell_length_a   6.59440687
_cell_length_b   7.50982082
_cell_length_c   10.11041100
_cell_angle_alpha   90.00000000
_cell_angle_beta   90.00000000
_cell_angle_gamma   90.06274033
_symmetry_Int_Tables_number   1
_chemical_formula_structural   La12TcOs3
_chemical_formula_sum   'La12 Tc1 Os3'
_cell_volume   500.69570291
_cell_formula_units_Z   1
loop_
 _symmetry_equiv_pos_site_id
 _symmetry_equiv_pos_as_xyz
  1  'x, y, z'
loop_
 _atom_site_type_symbol
 _atom_site_label
 _atom_site_symmetry_multiplicity
 _atom_site_fract_x
 _atom_site_fract_y
 _atom_site_fract_z
 _atom_site_occupancy
  La  La0  1  0.326622  0.668924  0.069716  1
  La  La1  1  0.174549  0.169365  0.428921  1
  La  La2  1  0.674631  0.329449  0.570022  1
  La  La3  1  0.828157  0.828073  0.929694  1
  La  La4  1  0.674631  0.329449  0.929978  1
  La  La5  1  0.828157  0.828073  0.570306  1
  La  La6  1  0.326622  0.668924  0.430284  1
  La  La7  1  0.174549  0.169365  0.071079  1
  La  La8  1  0.849957  0.550130  0.250000  1
  La  La9  1  0.651469  0.046875  0.250000  1
  La  La10  1  0.154377  0.452242  0.750000  1
  La  La11  1  0.349091  0.953766  0.750000  1
  Tc  Tc12  1  0.041360  0.889062  0.250000  1
  Os  Os13  1  0.447505  0.384170  0.250000  1
  Os  Os14  1  0.944384  0.116551  0.750000  1
  Os  Os15  1  0.553937  0.615579  0.750000  1
