# generated using pymatgen
data_Mg2SbPd2Pt3
_symmetry_space_group_name_H-M   'P 1'
_cell_length_a   4.21256800
_cell_length_b   5.63597908
_cell_length_c   11.08289424
_cell_angle_alpha   89.90064515
_cell_angle_beta   90.00000000
_cell_angle_gamma   90.00000000
_symmetry_Int_Tables_number   1
_chemical_formula_structural   Mg2SbPd2Pt3
_chemical_formula_sum   'Mg4 Sb2 Pd4 Pt6'
_cell_volume   263.12907126
_cell_formula_units_Z   2
loop_
 _symmetry_equiv_pos_site_id
 _symmetry_equiv_pos_as_xyz
  1  'x, y, z'
loop_
 _atom_site_type_symbol
 _atom_site_label
 _atom_site_symmetry_multiplicity
 _atom_site_fract_x
 _atom_site_fract_y
 _atom_site_fract_z
 _atom_site_occupancy
  Mg  Mg0  1  0.500000  0.177196  0.142807  1
  Mg  Mg1  1  0.500000  0.820740  0.857005  1
  Mg  Mg2  1  0.500000  0.319401  0.643428  1
  Mg  Mg3  1  0.500000  0.683263  0.355749  1
  Sb  Sb4  1  0.000000  0.002139  0.500475  1
  Sb  Sb5  1  0.000000  0.497656  0.000058  1
  Pd  Pd6  1  0.500000  0.795023  0.612527  1
  Pd  Pd7  1  0.500000  0.298742  0.889282  1
  Pd  Pd8  1  0.500000  0.697914  0.111094  1
  Pd  Pd9  1  0.000000  0.505731  0.499991  1
  Pt  Pt10  1  0.500000  0.205516  0.388987  1
  Pt  Pt11  1  0.000000  0.439841  0.246099  1
  Pt  Pt12  1  0.000000  0.559993  0.754748  1
  Pt  Pt13  1  0.000000  0.059169  0.745849  1
  Pt  Pt14  1  0.000000  0.939959  0.252889  1
  Pt  Pt15  1  0.000000  0.997715  0.999012  1
