# generated using pymatgen
data_Lu9Th3Ru4
_symmetry_space_group_name_H-M   'P 1'
_cell_length_a   7.17916512
_cell_length_b   9.27623300
_cell_length_c   6.22937298
_cell_angle_alpha   90.00000000
_cell_angle_beta   89.61448295
_cell_angle_gamma   90.00000000
_symmetry_Int_Tables_number   1
_chemical_formula_structural   Lu9Th3Ru4
_chemical_formula_sum   'Lu9 Th3 Ru4'
_cell_volume   414.83949291
_cell_formula_units_Z   1
loop_
 _symmetry_equiv_pos_site_id
 _symmetry_equiv_pos_as_xyz
  1  'x, y, z'
loop_
 _atom_site_type_symbol
 _atom_site_label
 _atom_site_symmetry_multiplicity
 _atom_site_fract_x
 _atom_site_fract_y
 _atom_site_fract_z
 _atom_site_occupancy
  Lu  Lu0  1  0.675579  0.066895  0.165373  1
  Lu  Lu1  1  0.675579  0.433106  0.165373  1
  Lu  Lu2  1  0.175634  0.068873  0.330573  1
  Lu  Lu3  1  0.175634  0.431128  0.330573  1
  Lu  Lu4  1  0.826527  0.563067  0.663380  1
  Lu  Lu5  1  0.826527  0.936933  0.663380  1
  Lu  Lu6  1  0.322395  0.562197  0.837223  1
  Lu  Lu7  1  0.322395  0.937803  0.837223  1
  Lu  Lu8  1  0.035103  0.250000  0.863305  1
  Th  Th9  1  0.955129  0.750000  0.143658  1
  Th  Th10  1  0.454757  0.750000  0.355544  1
  Th  Th11  1  0.545185  0.250000  0.647987  1
  Ru  Ru12  1  0.379293  0.250000  0.036293  1
  Ru  Ru13  1  0.869031  0.250000  0.459342  1
  Ru  Ru14  1  0.130268  0.750000  0.541161  1
  Ru  Ru15  1  0.630963  0.750000  0.959612  1
