# generated using pymatgen
data_Tb5YAl24Os3Ru4Au
_symmetry_space_group_name_H-M   'P 1'
_cell_length_a   8.82890557
_cell_length_b   8.84109372
_cell_length_c   9.62185300
_cell_angle_alpha   90.04362755
_cell_angle_beta   90.02064331
_cell_angle_gamma   120.32830368
_symmetry_Int_Tables_number   1
_chemical_formula_structural   Tb5YAl24Os3Ru4Au
_chemical_formula_sum   'Tb5 Y1 Al24 Os3 Ru4 Au1'
_cell_volume   648.26961374
_cell_formula_units_Z   1
loop_
 _symmetry_equiv_pos_site_id
 _symmetry_equiv_pos_as_xyz
  1  'x, y, z'
loop_
 _atom_site_type_symbol
 _atom_site_label
 _atom_site_symmetry_multiplicity
 _atom_site_fract_x
 _atom_site_fract_y
 _atom_site_fract_z
 _atom_site_occupancy
  Tb  Tb0  1  0.195761  0.386899  0.254469  1
  Tb  Tb1  1  0.804330  0.613225  0.745570  1
  Tb  Tb2  1  0.615654  0.807007  0.251336  1
  Tb  Tb3  1  0.384186  0.192948  0.748681  1
  Tb  Tb4  1  0.192762  0.808467  0.250117  1
  Y  Y5  1  0.807389  0.191661  0.749929  1
  Al  Al6  1  0.326777  0.656026  0.021036  1
  Al  Al7  1  0.672981  0.343768  0.979054  1
  Al  Al8  1  0.667734  0.332875  0.520060  1
  Al  Al9  1  0.332360  0.667168  0.479968  1
  Al  Al10  1  0.163169  0.326965  0.577630  1
  Al  Al11  1  0.836755  0.673086  0.422539  1
  Al  Al12  1  0.672969  0.836892  0.574760  1
  Al  Al13  1  0.837042  0.674870  0.078812  1
  Al  Al14  1  0.327064  0.163240  0.425476  1
  Al  Al15  1  0.162778  0.324982  0.920982  1
  Al  Al16  1  0.162783  0.836836  0.575266  1
  Al  Al17  1  0.322716  0.171677  0.079759  1
  Al  Al18  1  0.837301  0.163253  0.425046  1
  Al  Al19  1  0.677268  0.828364  0.920096  1
  Al  Al20  1  0.848986  0.171376  0.079560  1
  Al  Al21  1  0.151017  0.828515  0.920085  1
  Al  Al22  1  0.564894  0.128734  0.255910  1
  Al  Al23  1  0.435550  0.871633  0.744171  1
  Al  Al24  1  0.880505  0.440777  0.249461  1
  Al  Al25  1  0.119397  0.559123  0.750298  1
  Al  Al26  1  0.563228  0.439297  0.249640  1
  Al  Al27  1  0.436764  0.560783  0.750386  1
  Al  Al28  1  0.000016  0.999189  0.250389  1
  Al  Al29  1  0.000064  0.000737  0.749632  1
  Os  Os30  1  0.500097  0.000136  0.500055  1
  Os  Os31  1  0.500029  0.499910  0.999930  1
  Os  Os32  1  0.500027  0.499970  0.500088  1
  Ru  Ru33  1  0.999773  0.499723  0.999646  1
  Ru  Ru34  1  0.000016  0.500029  0.499960  1
  Ru  Ru35  1  0.999978  0.999932  0.999971  1
  Ru  Ru36  1  0.999982  0.000059  0.500186  1
  Au  Au37  1  0.499897  0.999870  0.000045  1
