# generated using pymatgen
data_La3Nd2Sn10Ir3Rh
_symmetry_space_group_name_H-M   'P 1'
_cell_length_a   14.23470159
_cell_length_b   14.24218059
_cell_length_c   4.70044000
_cell_angle_alpha   90.00000000
_cell_angle_beta   90.00000000
_cell_angle_gamma   90.05415930
_symmetry_Int_Tables_number   1
_chemical_formula_structural   La3Nd2Sn10Ir3Rh
_chemical_formula_sum   'La6 Nd4 Sn20 Ir6 Rh2'
_cell_volume   952.93477315
_cell_formula_units_Z   2
loop_
 _symmetry_equiv_pos_site_id
 _symmetry_equiv_pos_as_xyz
  1  'x, y, z'
loop_
 _atom_site_type_symbol
 _atom_site_label
 _atom_site_symmetry_multiplicity
 _atom_site_fract_x
 _atom_site_fract_y
 _atom_site_fract_z
 _atom_site_occupancy
  La  La0  1  0.500000  0.500000  0.000000  1
  La  La1  1  0.000000  0.000000  0.000000  1
  La  La2  1  0.887915  0.386707  0.500000  1
  La  La3  1  0.112085  0.613293  0.500000  1
  La  La4  1  0.387226  0.112725  0.500000  1
  La  La5  1  0.612774  0.887275  0.500000  1
  Nd  Nd6  1  0.677143  0.176967  0.500000  1
  Nd  Nd7  1  0.322857  0.823033  0.500000  1
  Nd  Nd8  1  0.176255  0.322242  0.500000  1
  Nd  Nd9  1  0.823745  0.677758  0.500000  1
  Sn  Sn10  1  0.569813  0.069802  0.000000  1
  Sn  Sn11  1  0.430187  0.930198  0.000000  1
  Sn  Sn12  1  0.070293  0.430796  0.000000  1
  Sn  Sn13  1  0.929707  0.569204  0.000000  1
  Sn  Sn14  1  0.654823  0.697906  0.000000  1
  Sn  Sn15  1  0.345177  0.302094  0.000000  1
  Sn  Sn16  1  0.154885  0.801449  0.000000  1
  Sn  Sn17  1  0.845115  0.198551  0.000000  1
  Sn  Sn18  1  0.302096  0.653968  0.000000  1
  Sn  Sn19  1  0.697904  0.346032  0.000000  1
  Sn  Sn20  1  0.198295  0.154942  0.000000  1
  Sn  Sn21  1  0.801705  0.845058  0.000000  1
  Sn  Sn22  1  0.664842  0.505093  0.500000  1
  Sn  Sn23  1  0.335158  0.494907  0.500000  1
  Sn  Sn24  1  0.163503  0.994522  0.500000  1
  Sn  Sn25  1  0.836497  0.005478  0.500000  1
  Sn  Sn26  1  0.494400  0.663496  0.500000  1
  Sn  Sn27  1  0.505600  0.336504  0.500000  1
  Sn  Sn28  1  0.005441  0.163428  0.500000  1
  Sn  Sn29  1  0.994559  0.836572  0.500000  1
  Ir  Ir30  1  0.246735  0.971715  0.000000  1
  Ir  Ir31  1  0.753265  0.028285  0.000000  1
  Ir  Ir32  1  0.471620  0.746745  0.000000  1
  Ir  Ir33  1  0.528380  0.253255  0.000000  1
  Ir  Ir34  1  0.028706  0.246502  0.000000  1
  Ir  Ir35  1  0.971294  0.753498  0.000000  1
  Rh  Rh36  1  0.745389  0.528245  0.000000  1
  Rh  Rh37  1  0.254611  0.471755  0.000000  1
