# generated using pymatgen
data_Zr5Nb(AlCo2)6
_symmetry_space_group_name_H-M   'P 1'
_cell_length_a   4.28092200
_cell_length_b   6.05562300
_cell_length_c   12.88672500
_cell_angle_alpha   90.00000000
_cell_angle_beta   89.99930522
_cell_angle_gamma   90.00000000
_symmetry_Int_Tables_number   1
_chemical_formula_structural   Zr5Nb(AlCo2)6
_chemical_formula_sum   'Zr5 Nb1 Al6 Co12'
_cell_volume   334.07094498
_cell_formula_units_Z   1
loop_
 _symmetry_equiv_pos_site_id
 _symmetry_equiv_pos_as_xyz
  1  'x, y, z'
loop_
 _atom_site_type_symbol
 _atom_site_label
 _atom_site_symmetry_multiplicity
 _atom_site_fract_x
 _atom_site_fract_y
 _atom_site_fract_z
 _atom_site_occupancy
  Zr  Zr0  1  0.999994  0.000000  0.998620  1
  Zr  Zr1  1  0.500132  0.500000  0.165659  1
  Zr  Zr2  1  0.000107  0.000000  0.333335  1
  Zr  Zr3  1  0.499996  0.500000  0.501017  1
  Zr  Zr4  1  0.999893  0.000000  0.668046  1
  Nb  Nb5  1  0.499874  0.500000  0.833320  1
  Al  Al6  1  0.000005  0.500000  0.998852  1
  Al  Al7  1  0.500099  0.000000  0.165104  1
  Al  Al8  1  0.000139  0.500000  0.333340  1
  Al  Al9  1  0.499998  0.000000  0.501600  1
  Al  Al10  1  0.999863  0.500000  0.667818  1
  Al  Al11  1  0.499891  0.000000  0.833303  1
  Co  Co12  1  0.499994  0.255382  0.995035  1
  Co  Co13  1  0.499994  0.744617  0.995035  1
  Co  Co14  1  0.000150  0.249017  0.165538  1
  Co  Co15  1  0.000150  0.750983  0.165538  1
  Co  Co16  1  0.500131  0.251102  0.333345  1
  Co  Co17  1  0.500131  0.748897  0.333345  1
  Co  Co18  1  0.999999  0.249027  0.501142  1
  Co  Co19  1  0.999999  0.750972  0.501142  1
  Co  Co20  1  0.499869  0.255349  0.671609  1
  Co  Co21  1  0.499869  0.744650  0.671609  1
  Co  Co22  1  0.999859  0.261581  0.833325  1
  Co  Co23  1  0.999859  0.738419  0.833325  1
