# generated using pymatgen
data_TbSmMnFe11P7
_symmetry_space_group_name_H-M   'P 1'
_cell_length_a   9.01741302
_cell_length_b   9.01082691
_cell_length_c   3.64662300
_cell_angle_alpha   90.00000000
_cell_angle_beta   90.00000000
_cell_angle_gamma   120.04518099
_symmetry_Int_Tables_number   1
_chemical_formula_structural   TbSmMnFe11P7
_chemical_formula_sum   'Tb1 Sm1 Mn1 Fe11 P7'
_cell_volume   256.48986268
_cell_formula_units_Z   1
loop_
 _symmetry_equiv_pos_site_id
 _symmetry_equiv_pos_as_xyz
  1  'x, y, z'
loop_
 _atom_site_type_symbol
 _atom_site_label
 _atom_site_symmetry_multiplicity
 _atom_site_fract_x
 _atom_site_fract_y
 _atom_site_fract_z
 _atom_site_occupancy
  Tb  Tb0  1  0.665107  0.332104  0.000000  1
  Sm  Sm1  1  0.332275  0.666857  0.500000  1
  Mn  Mn2  1  0.887148  0.785474  0.000000  1
  Fe  Fe3  1  0.425248  0.057315  0.500000  1
  Fe  Fe4  1  0.942334  0.366916  0.500000  1
  Fe  Fe5  1  0.631732  0.574305  0.500000  1
  Fe  Fe6  1  0.154170  0.274293  0.500000  1
  Fe  Fe7  1  0.729771  0.881766  0.500000  1
  Fe  Fe8  1  0.119081  0.848281  0.500000  1
  Fe  Fe9  1  0.383264  0.432584  0.000000  1
  Fe  Fe10  1  0.567172  0.951523  0.000000  1
  Fe  Fe11  1  0.046915  0.614266  0.000000  1
  Fe  Fe12  1  0.217868  0.099618  0.000000  1
  Fe  Fe13  1  0.901838  0.115125  0.000000  1
  P  P14  1  0.108478  0.397282  0.000000  1
  P  P15  1  0.596217  0.709319  0.000000  1
  P  P16  1  0.288873  0.891814  0.000000  1
  P  P17  1  0.003488  0.004853  0.500000  1
  P  P18  1  0.410352  0.300343  0.500000  1
  P  P19  1  0.698927  0.108852  0.500000  1
  P  P20  1  0.889741  0.587108  0.500000  1
