# generated using pymatgen
data_Tb(Ho2Zn)4
_symmetry_space_group_name_H-M   'P 1'
_cell_length_a   8.54125058
_cell_length_b   8.54125021
_cell_length_c   8.53816332
_cell_angle_alpha   94.90738235
_cell_angle_beta   95.02932010
_cell_angle_gamma   145.77668628
_symmetry_Int_Tables_number   1
_chemical_formula_structural   Tb(Ho2Zn)4
_chemical_formula_sum   'Tb1 Ho8 Zn4'
_cell_volume   334.80312513
_cell_formula_units_Z   1
loop_
 _symmetry_equiv_pos_site_id
 _symmetry_equiv_pos_as_xyz
  1  'x, y, z'
loop_
 _atom_site_type_symbol
 _atom_site_label
 _atom_site_symmetry_multiplicity
 _atom_site_fract_x
 _atom_site_fract_y
 _atom_site_fract_z
 _atom_site_occupancy
  Tb  Tb0  1  0.182191  0.888377  0.070569  1
  Ho  Ho1  1  0.499782  0.500204  0.999988  1
  Ho  Ho2  1  0.111481  0.182388  0.293869  1
  Ho  Ho3  1  0.882842  0.401711  0.284555  1
  Ho  Ho4  1  0.598306  0.882691  0.480999  1
  Ho  Ho5  1  0.401852  0.117598  0.519449  1
  Ho  Ho6  1  0.117385  0.597961  0.715346  1
  Ho  Ho7  1  0.888248  0.817934  0.706184  1
  Ho  Ho8  1  0.817846  0.111513  0.929359  1
  Zn  Zn9  1  0.392658  0.735128  0.127788  1
  Zn  Zn10  1  0.735361  0.607688  0.343052  1
  Zn  Zn11  1  0.264598  0.392433  0.657029  1
  Zn  Zn12  1  0.607444  0.264367  0.871811  1
