# generated using pymatgen
data_Hf20Be2GaSb9
_symmetry_space_group_name_H-M   'P 1'
_cell_length_a   5.53044600
_cell_length_b   8.28212812
_cell_length_c   15.57592700
_cell_angle_alpha   90.00000000
_cell_angle_beta   90.00000000
_cell_angle_gamma   109.50434343
_symmetry_Int_Tables_number   1
_chemical_formula_structural   Hf20Be2GaSb9
_chemical_formula_sum   'Hf20 Be2 Ga1 Sb9'
_cell_volume   672.49784279
_cell_formula_units_Z   1
loop_
 _symmetry_equiv_pos_site_id
 _symmetry_equiv_pos_as_xyz
  1  'x, y, z'
loop_
 _atom_site_type_symbol
 _atom_site_label
 _atom_site_symmetry_multiplicity
 _atom_site_fract_x
 _atom_site_fract_y
 _atom_site_fract_z
 _atom_site_occupancy
  Hf  Hf0  1  0.426606  0.862812  0.359005  1
  Hf  Hf1  1  0.918499  0.861515  0.853672  1
  Hf  Hf2  1  0.056983  0.138485  0.146328  1
  Hf  Hf3  1  0.563795  0.137188  0.640995  1
  Hf  Hf4  1  0.656897  0.290824  0.070614  1
  Hf  Hf5  1  0.147700  0.283372  0.566692  1
  Hf  Hf6  1  0.864328  0.716628  0.433308  1
  Hf  Hf7  1  0.366074  0.709176  0.929386  1
  Hf  Hf8  1  0.843103  0.709176  0.070614  1
  Hf  Hf9  1  0.352300  0.716628  0.566692  1
  Hf  Hf10  1  0.635672  0.283372  0.433308  1
  Hf  Hf11  1  0.133926  0.290824  0.929386  1
  Hf  Hf12  1  0.073394  0.137188  0.359005  1
  Hf  Hf13  1  0.581501  0.138485  0.853672  1
  Hf  Hf14  1  0.443017  0.861515  0.146328  1
  Hf  Hf15  1  0.936205  0.862812  0.640995  1
  Hf  Hf16  1  0.500993  0.500878  0.250333  1
  Hf  Hf17  1  0.000116  0.499122  0.749667  1
  Hf  Hf18  1  0.999007  0.499122  0.250333  1
  Hf  Hf19  1  0.499884  0.500878  0.749667  1
  Be  Be20  1  0.750000  0.000000  0.000000  1
  Be  Be21  1  0.250000  0.000000  0.500000  1
  Ga  Ga22  1  0.750000  0.000000  0.500000  1
  Sb  Sb23  1  0.916704  0.828161  0.252180  1
  Sb  Sb24  1  0.411457  0.828161  0.747820  1
  Sb  Sb25  1  0.583296  0.171839  0.252180  1
  Sb  Sb26  1  0.088543  0.171839  0.747820  1
  Sb  Sb27  1  0.250000  0.500000  0.085599  1
  Sb  Sb28  1  0.750000  0.500000  0.585545  1
  Sb  Sb29  1  0.250000  0.500000  0.414455  1
  Sb  Sb30  1  0.750000  0.500000  0.914401  1
  Sb  Sb31  1  0.250000  0.000000  0.000000  1
