# generated using pymatgen
data_Ca7Pr8Dy5Sn16
_symmetry_space_group_name_H-M   'P 1'
_cell_length_a   8.01675150
_cell_length_b   8.46462760
_cell_length_c   15.93559024
_cell_angle_alpha   89.97462681
_cell_angle_beta   90.06820772
_cell_angle_gamma   89.91946279
_symmetry_Int_Tables_number   1
_chemical_formula_structural   Ca7Pr8Dy5Sn16
_chemical_formula_sum   'Ca7 Pr8 Dy5 Sn16'
_cell_volume   1081.36834457
_cell_formula_units_Z   1
loop_
 _symmetry_equiv_pos_site_id
 _symmetry_equiv_pos_as_xyz
  1  'x, y, z'
loop_
 _atom_site_type_symbol
 _atom_site_label
 _atom_site_symmetry_multiplicity
 _atom_site_fract_x
 _atom_site_fract_y
 _atom_site_fract_z
 _atom_site_occupancy
  Ca  Ca0  1  0.330423  0.829832  0.878141  1
  Ca  Ca1  1  0.831761  0.670106  0.622688  1
  Ca  Ca2  1  0.670038  0.168783  0.376631  1
  Ca  Ca3  1  0.163346  0.500612  0.749865  1
  Ca  Ca4  1  0.662592  0.000811  0.750694  1
  Ca  Ca5  1  0.835459  0.499783  0.250197  1
  Ca  Ca6  1  0.336974  0.997122  0.250966  1
  Pr  Pr7  1  0.491816  0.317446  0.905778  1
  Pr  Pr8  1  0.991818  0.184306  0.595251  1
  Pr  Pr9  1  0.508832  0.682176  0.404230  1
  Pr  Pr10  1  0.007145  0.817731  0.094629  1
  Pr  Pr11  1  0.506974  0.681998  0.095573  1
  Pr  Pr12  1  0.006024  0.818052  0.404011  1
  Pr  Pr13  1  0.493439  0.317783  0.594899  1
  Pr  Pr14  1  0.991980  0.183559  0.904284  1
  Dy  Dy15  1  0.167174  0.328091  0.124158  1
  Dy  Dy16  1  0.667710  0.170966  0.124247  1
  Dy  Dy17  1  0.167424  0.328023  0.374812  1
  Dy  Dy18  1  0.333818  0.828205  0.624495  1
  Dy  Dy19  1  0.833113  0.673498  0.875831  1
  Sn  Sn20  1  0.329030  0.039053  0.041053  1
  Sn  Sn21  1  0.834516  0.463343  0.459736  1
  Sn  Sn22  1  0.666775  0.964146  0.540883  1
  Sn  Sn23  1  0.168680  0.534940  0.962151  1
  Sn  Sn24  1  0.677134  0.961785  0.963522  1
  Sn  Sn25  1  0.178316  0.539408  0.536250  1
  Sn  Sn26  1  0.322886  0.038234  0.463280  1
  Sn  Sn27  1  0.825531  0.460087  0.037770  1
  Sn  Sn28  1  0.533503  0.610638  0.751306  1
  Sn  Sn29  1  0.033031  0.891245  0.748238  1
  Sn  Sn30  1  0.466416  0.388883  0.248684  1
  Sn  Sn31  1  0.969463  0.113650  0.247787  1
  Sn  Sn32  1  0.289040  0.138472  0.748727  1
  Sn  Sn33  1  0.789069  0.362454  0.751624  1
  Sn  Sn34  1  0.710461  0.860718  0.248144  1
  Sn  Sn35  1  0.208293  0.634063  0.249463  1
