# generated using pymatgen
data_HoTm11Co4BiIr
_symmetry_space_group_name_H-M   'P 1'
_cell_length_a   8.22159204
_cell_length_b   8.22159226
_cell_length_c   8.21931017
_cell_angle_alpha   110.80745616
_cell_angle_beta   111.33122589
_cell_angle_gamma   106.33254789
_symmetry_Int_Tables_number   1
_chemical_formula_structural   HoTm11Co4BiIr
_chemical_formula_sum   'Ho1 Tm11 Co4 Bi1 Ir1'
_cell_volume   426.65454266
_cell_formula_units_Z   1
loop_
 _symmetry_equiv_pos_site_id
 _symmetry_equiv_pos_as_xyz
  1  'x, y, z'
loop_
 _atom_site_type_symbol
 _atom_site_label
 _atom_site_symmetry_multiplicity
 _atom_site_fract_x
 _atom_site_fract_y
 _atom_site_fract_z
 _atom_site_occupancy
  Ho  Ho0  1  0.284118  0.182692  0.466809  1
  Tm  Tm1  1  0.716057  0.817707  0.533764  1
  Tm  Tm2  1  0.283936  0.817270  0.101205  1
  Tm  Tm3  1  0.716145  0.182443  0.898589  1
  Tm  Tm4  1  0.620667  0.311525  0.308933  1
  Tm  Tm5  1  0.379566  0.688843  0.691045  1
  Tm  Tm6  1  0.002203  0.311479  0.691045  1
  Tm  Tm7  1  0.997406  0.688266  0.308933  1
  Tm  Tm8  1  0.213262  0.411773  0.197952  1
  Tm  Tm9  1  0.786866  0.588562  0.801949  1
  Tm  Tm10  1  0.213389  0.015083  0.801949  1
  Tm  Tm11  1  0.786177  0.984690  0.197952  1
  Co  Co12  1  0.999918  0.376553  0.376471  1
  Co  Co13  1  0.999957  0.623562  0.623518  1
  Co  Co14  1  0.388898  0.888416  0.500126  1
  Co  Co15  1  0.611710  0.111228  0.500126  1
  Bi  Bi16  1  0.499997  0.500011  0.000008  1
  Ir  Ir17  1  0.999725  0.999899  0.999624  1
