# generated using pymatgen
data_Y4MgCo2Sb
_symmetry_space_group_name_H-M   'P 1'
_cell_length_a   8.88570098
_cell_length_b   8.88570053
_cell_length_c   8.88570092
_cell_angle_alpha   131.55148991
_cell_angle_beta   131.55148588
_cell_angle_gamma   70.93833653
_symmetry_Int_Tables_number   1
_chemical_formula_structural   Y4MgCo2Sb
_chemical_formula_sum   'Y8 Mg2 Co4 Sb2'
_cell_volume   384.77785562
_cell_formula_units_Z   2
loop_
 _symmetry_equiv_pos_site_id
 _symmetry_equiv_pos_as_xyz
  1  'x, y, z'
loop_
 _atom_site_type_symbol
 _atom_site_label
 _atom_site_symmetry_multiplicity
 _atom_site_fract_x
 _atom_site_fract_y
 _atom_site_fract_z
 _atom_site_occupancy
  Y  Y0  1  0.807095  0.307095  0.861509  1
  Y  Y1  1  0.192905  0.692905  0.138491  1
  Y  Y2  1  0.445586  0.945586  0.138491  1
  Y  Y3  1  0.307095  0.445586  0.500000  1
  Y  Y4  1  0.054414  0.192905  0.500000  1
  Y  Y5  1  0.554414  0.054414  0.861509  1
  Y  Y6  1  0.692905  0.554414  0.500000  1
  Y  Y7  1  0.945586  0.807095  0.500000  1
  Mg  Mg8  1  0.000000  0.000000  0.000000  1
  Mg  Mg9  1  0.500000  0.500000  0.000000  1
  Co  Co10  1  0.108010  0.608010  0.716020  1
  Co  Co11  1  0.891990  0.391990  0.283980  1
  Co  Co12  1  0.608010  0.891990  0.500000  1
  Co  Co13  1  0.391990  0.108010  0.500000  1
  Sb  Sb14  1  0.250000  0.250000  0.000000  1
  Sb  Sb15  1  0.750000  0.750000  0.000000  1
