# generated using pymatgen
data_Ho3Lu2InGa2
_symmetry_space_group_name_H-M   'P 1'
_cell_length_a   7.67621029
_cell_length_b   7.67788000
_cell_length_c   14.22407500
_cell_angle_alpha   89.92061445
_cell_angle_beta   90.09826454
_cell_angle_gamma   89.93721287
_symmetry_Int_Tables_number   1
_chemical_formula_structural   Ho3Lu2InGa2
_chemical_formula_sum   'Ho12 Lu8 In4 Ga8'
_cell_volume   838.32207031
_cell_formula_units_Z   4
loop_
 _symmetry_equiv_pos_site_id
 _symmetry_equiv_pos_as_xyz
  1  'x, y, z'
loop_
 _atom_site_type_symbol
 _atom_site_label
 _atom_site_symmetry_multiplicity
 _atom_site_fract_x
 _atom_site_fract_y
 _atom_site_fract_z
 _atom_site_occupancy
  Ho  Ho0  1  0.328392  0.337774  0.606274  1
  Ho  Ho1  1  0.328379  0.662350  0.106314  1
  Ho  Ho2  1  0.171633  0.162263  0.393894  1
  Ho  Ho3  1  0.828264  0.162172  0.893783  1
  Ho  Ho4  1  0.662382  0.327656  0.393615  1
  Ho  Ho5  1  0.337832  0.327273  0.893557  1
  Ho  Ho6  1  0.161732  0.828119  0.606347  1
  Ho  Ho7  1  0.838001  0.827815  0.106576  1
  Ho  Ho8  1  0.338439  0.671552  0.393361  1
  Ho  Ho9  1  0.661811  0.671546  0.893296  1
  Ho  Ho10  1  0.837719  0.172216  0.606629  1
  Ho  Ho11  1  0.161869  0.172052  0.106639  1
  Lu  Lu12  1  0.000170  0.500858  0.756753  1
  Lu  Lu13  1  0.999482  0.500217  0.257029  1
  Lu  Lu14  1  0.500052  0.999898  0.243205  1
  Lu  Lu15  1  0.500366  0.999633  0.742972  1
  Lu  Lu16  1  0.671556  0.661604  0.607043  1
  Lu  Lu17  1  0.671847  0.338597  0.107142  1
  Lu  Lu18  1  0.828530  0.838512  0.392861  1
  Lu  Lu19  1  0.171600  0.838532  0.892767  1
  In  In20  1  0.997837  0.502359  0.496128  1
  In  In21  1  0.999365  0.500893  0.996085  1
  In  In22  1  0.502361  0.997347  0.503857  1
  In  In23  1  0.500168  0.999391  0.003922  1
  Ga  Ga24  1  0.874425  0.873883  0.750192  1
  Ga  Ga25  1  0.873226  0.125805  0.250318  1
  Ga  Ga26  1  0.626612  0.625580  0.249729  1
  Ga  Ga27  1  0.374325  0.626150  0.749711  1
  Ga  Ga28  1  0.126051  0.125336  0.750262  1
  Ga  Ga29  1  0.125116  0.873992  0.250461  1
  Ga  Ga30  1  0.374707  0.373765  0.249644  1
  Ga  Ga31  1  0.625749  0.374862  0.749635  1
