# generated using pymatgen
data_HfIr5RhW
_symmetry_space_group_name_H-M   'P 1'
_cell_length_a   5.59436400
_cell_length_b   5.58122346
_cell_length_c   4.48488800
_cell_angle_alpha   90.00000000
_cell_angle_beta   90.00000000
_cell_angle_gamma   120.07791414
_symmetry_Int_Tables_number   1
_chemical_formula_structural   HfIr5RhW
_chemical_formula_sum   'Hf1 Ir5 Rh1 W1'
_cell_volume   121.17718489
_cell_formula_units_Z   1
loop_
 _symmetry_equiv_pos_site_id
 _symmetry_equiv_pos_as_xyz
  1  'x, y, z'
loop_
 _atom_site_type_symbol
 _atom_site_label
 _atom_site_symmetry_multiplicity
 _atom_site_fract_x
 _atom_site_fract_y
 _atom_site_fract_z
 _atom_site_occupancy
  Hf  Hf0  1  0.332948  0.665896  0.250000  1
  Ir  Ir1  1  0.833306  0.666611  0.250000  1
  Ir  Ir2  1  0.161777  0.839181  0.750000  1
  Ir  Ir3  1  0.677403  0.839181  0.750000  1
  Ir  Ir4  1  0.332718  0.166031  0.250000  1
  Ir  Ir5  1  0.833314  0.166031  0.250000  1
  Rh  Rh6  1  0.162642  0.325286  0.750000  1
  W  W7  1  0.665893  0.331784  0.750000  1
