# generated using pymatgen
data_Ho8AlPd5Pt19
_symmetry_space_group_name_H-M   'P 1'
_cell_length_a   8.33799560
_cell_length_b   8.32837000
_cell_length_c   8.35211560
_cell_angle_alpha   90.00000000
_cell_angle_beta   90.04333716
_cell_angle_gamma   90.00000000
_symmetry_Int_Tables_number   1
_chemical_formula_structural   Ho8AlPd5Pt19
_chemical_formula_sum   'Ho8 Al1 Pd5 Pt19'
_cell_volume   579.98671362
_cell_formula_units_Z   1
loop_
 _symmetry_equiv_pos_site_id
 _symmetry_equiv_pos_as_xyz
  1  'x, y, z'
loop_
 _atom_site_type_symbol
 _atom_site_label
 _atom_site_symmetry_multiplicity
 _atom_site_fract_x
 _atom_site_fract_y
 _atom_site_fract_z
 _atom_site_occupancy
  Ho  Ho0  1  0.250838  0.250391  0.251081  1
  Ho  Ho1  1  0.748304  0.747735  0.748285  1
  Ho  Ho2  1  0.749107  0.749083  0.251154  1
  Ho  Ho3  1  0.748304  0.252265  0.748285  1
  Ho  Ho4  1  0.251657  0.251588  0.748201  1
  Ho  Ho5  1  0.250838  0.749609  0.251081  1
  Ho  Ho6  1  0.251657  0.748412  0.748201  1
  Ho  Ho7  1  0.749107  0.250917  0.251154  1
  Al  Al8  1  0.000656  0.000000  0.004412  1
  Pd  Pd9  1  0.499746  0.000000  0.738378  1
  Pd  Pd10  1  0.739264  0.000000  0.500079  1
  Pd  Pd11  1  0.999940  0.500000  0.259949  1
  Pd  Pd12  1  0.999955  0.500000  0.738877  1
  Pd  Pd13  1  0.999495  0.000000  0.710716  1
  Pt  Pt14  1  0.260243  0.500000  0.999996  1
  Pt  Pt15  1  0.739923  0.500000  0.000046  1
  Pt  Pt16  1  0.000344  0.260981  0.500310  1
  Pt  Pt17  1  0.500072  0.260534  0.000223  1
  Pt  Pt18  1  0.000344  0.739019  0.500310  1
  Pt  Pt19  1  0.500072  0.739466  0.000223  1
  Pt  Pt20  1  0.500098  0.000000  0.260841  1
  Pt  Pt21  1  0.260643  0.000000  0.500336  1
  Pt  Pt22  1  0.252653  0.500000  0.499811  1
  Pt  Pt23  1  0.747221  0.500000  0.499754  1
  Pt  Pt24  1  0.499812  0.253230  0.499423  1
  Pt  Pt25  1  0.499812  0.746770  0.499423  1
  Pt  Pt26  1  0.499934  0.500000  0.253178  1
  Pt  Pt27  1  0.499858  0.500000  0.746626  1
  Pt  Pt28  1  0.291649  0.000000  0.997926  1
  Pt  Pt29  1  0.709035  0.000000  0.998272  1
  Pt  Pt30  1  0.000157  0.291826  0.998732  1
  Pt  Pt31  1  0.000157  0.708174  0.998732  1
  Pt  Pt32  1  0.999106  0.000000  0.295989  1
