# generated using pymatgen
data_Mg6Co16Si7
_symmetry_space_group_name_H-M   'P 1'
_cell_length_a   7.96287025
_cell_length_b   7.96287084
_cell_length_c   7.96287200
_cell_angle_alpha   60.00000347
_cell_angle_beta   60.00000105
_cell_angle_gamma   60.00000072
_symmetry_Int_Tables_number   1
_chemical_formula_structural   Mg6Co16Si7
_chemical_formula_sum   'Mg6 Co16 Si7'
_cell_volume   357.02124870
_cell_formula_units_Z   1
loop_
 _symmetry_equiv_pos_site_id
 _symmetry_equiv_pos_as_xyz
  1  'x, y, z'
loop_
 _atom_site_type_symbol
 _atom_site_label
 _atom_site_symmetry_multiplicity
 _atom_site_fract_x
 _atom_site_fract_y
 _atom_site_fract_z
 _atom_site_occupancy
  Mg  Mg0  1  0.204391  0.204391  0.795609  1
  Mg  Mg1  1  0.204391  0.795609  0.795609  1
  Mg  Mg2  1  0.795609  0.204391  0.204391  1
  Mg  Mg3  1  0.204391  0.795609  0.204391  1
  Mg  Mg4  1  0.795609  0.204391  0.795609  1
  Mg  Mg5  1  0.795609  0.795609  0.204391  1
  Co  Co6  1  0.825550  0.523351  0.825550  1
  Co  Co7  1  0.174450  0.174450  0.476649  1
  Co  Co8  1  0.476649  0.174450  0.174450  1
  Co  Co9  1  0.174450  0.174450  0.174450  1
  Co  Co10  1  0.523351  0.825550  0.825550  1
  Co  Co11  1  0.825550  0.825550  0.825550  1
  Co  Co12  1  0.825550  0.825550  0.523351  1
  Co  Co13  1  0.174450  0.476649  0.174450  1
  Co  Co14  1  0.617716  0.146851  0.617716  1
  Co  Co15  1  0.382284  0.382284  0.853149  1
  Co  Co16  1  0.853149  0.382284  0.382284  1
  Co  Co17  1  0.382284  0.382284  0.382284  1
  Co  Co18  1  0.146851  0.617716  0.617716  1
  Co  Co19  1  0.617716  0.617716  0.617716  1
  Co  Co20  1  0.617716  0.617716  0.146851  1
  Co  Co21  1  0.382284  0.853149  0.382284  1
  Si  Si22  1  0.500000  0.500000  0.500000  1
  Si  Si23  1  0.500000  0.500000  0.000000  1
  Si  Si24  1  0.000000  0.500000  0.500000  1
  Si  Si25  1  0.500000  0.000000  0.000000  1
  Si  Si26  1  0.000000  0.000000  0.500000  1
  Si  Si27  1  0.000000  0.500000  0.000000  1
  Si  Si28  1  0.500000  0.000000  0.500000  1
