# generated using pymatgen
data_Pr8Y12Sn13Sb3
_symmetry_space_group_name_H-M   'P 1'
_cell_length_a   8.24286575
_cell_length_b   8.32107584
_cell_length_c   15.70353500
_cell_angle_alpha   90.03008328
_cell_angle_beta   89.72819583
_cell_angle_gamma   90.06100405
_symmetry_Int_Tables_number   1
_chemical_formula_structural   Pr8Y12Sn13Sb3
_chemical_formula_sum   'Pr8 Y12 Sn13 Sb3'
_cell_volume   1077.08491172
_cell_formula_units_Z   1
loop_
 _symmetry_equiv_pos_site_id
 _symmetry_equiv_pos_as_xyz
  1  'x, y, z'
loop_
 _atom_site_type_symbol
 _atom_site_label
 _atom_site_symmetry_multiplicity
 _atom_site_fract_x
 _atom_site_fract_y
 _atom_site_fract_z
 _atom_site_occupancy
  Pr  Pr0  1  0.518623  0.323516  0.901815  1
  Pr  Pr1  1  0.023315  0.176584  0.600012  1
  Pr  Pr2  1  0.476551  0.676346  0.400258  1
  Pr  Pr3  1  0.979597  0.822918  0.098839  1
  Pr  Pr4  1  0.482058  0.677990  0.097177  1
  Pr  Pr5  1  0.980726  0.822152  0.401159  1
  Pr  Pr6  1  0.518754  0.321101  0.598804  1
  Pr  Pr7  1  0.016731  0.179631  0.901814  1
  Y  Y8  1  0.363419  0.836745  0.878036  1
  Y  Y9  1  0.866333  0.662386  0.621950  1
  Y  Y10  1  0.634458  0.161946  0.377629  1
  Y  Y11  1  0.136739  0.337267  0.123022  1
  Y  Y12  1  0.639295  0.162287  0.122253  1
  Y  Y13  1  0.137462  0.337837  0.377682  1
  Y  Y14  1  0.362838  0.837671  0.622062  1
  Y  Y15  1  0.862254  0.663129  0.876414  1
  Y  Y16  1  0.194847  0.501558  0.750276  1
  Y  Y17  1  0.693909  0.998245  0.752179  1
  Y  Y18  1  0.805298  0.498831  0.249094  1
  Y  Y19  1  0.305751  0.001972  0.250622  1
  Sn  Sn20  1  0.199759  0.539350  0.957690  1
  Sn  Sn21  1  0.704490  0.960206  0.957394  1
  Sn  Sn22  1  0.206057  0.537921  0.543519  1
  Sn  Sn23  1  0.294217  0.038376  0.456751  1
  Sn  Sn24  1  0.800680  0.460877  0.042214  1
  Sn  Sn25  1  0.561830  0.625504  0.748085  1
  Sn  Sn26  1  0.062159  0.876138  0.750153  1
  Sn  Sn27  1  0.439173  0.374873  0.249127  1
  Sn  Sn28  1  0.938204  0.124984  0.251096  1
  Sn  Sn29  1  0.327144  0.142422  0.751021  1
  Sn  Sn30  1  0.825969  0.357490  0.749467  1
  Sn  Sn31  1  0.672105  0.856527  0.250000  1
  Sn  Sn32  1  0.172384  0.643001  0.249207  1
  Sb  Sb33  1  0.296533  0.039877  0.043406  1
  Sb  Sb34  1  0.794039  0.461266  0.456289  1
  Sb  Sb35  1  0.706299  0.961075  0.543486  1
