# generated using pymatgen
data_LiYb2Pd3
_symmetry_space_group_name_H-M   'P 1'
_cell_length_a   5.60206300
_cell_length_b   5.60206336
_cell_length_c   8.12997300
_cell_angle_alpha   90.00000000
_cell_angle_beta   90.00000000
_cell_angle_gamma   120.00000377
_symmetry_Int_Tables_number   1
_chemical_formula_structural   LiYb2Pd3
_chemical_formula_sum   'Li2 Yb4 Pd6'
_cell_volume   220.96104926
_cell_formula_units_Z   2
loop_
 _symmetry_equiv_pos_site_id
 _symmetry_equiv_pos_as_xyz
  1  'x, y, z'
loop_
 _atom_site_type_symbol
 _atom_site_label
 _atom_site_symmetry_multiplicity
 _atom_site_fract_x
 _atom_site_fract_y
 _atom_site_fract_z
 _atom_site_occupancy
  Li  Li0  1  0.000000  0.000000  0.000000  1
  Li  Li1  1  0.000000  0.000000  0.500000  1
  Yb  Yb2  1  0.333333  0.666666  0.062387  1
  Yb  Yb3  1  0.333333  0.666666  0.437613  1
  Yb  Yb4  1  0.666666  0.333333  0.562387  1
  Yb  Yb5  1  0.666666  0.333333  0.937613  1
  Pd  Pd6  1  0.336581  0.168291  0.250000  1
  Pd  Pd7  1  0.831709  0.168291  0.250000  1
  Pd  Pd8  1  0.831708  0.663418  0.250000  1
  Pd  Pd9  1  0.168291  0.336581  0.750000  1
  Pd  Pd10  1  0.168291  0.831709  0.750000  1
  Pd  Pd11  1  0.663419  0.831709  0.750000  1
