# generated using pymatgen
data_Pr3Zr4NpF28
_symmetry_space_group_name_H-M   'P 1'
_cell_length_a   5.92681925
_cell_length_b   9.43106769
_cell_length_c   12.63644319
_cell_angle_alpha   61.90997898
_cell_angle_beta   89.99372312
_cell_angle_gamma   90.00618819
_symmetry_Int_Tables_number   1
_chemical_formula_structural   Pr3Zr4NpF28
_chemical_formula_sum   'Pr3 Zr4 Np1 F28'
_cell_volume   623.13021796
_cell_formula_units_Z   1
loop_
 _symmetry_equiv_pos_site_id
 _symmetry_equiv_pos_as_xyz
  1  'x, y, z'
loop_
 _atom_site_type_symbol
 _atom_site_label
 _atom_site_symmetry_multiplicity
 _atom_site_fract_x
 _atom_site_fract_y
 _atom_site_fract_z
 _atom_site_occupancy
  Pr  Pr0  1  0.743153  0.812548  0.267053  1
  Pr  Pr1  1  0.242955  0.187225  0.233277  1
  Pr  Pr2  1  0.255957  0.189917  0.733071  1
  Zr  Zr3  1  0.745128  0.273644  0.455098  1
  Zr  Zr4  1  0.245699  0.725739  0.045057  1
  Zr  Zr5  1  0.254941  0.726752  0.544809  1
  Zr  Zr6  1  0.754796  0.274712  0.955535  1
  Np  Np7  1  0.757694  0.814080  0.767397  1
  F  F8  1  0.458183  0.710618  0.923521  1
  F  F9  1  0.960511  0.287261  0.576195  1
  F  F10  1  0.538065  0.287907  0.076023  1
  F  F11  1  0.037884  0.712653  0.424304  1
  F  F12  1  0.463887  0.282108  0.547394  1
  F  F13  1  0.962750  0.715941  0.953956  1
  F  F14  1  0.536221  0.717036  0.453040  1
  F  F15  1  0.036999  0.283310  0.046564  1
  F  F16  1  0.764807  0.519096  0.859863  1
  F  F17  1  0.265125  0.481226  0.639794  1
  F  F18  1  0.234274  0.480872  0.139499  1
  F  F19  1  0.734568  0.518400  0.360988  1
  F  F20  1  0.760625  0.030415  0.056584  1
  F  F21  1  0.260481  0.970796  0.443410  1
  F  F22  1  0.239863  0.969863  0.942850  1
  F  F23  1  0.740606  0.029278  0.556289  1
  F  F24  1  0.991160  0.733930  0.646071  1
  F  F25  1  0.491077  0.266021  0.854324  1
  F  F26  1  0.010995  0.266537  0.354999  1
  F  F27  1  0.511197  0.733100  0.145188  1
  F  F28  1  0.037550  0.744761  0.167930  1
  F  F29  1  0.539203  0.254608  0.331611  1
  F  F30  1  0.960300  0.255460  0.831411  1
  F  F31  1  0.464471  0.743692  0.667768  1
  F  F32  1  0.422570  0.970577  0.233690  1
  F  F33  1  0.923508  0.029541  0.265920  1
  F  F34  1  0.576804  0.028826  0.766080  1
  F  F35  1  0.075993  0.971547  0.733439  1
