# generated using pymatgen
data_K4P2S9
_symmetry_space_group_name_H-M   'P 1'
_cell_length_a   6.87003140
_cell_length_b   6.87003184
_cell_length_c   18.13139061
_cell_angle_alpha   86.99925850
_cell_angle_beta   86.99925603
_cell_angle_gamma   96.45268784
_symmetry_Int_Tables_number   1
_chemical_formula_structural   K4P2S9
_chemical_formula_sum   'K8 P4 S18'
_cell_volume   847.70274586
_cell_formula_units_Z   2
loop_
 _symmetry_equiv_pos_site_id
 _symmetry_equiv_pos_as_xyz
  1  'x, y, z'
loop_
 _atom_site_type_symbol
 _atom_site_label
 _atom_site_symmetry_multiplicity
 _atom_site_fract_x
 _atom_site_fract_y
 _atom_site_fract_z
 _atom_site_occupancy
  K  K0  1  0.721301  0.218068  0.473569  1
  K  K1  1  0.278699  0.781932  0.526431  1
  K  K2  1  0.781932  0.278699  0.026431  1
  K  K3  1  0.565245  0.759392  0.180491  1
  K  K4  1  0.240608  0.434755  0.319509  1
  K  K5  1  0.759392  0.565245  0.680491  1
  K  K6  1  0.218068  0.721301  0.973569  1
  K  K7  1  0.434755  0.240608  0.819509  1
  P  P8  1  0.729802  0.741008  0.382607  1
  P  P9  1  0.258992  0.270198  0.117393  1
  P  P10  1  0.741008  0.729802  0.882607  1
  P  P11  1  0.270198  0.258992  0.617393  1
  S  S12  1  0.135230  0.515878  0.138554  1
  S  S13  1  0.864770  0.484122  0.861446  1
  S  S14  1  0.501381  0.752381  0.825122  1
  S  S15  1  0.515878  0.135230  0.638554  1
  S  S16  1  0.752381  0.501381  0.325122  1
  S  S17  1  0.484122  0.864770  0.361446  1
  S  S18  1  0.247619  0.498619  0.674878  1
  S  S19  1  0.014765  0.039023  0.653386  1
  S  S20  1  0.279900  0.211553  0.009074  1
  S  S21  1  0.985235  0.960977  0.346614  1
  S  S22  1  0.788447  0.720100  0.490926  1
  S  S23  1  0.960977  0.985235  0.846614  1
  S  S24  1  0.498619  0.247619  0.174878  1
  S  S25  1  0.720100  0.788447  0.990926  1
  S  S26  1  0.039023  0.014765  0.153386  1
  S  S27  1  0.904026  0.095974  0.250000  1
  S  S28  1  0.211553  0.279900  0.509074  1
  S  S29  1  0.095974  0.904026  0.750000  1
