# generated using pymatgen
data_ErLu4CoSb2
_symmetry_space_group_name_H-M   'P 1'
_cell_length_a   7.68644900
_cell_length_b   8.67282400
_cell_length_c   11.93916600
_cell_angle_alpha   90.00000000
_cell_angle_beta   90.00000000
_cell_angle_gamma   90.00000000
_symmetry_Int_Tables_number   1
_chemical_formula_structural   ErLu4CoSb2
_chemical_formula_sum   'Er4 Lu16 Co4 Sb8'
_cell_volume   795.90324206
_cell_formula_units_Z   4
loop_
 _symmetry_equiv_pos_site_id
 _symmetry_equiv_pos_as_xyz
  1  'x, y, z'
loop_
 _atom_site_type_symbol
 _atom_site_label
 _atom_site_symmetry_multiplicity
 _atom_site_fract_x
 _atom_site_fract_y
 _atom_site_fract_z
 _atom_site_occupancy
  Er  Er0  1  0.622328  0.750000  0.308710  1
  Er  Er1  1  0.122328  0.250000  0.191290  1
  Er  Er2  1  0.377672  0.250000  0.691290  1
  Er  Er3  1  0.877672  0.750000  0.808710  1
  Lu  Lu4  1  0.157419  0.750000  0.204042  1
  Lu  Lu5  1  0.657419  0.250000  0.295958  1
  Lu  Lu6  1  0.842581  0.250000  0.795958  1
  Lu  Lu7  1  0.342581  0.750000  0.704042  1
  Lu  Lu8  1  0.448115  0.750000  0.997960  1
  Lu  Lu9  1  0.948115  0.250000  0.502040  1
  Lu  Lu10  1  0.551885  0.250000  0.002040  1
  Lu  Lu11  1  0.051885  0.750000  0.497960  1
  Lu  Lu12  1  0.824688  0.962129  0.065396  1
  Lu  Lu13  1  0.324688  0.037871  0.434604  1
  Lu  Lu14  1  0.175312  0.462129  0.934604  1
  Lu  Lu15  1  0.675312  0.537871  0.565396  1
  Lu  Lu16  1  0.175312  0.037871  0.934604  1
  Lu  Lu17  1  0.675312  0.962129  0.565396  1
  Lu  Lu18  1  0.824688  0.537871  0.065396  1
  Lu  Lu19  1  0.324688  0.462129  0.434604  1
  Co  Co20  1  0.430563  0.750000  0.491445  1
  Co  Co21  1  0.930563  0.250000  0.008555  1
  Co  Co22  1  0.569437  0.250000  0.508555  1
  Co  Co23  1  0.069437  0.750000  0.991445  1
  Sb  Sb24  1  0.932070  0.991485  0.328158  1
  Sb  Sb25  1  0.432070  0.008515  0.171842  1
  Sb  Sb26  1  0.067930  0.491485  0.671842  1
  Sb  Sb27  1  0.567930  0.508515  0.828158  1
  Sb  Sb28  1  0.067930  0.008515  0.671842  1
  Sb  Sb29  1  0.567930  0.991485  0.828158  1
  Sb  Sb30  1  0.932070  0.508515  0.328158  1
  Sb  Sb31  1  0.432070  0.491485  0.171842  1
