# generated using pymatgen
data_Ca4CdAgSn2
_symmetry_space_group_name_H-M   'P 1'
_cell_length_a   5.39668701
_cell_length_b   7.59254800
_cell_length_c   16.20382709
_cell_angle_alpha   90.00000000
_cell_angle_beta   89.99701822
_cell_angle_gamma   90.00000000
_symmetry_Int_Tables_number   1
_chemical_formula_structural   Ca4CdAgSn2
_chemical_formula_sum   'Ca12 Cd3 Ag3 Sn6'
_cell_volume   663.94541588
_cell_formula_units_Z   3
loop_
 _symmetry_equiv_pos_site_id
 _symmetry_equiv_pos_as_xyz
  1  'x, y, z'
loop_
 _atom_site_type_symbol
 _atom_site_label
 _atom_site_symmetry_multiplicity
 _atom_site_fract_x
 _atom_site_fract_y
 _atom_site_fract_z
 _atom_site_occupancy
  Ca  Ca0  1  0.499963  0.253767  0.996385  1
  Ca  Ca1  1  0.499963  0.746233  0.996385  1
  Ca  Ca2  1  0.999908  0.249629  0.166672  1
  Ca  Ca3  1  0.999908  0.750371  0.166672  1
  Ca  Ca4  1  0.499874  0.253774  0.336950  1
  Ca  Ca5  1  0.499874  0.746226  0.336950  1
  Ca  Ca6  1  0.999974  0.253855  0.503897  1
  Ca  Ca7  1  0.999974  0.746145  0.503897  1
  Ca  Ca8  1  0.500068  0.249524  0.666673  1
  Ca  Ca9  1  0.500068  0.750476  0.666673  1
  Ca  Ca10  1  0.000059  0.253841  0.829437  1
  Ca  Ca11  1  0.000059  0.746159  0.829437  1
  Cd  Cd12  1  0.999974  0.000000  0.996644  1
  Cd  Cd13  1  0.499862  0.500000  0.166661  1
  Cd  Cd14  1  0.999828  0.000000  0.336706  1
  Ag  Ag15  1  0.499980  0.500000  0.501975  1
  Ag  Ag16  1  0.000369  0.000000  0.666643  1
  Ag  Ag17  1  0.500237  0.500000  0.831407  1
  Sn  Sn18  1  0.000004  0.500000  0.000242  1
  Sn  Sn19  1  0.500008  0.000000  0.166656  1
  Sn  Sn20  1  0.000052  0.500000  0.333082  1
  Sn  Sn21  1  0.499980  0.000000  0.499153  1
  Sn  Sn22  1  0.000004  0.500000  0.666633  1
  Sn  Sn23  1  0.500008  0.000000  0.834170  1
