# generated using pymatgen
data_YbTh3Al17SiIr6
_symmetry_space_group_name_H-M   'P 1'
_cell_length_a   7.63336574
_cell_length_b   7.63597871
_cell_length_c   9.49439535
_cell_angle_alpha   90.03157099
_cell_angle_beta   89.87240426
_cell_angle_gamma   119.52508905
_symmetry_Int_Tables_number   1
_chemical_formula_structural   YbTh3Al17SiIr6
_chemical_formula_sum   'Yb1 Th3 Al17 Si1 Ir6'
_cell_volume   481.54408925
_cell_formula_units_Z   1
loop_
 _symmetry_equiv_pos_site_id
 _symmetry_equiv_pos_as_xyz
  1  'x, y, z'
loop_
 _atom_site_type_symbol
 _atom_site_label
 _atom_site_symmetry_multiplicity
 _atom_site_fract_x
 _atom_site_fract_y
 _atom_site_fract_z
 _atom_site_occupancy
  Yb  Yb0  1  0.327648  0.006284  0.749597  1
  Th  Th1  1  0.995808  0.667513  0.248123  1
  Th  Th2  1  0.002615  0.328658  0.754366  1
  Th  Th3  1  0.673765  0.998718  0.248114  1
  Al  Al4  1  0.137252  0.133212  0.250030  1
  Al  Al5  1  0.868799  0.870422  0.749102  1
  Al  Al6  1  0.000682  0.675607  0.919631  1
  Al  Al7  1  0.001491  0.670556  0.577844  1
  Al  Al8  1  0.335008  0.003605  0.432777  1
  Al  Al9  1  0.006661  0.335680  0.430756  1
  Al  Al10  1  0.657760  0.995671  0.578007  1
  Al  Al11  1  0.651957  0.989197  0.919384  1
  Al  Al12  1  0.334896  0.004044  0.068146  1
  Al  Al13  1  0.335971  0.331880  0.553978  1
  Al  Al14  1  0.664606  0.664416  0.455146  1
  Al  Al15  1  0.663776  0.663757  0.046174  1
  Al  Al16  1  0.339560  0.332641  0.945903  1
  Al  Al17  1  0.344704  0.544684  0.250403  1
  Al  Al18  1  0.658185  0.449920  0.750046  1
  Al  Al19  1  0.543902  0.339263  0.249974  1
  Al  Al20  1  0.450190  0.657517  0.749255  1
  Si  Si21  1  0.006262  0.335470  0.074109  1
  Ir  Ir22  1  0.682583  0.329816  0.002416  1
  Ir  Ir23  1  0.319030  0.662980  0.002095  1
  Ir  Ir24  1  0.327140  0.670411  0.497659  1
  Ir  Ir25  1  0.675689  0.329767  0.497926  1
  Ir  Ir26  1  0.996832  0.007579  0.001488  1
  Ir  Ir27  1  0.997226  0.000731  0.497552  1
