# generated using pymatgen
data_La5Nd(Ga2Sn3)2
_symmetry_space_group_name_H-M   'P 1'
_cell_length_a   6.57644641
_cell_length_b   6.57644643
_cell_length_c   10.32613300
_cell_angle_alpha   90.00000000
_cell_angle_beta   90.00000000
_cell_angle_gamma   102.09435087
_symmetry_Int_Tables_number   1
_chemical_formula_structural   La5Nd(Ga2Sn3)2
_chemical_formula_sum   'La5 Nd1 Ga4 Sn6'
_cell_volume   436.68879835
_cell_formula_units_Z   1
loop_
 _symmetry_equiv_pos_site_id
 _symmetry_equiv_pos_as_xyz
  1  'x, y, z'
loop_
 _atom_site_type_symbol
 _atom_site_label
 _atom_site_symmetry_multiplicity
 _atom_site_fract_x
 _atom_site_fract_y
 _atom_site_fract_z
 _atom_site_occupancy
  La  La0  1  0.360706  0.360706  0.750000  1
  La  La1  1  0.795832  0.204173  0.000250  1
  La  La2  1  0.204173  0.795832  0.000250  1
  La  La3  1  0.204173  0.795832  0.499750  1
  La  La4  1  0.795832  0.204173  0.499750  1
  Nd  Nd5  1  0.640132  0.640132  0.250000  1
  Ga  Ga6  1  0.310728  0.310728  0.046383  1
  Ga  Ga7  1  0.689272  0.689272  0.954612  1
  Ga  Ga8  1  0.689272  0.689272  0.545388  1
  Ga  Ga9  1  0.310728  0.310728  0.453617  1
  Sn  Sn10  1  0.091451  0.490089  0.250000  1
  Sn  Sn11  1  0.907885  0.510462  0.750000  1
  Sn  Sn12  1  0.490089  0.091451  0.250000  1
  Sn  Sn13  1  0.510462  0.907885  0.750000  1
  Sn  Sn14  1  0.026340  0.026340  0.250000  1
  Sn  Sn15  1  0.972924  0.972924  0.750000  1
