# generated using pymatgen
data_Yb7Pr(Sc3Pt4)4
_symmetry_space_group_name_H-M   'P 1'
_cell_length_a   7.30614913
_cell_length_b   7.36853423
_cell_length_c   14.00163085
_cell_angle_alpha   90.12113513
_cell_angle_beta   89.99253249
_cell_angle_gamma   89.97987319
_symmetry_Int_Tables_number   1
_chemical_formula_structural   Yb7Pr(Sc3Pt4)4
_chemical_formula_sum   'Yb7 Pr1 Sc12 Pt16'
_cell_volume   753.78459959
_cell_formula_units_Z   1
loop_
 _symmetry_equiv_pos_site_id
 _symmetry_equiv_pos_as_xyz
  1  'x, y, z'
loop_
 _atom_site_type_symbol
 _atom_site_label
 _atom_site_symmetry_multiplicity
 _atom_site_fract_x
 _atom_site_fract_y
 _atom_site_fract_z
 _atom_site_occupancy
  Yb  Yb0  1  0.988984  0.825064  0.907991  1
  Yb  Yb1  1  0.512089  0.325287  0.093666  1
  Yb  Yb2  1  0.012669  0.174990  0.405277  1
  Yb  Yb3  1  0.512206  0.322742  0.404482  1
  Yb  Yb4  1  0.011499  0.175418  0.093599  1
  Yb  Yb5  1  0.487901  0.674767  0.906199  1
  Yb  Yb6  1  0.989218  0.825688  0.593775  1
  Pr  Pr7  1  0.488498  0.673204  0.593095  1
  Sc  Sc8  1  0.649723  0.167179  0.624608  1
  Sc  Sc9  1  0.147913  0.334099  0.875844  1
  Sc  Sc10  1  0.350952  0.833354  0.124054  1
  Sc  Sc11  1  0.851835  0.666170  0.374918  1
  Sc  Sc12  1  0.348923  0.836098  0.372707  1
  Sc  Sc13  1  0.850822  0.665178  0.124927  1
  Sc  Sc14  1  0.649548  0.167070  0.877121  1
  Sc  Sc15  1  0.144801  0.331858  0.626361  1
  Sc  Sc16  1  0.812915  0.505020  0.752199  1
  Sc  Sc17  1  0.310464  0.996842  0.751848  1
  Sc  Sc18  1  0.189150  0.494152  0.249317  1
  Sc  Sc19  1  0.688588  0.004830  0.248665  1
  Pt  Pt20  1  0.675370  0.957281  0.452352  1
  Pt  Pt21  1  0.175445  0.543170  0.047003  1
  Pt  Pt22  1  0.325128  0.043399  0.953098  1
  Pt  Pt23  1  0.825793  0.456423  0.545132  1
  Pt  Pt24  1  0.324209  0.047023  0.545606  1
  Pt  Pt25  1  0.824136  0.457341  0.953390  1
  Pt  Pt26  1  0.675348  0.956755  0.047041  1
  Pt  Pt27  1  0.177439  0.541956  0.453513  1
  Pt  Pt28  1  0.447029  0.367184  0.751183  1
  Pt  Pt29  1  0.947100  0.127833  0.751345  1
  Pt  Pt30  1  0.551692  0.628836  0.249909  1
  Pt  Pt31  1  0.050736  0.871339  0.249007  1
  Pt  Pt32  1  0.674883  0.866783  0.751423  1
  Pt  Pt33  1  0.170760  0.635667  0.750550  1
  Pt  Pt34  1  0.327538  0.134438  0.248825  1
  Pt  Pt35  1  0.828691  0.365565  0.249968  1
