# generated using pymatgen
data_Hf4Sc4V12Si15As
_symmetry_space_group_name_H-M   'P 1'
_cell_length_a   6.61957140
_cell_length_b   6.62294369
_cell_length_c   12.25908721
_cell_angle_alpha   89.93767566
_cell_angle_beta   89.99333851
_cell_angle_gamma   89.99095274
_symmetry_Int_Tables_number   1
_chemical_formula_structural   Hf4Sc4V12Si15As
_chemical_formula_sum   'Hf4 Sc4 V12 Si15 As1'
_cell_volume   537.45091056
_cell_formula_units_Z   1
loop_
 _symmetry_equiv_pos_site_id
 _symmetry_equiv_pos_as_xyz
  1  'x, y, z'
loop_
 _atom_site_type_symbol
 _atom_site_label
 _atom_site_symmetry_multiplicity
 _atom_site_fract_x
 _atom_site_fract_y
 _atom_site_fract_z
 _atom_site_occupancy
  Hf  Hf0  1  0.003228  0.659973  0.029438  1
  Hf  Hf1  1  0.838242  0.503923  0.280592  1
  Hf  Hf2  1  0.161088  0.496077  0.779514  1
  Hf  Hf3  1  0.502841  0.837950  0.719395  1
  Sc  Sc4  1  0.500166  0.164477  0.221616  1
  Sc  Sc5  1  0.998173  0.337979  0.529546  1
  Sc  Sc6  1  0.662929  0.000811  0.969963  1
  Sc  Sc7  1  0.337816  0.998087  0.470360  1
  V  V8  1  0.330383  0.337224  0.999426  1
  V  V9  1  0.164960  0.830294  0.250387  1
  V  V10  1  0.833032  0.167157  0.749984  1
  V  V11  1  0.667217  0.667370  0.500298  1
  V  V12  1  0.000707  0.161306  0.126904  1
  V  V13  1  0.341388  0.506317  0.375954  1
  V  V14  1  0.660115  0.495360  0.875818  1
  V  V15  1  0.505558  0.342791  0.625002  1
  V  V16  1  0.495351  0.656882  0.122846  1
  V  V17  1  0.995275  0.840873  0.628063  1
  V  V18  1  0.158045  0.002563  0.872791  1
  V  V19  1  0.841266  0.993748  0.373041  1
  Si  Si20  1  0.537598  0.794503  0.315021  1
  Si  Si21  1  0.461503  0.207018  0.815034  1
  Si  Si22  1  0.793605  0.538904  0.684339  1
  Si  Si23  1  0.208545  0.459384  0.186095  1
  Si  Si24  1  0.708455  0.039540  0.563675  1
  Si  Si25  1  0.958366  0.290470  0.935094  1
  Si  Si26  1  0.039309  0.707955  0.436684  1
  Si  Si27  1  0.703010  0.370874  0.071005  1
  Si  Si28  1  0.129077  0.203361  0.320744  1
  Si  Si29  1  0.870924  0.795262  0.821289  1
  Si  Si30  1  0.204306  0.128615  0.678895  1
  Si  Si31  1  0.794796  0.871718  0.179555  1
  Si  Si32  1  0.296068  0.628592  0.570675  1
  Si  Si33  1  0.374223  0.700001  0.924947  1
  Si  Si34  1  0.628224  0.296616  0.429929  1
  As  As35  1  0.294209  0.966027  0.066085  1
