# generated using pymatgen
data_Tb2Nd2ReB12Ru
_symmetry_space_group_name_H-M   'P 1'
_cell_length_a   3.73906100
_cell_length_b   9.26854275
_cell_length_c   11.71030410
_cell_angle_alpha   90.21304381
_cell_angle_beta   90.00000000
_cell_angle_gamma   90.00000000
_symmetry_Int_Tables_number   1
_chemical_formula_structural   Tb2Nd2ReB12Ru
_chemical_formula_sum   'Tb4 Nd4 Re2 B24 Ru2'
_cell_volume   405.82535642
_cell_formula_units_Z   2
loop_
 _symmetry_equiv_pos_site_id
 _symmetry_equiv_pos_as_xyz
  1  'x, y, z'
loop_
 _atom_site_type_symbol
 _atom_site_label
 _atom_site_symmetry_multiplicity
 _atom_site_fract_x
 _atom_site_fract_y
 _atom_site_fract_z
 _atom_site_occupancy
  Tb  Tb0  1  0.000000  0.942781  0.369819  1
  Tb  Tb1  1  0.000000  0.057219  0.630181  1
  Tb  Tb2  1  0.000000  0.442660  0.130053  1
  Tb  Tb3  1  0.000000  0.557340  0.869947  1
  Nd  Nd4  1  0.000000  0.322217  0.413070  1
  Nd  Nd5  1  0.000000  0.677783  0.586930  1
  Nd  Nd6  1  0.000000  0.824349  0.084835  1
  Nd  Nd7  1  0.000000  0.175651  0.915165  1
  Re  Re8  1  0.000000  0.139420  0.180741  1
  Re  Re9  1  0.000000  0.860580  0.819259  1
  B  B10  1  0.500000  0.555754  0.430447  1
  B  B11  1  0.500000  0.444246  0.569553  1
  B  B12  1  0.500000  0.054911  0.069136  1
  B  B13  1  0.500000  0.945089  0.930864  1
  B  B14  1  0.500000  0.748627  0.416574  1
  B  B15  1  0.500000  0.251373  0.583426  1
  B  B16  1  0.500000  0.248850  0.083518  1
  B  B17  1  0.500000  0.751150  0.916482  1
  B  B18  1  0.500000  0.789391  0.266822  1
  B  B19  1  0.500000  0.210609  0.733178  1
  B  B20  1  0.500000  0.290412  0.233809  1
  B  B21  1  0.500000  0.709588  0.766191  1
  B  B22  1  0.500000  0.630276  0.187118  1
  B  B23  1  0.500000  0.369724  0.812882  1
  B  B24  1  0.500000  0.130724  0.314007  1
  B  B25  1  0.500000  0.869276  0.685993  1
  B  B26  1  0.500000  0.985559  0.213106  1
  B  B27  1  0.500000  0.014441  0.786894  1
  B  B28  1  0.500000  0.485779  0.287511  1
  B  B29  1  0.500000  0.514221  0.712489  1
  B  B30  1  0.500000  0.599835  0.027580  1
  B  B31  1  0.500000  0.400165  0.972420  1
  B  B32  1  0.500000  0.100808  0.472345  1
  B  B33  1  0.500000  0.899192  0.527655  1
  Ru  Ru34  1  0.000000  0.638747  0.320296  1
  Ru  Ru35  1  0.000000  0.361253  0.679704  1
