# generated using pymatgen
data_Rb2Np(PO4)2
_symmetry_space_group_name_H-M   'P 1'
_cell_length_a   5.37518300
_cell_length_b   5.37518136
_cell_length_c   9.32460400
_cell_angle_alpha   90.00000000
_cell_angle_beta   90.00000000
_cell_angle_gamma   119.99999163
_symmetry_Int_Tables_number   1
_chemical_formula_structural   Rb2Np(PO4)2
_chemical_formula_sum   'Rb2 Np1 P2 O8'
_cell_volume   233.31756861
_cell_formula_units_Z   1
loop_
 _symmetry_equiv_pos_site_id
 _symmetry_equiv_pos_as_xyz
  1  'x, y, z'
loop_
 _atom_site_type_symbol
 _atom_site_label
 _atom_site_symmetry_multiplicity
 _atom_site_fract_x
 _atom_site_fract_y
 _atom_site_fract_z
 _atom_site_occupancy
  Rb  Rb0  1  0.666666  0.333333  0.350766  1
  Rb  Rb1  1  0.333333  0.666667  0.649234  1
  Np  Np2  1  0.000000  0.000000  0.000000  1
  P  P3  1  0.333333  0.666667  0.199300  1
  P  P4  1  0.666666  0.333333  0.800700  1
  O  O5  1  0.279308  0.371429  0.140920  1
  O  O6  1  0.092121  0.720692  0.140920  1
  O  O7  1  0.628571  0.907878  0.140920  1
  O  O8  1  0.333333  0.666667  0.362261  1
  O  O9  1  0.666666  0.333333  0.637739  1
  O  O10  1  0.371429  0.092122  0.859080  1
  O  O11  1  0.907879  0.279308  0.859080  1
  O  O12  1  0.720692  0.628570  0.859080  1
