# generated using pymatgen
data_SrNdBePd6
_symmetry_space_group_name_H-M   'P 1'
_cell_length_a   6.09484200
_cell_length_b   6.09484137
_cell_length_c   6.09484100
_cell_angle_alpha   59.99999658
_cell_angle_beta   59.99999998
_cell_angle_gamma   59.99999972
_symmetry_Int_Tables_number   1
_chemical_formula_structural   SrNdBePd6
_chemical_formula_sum   'Sr1 Nd1 Be1 Pd6'
_cell_volume   160.09295776
_cell_formula_units_Z   1
loop_
 _symmetry_equiv_pos_site_id
 _symmetry_equiv_pos_as_xyz
  1  'x, y, z'
loop_
 _atom_site_type_symbol
 _atom_site_label
 _atom_site_symmetry_multiplicity
 _atom_site_fract_x
 _atom_site_fract_y
 _atom_site_fract_z
 _atom_site_occupancy
  Sr  Sr0  1  0.250000  0.250000  0.250000  1
  Nd  Nd1  1  0.750000  0.750000  0.750000  1
  Be  Be2  1  0.500000  0.500000  0.500000  1
  Pd  Pd3  1  0.762035  0.237965  0.237965  1
  Pd  Pd4  1  0.237965  0.762035  0.237965  1
  Pd  Pd5  1  0.762035  0.762035  0.237965  1
  Pd  Pd6  1  0.237965  0.237965  0.762035  1
  Pd  Pd7  1  0.762035  0.237965  0.762035  1
  Pd  Pd8  1  0.237965  0.762035  0.762035  1
