# generated using pymatgen
data_DyLu3ZnNi
_symmetry_space_group_name_H-M   'P 1'
_cell_length_a   9.28902557
_cell_length_b   9.28902607
_cell_length_c   9.28902600
_cell_angle_alpha   60.00000026
_cell_angle_beta   59.99999848
_cell_angle_gamma   59.99999871
_symmetry_Int_Tables_number   1
_chemical_formula_structural   DyLu3ZnNi
_chemical_formula_sum   'Dy4 Lu12 Zn4 Ni4'
_cell_volume   566.75519906
_cell_formula_units_Z   4
loop_
 _symmetry_equiv_pos_site_id
 _symmetry_equiv_pos_as_xyz
  1  'x, y, z'
loop_
 _atom_site_type_symbol
 _atom_site_label
 _atom_site_symmetry_multiplicity
 _atom_site_fract_x
 _atom_site_fract_y
 _atom_site_fract_z
 _atom_site_occupancy
  Dy  Dy0  1  0.354743  0.354743  0.354743  1
  Dy  Dy1  1  0.354743  0.354743  0.935768  1
  Dy  Dy2  1  0.354743  0.935768  0.354743  1
  Dy  Dy3  1  0.935768  0.354743  0.354743  1
  Lu  Lu4  1  0.810591  0.189409  0.189409  1
  Lu  Lu5  1  0.189409  0.810591  0.810591  1
  Lu  Lu6  1  0.189409  0.810591  0.189409  1
  Lu  Lu7  1  0.810591  0.189409  0.810591  1
  Lu  Lu8  1  0.189409  0.189409  0.810591  1
  Lu  Lu9  1  0.810591  0.810591  0.189409  1
  Lu  Lu10  1  0.935155  0.564845  0.564845  1
  Lu  Lu11  1  0.564845  0.935155  0.935155  1
  Lu  Lu12  1  0.564845  0.935155  0.564845  1
  Lu  Lu13  1  0.935155  0.564845  0.935155  1
  Lu  Lu14  1  0.564845  0.564845  0.935155  1
  Lu  Lu15  1  0.935155  0.935155  0.564845  1
  Zn  Zn16  1  0.581558  0.581558  0.581558  1
  Zn  Zn17  1  0.581558  0.581558  0.255326  1
  Zn  Zn18  1  0.581558  0.255326  0.581558  1
  Zn  Zn19  1  0.255326  0.581558  0.581558  1
  Ni  Ni20  1  0.142617  0.142617  0.142617  1
  Ni  Ni21  1  0.142617  0.142617  0.572150  1
  Ni  Ni22  1  0.142617  0.572150  0.142617  1
  Ni  Ni23  1  0.572150  0.142617  0.142617  1
