# generated using pymatgen
data_Dy11Ho5(Tl3Ru)2
_symmetry_space_group_name_H-M   'P 1'
_cell_length_a   10.40748826
_cell_length_b   10.40748912
_cell_length_c   7.03618300
_cell_angle_alpha   89.98731041
_cell_angle_beta   90.01269510
_cell_angle_gamma   120.00755117
_symmetry_Int_Tables_number   1
_chemical_formula_structural   Dy11Ho5(Tl3Ru)2
_chemical_formula_sum   'Dy11 Ho5 Tl6 Ru2'
_cell_volume   659.97363738
_cell_formula_units_Z   1
loop_
 _symmetry_equiv_pos_site_id
 _symmetry_equiv_pos_as_xyz
  1  'x, y, z'
loop_
 _atom_site_type_symbol
 _atom_site_label
 _atom_site_symmetry_multiplicity
 _atom_site_fract_x
 _atom_site_fract_y
 _atom_site_fract_z
 _atom_site_occupancy
  Dy  Dy0  1  0.533863  0.067367  0.508134  1
  Dy  Dy1  1  0.932633  0.466137  0.508134  1
  Dy  Dy2  1  0.533618  0.466382  0.508500  1
  Dy  Dy3  1  0.466504  0.932848  0.008427  1
  Dy  Dy4  1  0.067152  0.533496  0.008427  1
  Dy  Dy5  1  0.466356  0.533644  0.008392  1
  Dy  Dy6  1  0.176933  0.353871  0.711376  1
  Dy  Dy7  1  0.646129  0.823067  0.711376  1
  Dy  Dy8  1  0.176935  0.823065  0.711298  1
  Dy  Dy9  1  0.823074  0.646199  0.211382  1
  Dy  Dy10  1  0.353801  0.176926  0.211382  1
  Ho  Ho11  1  0.823019  0.176981  0.211160  1
  Ho  Ho12  1  0.666741  0.333259  0.884538  1
  Ho  Ho13  1  0.333332  0.666668  0.384530  1
  Ho  Ho14  1  0.999940  0.000060  0.492707  1
  Ho  Ho15  1  0.999962  0.000038  0.992841  1
  Tl  Tl16  1  0.837337  0.674583  0.753890  1
  Tl  Tl17  1  0.325417  0.162663  0.753890  1
  Tl  Tl18  1  0.837246  0.162754  0.754380  1
  Tl  Tl19  1  0.162160  0.325096  0.253726  1
  Tl  Tl20  1  0.674904  0.837840  0.253726  1
  Tl  Tl21  1  0.162737  0.837263  0.254044  1
  Ru  Ru22  1  0.666819  0.333181  0.280793  1
  Ru  Ru23  1  0.333394  0.666606  0.780992  1
