# generated using pymatgen
data_Pa5Ti3(Co4As3)4
_symmetry_space_group_name_H-M   'P 1'
_cell_length_a   12.52713800
_cell_length_b   12.52713786
_cell_length_c   3.89324000
_cell_angle_alpha   90.00000000
_cell_angle_beta   90.00000000
_cell_angle_gamma   120.00000566
_symmetry_Int_Tables_number   1
_chemical_formula_structural   Pa5Ti3(Co4As3)4
_chemical_formula_sum   'Pa5 Ti3 Co16 As12'
_cell_volume   529.10943027
_cell_formula_units_Z   1
loop_
 _symmetry_equiv_pos_site_id
 _symmetry_equiv_pos_as_xyz
  1  'x, y, z'
loop_
 _atom_site_type_symbol
 _atom_site_label
 _atom_site_symmetry_multiplicity
 _atom_site_fract_x
 _atom_site_fract_y
 _atom_site_fract_z
 _atom_site_occupancy
  Pa  Pa0  1  0.184735  0.184735  0.500000  1
  Pa  Pa1  1  0.815265  0.000000  0.500000  1
  Pa  Pa2  1  0.000000  0.815265  0.500000  1
  Pa  Pa3  1  0.333333  0.666667  0.000000  1
  Pa  Pa4  1  0.666667  0.333333  0.000000  1
  Ti  Ti5  1  0.567329  0.567329  0.000000  1
  Ti  Ti6  1  0.432671  0.000000  0.000000  1
  Ti  Ti7  1  0.000000  0.432671  0.000000  1
  Co  Co8  1  0.720767  0.720767  0.500000  1
  Co  Co9  1  0.279233  0.000000  0.500000  1
  Co  Co10  1  0.000000  0.279233  0.500000  1
  Co  Co11  1  0.182520  0.377000  0.000000  1
  Co  Co12  1  0.623000  0.805521  0.000000  1
  Co  Co13  1  0.194479  0.817480  0.000000  1
  Co  Co14  1  0.805521  0.623000  0.000000  1
  Co  Co15  1  0.817480  0.194479  0.000000  1
  Co  Co16  1  0.377000  0.182520  0.000000  1
  Co  Co17  1  0.358016  0.483507  0.500000  1
  Co  Co18  1  0.516493  0.874509  0.500000  1
  Co  Co19  1  0.125491  0.641984  0.500000  1
  Co  Co20  1  0.874509  0.516493  0.500000  1
  Co  Co21  1  0.641984  0.125491  0.500000  1
  Co  Co22  1  0.483507  0.358016  0.500000  1
  Co  Co23  1  0.000000  0.000000  0.000000  1
  As  As24  1  0.819451  0.819451  0.000000  1
  As  As25  1  0.180549  0.000000  0.000000  1
  As  As26  1  0.000000  0.180549  0.000000  1
  As  As27  1  0.166684  0.478547  0.500000  1
  As  As28  1  0.521453  0.688138  0.500000  1
  As  As29  1  0.311862  0.833316  0.500000  1
  As  As30  1  0.688138  0.521453  0.500000  1
  As  As31  1  0.833316  0.311862  0.500000  1
  As  As32  1  0.478547  0.166684  0.500000  1
  As  As33  1  0.365739  0.365739  0.000000  1
  As  As34  1  0.634261  0.000000  0.000000  1
  As  As35  1  0.000000  0.634261  0.000000  1
