# generated using pymatgen
data_ErTm4SiNiBi
_symmetry_space_group_name_H-M   'P 1'
_cell_length_a   8.42210179
_cell_length_b   8.42210214
_cell_length_c   8.69810521
_cell_angle_alpha   125.43553743
_cell_angle_beta   125.43554203
_cell_angle_gamma   78.60485773
_symmetry_Int_Tables_number   1
_chemical_formula_structural   ErTm4SiNiBi
_chemical_formula_sum   'Er2 Tm8 Si2 Ni2 Bi2'
_cell_volume   400.55207838
_cell_formula_units_Z   2
loop_
 _symmetry_equiv_pos_site_id
 _symmetry_equiv_pos_as_xyz
  1  'x, y, z'
loop_
 _atom_site_type_symbol
 _atom_site_label
 _atom_site_symmetry_multiplicity
 _atom_site_fract_x
 _atom_site_fract_y
 _atom_site_fract_z
 _atom_site_occupancy
  Er  Er0  1  0.703500  0.533542  0.500000  1
  Er  Er1  1  0.966458  0.796500  0.500000  1
  Tm  Tm2  1  0.000300  0.999898  0.000198  1
  Tm  Tm3  1  0.500102  0.499700  0.999802  1
  Tm  Tm4  1  0.777028  0.277334  0.788485  1
  Tm  Tm5  1  0.222666  0.722972  0.211515  1
  Tm  Tm6  1  0.488542  0.988848  0.211515  1
  Tm  Tm7  1  0.295418  0.465223  0.500000  1
  Tm  Tm8  1  0.034777  0.204582  0.500000  1
  Tm  Tm9  1  0.511152  0.011458  0.788485  1
  Si  Si10  1  0.150912  0.650237  0.801151  1
  Si  Si11  1  0.849763  0.349088  0.198849  1
  Ni  Ni12  1  0.633469  0.866531  0.500000  1
  Ni  Ni13  1  0.366322  0.133678  0.500000  1
  Bi  Bi14  1  0.249795  0.250205  0.000000  1
  Bi  Bi15  1  0.749795  0.750205  0.000000  1
