# generated using pymatgen
data_Pr4Si10OsPt5
_symmetry_space_group_name_H-M   'P 1'
_cell_length_a   8.29994163
_cell_length_b   8.29994172
_cell_length_c   8.29994072
_cell_angle_alpha   137.29535092
_cell_angle_beta   105.23747594
_cell_angle_gamma   90.13293692
_symmetry_Int_Tables_number   1
_chemical_formula_structural   Pr4Si10OsPt5
_chemical_formula_sum   'Pr4 Si10 Os1 Pt5'
_cell_volume   357.07572122
_cell_formula_units_Z   1
loop_
 _symmetry_equiv_pos_site_id
 _symmetry_equiv_pos_as_xyz
  1  'x, y, z'
loop_
 _atom_site_type_symbol
 _atom_site_label
 _atom_site_symmetry_multiplicity
 _atom_site_fract_x
 _atom_site_fract_y
 _atom_site_fract_z
 _atom_site_occupancy
  Pr  Pr0  1  0.862663  0.629361  0.233654  1
  Pr  Pr1  1  0.137337  0.370991  0.766698  1
  Pr  Pr2  1  0.395707  0.129009  0.266346  1
  Pr  Pr3  1  0.604293  0.870639  0.733302  1
  Si  Si4  1  0.500000  0.750000  0.250000  1
  Si  Si5  1  0.500000  0.250000  0.750000  1
  Si  Si6  1  0.224603  0.974603  0.750000  1
  Si  Si7  1  0.775397  0.525397  0.750000  1
  Si  Si8  1  0.769601  0.019601  0.250000  1
  Si  Si9  1  0.230399  0.480399  0.250000  1
  Si  Si10  1  0.040616  0.885492  0.144197  1
  Si  Si11  1  0.959384  0.103580  0.844875  1
  Si  Si12  1  0.741295  0.396420  0.355803  1
  Si  Si13  1  0.258705  0.614508  0.655125  1
  Os  Os14  1  0.000000  0.750000  0.750000  1
  Pt  Pt15  1  0.000000  0.250000  0.250000  1
  Pt  Pt16  1  0.252180  0.865508  0.391114  1
  Pt  Pt17  1  0.747820  0.138933  0.613328  1
  Pt  Pt18  1  0.474394  0.361067  0.108886  1
  Pt  Pt19  1  0.525606  0.634492  0.886672  1
