# generated using pymatgen
data_SrAlIO6
_symmetry_space_group_name_H-M   'P 1'
_cell_length_a   5.08941019
_cell_length_b   5.08940942
_cell_length_c   5.48590398
_cell_angle_alpha   90.06974776
_cell_angle_beta   90.06975466
_cell_angle_gamma   119.99002696
_symmetry_Int_Tables_number   1
_chemical_formula_structural   SrAlIO6
_chemical_formula_sum   'Sr1 Al1 I1 O6'
_cell_volume   123.07108397
_cell_formula_units_Z   1
loop_
 _symmetry_equiv_pos_site_id
 _symmetry_equiv_pos_as_xyz
  1  'x, y, z'
loop_
 _atom_site_type_symbol
 _atom_site_label
 _atom_site_symmetry_multiplicity
 _atom_site_fract_x
 _atom_site_fract_y
 _atom_site_fract_z
 _atom_site_occupancy
  Sr  Sr0  1  0.999727  0.000274  0.500000  1
  Al  Al1  1  0.333199  0.666801  0.000000  1
  I  I2  1  0.666696  0.333304  0.000000  1
  O  O3  1  0.997279  0.379467  0.195780  1
  O  O4  1  0.621805  0.618331  0.195600  1
  O  O5  1  0.382900  0.003817  0.196115  1
  O  O6  1  0.996183  0.617099  0.803884  1
  O  O7  1  0.381671  0.378197  0.804401  1
  O  O8  1  0.620534  0.002723  0.804221  1
