# generated using pymatgen
data_KRbDy5YF20
_symmetry_space_group_name_H-M   'P 1'
_cell_length_a   8.27414459
_cell_length_b   8.27420559
_cell_length_c   8.27420500
_cell_angle_alpha   59.99966085
_cell_angle_beta   60.00022979
_cell_angle_gamma   60.00022821
_symmetry_Int_Tables_number   1
_chemical_formula_structural   KRbDy5YF20
_chemical_formula_sum   'K1 Rb1 Dy5 Y1 F20'
_cell_volume   400.55400866
_cell_formula_units_Z   1
loop_
 _symmetry_equiv_pos_site_id
 _symmetry_equiv_pos_as_xyz
  1  'x, y, z'
loop_
 _atom_site_type_symbol
 _atom_site_label
 _atom_site_symmetry_multiplicity
 _atom_site_fract_x
 _atom_site_fract_y
 _atom_site_fract_z
 _atom_site_occupancy
  K  K0  1  0.750000  0.750002  0.750002  1
  Rb  Rb1  1  0.249998  0.250001  0.250001  1
  Dy  Dy2  1  0.240377  0.759623  0.759623  1
  Dy  Dy3  1  0.240395  0.759605  0.240383  1
  Dy  Dy4  1  0.759617  0.240383  0.759605  1
  Dy  Dy5  1  0.240395  0.240383  0.759605  1
  Dy  Dy6  1  0.759617  0.759605  0.240383  1
  Y  Y7  1  0.759630  0.240369  0.240369  1
  F  F8  1  0.829668  0.500073  0.500073  1
  F  F9  1  0.170185  0.500074  0.500074  1
  F  F10  1  0.500060  0.829682  0.170198  1
  F  F11  1  0.500060  0.170198  0.829682  1
  F  F12  1  0.500069  0.829666  0.500064  1
  F  F13  1  0.170200  0.500064  0.829666  1
  F  F14  1  0.499618  0.170029  0.500517  1
  F  F15  1  0.829836  0.500516  0.170029  1
  F  F16  1  0.500069  0.500064  0.829666  1
  F  F17  1  0.499618  0.500517  0.170029  1
  F  F18  1  0.170200  0.829666  0.500064  1
  F  F19  1  0.829836  0.170029  0.500516  1
  F  F20  1  0.110202  0.109704  0.109704  1
  F  F21  1  0.887771  0.887760  0.887760  1
  F  F22  1  0.109846  0.109836  0.670472  1
  F  F23  1  0.109846  0.670472  0.109836  1
  F  F24  1  0.887892  0.887408  0.336806  1
  F  F25  1  0.887892  0.336806  0.887408  1
  F  F26  1  0.670389  0.109704  0.109704  1
  F  F27  1  0.336708  0.887760  0.887760  1
