# generated using pymatgen
data_Ir4Se8Br
_symmetry_space_group_name_H-M   'P 1'
_cell_length_a   3.81846939
_cell_length_b   8.21918835
_cell_length_c   9.46916165
_cell_angle_alpha   74.62136586
_cell_angle_beta   78.36790488
_cell_angle_gamma   76.56807218
_symmetry_Int_Tables_number   1
_chemical_formula_structural   Ir4Se8Br
_chemical_formula_sum   'Ir4 Se8 Br1'
_cell_volume   275.58388610
_cell_formula_units_Z   1
loop_
 _symmetry_equiv_pos_site_id
 _symmetry_equiv_pos_as_xyz
  1  'x, y, z'
loop_
 _atom_site_type_symbol
 _atom_site_label
 _atom_site_symmetry_multiplicity
 _atom_site_fract_x
 _atom_site_fract_y
 _atom_site_fract_z
 _atom_site_occupancy
  Ir  Ir0  1  0.633330  0.186431  0.546908  1
  Ir  Ir1  1  0.847697  0.478420  0.826183  1
  Ir  Ir2  1  0.152192  0.521836  0.173780  1
  Ir  Ir3  1  0.366704  0.813522  0.453069  1
  Se  Se4  1  0.462759  0.291620  0.782863  1
  Se  Se5  1  0.537207  0.708374  0.217210  1
  Se  Se6  1  0.903604  0.629193  0.563598  1
  Se  Se7  1  0.096459  0.370728  0.436355  1
  Se  Se8  1  0.227040  0.647881  0.898039  1
  Se  Se9  1  0.772848  0.352412  0.101891  1
  Se  Se10  1  0.816515  0.014962  0.352009  1
  Se  Se11  1  0.183532  0.984968  0.647966  1
  Br  Br12  1  0.500110  0.999650  0.000127  1
