# generated using pymatgen
data_TbDy3Te4
_symmetry_space_group_name_H-M   'P 1'
_cell_length_a   4.23870300
_cell_length_b   4.23870370
_cell_length_c   15.07210600
_cell_angle_alpha   90.00000000
_cell_angle_beta   90.00000000
_cell_angle_gamma   120.00000232
_symmetry_Int_Tables_number   1
_chemical_formula_structural   TbDy3Te4
_chemical_formula_sum   'Tb1 Dy3 Te4'
_cell_volume   234.51499007
_cell_formula_units_Z   1
loop_
 _symmetry_equiv_pos_site_id
 _symmetry_equiv_pos_as_xyz
  1  'x, y, z'
loop_
 _atom_site_type_symbol
 _atom_site_label
 _atom_site_symmetry_multiplicity
 _atom_site_fract_x
 _atom_site_fract_y
 _atom_site_fract_z
 _atom_site_occupancy
  Tb  Tb0  1  0.333333  0.666667  0.617497  1
  Dy  Dy1  1  0.333333  0.666667  0.881327  1
  Dy  Dy2  1  0.666667  0.333333  0.119346  1
  Dy  Dy3  1  0.666667  0.333333  0.381860  1
  Te  Te4  1  0.333333  0.666667  0.250418  1
  Te  Te5  1  0.666667  0.333333  0.750339  1
  Te  Te6  1  0.000000  0.000000  0.498970  1
  Te  Te7  1  0.000000  0.000000  0.000241  1
