# generated using pymatgen
data_Tb8InHgPt2
_symmetry_space_group_name_H-M   'P 1'
_cell_length_a   9.74387817
_cell_length_b   9.74387851
_cell_length_c   9.73804500
_cell_angle_alpha   60.01979896
_cell_angle_beta   60.01979779
_cell_angle_gamma   60.15688408
_symmetry_Int_Tables_number   1
_chemical_formula_structural   Tb8InHgPt2
_chemical_formula_sum   'Tb16 In2 Hg2 Pt4'
_cell_volume   654.73109901
_cell_formula_units_Z   2
loop_
 _symmetry_equiv_pos_site_id
 _symmetry_equiv_pos_as_xyz
  1  'x, y, z'
loop_
 _atom_site_type_symbol
 _atom_site_label
 _atom_site_symmetry_multiplicity
 _atom_site_fract_x
 _atom_site_fract_y
 _atom_site_fract_z
 _atom_site_occupancy
  Tb  Tb0  1  0.351724  0.351724  0.351404  1
  Tb  Tb1  1  0.351724  0.351724  0.945149  1
  Tb  Tb2  1  0.352502  0.943334  0.352083  1
  Tb  Tb3  1  0.943334  0.352502  0.352083  1
  Tb  Tb4  1  0.809942  0.191816  0.189423  1
  Tb  Tb5  1  0.191816  0.809942  0.808818  1
  Tb  Tb6  1  0.191816  0.809942  0.189423  1
  Tb  Tb7  1  0.809942  0.191816  0.808818  1
  Tb  Tb8  1  0.190210  0.190210  0.809790  1
  Tb  Tb9  1  0.808280  0.808280  0.191720  1
  Tb  Tb10  1  0.939168  0.564417  0.563545  1
  Tb  Tb11  1  0.564417  0.939168  0.932870  1
  Tb  Tb12  1  0.564417  0.939168  0.563545  1
  Tb  Tb13  1  0.939168  0.564417  0.932870  1
  Tb  Tb14  1  0.565271  0.565271  0.934729  1
  Tb  Tb15  1  0.938490  0.938490  0.561510  1
  In  In16  1  0.581600  0.581600  0.582299  1
  In  In17  1  0.581600  0.581600  0.254499  1
  Hg  Hg18  1  0.586271  0.240367  0.586680  1
  Hg  Hg19  1  0.240367  0.586271  0.586680  1
  Pt  Pt20  1  0.142471  0.142471  0.144481  1
  Pt  Pt21  1  0.142471  0.142471  0.570579  1
  Pt  Pt22  1  0.141888  0.571109  0.143502  1
  Pt  Pt23  1  0.571109  0.141888  0.143502  1
