# generated using pymatgen
data_Ca20Ge3Bi8Sb
_symmetry_space_group_name_H-M   'P 1'
_cell_length_a   8.20831567
_cell_length_b   9.66533700
_cell_length_c   12.96145396
_cell_angle_alpha   90.00000000
_cell_angle_beta   90.32388657
_cell_angle_gamma   90.00000000
_symmetry_Int_Tables_number   1
_chemical_formula_structural   Ca20Ge3Bi8Sb
_chemical_formula_sum   'Ca20 Ge3 Bi8 Sb1'
_cell_volume   1028.29525908
_cell_formula_units_Z   1
loop_
 _symmetry_equiv_pos_site_id
 _symmetry_equiv_pos_as_xyz
  1  'x, y, z'
loop_
 _atom_site_type_symbol
 _atom_site_label
 _atom_site_symmetry_multiplicity
 _atom_site_fract_x
 _atom_site_fract_y
 _atom_site_fract_z
 _atom_site_occupancy
  Ca  Ca0  1  0.321216  0.977924  0.080558  1
  Ca  Ca1  1  0.826894  0.029547  0.423885  1
  Ca  Ca2  1  0.677319  0.459340  0.921151  1
  Ca  Ca3  1  0.172586  0.528875  0.574855  1
  Ca  Ca4  1  0.677319  0.040660  0.921151  1
  Ca  Ca5  1  0.172586  0.971125  0.574855  1
  Ca  Ca6  1  0.321216  0.522076  0.080558  1
  Ca  Ca7  1  0.826894  0.470453  0.423885  1
  Ca  Ca8  1  0.679894  0.750000  0.226648  1
  Ca  Ca9  1  0.169029  0.250000  0.285074  1
  Ca  Ca10  1  0.327411  0.250000  0.783290  1
  Ca  Ca11  1  0.831388  0.750000  0.714105  1
  Ca  Ca12  1  0.145742  0.750000  0.304717  1
  Ca  Ca13  1  0.643757  0.250000  0.195161  1
  Ca  Ca14  1  0.856763  0.250000  0.693524  1
  Ca  Ca15  1  0.346139  0.750000  0.795030  1
  Ca  Ca16  1  0.553432  0.750000  0.501846  1
  Ca  Ca17  1  0.054029  0.250000  0.998818  1
  Ca  Ca18  1  0.444894  0.250000  0.499866  1
  Ca  Ca19  1  0.957551  0.750000  0.001901  1
  Ge  Ge20  1  0.061286  0.250000  0.508398  1
  Ge  Ge21  1  0.437807  0.250000  0.008163  1
  Ge  Ge22  1  0.937216  0.750000  0.489826  1
  Bi  Bi23  1  0.941038  0.009034  0.168456  1
  Bi  Bi24  1  0.444571  0.992490  0.330575  1
  Bi  Bi25  1  0.056593  0.509032  0.831276  1
  Bi  Bi26  1  0.555347  0.492364  0.670689  1
  Bi  Bi27  1  0.056593  0.990968  0.831276  1
  Bi  Bi28  1  0.555347  0.007636  0.670689  1
  Bi  Bi29  1  0.941038  0.490966  0.168456  1
  Bi  Bi30  1  0.444571  0.507510  0.330575  1
  Sb  Sb31  1  0.562532  0.750000  0.990739  1
