# generated using pymatgen
data_Tb2HfBe2Ir5
_symmetry_space_group_name_H-M   'P 1'
_cell_length_a   9.83215200
_cell_length_b   9.83215200
_cell_length_c   3.27999400
_cell_angle_alpha   90.00000000
_cell_angle_beta   90.00000000
_cell_angle_gamma   90.00000000
_symmetry_Int_Tables_number   1
_chemical_formula_structural   Tb2HfBe2Ir5
_chemical_formula_sum   'Tb4 Hf2 Be4 Ir10'
_cell_volume   317.08099845
_cell_formula_units_Z   2
loop_
 _symmetry_equiv_pos_site_id
 _symmetry_equiv_pos_as_xyz
  1  'x, y, z'
loop_
 _atom_site_type_symbol
 _atom_site_label
 _atom_site_symmetry_multiplicity
 _atom_site_fract_x
 _atom_site_fract_y
 _atom_site_fract_z
 _atom_site_occupancy
  Tb  Tb0  1  0.176208  0.676208  0.000000  1
  Tb  Tb1  1  0.323792  0.176208  0.000000  1
  Tb  Tb2  1  0.823792  0.323792  0.000000  1
  Tb  Tb3  1  0.676208  0.823792  0.000000  1
  Hf  Hf4  1  0.500000  0.500000  0.000000  1
  Hf  Hf5  1  0.000000  0.000000  0.000000  1
  Be  Be6  1  0.379927  0.879927  0.000000  1
  Be  Be7  1  0.120073  0.379927  0.000000  1
  Be  Be8  1  0.879927  0.620073  0.000000  1
  Be  Be9  1  0.620073  0.120073  0.000000  1
  Ir  Ir10  1  0.217607  0.931583  0.500000  1
  Ir  Ir11  1  0.931583  0.782393  0.500000  1
  Ir  Ir12  1  0.431583  0.717607  0.500000  1
  Ir  Ir13  1  0.568417  0.282393  0.500000  1
  Ir  Ir14  1  0.717607  0.568417  0.500000  1
  Ir  Ir15  1  0.282393  0.431583  0.500000  1
  Ir  Ir16  1  0.068417  0.217607  0.500000  1
  Ir  Ir17  1  0.000000  0.500000  0.500000  1
  Ir  Ir18  1  0.500000  0.000000  0.500000  1
  Ir  Ir19  1  0.782393  0.068417  0.500000  1
