# generated using pymatgen
data_Ba2SmAg5S6
_symmetry_space_group_name_H-M   'P 1'
_cell_length_a   4.23937300
_cell_length_b   7.36570581
_cell_length_c   11.28361847
_cell_angle_alpha   94.99236973
_cell_angle_beta   90.00000000
_cell_angle_gamma   106.72496595
_symmetry_Int_Tables_number   1
_chemical_formula_structural   Ba2SmAg5S6
_chemical_formula_sum   'Ba2 Sm1 Ag5 S6'
_cell_volume   336.04096090
_cell_formula_units_Z   1
loop_
 _symmetry_equiv_pos_site_id
 _symmetry_equiv_pos_as_xyz
  1  'x, y, z'
loop_
 _atom_site_type_symbol
 _atom_site_label
 _atom_site_symmetry_multiplicity
 _atom_site_fract_x
 _atom_site_fract_y
 _atom_site_fract_z
 _atom_site_occupancy
  Ba  Ba0  1  0.251984  0.503968  0.703837  1
  Ba  Ba1  1  0.748016  0.496032  0.296163  1
  Sm  Sm2  1  0.500000  0.000000  0.500000  1
  Ag  Ag3  1  0.018438  0.036877  0.256202  1
  Ag  Ag4  1  0.981562  0.963123  0.743798  1
  Ag  Ag5  1  0.352144  0.704289  0.038255  1
  Ag  Ag6  1  0.647856  0.295711  0.961745  1
  Ag  Ag7  1  0.000000  0.000000  0.000000  1
  S  S8  1  0.127778  0.255554  0.452356  1
  S  S9  1  0.872222  0.744446  0.547644  1
  S  S10  1  0.157363  0.314726  0.101906  1
  S  S11  1  0.842637  0.685274  0.898094  1
  S  S12  1  0.412319  0.824639  0.262705  1
  S  S13  1  0.587681  0.175361  0.737295  1
