# generated using pymatgen
data_Na2EuYSe4
_symmetry_space_group_name_H-M   'P 1'
_cell_length_a   7.36033995
_cell_length_b   7.36033943
_cell_length_c   7.36747212
_cell_angle_alpha   80.16696165
_cell_angle_beta   80.16696279
_cell_angle_gamma   33.25165307
_symmetry_Int_Tables_number   1
_chemical_formula_structural   Na2EuYSe4
_chemical_formula_sum   'Na2 Eu1 Y1 Se4'
_cell_volume   215.34584178
_cell_formula_units_Z   1
loop_
 _symmetry_equiv_pos_site_id
 _symmetry_equiv_pos_as_xyz
  1  'x, y, z'
loop_
 _atom_site_type_symbol
 _atom_site_label
 _atom_site_symmetry_multiplicity
 _atom_site_fract_x
 _atom_site_fract_y
 _atom_site_fract_z
 _atom_site_occupancy
  Na  Na0  1  0.247310  0.247310  0.249891  1
  Na  Na1  1  0.752690  0.752690  0.750109  1
  Eu  Eu2  1  0.500000  0.500000  0.500000  1
  Y  Y3  1  0.000000  0.000000  0.000000  1
  Se  Se4  1  0.615174  0.615174  0.121342  1
  Se  Se5  1  0.883038  0.883038  0.363844  1
  Se  Se6  1  0.116962  0.116962  0.636156  1
  Se  Se7  1  0.384826  0.384826  0.878658  1
