# generated using pymatgen
data_La4ZnIn2Ni3
_symmetry_space_group_name_H-M   'P 1'
_cell_length_a   3.80967800
_cell_length_b   7.75945975
_cell_length_c   16.06778546
_cell_angle_alpha   91.23584352
_cell_angle_beta   90.00000000
_cell_angle_gamma   90.00000000
_symmetry_Int_Tables_number   1
_chemical_formula_structural   La4ZnIn2Ni3
_chemical_formula_sum   'La8 Zn2 In4 Ni6'
_cell_volume   474.87001175
_cell_formula_units_Z   2
loop_
 _symmetry_equiv_pos_site_id
 _symmetry_equiv_pos_as_xyz
  1  'x, y, z'
loop_
 _atom_site_type_symbol
 _atom_site_label
 _atom_site_symmetry_multiplicity
 _atom_site_fract_x
 _atom_site_fract_y
 _atom_site_fract_z
 _atom_site_occupancy
  La  La0  1  0.000000  0.595086  0.230151  1
  La  La1  1  0.000000  0.404914  0.769849  1
  La  La2  1  0.000000  0.100632  0.287859  1
  La  La3  1  0.000000  0.899368  0.712141  1
  La  La4  1  0.000000  0.771030  0.953890  1
  La  La5  1  0.000000  0.228970  0.046110  1
  La  La6  1  0.000000  0.238450  0.535913  1
  La  La7  1  0.000000  0.761550  0.464087  1
  Zn  Zn8  1  0.500000  0.548476  0.076235  1
  Zn  Zn9  1  0.500000  0.451524  0.923765  1
  In  In10  1  0.500000  0.418048  0.379776  1
  In  In11  1  0.500000  0.581952  0.620224  1
  In  In12  1  0.500000  0.910475  0.134991  1
  In  In13  1  0.500000  0.089525  0.865009  1
  Ni  Ni14  1  0.500000  0.055582  0.426373  1
  Ni  Ni15  1  0.500000  0.944418  0.573627  1
  Ni  Ni16  1  0.500000  0.305824  0.182117  1
  Ni  Ni17  1  0.500000  0.694176  0.817883  1
  Ni  Ni18  1  0.500000  0.808163  0.317489  1
  Ni  Ni19  1  0.500000  0.191837  0.682511  1
