# generated using pymatgen
data_Zr7ScCo16(SiP3)3
_symmetry_space_group_name_H-M   'P 1'
_cell_length_a   12.18307128
_cell_length_b   12.18307308
_cell_length_c   3.65896800
_cell_angle_alpha   90.00000000
_cell_angle_beta   90.00000000
_cell_angle_gamma   120.09600329
_symmetry_Int_Tables_number   1
_chemical_formula_structural   Zr7ScCo16(SiP3)3
_chemical_formula_sum   'Zr7 Sc1 Co16 Si3 P9'
_cell_volume   469.87455860
_cell_formula_units_Z   1
loop_
 _symmetry_equiv_pos_site_id
 _symmetry_equiv_pos_as_xyz
  1  'x, y, z'
loop_
 _atom_site_type_symbol
 _atom_site_label
 _atom_site_symmetry_multiplicity
 _atom_site_fract_x
 _atom_site_fract_y
 _atom_site_fract_z
 _atom_site_occupancy
  Zr  Zr0  1  0.556707  0.999382  0.000000  1
  Zr  Zr1  1  0.999382  0.556707  0.000000  1
  Zr  Zr2  1  0.665810  0.333045  0.000000  1
  Zr  Zr3  1  0.333045  0.665810  0.000000  1
  Zr  Zr4  1  0.821371  0.821371  0.500000  1
  Zr  Zr5  1  0.176033  0.999916  0.500000  1
  Zr  Zr6  1  0.999916  0.176033  0.500000  1
  Sc  Sc7  1  0.441551  0.441551  0.000000  1
  Co  Co8  1  0.197981  0.372776  0.000000  1
  Co  Co9  1  0.175252  0.803774  0.000000  1
  Co  Co10  1  0.824659  0.628908  0.000000  1
  Co  Co11  1  0.803774  0.175252  0.000000  1
  Co  Co12  1  0.372776  0.197981  0.000000  1
  Co  Co13  1  0.127465  0.481494  0.500000  1
  Co  Co14  1  0.355173  0.873282  0.500000  1
  Co  Co15  1  0.517168  0.644393  0.500000  1
  Co  Co16  1  0.644393  0.517168  0.500000  1
  Co  Co17  1  0.873282  0.355173  0.500000  1
  Co  Co18  1  0.481494  0.127465  0.500000  1
  Co  Co19  1  0.000468  0.000468  0.000000  1
  Co  Co20  1  0.723561  0.000508  0.500000  1
  Co  Co21  1  0.000508  0.723561  0.500000  1
  Co  Co22  1  0.628908  0.824659  0.000000  1
  Co  Co23  1  0.278531  0.278531  0.500000  1
  Si  Si24  1  0.649928  0.649928  0.000000  1
  Si  Si25  1  0.345935  0.001286  0.000000  1
  Si  Si26  1  0.001286  0.345935  0.000000  1
  P  P27  1  0.481890  0.309600  0.500000  1
  P  P28  1  0.692598  0.174767  0.500000  1
  P  P29  1  0.824936  0.518678  0.500000  1
  P  P30  1  0.518678  0.824936  0.500000  1
  P  P31  1  0.174767  0.692598  0.500000  1
  P  P32  1  0.824202  0.999584  0.000000  1
  P  P33  1  0.999584  0.824202  0.000000  1
  P  P34  1  0.309600  0.481890  0.500000  1
  P  P35  1  0.177393  0.177393  0.000000  1
