# generated using pymatgen
data_Dy5GaBi2Cl
_symmetry_space_group_name_H-M   'P 1'
_cell_length_a   9.13237000
_cell_length_b   9.06608067
_cell_length_c   6.53268000
_cell_angle_alpha   90.00000000
_cell_angle_beta   90.00000000
_cell_angle_gamma   120.24217577
_symmetry_Int_Tables_number   1
_chemical_formula_structural   Dy5GaBi2Cl
_chemical_formula_sum   'Dy10 Ga2 Bi4 Cl2'
_cell_volume   467.26160277
_cell_formula_units_Z   2
loop_
 _symmetry_equiv_pos_site_id
 _symmetry_equiv_pos_as_xyz
  1  'x, y, z'
loop_
 _atom_site_type_symbol
 _atom_site_label
 _atom_site_symmetry_multiplicity
 _atom_site_fract_x
 _atom_site_fract_y
 _atom_site_fract_z
 _atom_site_occupancy
  Dy  Dy0  1  0.277780  0.000000  0.750000  1
  Dy  Dy1  1  0.722220  0.000000  0.250000  1
  Dy  Dy2  1  0.984955  0.251337  0.750000  1
  Dy  Dy3  1  0.015045  0.748663  0.250000  1
  Dy  Dy4  1  0.733618  0.748663  0.750000  1
  Dy  Dy5  1  0.266382  0.251337  0.250000  1
  Dy  Dy6  1  0.343544  0.687088  0.500000  1
  Dy  Dy7  1  0.656456  0.312912  0.500000  1
  Dy  Dy8  1  0.656456  0.312912  0.000000  1
  Dy  Dy9  1  0.343544  0.687088  0.000000  1
  Ga  Ga10  1  0.609073  0.000000  0.750000  1
  Ga  Ga11  1  0.390927  0.000000  0.250000  1
  Bi  Bi12  1  0.995001  0.611613  0.750000  1
  Bi  Bi13  1  0.004999  0.388387  0.250000  1
  Bi  Bi14  1  0.383388  0.388387  0.750000  1
  Bi  Bi15  1  0.616612  0.611613  0.250000  1
  Cl  Cl16  1  0.000000  0.000000  0.500000  1
  Cl  Cl17  1  0.000000  0.000000  0.000000  1
