# generated using pymatgen
data_Pr8DyTm11Si16
_symmetry_space_group_name_H-M   'P 1'
_cell_length_a   7.47054797
_cell_length_b   7.76113176
_cell_length_c   14.74241721
_cell_angle_alpha   89.97592617
_cell_angle_beta   90.03981639
_cell_angle_gamma   90.07322711
_symmetry_Int_Tables_number   1
_chemical_formula_structural   Pr8DyTm11Si16
_chemical_formula_sum   'Pr8 Dy1 Tm11 Si16'
_cell_volume   854.76300132
_cell_formula_units_Z   1
loop_
 _symmetry_equiv_pos_site_id
 _symmetry_equiv_pos_as_xyz
  1  'x, y, z'
loop_
 _atom_site_type_symbol
 _atom_site_label
 _atom_site_symmetry_multiplicity
 _atom_site_fract_x
 _atom_site_fract_y
 _atom_site_fract_z
 _atom_site_occupancy
  Pr  Pr0  1  0.019559  0.177046  0.401868  1
  Pr  Pr1  1  0.520075  0.322820  0.401711  1
  Pr  Pr2  1  0.480304  0.676911  0.902467  1
  Pr  Pr3  1  0.480349  0.677302  0.597735  1
  Pr  Pr4  1  0.979897  0.822848  0.597780  1
  Pr  Pr5  1  0.980094  0.822805  0.902395  1
  Pr  Pr6  1  0.519734  0.322968  0.097927  1
  Pr  Pr7  1  0.019783  0.176959  0.097868  1
  Dy  Dy8  1  0.322822  0.178360  0.623005  1
  Tm  Tm9  1  0.677170  0.821976  0.376284  1
  Tm  Tm10  1  0.654797  0.990748  0.750186  1
  Tm  Tm11  1  0.177096  0.677805  0.376320  1
  Tm  Tm12  1  0.823097  0.322259  0.876785  1
  Tm  Tm13  1  0.822896  0.322480  0.623446  1
  Tm  Tm14  1  0.845342  0.491045  0.250029  1
  Tm  Tm15  1  0.345435  0.008999  0.249979  1
  Tm  Tm16  1  0.323067  0.177820  0.876813  1
  Tm  Tm17  1  0.176886  0.677759  0.123530  1
  Tm  Tm18  1  0.676984  0.822195  0.123515  1
  Tm  Tm19  1  0.154529  0.509710  0.750298  1
  Si  Si20  1  0.274939  0.878594  0.750663  1
  Si  Si21  1  0.471342  0.616198  0.249907  1
  Si  Si22  1  0.027164  0.115871  0.750810  1
  Si  Si23  1  0.529847  0.385106  0.750667  1
  Si  Si24  1  0.145407  0.469206  0.539249  1
  Si  Si25  1  0.971379  0.883674  0.249944  1
  Si  Si26  1  0.724667  0.120293  0.249961  1
  Si  Si27  1  0.852916  0.532179  0.039835  1
  Si  Si28  1  0.352849  0.967702  0.039705  1
  Si  Si29  1  0.147253  0.467795  0.960337  1
  Si  Si30  1  0.648772  0.031392  0.539110  1
  Si  Si31  1  0.353762  0.966648  0.459313  1
  Si  Si32  1  0.852903  0.532396  0.460155  1
  Si  Si33  1  0.775109  0.620124  0.750098  1
  Si  Si34  1  0.224735  0.379807  0.249929  1
  Si  Si35  1  0.647040  0.032199  0.960379  1
