# generated using pymatgen
data_La4Pr12Cd4OsPd3
_symmetry_space_group_name_H-M   'P 1'
_cell_length_a   10.15293853
_cell_length_b   10.15293850
_cell_length_c   10.15293841
_cell_angle_alpha   59.49694715
_cell_angle_beta   59.49694611
_cell_angle_gamma   59.49695097
_symmetry_Int_Tables_number   1
_chemical_formula_structural   La4Pr12Cd4OsPd3
_chemical_formula_sum   'La4 Pr12 Cd4 Os1 Pd3'
_cell_volume   731.58177431
_cell_formula_units_Z   1
loop_
 _symmetry_equiv_pos_site_id
 _symmetry_equiv_pos_as_xyz
  1  'x, y, z'
loop_
 _atom_site_type_symbol
 _atom_site_label
 _atom_site_symmetry_multiplicity
 _atom_site_fract_x
 _atom_site_fract_y
 _atom_site_fract_z
 _atom_site_occupancy
  La  La0  1  0.352520  0.352520  0.352520  1
  La  La1  1  0.346737  0.346737  0.952700  1
  La  La2  1  0.346737  0.952700  0.346737  1
  La  La3  1  0.952700  0.346737  0.346737  1
  Pr  Pr4  1  0.816934  0.188733  0.188733  1
  Pr  Pr5  1  0.189925  0.807526  0.807526  1
  Pr  Pr6  1  0.188733  0.816934  0.188733  1
  Pr  Pr7  1  0.807526  0.189925  0.807526  1
  Pr  Pr8  1  0.188733  0.188733  0.816934  1
  Pr  Pr9  1  0.807526  0.807526  0.189925  1
  Pr  Pr10  1  0.934681  0.564926  0.564926  1
  Pr  Pr11  1  0.556676  0.937553  0.937553  1
  Pr  Pr12  1  0.564926  0.934681  0.564926  1
  Pr  Pr13  1  0.937553  0.556676  0.937553  1
  Pr  Pr14  1  0.564926  0.564926  0.934681  1
  Pr  Pr15  1  0.937553  0.937553  0.556676  1
  Cd  Cd16  1  0.579512  0.579512  0.579512  1
  Cd  Cd17  1  0.580183  0.580183  0.259597  1
  Cd  Cd18  1  0.580183  0.259597  0.580183  1
  Cd  Cd19  1  0.259597  0.580183  0.580183  1
  Os  Os20  1  0.143953  0.143953  0.143953  1
  Pd  Pd21  1  0.145433  0.145433  0.571322  1
  Pd  Pd22  1  0.145433  0.571322  0.145433  1
  Pd  Pd23  1  0.571322  0.145433  0.145433  1
