# generated using pymatgen
data_ErTm7Sc11Si16Os
_symmetry_space_group_name_H-M   'P 1'
_cell_length_a   6.96916780
_cell_length_b   7.31802557
_cell_length_c   13.80717606
_cell_angle_alpha   90.01005850
_cell_angle_beta   90.00183962
_cell_angle_gamma   90.12468237
_symmetry_Int_Tables_number   1
_chemical_formula_structural   ErTm7Sc11Si16Os
_chemical_formula_sum   'Er1 Tm7 Sc11 Si16 Os1'
_cell_volume   704.17186912
_cell_formula_units_Z   1
loop_
 _symmetry_equiv_pos_site_id
 _symmetry_equiv_pos_as_xyz
  1  'x, y, z'
loop_
 _atom_site_type_symbol
 _atom_site_label
 _atom_site_symmetry_multiplicity
 _atom_site_fract_x
 _atom_site_fract_y
 _atom_site_fract_z
 _atom_site_occupancy
  Er  Er0  1  0.011727  0.178832  0.092145  1
  Tm  Tm1  1  0.993595  0.818287  0.901311  1
  Tm  Tm2  1  0.490438  0.673373  0.903296  1
  Tm  Tm3  1  0.993584  0.818315  0.598613  1
  Tm  Tm4  1  0.510858  0.322959  0.093850  1
  Tm  Tm5  1  0.011733  0.179042  0.407762  1
  Tm  Tm6  1  0.510895  0.322850  0.406188  1
  Tm  Tm7  1  0.490421  0.673340  0.596640  1
  Sc  Sc8  1  0.841739  0.495792  0.250063  1
  Sc  Sc9  1  0.342330  0.004144  0.250059  1
  Sc  Sc10  1  0.656557  0.994152  0.749996  1
  Sc  Sc11  1  0.325567  0.176056  0.627547  1
  Sc  Sc12  1  0.671917  0.824765  0.374349  1
  Sc  Sc13  1  0.172465  0.673731  0.377060  1
  Sc  Sc14  1  0.671934  0.824672  0.125714  1
  Sc  Sc15  1  0.824605  0.331570  0.628800  1
  Sc  Sc16  1  0.325612  0.175997  0.872409  1
  Sc  Sc17  1  0.824525  0.331677  0.871177  1
  Sc  Sc18  1  0.172472  0.673651  0.122978  1
  Si  Si19  1  0.027298  0.114798  0.749984  1
  Si  Si20  1  0.973266  0.888044  0.250073  1
  Si  Si21  1  0.469436  0.612912  0.250017  1
  Si  Si22  1  0.513300  0.397764  0.749981  1
  Si  Si23  1  0.285392  0.855286  0.750002  1
  Si  Si24  1  0.717151  0.131831  0.250158  1
  Si  Si25  1  0.215387  0.369108  0.250156  1
  Si  Si26  1  0.796103  0.632616  0.749980  1
  Si  Si27  1  0.158013  0.466491  0.549229  1
  Si  Si28  1  0.841548  0.535978  0.464107  1
  Si  Si29  1  0.343958  0.965102  0.463241  1
  Si  Si30  1  0.841469  0.536266  0.035818  1
  Si  Si31  1  0.660583  0.034218  0.539800  1
  Si  Si32  1  0.158045  0.466702  0.950693  1
  Si  Si33  1  0.660459  0.034184  0.960164  1
  Si  Si34  1  0.344380  0.964902  0.036692  1
  Os  Os35  1  0.151237  0.500599  0.749950  1
