# generated using pymatgen
data_Er2Tm2GaCo4
_symmetry_space_group_name_H-M   'P 1'
_cell_length_a   5.40432076
_cell_length_b   5.40431953
_cell_length_c   8.81476402
_cell_angle_alpha   70.88938952
_cell_angle_beta   70.88939470
_cell_angle_gamma   43.47407215
_symmetry_Int_Tables_number   1
_chemical_formula_structural   Er2Tm2GaCo4
_chemical_formula_sum   'Er2 Tm2 Ga1 Co4'
_cell_volume   165.76554952
_cell_formula_units_Z   1
loop_
 _symmetry_equiv_pos_site_id
 _symmetry_equiv_pos_as_xyz
  1  'x, y, z'
loop_
 _atom_site_type_symbol
 _atom_site_label
 _atom_site_symmetry_multiplicity
 _atom_site_fract_x
 _atom_site_fract_y
 _atom_site_fract_z
 _atom_site_occupancy
  Er  Er0  1  0.746022  0.746022  0.662427  1
  Er  Er1  1  0.253978  0.253978  0.337573  1
  Tm  Tm2  1  0.391022  0.391022  0.886007  1
  Tm  Tm3  1  0.608978  0.608978  0.113993  1
  Ga  Ga4  1  0.500000  0.500000  0.500000  1
  Co  Co5  1  0.038306  0.038306  0.645834  1
  Co  Co6  1  0.961694  0.961694  0.354166  1
  Co  Co7  1  0.095227  0.095227  0.880919  1
  Co  Co8  1  0.904773  0.904773  0.119081  1
