# generated using pymatgen
data_Y2Ge4(PRh4)3
_symmetry_space_group_name_H-M   'P 1'
_cell_length_a   9.85459500
_cell_length_b   9.85459422
_cell_length_c   3.86405300
_cell_angle_alpha   90.00000000
_cell_angle_beta   90.00000000
_cell_angle_gamma   119.99999345
_symmetry_Int_Tables_number   1
_chemical_formula_structural   Y2Ge4(PRh4)3
_chemical_formula_sum   'Y2 Ge4 P3 Rh12'
_cell_volume   324.97597963
_cell_formula_units_Z   1
loop_
 _symmetry_equiv_pos_site_id
 _symmetry_equiv_pos_as_xyz
  1  'x, y, z'
loop_
 _atom_site_type_symbol
 _atom_site_label
 _atom_site_symmetry_multiplicity
 _atom_site_fract_x
 _atom_site_fract_y
 _atom_site_fract_z
 _atom_site_occupancy
  Y  Y0  1  0.333333  0.666667  0.741802  1
  Y  Y1  1  0.666667  0.333333  0.241664  1
  Ge  Ge2  1  0.000000  0.000000  0.662925  1
  Ge  Ge3  1  0.403937  0.286470  0.742723  1
  Ge  Ge4  1  0.713530  0.117467  0.742723  1
  Ge  Ge5  1  0.882533  0.596063  0.742723  1
  P  P6  1  0.597282  0.709966  0.241164  1
  P  P7  1  0.290034  0.887316  0.241164  1
  P  P8  1  0.112684  0.402718  0.241164  1
  Rh  Rh9  1  0.440613  0.055760  0.742095  1
  Rh  Rh10  1  0.944240  0.384852  0.742095  1
  Rh  Rh11  1  0.615148  0.559387  0.742095  1
  Rh  Rh12  1  0.547574  0.928180  0.241444  1
  Rh  Rh13  1  0.071820  0.619395  0.241444  1
  Rh  Rh14  1  0.380605  0.452426  0.241444  1
  Rh  Rh15  1  0.152206  0.281311  0.741286  1
  Rh  Rh16  1  0.718689  0.870896  0.741286  1
  Rh  Rh17  1  0.129104  0.847794  0.741286  1
  Rh  Rh18  1  0.854320  0.747547  0.242492  1
  Rh  Rh19  1  0.252453  0.106771  0.242492  1
  Rh  Rh20  1  0.893229  0.145680  0.242492  1
