# generated using pymatgen
data_Nd4CdInPd4
_symmetry_space_group_name_H-M   'P 1'
_cell_length_a   7.84484000
_cell_length_b   7.84484000
_cell_length_c   3.92568700
_cell_angle_alpha   90.00000000
_cell_angle_beta   90.00000000
_cell_angle_gamma   90.00000000
_symmetry_Int_Tables_number   1
_chemical_formula_structural   Nd4CdInPd4
_chemical_formula_sum   'Nd4 Cd1 In1 Pd4'
_cell_volume   241.59272393
_cell_formula_units_Z   1
loop_
 _symmetry_equiv_pos_site_id
 _symmetry_equiv_pos_as_xyz
  1  'x, y, z'
loop_
 _atom_site_type_symbol
 _atom_site_label
 _atom_site_symmetry_multiplicity
 _atom_site_fract_x
 _atom_site_fract_y
 _atom_site_fract_z
 _atom_site_occupancy
  Nd  Nd0  1  0.673816  0.173811  0.500000  1
  Nd  Nd1  1  0.326184  0.826189  0.500000  1
  Nd  Nd2  1  0.173811  0.326184  0.500000  1
  Nd  Nd3  1  0.826189  0.673816  0.500000  1
  Cd  Cd4  1  0.500000  0.500000  0.000000  1
  In  In5  1  0.000000  0.000000  0.000000  1
  Pd  Pd6  1  0.127535  0.628262  0.000000  1
  Pd  Pd7  1  0.872465  0.371738  0.000000  1
  Pd  Pd8  1  0.628262  0.872465  0.000000  1
  Pd  Pd9  1  0.371738  0.127535  0.000000  1
