# generated using pymatgen
data_Dy7Y3TcIr3
_symmetry_space_group_name_H-M   'P 1'
_cell_length_a   6.44934580
_cell_length_b   7.30103429
_cell_length_c   8.55228221
_cell_angle_alpha   96.67005496
_cell_angle_beta   112.83772316
_cell_angle_gamma   90.11748235
_symmetry_Int_Tables_number   1
_chemical_formula_structural   Dy7Y3TcIr3
_chemical_formula_sum   'Dy7 Y3 Tc1 Ir3'
_cell_volume   368.13088560
_cell_formula_units_Z   1
loop_
 _symmetry_equiv_pos_site_id
 _symmetry_equiv_pos_as_xyz
  1  'x, y, z'
loop_
 _atom_site_type_symbol
 _atom_site_label
 _atom_site_symmetry_multiplicity
 _atom_site_fract_x
 _atom_site_fract_y
 _atom_site_fract_z
 _atom_site_occupancy
  Dy  Dy0  1  0.024214  0.582771  0.812426  1
  Dy  Dy1  1  0.212159  0.184788  0.563096  1
  Dy  Dy2  1  0.646973  0.316571  0.439061  1
  Dy  Dy3  1  0.789530  0.815700  0.437846  1
  Dy  Dy4  1  0.352841  0.682069  0.563513  1
  Dy  Dy5  1  0.425164  0.248690  0.000056  1
  Dy  Dy6  1  0.574390  0.750326  0.000010  1
  Y  Y7  1  0.788099  0.081937  0.812119  1
  Y  Y8  1  0.972528  0.417458  0.178623  1
  Y  Y9  1  0.207573  0.916576  0.185168  1
  Tc  Tc10  1  0.610082  0.429307  0.786342  1
  Ir  Ir11  1  0.822726  0.073740  0.225442  1
  Ir  Ir12  1  0.398545  0.575828  0.220407  1
  Ir  Ir13  1  0.175177  0.924234  0.775892  1
