# generated using pymatgen
data_Ho5PdRhO12
_symmetry_space_group_name_H-M   'P 1'
_cell_length_a   6.84292702
_cell_length_b   6.84292647
_cell_length_c   7.23358665
_cell_angle_alpha   74.51575842
_cell_angle_beta   74.51575638
_cell_angle_gamma   51.17587712
_symmetry_Int_Tables_number   1
_chemical_formula_structural   Ho5PdRhO12
_chemical_formula_sum   'Ho5 Pd1 Rh1 O12'
_cell_volume   252.06028929
_cell_formula_units_Z   1
loop_
 _symmetry_equiv_pos_site_id
 _symmetry_equiv_pos_as_xyz
  1  'x, y, z'
loop_
 _atom_site_type_symbol
 _atom_site_label
 _atom_site_symmetry_multiplicity
 _atom_site_fract_x
 _atom_site_fract_y
 _atom_site_fract_z
 _atom_site_occupancy
  Ho  Ho0  1  0.306706  0.294555  0.360329  1
  Ho  Ho1  1  0.705445  0.693294  0.639671  1
  Ho  Ho2  1  0.310344  0.305986  0.830685  1
  Ho  Ho3  1  0.694014  0.689656  0.169315  1
  Ho  Ho4  1  0.002148  0.997852  0.500000  1
  Pd  Pd5  1  0.748381  0.251619  0.000000  1
  Rh  Rh6  1  0.241727  0.758273  0.000000  1
  O  O7  1  0.904830  0.438324  0.913659  1
  O  O8  1  0.427548  0.900068  0.915129  1
  O  O9  1  0.099932  0.572452  0.084871  1
  O  O10  1  0.561676  0.095170  0.086341  1
  O  O11  1  0.100140  0.599011  0.571118  1
  O  O12  1  0.598510  0.094187  0.575158  1
  O  O13  1  0.905813  0.401490  0.424842  1
  O  O14  1  0.400989  0.899860  0.428882  1
  O  O15  1  0.998728  0.000748  0.815284  1
  O  O16  1  0.999252  0.001272  0.184716  1
  O  O17  1  0.497251  0.503432  0.808825  1
  O  O18  1  0.496568  0.502749  0.191175  1
