# generated using pymatgen
data_DyEr7B24Ir3Ru
_symmetry_space_group_name_H-M   'P 1'
_cell_length_a   3.62869400
_cell_length_b   9.15554186
_cell_length_c   11.47259900
_cell_angle_alpha   90.02431638
_cell_angle_beta   90.00000000
_cell_angle_gamma   90.00000000
_symmetry_Int_Tables_number   1
_chemical_formula_structural   DyEr7B24Ir3Ru
_chemical_formula_sum   'Dy1 Er7 B24 Ir3 Ru1'
_cell_volume   381.15021957
_cell_formula_units_Z   1
loop_
 _symmetry_equiv_pos_site_id
 _symmetry_equiv_pos_as_xyz
  1  'x, y, z'
loop_
 _atom_site_type_symbol
 _atom_site_label
 _atom_site_symmetry_multiplicity
 _atom_site_fract_x
 _atom_site_fract_y
 _atom_site_fract_z
 _atom_site_occupancy
  Dy  Dy0  1  0.000000  0.320931  0.413212  1
  Er  Er1  1  0.000000  0.680508  0.588047  1
  Er  Er2  1  0.000000  0.820961  0.084936  1
  Er  Er3  1  0.000000  0.177204  0.912998  1
  Er  Er4  1  0.000000  0.944146  0.373963  1
  Er  Er5  1  0.000000  0.054023  0.627072  1
  Er  Er6  1  0.000000  0.444361  0.125699  1
  Er  Er7  1  0.000000  0.557490  0.874244  1
  B  B8  1  0.500000  0.554067  0.434667  1
  B  B9  1  0.500000  0.446643  0.565864  1
  B  B10  1  0.500000  0.053246  0.065549  1
  B  B11  1  0.500000  0.945881  0.933622  1
  B  B12  1  0.500000  0.749992  0.421144  1
  B  B13  1  0.500000  0.250001  0.579474  1
  B  B14  1  0.500000  0.249518  0.078894  1
  B  B15  1  0.500000  0.751655  0.920091  1
  B  B16  1  0.500000  0.793493  0.264890  1
  B  B17  1  0.500000  0.206618  0.734569  1
  B  B18  1  0.500000  0.293722  0.234680  1
  B  B19  1  0.500000  0.707515  0.765826  1
  B  B20  1  0.500000  0.632291  0.183848  1
  B  B21  1  0.500000  0.367813  0.816057  1
  B  B22  1  0.500000  0.132339  0.315784  1
  B  B23  1  0.500000  0.867863  0.685154  1
  B  B24  1  0.500000  0.981614  0.213076  1
  B  B25  1  0.500000  0.016621  0.786621  1
  B  B26  1  0.500000  0.482380  0.286218  1
  B  B27  1  0.500000  0.518194  0.713900  1
  B  B28  1  0.500000  0.610265  0.030520  1
  B  B29  1  0.500000  0.389314  0.969778  1
  B  B30  1  0.500000  0.109577  0.469862  1
  B  B31  1  0.500000  0.889800  0.529928  1
  Ir  Ir32  1  0.000000  0.638814  0.321678  1
  Ir  Ir33  1  0.000000  0.361887  0.678969  1
  Ir  Ir34  1  0.000000  0.137612  0.177854  1
  Ru  Ru35  1  0.000000  0.861640  0.821310  1
