# generated using pymatgen
data_Tm15Lu5(CoBi2)4
_symmetry_space_group_name_H-M   'P 1'
_cell_length_a   7.83495061
_cell_length_b   8.83729178
_cell_length_c   12.26979570
_cell_angle_alpha   89.95555337
_cell_angle_beta   90.04091972
_cell_angle_gamma   90.01844820
_symmetry_Int_Tables_number   1
_chemical_formula_structural   Tm15Lu5(CoBi2)4
_chemical_formula_sum   'Tm15 Lu5 Co4 Bi8'
_cell_volume   849.55700394
_cell_formula_units_Z   1
loop_
 _symmetry_equiv_pos_site_id
 _symmetry_equiv_pos_as_xyz
  1  'x, y, z'
loop_
 _atom_site_type_symbol
 _atom_site_label
 _atom_site_symmetry_multiplicity
 _atom_site_fract_x
 _atom_site_fract_y
 _atom_site_fract_z
 _atom_site_occupancy
  Tm  Tm0  1  0.347302  0.749753  0.699690  1
  Tm  Tm1  1  0.652495  0.250113  0.300169  1
  Tm  Tm2  1  0.847211  0.250359  0.800299  1
  Tm  Tm3  1  0.152938  0.749689  0.199946  1
  Tm  Tm4  1  0.885598  0.749396  0.812897  1
  Tm  Tm5  1  0.114400  0.250659  0.187049  1
  Tm  Tm6  1  0.385139  0.250139  0.686890  1
  Tm  Tm7  1  0.613930  0.749708  0.313146  1
  Tm  Tm8  1  0.674124  0.961906  0.562875  1
  Tm  Tm9  1  0.825877  0.961901  0.062991  1
  Tm  Tm10  1  0.174107  0.038109  0.937059  1
  Tm  Tm11  1  0.057692  0.749656  0.497601  1
  Tm  Tm12  1  0.943649  0.250556  0.502269  1
  Tm  Tm13  1  0.556671  0.250749  0.002283  1
  Tm  Tm14  1  0.443332  0.749195  0.997746  1
  Lu  Lu15  1  0.672389  0.538474  0.562694  1
  Lu  Lu16  1  0.327566  0.461669  0.437100  1
  Lu  Lu17  1  0.172189  0.461215  0.937269  1
  Lu  Lu18  1  0.327329  0.038126  0.437250  1
  Lu  Lu19  1  0.827722  0.538513  0.062790  1
  Co  Co20  1  0.066436  0.749301  0.992633  1
  Co  Co21  1  0.933595  0.250663  0.007423  1
  Co  Co22  1  0.565254  0.250268  0.506991  1
  Co  Co23  1  0.433213  0.749639  0.492654  1
  Bi  Bi24  1  0.569223  0.509137  0.827137  1
  Bi  Bi25  1  0.430594  0.490727  0.172722  1
  Bi  Bi26  1  0.069277  0.490744  0.672660  1
  Bi  Bi27  1  0.429659  0.009415  0.172731  1
  Bi  Bi28  1  0.930512  0.509295  0.327376  1
  Bi  Bi29  1  0.570137  0.990683  0.827365  1
  Bi  Bi30  1  0.930596  0.990861  0.327578  1
  Bi  Bi31  1  0.069845  0.009381  0.672717  1
