# generated using pymatgen
data_Ce3Er9Co4
_symmetry_space_group_name_H-M   'P 1'
_cell_length_a   6.29860900
_cell_length_b   6.79984693
_cell_length_c   9.50423900
_cell_angle_alpha   90.00000000
_cell_angle_beta   90.00000000
_cell_angle_gamma   92.17391736
_symmetry_Int_Tables_number   1
_chemical_formula_structural   Ce3Er9Co4
_chemical_formula_sum   'Ce3 Er9 Co4'
_cell_volume   406.76956905
_cell_formula_units_Z   1
loop_
 _symmetry_equiv_pos_site_id
 _symmetry_equiv_pos_as_xyz
  1  'x, y, z'
loop_
 _atom_site_type_symbol
 _atom_site_label
 _atom_site_symmetry_multiplicity
 _atom_site_fract_x
 _atom_site_fract_y
 _atom_site_fract_z
 _atom_site_occupancy
  Ce  Ce0  1  0.147819  0.437931  0.750000  1
  Ce  Ce1  1  0.358199  0.938412  0.750000  1
  Ce  Ce2  1  0.849174  0.558625  0.250000  1
  Er  Er3  1  0.673282  0.327708  0.932781  1
  Er  Er4  1  0.640903  0.046090  0.250000  1
  Er  Er5  1  0.175952  0.170351  0.428406  1
  Er  Er6  1  0.829472  0.828802  0.568061  1
  Er  Er7  1  0.175952  0.170351  0.071594  1
  Er  Er8  1  0.829472  0.828802  0.931939  1
  Er  Er9  1  0.673282  0.327708  0.567219  1
  Er  Er10  1  0.324116  0.670714  0.067495  1
  Er  Er11  1  0.324116  0.670714  0.432505  1
  Co  Co12  1  0.516693  0.634508  0.750000  1
  Co  Co13  1  0.978604  0.135186  0.750000  1
  Co  Co14  1  0.026025  0.857331  0.250000  1
  Co  Co15  1  0.476939  0.396772  0.250000  1
