# generated using pymatgen
data_Zr10Tl3In(GaPb)2
_symmetry_space_group_name_H-M   'P 1'
_cell_length_a   8.83686485
_cell_length_b   8.83686560
_cell_length_c   5.94395700
_cell_angle_alpha   90.00000000
_cell_angle_beta   90.00000000
_cell_angle_gamma   120.02185126
_symmetry_Int_Tables_number   1
_chemical_formula_structural   Zr10Tl3In(GaPb)2
_chemical_formula_sum   'Zr10 Tl3 In1 Ga2 Pb2'
_cell_volume   401.88989361
_cell_formula_units_Z   1
loop_
 _symmetry_equiv_pos_site_id
 _symmetry_equiv_pos_as_xyz
  1  'x, y, z'
loop_
 _atom_site_type_symbol
 _atom_site_label
 _atom_site_symmetry_multiplicity
 _atom_site_fract_x
 _atom_site_fract_y
 _atom_site_fract_z
 _atom_site_occupancy
  Zr  Zr0  1  0.664778  0.333774  0.000897  1
  Zr  Zr1  1  0.333774  0.664778  0.000897  1
  Zr  Zr2  1  0.333774  0.664778  0.499103  1
  Zr  Zr3  1  0.664778  0.333774  0.499103  1
  Zr  Zr4  1  0.737977  0.737977  0.750000  1
  Zr  Zr5  1  0.262154  0.002439  0.750000  1
  Zr  Zr6  1  0.002439  0.262154  0.750000  1
  Zr  Zr7  1  0.261590  0.261590  0.250000  1
  Zr  Zr8  1  0.739449  0.999955  0.250000  1
  Zr  Zr9  1  0.999955  0.739449  0.250000  1
  Tl  Tl10  1  0.611889  0.611889  0.250000  1
  Tl  Tl11  1  0.386217  0.998861  0.250000  1
  Tl  Tl12  1  0.998861  0.386217  0.250000  1
  In  In13  1  0.386538  0.386538  0.750000  1
  Ga  Ga14  1  0.000791  0.000791  0.000340  1
  Ga  Ga15  1  0.000791  0.000791  0.499660  1
  Pb  Pb16  1  0.613648  0.000598  0.750000  1
  Pb  Pb17  1  0.000598  0.613648  0.750000  1
