# generated using pymatgen
data_Y3Mg2CdSi2Ag
_symmetry_space_group_name_H-M   'P 1'
_cell_length_a   7.23862622
_cell_length_b   7.23862573
_cell_length_c   4.34073100
_cell_angle_alpha   90.00000000
_cell_angle_beta   90.00000000
_cell_angle_gamma   119.62280924
_symmetry_Int_Tables_number   1
_chemical_formula_structural   Y3Mg2CdSi2Ag
_chemical_formula_sum   'Y3 Mg2 Cd1 Si2 Ag1'
_cell_volume   197.71696650
_cell_formula_units_Z   1
loop_
 _symmetry_equiv_pos_site_id
 _symmetry_equiv_pos_as_xyz
  1  'x, y, z'
loop_
 _atom_site_type_symbol
 _atom_site_label
 _atom_site_symmetry_multiplicity
 _atom_site_fract_x
 _atom_site_fract_y
 _atom_site_fract_z
 _atom_site_occupancy
  Y  Y0  1  0.425578  0.425578  0.500000  1
  Y  Y1  1  0.999784  0.576538  0.500000  1
  Y  Y2  1  0.576538  0.999784  0.500000  1
  Mg  Mg3  1  0.245298  0.998818  0.000000  1
  Mg  Mg4  1  0.998818  0.245298  0.000000  1
  Cd  Cd5  1  0.748981  0.748981  0.000000  1
  Si  Si6  1  0.666403  0.330704  0.000000  1
  Si  Si7  1  0.330704  0.666403  0.000000  1
  Ag  Ag8  1  0.007895  0.007895  0.500000  1
