# generated using pymatgen
data_LaPa2Cu3Sn4
_symmetry_space_group_name_H-M   'P 1'
_cell_length_a   8.36219098
_cell_length_b   8.35510419
_cell_length_c   8.37241691
_cell_angle_alpha   109.41941796
_cell_angle_beta   109.43745226
_cell_angle_gamma   109.53264112
_symmetry_Int_Tables_number   1
_chemical_formula_structural   LaPa2Cu3Sn4
_chemical_formula_sum   'La2 Pa4 Cu6 Sn8'
_cell_volume   450.43270273
_cell_formula_units_Z   2
loop_
 _symmetry_equiv_pos_site_id
 _symmetry_equiv_pos_as_xyz
  1  'x, y, z'
loop_
 _atom_site_type_symbol
 _atom_site_label
 _atom_site_symmetry_multiplicity
 _atom_site_fract_x
 _atom_site_fract_y
 _atom_site_fract_z
 _atom_site_occupancy
  La  La0  1  0.879088  0.751233  0.126667  1
  La  La1  1  0.120988  0.372774  0.247573  1
  Pa  Pa2  1  0.625535  0.252984  0.373746  1
  Pa  Pa3  1  0.750933  0.873410  0.627394  1
  Pa  Pa4  1  0.374231  0.127417  0.747940  1
  Pa  Pa5  1  0.249263  0.622490  0.876429  1
  Cu  Cu6  1  0.736121  0.365828  0.119342  1
  Cu  Cu7  1  0.623749  0.880806  0.254013  1
  Cu  Cu8  1  0.262996  0.129583  0.382894  1
  Cu  Cu9  1  0.376686  0.757979  0.630508  1
  Cu  Cu10  1  0.873566  0.619324  0.742964  1
  Cu  Cu11  1  0.125880  0.245045  0.869048  1
  Sn  Sn12  1  0.172429  0.998302  0.997324  1
  Sn  Sn13  1  0.659999  0.997274  0.997155  1
  Sn  Sn14  1  0.500234  0.501433  0.168339  1
  Sn  Sn15  1  0.340676  0.837837  0.336956  1
  Sn  Sn16  1  0.000601  0.669477  0.504672  1
  Sn  Sn17  1  0.999469  0.169285  0.504111  1
  Sn  Sn18  1  0.499732  0.501365  0.668108  1
  Sn  Sn19  1  0.827825  0.326157  0.824819  1
