# generated using pymatgen
data_Li5Tb6AlAu6
_symmetry_space_group_name_H-M   'P 1'
_cell_length_a   7.57705321
_cell_length_b   7.53491193
_cell_length_c   7.77468300
_cell_angle_alpha   90.00000000
_cell_angle_beta   89.98659302
_cell_angle_gamma   119.81620257
_symmetry_Int_Tables_number   1
_chemical_formula_structural   Li5Tb6AlAu6
_chemical_formula_sum   'Li5 Tb6 Al1 Au6'
_cell_volume   385.11744300
_cell_formula_units_Z   1
loop_
 _symmetry_equiv_pos_site_id
 _symmetry_equiv_pos_as_xyz
  1  'x, y, z'
loop_
 _atom_site_type_symbol
 _atom_site_label
 _atom_site_symmetry_multiplicity
 _atom_site_fract_x
 _atom_site_fract_y
 _atom_site_fract_z
 _atom_site_occupancy
  Li  Li0  1  0.761115  0.761836  0.999884  1
  Li  Li1  1  0.238885  0.000721  0.000116  1
  Li  Li2  1  0.000000  0.238121  0.000000  1
  Li  Li3  1  0.754496  0.756545  0.499987  1
  Li  Li4  1  0.245504  0.002049  0.500013  1
  Tb  Tb5  1  0.594955  0.998449  0.744572  1
  Tb  Tb6  1  0.001419  0.594654  0.751206  1
  Tb  Tb7  1  0.403920  0.404763  0.744366  1
  Tb  Tb8  1  0.998581  0.593235  0.248794  1
  Tb  Tb9  1  0.596080  0.000843  0.255634  1
  Tb  Tb10  1  0.405045  0.403495  0.255428  1
  Al  Al11  1  0.000000  0.250322  0.500000  1
  Au  Au12  1  0.000151  0.001605  0.743511  1
  Au  Au13  1  0.999849  0.001455  0.256489  1
  Au  Au14  1  0.666361  0.330425  0.998561  1
  Au  Au15  1  0.671976  0.334696  0.501398  1
  Au  Au16  1  0.328024  0.662721  0.498602  1
  Au  Au17  1  0.333639  0.664065  0.001439  1
