# generated using pymatgen
data_Cs2TiFeSe4
_symmetry_space_group_name_H-M   'P 1'
_cell_length_a   7.72958220
_cell_length_b   7.72958205
_cell_length_c   5.80623175
_cell_angle_alpha   79.34471407
_cell_angle_beta   79.34470560
_cell_angle_gamma   117.48126125
_symmetry_Int_Tables_number   1
_chemical_formula_structural   Cs2TiFeSe4
_chemical_formula_sum   'Cs2 Ti1 Fe1 Se4'
_cell_volume   287.55775588
_cell_formula_units_Z   1
loop_
 _symmetry_equiv_pos_site_id
 _symmetry_equiv_pos_as_xyz
  1  'x, y, z'
loop_
 _atom_site_type_symbol
 _atom_site_label
 _atom_site_symmetry_multiplicity
 _atom_site_fract_x
 _atom_site_fract_y
 _atom_site_fract_z
 _atom_site_occupancy
  Cs  Cs0  1  0.145631  0.854369  0.000000  1
  Cs  Cs1  1  0.854372  0.145628  0.500000  1
  Ti  Ti2  1  0.501718  0.498282  0.000000  1
  Fe  Fe3  1  0.497943  0.502057  0.500000  1
  Se  Se4  1  0.210992  0.415985  0.847096  1
  Se  Se5  1  0.584015  0.789008  0.152904  1
  Se  Se6  1  0.789031  0.583702  0.654193  1
  Se  Se7  1  0.416298  0.210969  0.345807  1
