# generated using pymatgen
data_Dy3In3CuHgRu
_symmetry_space_group_name_H-M   'P 1'
_cell_length_a   7.73978300
_cell_length_b   7.73978228
_cell_length_c   3.92661100
_cell_angle_alpha   90.00000000
_cell_angle_beta   90.00000000
_cell_angle_gamma   120.00001590
_symmetry_Int_Tables_number   1
_chemical_formula_structural   Dy3In3CuHgRu
_chemical_formula_sum   'Dy3 In3 Cu1 Hg1 Ru1'
_cell_volume   203.70700785
_cell_formula_units_Z   1
loop_
 _symmetry_equiv_pos_site_id
 _symmetry_equiv_pos_as_xyz
  1  'x, y, z'
loop_
 _atom_site_type_symbol
 _atom_site_label
 _atom_site_symmetry_multiplicity
 _atom_site_fract_x
 _atom_site_fract_y
 _atom_site_fract_z
 _atom_site_occupancy
  Dy  Dy0  1  0.393166  0.970078  0.500000  1
  Dy  Dy1  1  0.029922  0.423088  0.500000  1
  Dy  Dy2  1  0.576912  0.606834  0.500000  1
  In  In3  1  0.747233  0.992601  0.000000  1
  In  In4  1  0.007399  0.754632  0.000000  1
  In  In5  1  0.245368  0.252767  0.000000  1
  Cu  Cu6  1  0.000000  0.000000  0.500000  1
  Hg  Hg7  1  0.666667  0.333333  0.000000  1
  Ru  Ru8  1  0.333333  0.666667  0.000000  1
