# generated using pymatgen
data_NdDy2Nb(Co4P3)2
_symmetry_space_group_name_H-M   'P 1'
_cell_length_a   3.73378300
_cell_length_b   10.67306800
_cell_length_c   12.39239900
_cell_angle_alpha   90.00000000
_cell_angle_beta   90.00000000
_cell_angle_gamma   90.00000000
_symmetry_Int_Tables_number   1
_chemical_formula_structural   NdDy2Nb(Co4P3)2
_chemical_formula_sum   'Nd2 Dy4 Nb2 Co16 P12'
_cell_volume   493.84849938
_cell_formula_units_Z   2
loop_
 _symmetry_equiv_pos_site_id
 _symmetry_equiv_pos_as_xyz
  1  'x, y, z'
loop_
 _atom_site_type_symbol
 _atom_site_label
 _atom_site_symmetry_multiplicity
 _atom_site_fract_x
 _atom_site_fract_y
 _atom_site_fract_z
 _atom_site_occupancy
  Nd  Nd0  1  0.000000  0.500000  0.527319  1
  Nd  Nd1  1  0.500000  0.000000  0.472681  1
  Dy  Dy2  1  0.500000  0.819778  0.204398  1
  Dy  Dy3  1  0.500000  0.180222  0.204398  1
  Dy  Dy4  1  0.000000  0.680222  0.795602  1
  Dy  Dy5  1  0.000000  0.319778  0.795602  1
  Nb  Nb6  1  0.500000  0.500000  0.154776  1
  Nb  Nb7  1  0.000000  0.000000  0.845224  1
  Co  Co8  1  0.500000  0.500000  0.705152  1
  Co  Co9  1  0.000000  0.000000  0.294848  1
  Co  Co10  1  0.000000  0.500000  0.985735  1
  Co  Co11  1  0.500000  0.000000  0.014265  1
  Co  Co12  1  0.500000  0.332191  0.991505  1
  Co  Co13  1  0.500000  0.667809  0.991505  1
  Co  Co14  1  0.000000  0.167809  0.008495  1
  Co  Co15  1  0.000000  0.832191  0.008495  1
  Co  Co16  1  0.500000  0.294796  0.431273  1
  Co  Co17  1  0.500000  0.705204  0.431273  1
  Co  Co18  1  0.000000  0.205204  0.568727  1
  Co  Co19  1  0.000000  0.794796  0.568727  1
  Co  Co20  1  0.500000  0.877858  0.706518  1
  Co  Co21  1  0.500000  0.122142  0.706518  1
  Co  Co22  1  0.000000  0.622142  0.293482  1
  Co  Co23  1  0.000000  0.377858  0.293482  1
  P  P24  1  0.500000  0.500000  0.883120  1
  P  P25  1  0.000000  0.000000  0.116880  1
  P  P26  1  0.500000  0.500000  0.351561  1
  P  P27  1  0.000000  0.000000  0.648439  1
  P  P28  1  0.500000  0.307427  0.616776  1
  P  P29  1  0.500000  0.692573  0.616776  1
  P  P30  1  0.000000  0.192573  0.383224  1
  P  P31  1  0.000000  0.807427  0.383224  1
  P  P32  1  0.500000  0.841620  0.893905  1
  P  P33  1  0.500000  0.158380  0.893905  1
  P  P34  1  0.000000  0.658380  0.106095  1
  P  P35  1  0.000000  0.341620  0.106095  1
