# generated using pymatgen
data_Mn2Ni3Te5
_symmetry_space_group_name_H-M   'P 1'
_cell_length_a   3.67145800
_cell_length_b   13.79322300
_cell_length_c   17.81404600
_cell_angle_alpha   90.00000000
_cell_angle_beta   90.00000000
_cell_angle_gamma   90.00000000
_symmetry_Int_Tables_number   1
_chemical_formula_structural   Mn2Ni3Te5
_chemical_formula_sum   'Mn8 Ni12 Te20'
_cell_volume   902.12535978
_cell_formula_units_Z   4
loop_
 _symmetry_equiv_pos_site_id
 _symmetry_equiv_pos_as_xyz
  1  'x, y, z'
loop_
 _atom_site_type_symbol
 _atom_site_label
 _atom_site_symmetry_multiplicity
 _atom_site_fract_x
 _atom_site_fract_y
 _atom_site_fract_z
 _atom_site_occupancy
  Mn  Mn0  1  0.250000  0.742204  0.913651  1
  Mn  Mn1  1  0.750000  0.257796  0.086349  1
  Mn  Mn2  1  0.750000  0.757796  0.413651  1
  Mn  Mn3  1  0.250000  0.242204  0.586349  1
  Mn  Mn4  1  0.250000  0.740154  0.165008  1
  Mn  Mn5  1  0.750000  0.259846  0.834992  1
  Mn  Mn6  1  0.750000  0.759846  0.665008  1
  Mn  Mn7  1  0.250000  0.240154  0.334992  1
  Ni  Ni8  1  0.250000  0.697767  0.766778  1
  Ni  Ni9  1  0.750000  0.302233  0.233222  1
  Ni  Ni10  1  0.750000  0.802233  0.266778  1
  Ni  Ni11  1  0.250000  0.197767  0.733222  1
  Ni  Ni12  1  0.250000  0.742084  0.537967  1
  Ni  Ni13  1  0.750000  0.257916  0.462033  1
  Ni  Ni14  1  0.750000  0.757916  0.037967  1
  Ni  Ni15  1  0.250000  0.242084  0.962033  1
  Ni  Ni16  1  0.250000  0.693204  0.311240  1
  Ni  Ni17  1  0.750000  0.306796  0.688760  1
  Ni  Ni18  1  0.750000  0.806796  0.811240  1
  Ni  Ni19  1  0.250000  0.193204  0.188760  1
  Te  Te20  1  0.250000  0.115056  0.062993  1
  Te  Te21  1  0.750000  0.884944  0.937007  1
  Te  Te22  1  0.750000  0.384944  0.562993  1
  Te  Te23  1  0.250000  0.615056  0.437007  1
  Te  Te24  1  0.250000  0.633201  0.038574  1
  Te  Te25  1  0.750000  0.366799  0.961426  1
  Te  Te26  1  0.750000  0.866799  0.538574  1
  Te  Te27  1  0.250000  0.133201  0.461426  1
  Te  Te28  1  0.250000  0.879947  0.344059  1
  Te  Te29  1  0.750000  0.120053  0.655941  1
  Te  Te30  1  0.750000  0.620053  0.844059  1
  Te  Te31  1  0.250000  0.379947  0.155941  1
  Te  Te32  1  0.250000  0.882966  0.732644  1
  Te  Te33  1  0.750000  0.117034  0.267356  1
  Te  Te34  1  0.750000  0.617034  0.232644  1
  Te  Te35  1  0.250000  0.382966  0.767356  1
  Te  Te36  1  0.250000  0.618801  0.641289  1
  Te  Te37  1  0.750000  0.381199  0.358711  1
  Te  Te38  1  0.750000  0.881199  0.141289  1
  Te  Te39  1  0.250000  0.118801  0.858711  1
