# generated using pymatgen
data_LiTh2Si3As3Pd20
_symmetry_space_group_name_H-M   'P 1'
_cell_length_a   8.77494789
_cell_length_b   8.81291477
_cell_length_c   8.83775449
_cell_angle_alpha   59.62243404
_cell_angle_beta   60.04805311
_cell_angle_gamma   60.32952120
_symmetry_Int_Tables_number   1
_chemical_formula_structural   LiTh2Si3As3Pd20
_chemical_formula_sum   'Li1 Th2 Si3 As3 Pd20'
_cell_volume   483.23412311
_cell_formula_units_Z   1
loop_
 _symmetry_equiv_pos_site_id
 _symmetry_equiv_pos_as_xyz
  1  'x, y, z'
loop_
 _atom_site_type_symbol
 _atom_site_label
 _atom_site_symmetry_multiplicity
 _atom_site_fract_x
 _atom_site_fract_y
 _atom_site_fract_z
 _atom_site_occupancy
  Li  Li0  1  0.999053  0.000947  0.999053  1
  Th  Th1  1  0.250069  0.249931  0.250069  1
  Th  Th2  1  0.750069  0.749931  0.750069  1
  Si  Si3  1  0.737526  0.262474  0.737526  1
  Si  Si4  1  0.261571  0.261761  0.738239  1
  Si  Si5  1  0.738239  0.738429  0.261571  1
  As  As6  1  0.739042  0.260958  0.260003  1
  As  As7  1  0.260003  0.739997  0.739042  1
  As  As8  1  0.260386  0.739614  0.260386  1
  Pd  Pd9  1  0.349858  0.006462  0.993538  1
  Pd  Pd10  1  0.654388  0.999295  0.000705  1
  Pd  Pd11  1  0.000705  0.345612  0.654388  1
  Pd  Pd12  1  0.993538  0.650142  0.349858  1
  Pd  Pd13  1  0.005925  0.349749  0.991394  1
  Pd  Pd14  1  0.650251  0.994075  0.347068  1
  Pd  Pd15  1  0.991394  0.652932  0.005925  1
  Pd  Pd16  1  0.347068  0.008606  0.650251  1
  Pd  Pd17  1  0.000656  0.999344  0.351229  1
  Pd  Pd18  1  0.992883  0.007117  0.653512  1
  Pd  Pd19  1  0.653512  0.346488  0.992883  1
  Pd  Pd20  1  0.351229  0.648771  0.000656  1
  Pd  Pd21  1  0.381867  0.380491  0.389391  1
  Pd  Pd22  1  0.620789  0.612990  0.614271  1
  Pd  Pd23  1  0.387010  0.379211  0.848049  1
  Pd  Pd24  1  0.389391  0.848249  0.381867  1
  Pd  Pd25  1  0.619509  0.618133  0.151751  1
  Pd  Pd26  1  0.614271  0.151951  0.620789  1
  Pd  Pd27  1  0.848049  0.385729  0.387010  1
  Pd  Pd28  1  0.151751  0.610609  0.619509  1
