# generated using pymatgen
data_Y20ReHg6Rh
_symmetry_space_group_name_H-M   'P 1'
_cell_length_a   9.64532100
_cell_length_b   9.64531987
_cell_length_c   9.74350200
_cell_angle_alpha   90.00000000
_cell_angle_beta   90.00000000
_cell_angle_gamma   120.00000044
_symmetry_Int_Tables_number   1
_chemical_formula_structural   Y20ReHg6Rh
_chemical_formula_sum   'Y20 Re1 Hg6 Rh1'
_cell_volume   785.01694089
_cell_formula_units_Z   1
loop_
 _symmetry_equiv_pos_site_id
 _symmetry_equiv_pos_as_xyz
  1  'x, y, z'
loop_
 _atom_site_type_symbol
 _atom_site_label
 _atom_site_symmetry_multiplicity
 _atom_site_fract_x
 _atom_site_fract_y
 _atom_site_fract_z
 _atom_site_occupancy
  Y  Y0  1  0.000000  0.000000  0.500168  1
  Y  Y1  1  0.000000  0.000000  0.999832  1
  Y  Y2  1  0.209139  0.790861  0.440270  1
  Y  Y3  1  0.209139  0.418278  0.440270  1
  Y  Y4  1  0.581722  0.790861  0.440270  1
  Y  Y5  1  0.790883  0.209117  0.559072  1
  Y  Y6  1  0.790883  0.581764  0.559072  1
  Y  Y7  1  0.418236  0.209117  0.559072  1
  Y  Y8  1  0.790883  0.209117  0.940928  1
  Y  Y9  1  0.790883  0.581764  0.940928  1
  Y  Y10  1  0.418236  0.209117  0.940928  1
  Y  Y11  1  0.209139  0.790861  0.059730  1
  Y  Y12  1  0.209139  0.418278  0.059730  1
  Y  Y13  1  0.581722  0.790861  0.059730  1
  Y  Y14  1  0.541934  0.458066  0.250000  1
  Y  Y15  1  0.541934  0.083869  0.250000  1
  Y  Y16  1  0.916131  0.458066  0.250000  1
  Y  Y17  1  0.461435  0.538565  0.750000  1
  Y  Y18  1  0.461435  0.922870  0.750000  1
  Y  Y19  1  0.077130  0.538565  0.750000  1
  Re  Re20  1  0.666667  0.333333  0.750000  1
  Hg  Hg21  1  0.882018  0.117982  0.250000  1
  Hg  Hg22  1  0.882018  0.764038  0.250000  1
  Hg  Hg23  1  0.235962  0.117982  0.250000  1
  Hg  Hg24  1  0.118215  0.881785  0.750000  1
  Hg  Hg25  1  0.118215  0.236427  0.750000  1
  Hg  Hg26  1  0.763573  0.881785  0.750000  1
  Rh  Rh27  1  0.333333  0.666667  0.250000  1
