# generated using pymatgen
data_Ti2FeP2Pt
_symmetry_space_group_name_H-M   'P 1'
_cell_length_a   3.65718800
_cell_length_b   6.19494500
_cell_length_c   7.09299000
_cell_angle_alpha   90.00000000
_cell_angle_beta   90.00000000
_cell_angle_gamma   90.00000000
_symmetry_Int_Tables_number   1
_chemical_formula_structural   Ti2FeP2Pt
_chemical_formula_sum   'Ti4 Fe2 P4 Pt2'
_cell_volume   160.69933834
_cell_formula_units_Z   2
loop_
 _symmetry_equiv_pos_site_id
 _symmetry_equiv_pos_as_xyz
  1  'x, y, z'
loop_
 _atom_site_type_symbol
 _atom_site_label
 _atom_site_symmetry_multiplicity
 _atom_site_fract_x
 _atom_site_fract_y
 _atom_site_fract_z
 _atom_site_occupancy
  Ti  Ti0  1  0.250000  0.021990  0.818561  1
  Ti  Ti1  1  0.250000  0.521990  0.681439  1
  Ti  Ti2  1  0.750000  0.974475  0.168244  1
  Ti  Ti3  1  0.750000  0.474475  0.331756  1
  Fe  Fe4  1  0.750000  0.861571  0.556502  1
  Fe  Fe5  1  0.750000  0.361571  0.943498  1
  P  P6  1  0.250000  0.757337  0.398633  1
  P  P7  1  0.250000  0.257337  0.101367  1
  P  P8  1  0.750000  0.235666  0.645879  1
  P  P9  1  0.750000  0.735666  0.854121  1
  Pt  Pt10  1  0.250000  0.148962  0.427494  1
  Pt  Pt11  1  0.250000  0.648962  0.072506  1
