# generated using pymatgen
data_Sc2Nb4Si7Ni16
_symmetry_space_group_name_H-M   'P 1'
_cell_length_a   7.98063221
_cell_length_b   8.00183327
_cell_length_c   8.00349720
_cell_angle_alpha   59.77335891
_cell_angle_beta   59.97751340
_cell_angle_gamma   59.95834472
_symmetry_Int_Tables_number   1
_chemical_formula_structural   Sc2Nb4Si7Ni16
_chemical_formula_sum   'Sc2 Nb4 Si7 Ni16'
_cell_volume   360.60537117
_cell_formula_units_Z   1
loop_
 _symmetry_equiv_pos_site_id
 _symmetry_equiv_pos_as_xyz
  1  'x, y, z'
loop_
 _atom_site_type_symbol
 _atom_site_label
 _atom_site_symmetry_multiplicity
 _atom_site_fract_x
 _atom_site_fract_y
 _atom_site_fract_z
 _atom_site_occupancy
  Sc  Sc0  1  0.795638  0.794704  0.205240  1
  Sc  Sc1  1  0.795599  0.205324  0.794717  1
  Nb  Nb2  1  0.202830  0.799963  0.200042  1
  Nb  Nb3  1  0.798533  0.204643  0.204585  1
  Nb  Nb4  1  0.207737  0.795375  0.795390  1
  Nb  Nb5  1  0.202820  0.200100  0.799943  1
  Si  Si6  1  0.505391  0.499954  0.500042  1
  Si  Si7  1  0.498529  0.002279  0.500472  1
  Si  Si8  1  0.001211  0.499535  0.997741  1
  Si  Si9  1  0.001315  0.997794  0.499416  1
  Si  Si10  1  0.497101  0.999942  0.999961  1
  Si  Si11  1  0.002865  0.500020  0.500036  1
  Si  Si12  1  0.498521  0.500390  0.002350  1
  Ni  Ni13  1  0.167118  0.168512  0.496687  1
  Ni  Ni14  1  0.495119  0.168189  0.168328  1
  Ni  Ni15  1  0.168827  0.168541  0.168299  1
  Ni  Ni16  1  0.505787  0.831562  0.831295  1
  Ni  Ni17  1  0.831612  0.831883  0.831984  1
  Ni  Ni18  1  0.832095  0.831211  0.503662  1
  Ni  Ni19  1  0.167224  0.496008  0.168950  1
  Ni  Ni20  1  0.615036  0.148068  0.615918  1
  Ni  Ni21  1  0.379133  0.384194  0.851928  1
  Ni  Ni22  1  0.855162  0.379539  0.379309  1
  Ni  Ni23  1  0.383448  0.383921  0.383642  1
  Ni  Ni24  1  0.151128  0.615959  0.615928  1
  Ni  Ni25  1  0.614232  0.620958  0.620570  1
  Ni  Ni26  1  0.615004  0.615840  0.148053  1
  Ni  Ni27  1  0.378870  0.852190  0.383978  1
  Ni  Ni28  1  0.832118  0.503404  0.831534  1
