# generated using pymatgen
data_Tm3Lu(SeO3)6
_symmetry_space_group_name_H-M   'P 1'
_cell_length_a   7.00427243
_cell_length_b   8.04108355
_cell_length_c   8.98742492
_cell_angle_alpha   71.67944191
_cell_angle_beta   70.13447213
_cell_angle_gamma   66.08226670
_symmetry_Int_Tables_number   1
_chemical_formula_structural   Tm3Lu(SeO3)6
_chemical_formula_sum   'Tm3 Lu1 Se6 O18'
_cell_volume   425.91027706
_cell_formula_units_Z   1
loop_
 _symmetry_equiv_pos_site_id
 _symmetry_equiv_pos_as_xyz
  1  'x, y, z'
loop_
 _atom_site_type_symbol
 _atom_site_label
 _atom_site_symmetry_multiplicity
 _atom_site_fract_x
 _atom_site_fract_y
 _atom_site_fract_z
 _atom_site_occupancy
  Tm  Tm0  1  0.333529  0.726731  0.591783  1
  Tm  Tm1  1  0.665613  0.274437  0.407814  1
  Tm  Tm2  1  0.742443  0.735422  0.796829  1
  Lu  Lu3  1  0.257773  0.264050  0.202997  1
  Se  Se4  1  0.114275  0.241153  0.585469  1
  Se  Se5  1  0.426636  0.777321  0.196769  1
  Se  Se6  1  0.146860  0.748551  0.967327  1
  Se  Se7  1  0.853642  0.248559  0.034162  1
  Se  Se8  1  0.572876  0.224542  0.803138  1
  Se  Se9  1  0.885680  0.759488  0.413381  1
  O  O10  1  0.158946  0.011289  0.654815  1
  O  O11  1  0.168208  0.561702  0.122660  1
  O  O12  1  0.034048  0.705342  0.555330  1
  O  O13  1  0.345972  0.253192  0.433235  1
  O  O14  1  0.067237  0.692864  0.831050  1
  O  O15  1  0.590296  0.288773  0.151610  1
  O  O16  1  0.348386  0.208827  0.952967  1
  O  O17  1  0.358760  0.948286  0.304148  1
  O  O18  1  0.516659  0.595229  0.352418  1
  O  O19  1  0.481628  0.406610  0.647853  1
  O  O20  1  0.639256  0.054342  0.695449  1
  O  O21  1  0.652499  0.792143  0.048679  1
  O  O22  1  0.409487  0.710606  0.849431  1
  O  O23  1  0.934515  0.305352  0.169226  1
  O  O24  1  0.653737  0.746836  0.565050  1
  O  O25  1  0.966626  0.294598  0.443200  1
  O  O26  1  0.833757  0.434364  0.877900  1
  O  O27  1  0.840655  0.989393  0.345311  1
