# generated using pymatgen
data_Te8RuI2
_symmetry_space_group_name_H-M   'P 1'
_cell_length_a   9.44426163
_cell_length_b   9.44426212
_cell_length_c   10.81077549
_cell_angle_alpha   78.04786422
_cell_angle_beta   78.04786428
_cell_angle_gamma   116.85835220
_symmetry_Int_Tables_number   1
_chemical_formula_structural   Te8RuI2
_chemical_formula_sum   'Te16 Ru2 I4'
_cell_volume   790.07936502
_cell_formula_units_Z   2
loop_
 _symmetry_equiv_pos_site_id
 _symmetry_equiv_pos_as_xyz
  1  'x, y, z'
loop_
 _atom_site_type_symbol
 _atom_site_label
 _atom_site_symmetry_multiplicity
 _atom_site_fract_x
 _atom_site_fract_y
 _atom_site_fract_z
 _atom_site_occupancy
  Te  Te0  1  0.801070  0.077561  0.146048  1
  Te  Te1  1  0.922439  0.198930  0.353952  1
  Te  Te2  1  0.198930  0.922439  0.853952  1
  Te  Te3  1  0.077561  0.801070  0.646048  1
  Te  Te4  1  0.980975  0.776622  0.208151  1
  Te  Te5  1  0.223378  0.019025  0.291849  1
  Te  Te6  1  0.019025  0.223378  0.791849  1
  Te  Te7  1  0.776622  0.980975  0.708151  1
  Te  Te8  1  0.760353  0.728152  0.469849  1
  Te  Te9  1  0.271848  0.239647  0.030151  1
  Te  Te10  1  0.239647  0.271848  0.530151  1
  Te  Te11  1  0.728152  0.760353  0.969849  1
  Te  Te12  1  0.541218  0.798312  0.365452  1
  Te  Te13  1  0.201688  0.458782  0.134548  1
  Te  Te14  1  0.458782  0.201688  0.634548  1
  Te  Te15  1  0.798312  0.541218  0.865452  1
  Ru  Ru16  1  0.000000  0.000000  0.000000  1
  Ru  Ru17  1  0.000000  0.000000  0.500000  1
  I  I18  1  0.595175  0.404825  0.250000  1
  I  I19  1  0.404825  0.595175  0.750000  1
  I  I20  1  0.000000  0.500000  0.500000  1
  I  I21  1  0.500000  0.000000  0.000000  1
