# generated using pymatgen
data_Tb16MgTl(InRu2)2
_symmetry_space_group_name_H-M   'P 1'
_cell_length_a   9.69449847
_cell_length_b   9.71626546
_cell_length_c   9.71626538
_cell_angle_alpha   59.69327152
_cell_angle_beta   59.74395271
_cell_angle_gamma   59.74395839
_symmetry_Int_Tables_number   1
_chemical_formula_structural   Tb16MgTl(InRu2)2
_chemical_formula_sum   'Tb16 Mg1 Tl1 In2 Ru4'
_cell_volume   643.14426155
_cell_formula_units_Z   1
loop_
 _symmetry_equiv_pos_site_id
 _symmetry_equiv_pos_as_xyz
  1  'x, y, z'
loop_
 _atom_site_type_symbol
 _atom_site_label
 _atom_site_symmetry_multiplicity
 _atom_site_fract_x
 _atom_site_fract_y
 _atom_site_fract_z
 _atom_site_occupancy
  Tb  Tb0  1  0.597069  0.597846  0.597846  1
  Tb  Tb1  1  0.598649  0.595797  0.210387  1
  Tb  Tb2  1  0.598649  0.210387  0.595797  1
  Tb  Tb3  1  0.205774  0.598260  0.598260  1
  Tb  Tb4  1  0.056951  0.442408  0.442408  1
  Tb  Tb5  1  0.435819  0.061363  0.061363  1
  Tb  Tb6  1  0.439578  0.060577  0.438795  1
  Tb  Tb7  1  0.057875  0.439325  0.057645  1
  Tb  Tb8  1  0.439578  0.438795  0.060577  1
  Tb  Tb9  1  0.057875  0.057645  0.439325  1
  Tb  Tb10  1  0.189095  0.809787  0.809787  1
  Tb  Tb11  1  0.809592  0.190502  0.190502  1
  Tb  Tb12  1  0.808740  0.190619  0.809355  1
  Tb  Tb13  1  0.191042  0.808793  0.190120  1
  Tb  Tb14  1  0.808740  0.809355  0.190619  1
  Tb  Tb15  1  0.191042  0.190120  0.808793  1
  Mg  Mg16  1  0.521630  0.825516  0.825516  1
  Tl  Tl17  1  0.831187  0.834614  0.834614  1
  In  In18  1  0.830916  0.832590  0.501607  1
  In  In19  1  0.830916  0.501607  0.832590  1
  Ru  Ru20  1  0.386423  0.389376  0.389376  1
  Ru  Ru21  1  0.390458  0.391035  0.831907  1
  Ru  Ru22  1  0.390458  0.831907  0.391035  1
  Ru  Ru23  1  0.831942  0.391774  0.391774  1
