# generated using pymatgen
data_Zn5B3Ir3Rh4
_symmetry_space_group_name_H-M   'P 1'
_cell_length_a   2.86686100
_cell_length_b   11.16166906
_cell_length_c   11.89122978
_cell_angle_alpha   89.73887627
_cell_angle_beta   90.00000000
_cell_angle_gamma   90.00000000
_symmetry_Int_Tables_number   1
_chemical_formula_structural   Zn5B3Ir3Rh4
_chemical_formula_sum   'Zn10 B6 Ir6 Rh8'
_cell_volume   380.50296002
_cell_formula_units_Z   2
loop_
 _symmetry_equiv_pos_site_id
 _symmetry_equiv_pos_as_xyz
  1  'x, y, z'
loop_
 _atom_site_type_symbol
 _atom_site_label
 _atom_site_symmetry_multiplicity
 _atom_site_fract_x
 _atom_site_fract_y
 _atom_site_fract_z
 _atom_site_occupancy
  Zn  Zn0  1  0.500000  0.751730  0.189703  1
  Zn  Zn1  1  0.500000  0.248270  0.810297  1
  Zn  Zn2  1  0.500000  0.449926  0.133463  1
  Zn  Zn3  1  0.500000  0.550074  0.866537  1
  Zn  Zn4  1  0.500000  0.048476  0.133379  1
  Zn  Zn5  1  0.500000  0.951524  0.866621  1
  Zn  Zn6  1  0.500000  0.367835  0.345527  1
  Zn  Zn7  1  0.500000  0.632165  0.654473  1
  Zn  Zn8  1  0.500000  0.131434  0.345857  1
  Zn  Zn9  1  0.500000  0.868566  0.654143  1
  B  B10  1  0.500000  0.750417  0.962163  1
  B  B11  1  0.500000  0.249583  0.037837  1
  B  B12  1  0.500000  0.882881  0.407502  1
  B  B13  1  0.500000  0.117119  0.592498  1
  B  B14  1  0.500000  0.617728  0.406570  1
  B  B15  1  0.500000  0.382272  0.593430  1
  Ir  Ir16  1  0.000000  0.000000  0.500000  1
  Ir  Ir17  1  0.000000  0.500000  0.500000  1
  Ir  Ir18  1  0.000000  0.750512  0.474417  1
  Ir  Ir19  1  0.000000  0.249488  0.525583  1
  Ir  Ir20  1  0.000000  0.578222  0.277729  1
  Ir  Ir21  1  0.000000  0.421778  0.722271  1
  Rh  Rh22  1  0.000000  0.751372  0.821605  1
  Rh  Rh23  1  0.000000  0.248628  0.178395  1
  Rh  Rh24  1  0.000000  0.873996  0.038269  1
  Rh  Rh25  1  0.000000  0.126004  0.961731  1
  Rh  Rh26  1  0.000000  0.626112  0.038324  1
  Rh  Rh27  1  0.000000  0.373888  0.961676  1
  Rh  Rh28  1  0.000000  0.922982  0.279052  1
  Rh  Rh29  1  0.000000  0.077018  0.720948  1
