# generated using pymatgen
data_Y4Mn2TcOs5
_symmetry_space_group_name_H-M   'P 1'
_cell_length_a   5.33553915
_cell_length_b   5.33553921
_cell_length_c   8.74426900
_cell_angle_alpha   90.00000000
_cell_angle_beta   90.00000000
_cell_angle_gamma   119.50746873
_symmetry_Int_Tables_number   1
_chemical_formula_structural   Y4Mn2TcOs5
_chemical_formula_sum   'Y4 Mn2 Tc1 Os5'
_cell_volume   216.64310804
_cell_formula_units_Z   1
loop_
 _symmetry_equiv_pos_site_id
 _symmetry_equiv_pos_as_xyz
  1  'x, y, z'
loop_
 _atom_site_type_symbol
 _atom_site_label
 _atom_site_symmetry_multiplicity
 _atom_site_fract_x
 _atom_site_fract_y
 _atom_site_fract_z
 _atom_site_occupancy
  Y  Y0  1  0.332430  0.667570  0.433954  1
  Y  Y1  1  0.665963  0.334037  0.567717  1
  Y  Y2  1  0.665963  0.334037  0.932283  1
  Y  Y3  1  0.332430  0.667570  0.066046  1
  Mn  Mn4  1  0.000650  0.999350  0.504199  1
  Mn  Mn5  1  0.000650  0.999350  0.995801  1
  Tc  Tc6  1  0.831940  0.168060  0.250000  1
  Os  Os7  1  0.829648  0.662003  0.250000  1
  Os  Os8  1  0.337997  0.170352  0.250000  1
  Os  Os9  1  0.171413  0.828587  0.750000  1
  Os  Os10  1  0.168699  0.337783  0.750000  1
  Os  Os11  1  0.662217  0.831301  0.750000  1
