# generated using pymatgen
data_Pr2Nd6GaPd24
_symmetry_space_group_name_H-M   'P 1'
_cell_length_a   8.52070700
_cell_length_b   8.52176815
_cell_length_c   8.52176815
_cell_angle_alpha   89.97845803
_cell_angle_beta   90.00000000
_cell_angle_gamma   90.00000000
_symmetry_Int_Tables_number   1
_chemical_formula_structural   Pr2Nd6GaPd24
_chemical_formula_sum   'Pr2 Nd6 Ga1 Pd24'
_cell_volume   618.77823513
_cell_formula_units_Z   1
loop_
 _symmetry_equiv_pos_site_id
 _symmetry_equiv_pos_as_xyz
  1  'x, y, z'
loop_
 _atom_site_type_symbol
 _atom_site_label
 _atom_site_symmetry_multiplicity
 _atom_site_fract_x
 _atom_site_fract_y
 _atom_site_fract_z
 _atom_site_occupancy
  Pr  Pr0  1  0.251562  0.251493  0.748507  1
  Pr  Pr1  1  0.251562  0.748507  0.251493  1
  Nd  Nd2  1  0.748539  0.251548  0.251548  1
  Nd  Nd3  1  0.748539  0.748452  0.748452  1
  Nd  Nd4  1  0.748271  0.748337  0.251663  1
  Nd  Nd5  1  0.748271  0.251663  0.748337  1
  Nd  Nd6  1  0.251548  0.748366  0.748366  1
  Nd  Nd7  1  0.251548  0.251634  0.251634  1
  Ga  Ga8  1  0.999904  0.000000  0.000000  1
  Pd  Pd9  1  0.500654  0.500810  0.746256  1
  Pd  Pd10  1  0.500654  0.253744  0.499190  1
  Pd  Pd11  1  0.253752  0.500000  0.500000  1
  Pd  Pd12  1  0.500654  0.499190  0.253744  1
  Pd  Pd13  1  0.500654  0.746256  0.500810  1
  Pd  Pd14  1  0.746257  0.500000  0.500000  1
  Pd  Pd15  1  0.999447  0.999375  0.705621  1
  Pd  Pd16  1  0.999447  0.294379  0.000625  1
  Pd  Pd17  1  0.294565  0.000000  0.000000  1
  Pd  Pd18  1  0.999447  0.000625  0.294379  1
  Pd  Pd19  1  0.999447  0.705621  0.999375  1
  Pd  Pd20  1  0.705763  0.000000  0.000000  1
  Pd  Pd21  1  0.999325  0.500615  0.738635  1
  Pd  Pd22  1  0.500573  0.261374  0.000824  1
  Pd  Pd23  1  0.261346  0.000000  0.500000  1
  Pd  Pd24  1  0.999325  0.261365  0.499385  1
  Pd  Pd25  1  0.500573  0.999176  0.738626  1
  Pd  Pd26  1  0.261346  0.500000  0.000000  1
  Pd  Pd27  1  0.999325  0.499385  0.261365  1
  Pd  Pd28  1  0.500573  0.738626  0.999176  1
  Pd  Pd29  1  0.999325  0.738635  0.500615  1
  Pd  Pd30  1  0.500573  0.000824  0.261374  1
  Pd  Pd31  1  0.738616  0.000000  0.500000  1
  Pd  Pd32  1  0.738616  0.500000  0.000000  1
