# generated using pymatgen
data_Dy5OsAu2
_symmetry_space_group_name_H-M   'P 1'
_cell_length_a   11.16359300
_cell_length_b   11.16359300
_cell_length_c   6.28931800
_cell_angle_alpha   90.00000000
_cell_angle_beta   90.00000000
_cell_angle_gamma   90.00000000
_symmetry_Int_Tables_number   1
_chemical_formula_structural   Dy5OsAu2
_chemical_formula_sum   'Dy20 Os4 Au8'
_cell_volume   783.81134173
_cell_formula_units_Z   4
loop_
 _symmetry_equiv_pos_site_id
 _symmetry_equiv_pos_as_xyz
  1  'x, y, z'
loop_
 _atom_site_type_symbol
 _atom_site_label
 _atom_site_symmetry_multiplicity
 _atom_site_fract_x
 _atom_site_fract_y
 _atom_site_fract_z
 _atom_site_occupancy
  Dy  Dy0  1  0.300274  0.083451  0.348758  1
  Dy  Dy1  1  0.300274  0.916549  0.848758  1
  Dy  Dy2  1  0.699726  0.083451  0.848758  1
  Dy  Dy3  1  0.699726  0.916549  0.348758  1
  Dy  Dy4  1  0.583451  0.800274  0.848758  1
  Dy  Dy5  1  0.583451  0.199726  0.348758  1
  Dy  Dy6  1  0.416549  0.800274  0.348758  1
  Dy  Dy7  1  0.416549  0.199726  0.848758  1
  Dy  Dy8  1  0.199726  0.416549  0.651242  1
  Dy  Dy9  1  0.199726  0.583451  0.151242  1
  Dy  Dy10  1  0.800274  0.416549  0.151242  1
  Dy  Dy11  1  0.800274  0.583451  0.651242  1
  Dy  Dy12  1  0.916549  0.699726  0.151242  1
  Dy  Dy13  1  0.916549  0.300274  0.651242  1
  Dy  Dy14  1  0.083451  0.699726  0.651242  1
  Dy  Dy15  1  0.083451  0.300274  0.151242  1
  Dy  Dy16  1  0.000000  0.000000  0.500000  1
  Dy  Dy17  1  0.000000  0.000000  0.000000  1
  Dy  Dy18  1  0.500000  0.500000  0.000000  1
  Dy  Dy19  1  0.500000  0.500000  0.500000  1
  Os  Os20  1  0.500000  0.000000  0.100693  1
  Os  Os21  1  0.500000  0.000000  0.600693  1
  Os  Os22  1  0.000000  0.500000  0.899307  1
  Os  Os23  1  0.000000  0.500000  0.399307  1
  Au  Au24  1  0.844640  0.155360  0.250000  1
  Au  Au25  1  0.844640  0.844640  0.750000  1
  Au  Au26  1  0.155360  0.155360  0.750000  1
  Au  Au27  1  0.155360  0.844640  0.250000  1
  Au  Au28  1  0.655360  0.344640  0.750000  1
  Au  Au29  1  0.655360  0.655360  0.250000  1
  Au  Au30  1  0.344640  0.344640  0.250000  1
  Au  Au31  1  0.344640  0.655360  0.750000  1
