# generated using pymatgen
data_Dy3(YOs)2
_symmetry_space_group_name_H-M   'P 1'
_cell_length_a   6.37927590
_cell_length_b   7.38134655
_cell_length_c   8.44928435
_cell_angle_alpha   97.02751578
_cell_angle_beta   112.17915581
_cell_angle_gamma   89.99999513
_symmetry_Int_Tables_number   1
_chemical_formula_structural   Dy3(YOs)2
_chemical_formula_sum   'Dy6 Y4 Os4'
_cell_volume   365.18892317
_cell_formula_units_Z   2
loop_
 _symmetry_equiv_pos_site_id
 _symmetry_equiv_pos_as_xyz
  1  'x, y, z'
loop_
 _atom_site_type_symbol
 _atom_site_label
 _atom_site_symmetry_multiplicity
 _atom_site_fract_x
 _atom_site_fract_y
 _atom_site_fract_z
 _atom_site_occupancy
  Dy  Dy0  1  0.204265  0.183335  0.564709  1
  Dy  Dy1  1  0.639556  0.316665  0.435291  1
  Dy  Dy2  1  0.795735  0.816665  0.435291  1
  Dy  Dy3  1  0.360444  0.683335  0.564709  1
  Dy  Dy4  1  0.422571  0.250000  0.000000  1
  Dy  Dy5  1  0.577429  0.750000  0.000000  1
  Y  Y6  1  0.793949  0.083183  0.816646  1
  Y  Y7  1  0.977303  0.416817  0.183354  1
  Y  Y8  1  0.206051  0.916817  0.183354  1
  Y  Y9  1  0.022697  0.583183  0.816646  1
  Os  Os10  1  0.600692  0.422979  0.779620  1
  Os  Os11  1  0.821071  0.077021  0.220380  1
  Os  Os12  1  0.399308  0.577021  0.220380  1
  Os  Os13  1  0.178929  0.922979  0.779620  1
