# generated using pymatgen
data_TbDy3(Al8Pt3)3
_symmetry_space_group_name_H-M   'P 1'
_cell_length_a   7.53343160
_cell_length_b   7.55416076
_cell_length_c   13.18185619
_cell_angle_alpha   84.56624265
_cell_angle_beta   79.10935535
_cell_angle_gamma   59.97565720
_symmetry_Int_Tables_number   1
_chemical_formula_structural   TbDy3(Al8Pt3)3
_chemical_formula_sum   'Tb1 Dy3 Al24 Pt9'
_cell_volume   637.80300480
_cell_formula_units_Z   1
loop_
 _symmetry_equiv_pos_site_id
 _symmetry_equiv_pos_as_xyz
  1  'x, y, z'
loop_
 _atom_site_type_symbol
 _atom_site_label
 _atom_site_symmetry_multiplicity
 _atom_site_fract_x
 _atom_site_fract_y
 _atom_site_fract_z
 _atom_site_occupancy
  Tb  Tb0  1  0.393546  0.168333  0.807904  1
  Dy  Dy1  1  0.606826  0.831435  0.191986  1
  Dy  Dy2  1  0.733574  0.498505  0.807563  1
  Dy  Dy3  1  0.266100  0.501705  0.191989  1
  Al  Al4  1  0.684893  0.832970  0.944441  1
  Al  Al5  1  0.315608  0.166114  0.055357  1
  Al  Al6  1  0.146533  0.832591  0.561728  1
  Al  Al7  1  0.853197  0.167349  0.438784  1
  Al  Al8  1  0.479723  0.166941  0.558710  1
  Al  Al9  1  0.520054  0.833120  0.441642  1
  Al  Al10  1  0.216833  0.165365  0.330441  1
  Al  Al11  1  0.783227  0.834232  0.670239  1
  Al  Al12  1  0.437487  0.506695  0.670567  1
  Al  Al13  1  0.562319  0.493762  0.330013  1
  Al  Al14  1  0.109195  0.160061  0.669366  1
  Al  Al15  1  0.890321  0.839955  0.331164  1
  Al  Al16  1  0.353275  0.499981  0.944336  1
  Al  Al17  1  0.647498  0.500328  0.055194  1
  Al  Al18  1  0.014941  0.167890  0.952650  1
  Al  Al19  1  0.984644  0.832770  0.046154  1
  Al  Al20  1  0.186669  0.499287  0.441560  1
  Al  Al21  1  0.813229  0.500749  0.558650  1
  Al  Al22  1  0.734638  0.163880  0.183639  1
  Al  Al23  1  0.265115  0.835856  0.816328  1
  Al  Al24  1  0.061111  0.631703  0.815223  1
  Al  Al25  1  0.938871  0.368551  0.184561  1
  Al  Al26  1  0.855617  0.041396  0.815914  1
  Al  Al27  1  0.144667  0.958232  0.183912  1
  Pt  Pt28  1  0.119999  0.492127  0.638818  1
  Pt  Pt29  1  0.880177  0.508069  0.361173  1
  Pt  Pt30  1  0.657222  0.171205  0.999921  1
  Pt  Pt31  1  0.342574  0.828911  0.999899  1
  Pt  Pt32  1  0.537908  0.166705  0.361320  1
  Pt  Pt33  1  0.461847  0.833437  0.638856  1
  Pt  Pt34  1  0.778692  0.174875  0.637274  1
  Pt  Pt35  1  0.221321  0.825002  0.362826  1
  Pt  Pt36  1  0.000551  0.499912  0.999896  1
