# generated using pymatgen
data_Hf2ZrSiTc3As2
_symmetry_space_group_name_H-M   'P 1'
_cell_length_a   7.79480753
_cell_length_b   7.79480822
_cell_length_c   7.79480876
_cell_angle_alpha   127.31985740
_cell_angle_beta   125.87750466
_cell_angle_gamma   78.91189253
_symmetry_Int_Tables_number   1
_chemical_formula_structural   Hf2ZrSiTc3As2
_chemical_formula_sum   'Hf4 Zr2 Si2 Tc6 As4'
_cell_volume   295.25796795
_cell_formula_units_Z   2
loop_
 _symmetry_equiv_pos_site_id
 _symmetry_equiv_pos_as_xyz
  1  'x, y, z'
loop_
 _atom_site_type_symbol
 _atom_site_label
 _atom_site_symmetry_multiplicity
 _atom_site_fract_x
 _atom_site_fract_y
 _atom_site_fract_z
 _atom_site_occupancy
  Hf  Hf0  1  0.748586  0.851768  0.603182  1
  Hf  Hf1  1  0.251414  0.854597  0.103182  1
  Hf  Hf2  1  0.050610  0.253034  0.702423  1
  Hf  Hf3  1  0.949390  0.651812  0.202423  1
  Zr  Zr4  1  0.452862  0.657169  0.704307  1
  Zr  Zr5  1  0.547138  0.251445  0.204307  1
  Si  Si6  1  0.252910  0.257316  0.504407  1
  Si  Si7  1  0.747090  0.251496  0.004407  1
  Tc  Tc8  1  0.500000  0.501903  0.001903  1
  Tc  Tc9  1  0.000000  0.501903  0.501903  1
  Tc  Tc10  1  0.116878  0.251846  0.122651  1
  Tc  Tc11  1  0.883122  0.005772  0.134968  1
  Tc  Tc12  1  0.370805  0.005772  0.622651  1
  Tc  Tc13  1  0.629195  0.251846  0.634968  1
  As  As14  1  0.331078  0.586724  0.250316  1
  As  As15  1  0.668922  0.919238  0.255645  1
  As  As16  1  0.163593  0.919238  0.750316  1
  As  As17  1  0.836407  0.586724  0.755645  1
