# generated using pymatgen
data_Dy3Th(GaPd2)4
_symmetry_space_group_name_H-M   'P 1'
_cell_length_a   5.68093934
_cell_length_b   7.19229400
_cell_length_c   7.41411933
_cell_angle_alpha   90.00000000
_cell_angle_beta   89.63479935
_cell_angle_gamma   90.00000000
_symmetry_Int_Tables_number   1
_chemical_formula_structural   Dy3Th(GaPd2)4
_chemical_formula_sum   'Dy3 Th1 Ga4 Pd8'
_cell_volume   302.92724347
_cell_formula_units_Z   1
loop_
 _symmetry_equiv_pos_site_id
 _symmetry_equiv_pos_as_xyz
  1  'x, y, z'
loop_
 _atom_site_type_symbol
 _atom_site_label
 _atom_site_symmetry_multiplicity
 _atom_site_fract_x
 _atom_site_fract_y
 _atom_site_fract_z
 _atom_site_occupancy
  Dy  Dy0  1  0.148671  0.750000  0.529662  1
  Dy  Dy1  1  0.651986  0.250000  0.968366  1
  Dy  Dy2  1  0.851744  0.250000  0.467756  1
  Th  Th3  1  0.352022  0.750000  0.033636  1
  Ga  Ga4  1  0.649580  0.750000  0.391153  1
  Ga  Ga5  1  0.854350  0.750000  0.878292  1
  Ga  Ga6  1  0.354221  0.250000  0.616902  1
  Ga  Ga7  1  0.145385  0.250000  0.116047  1
  Pd  Pd8  1  0.911395  0.552442  0.183074  1
  Pd  Pd9  1  0.585016  0.949503  0.683471  1
  Pd  Pd10  1  0.086073  0.051758  0.816454  1
  Pd  Pd11  1  0.413537  0.448627  0.316094  1
  Pd  Pd12  1  0.086073  0.448242  0.816454  1
  Pd  Pd13  1  0.413537  0.051373  0.316094  1
  Pd  Pd14  1  0.911395  0.947558  0.183074  1
  Pd  Pd15  1  0.585016  0.550497  0.683471  1
