# generated using pymatgen
data_Pr10InBi5Br2
_symmetry_space_group_name_H-M   'P 1'
_cell_length_a   9.75442300
_cell_length_b   9.68109691
_cell_length_c   6.79804500
_cell_angle_alpha   90.00000000
_cell_angle_beta   90.00000000
_cell_angle_gamma   120.25087220
_symmetry_Int_Tables_number   1
_chemical_formula_structural   Pr10InBi5Br2
_chemical_formula_sum   'Pr10 In1 Bi5 Br2'
_cell_volume   554.54575149
_cell_formula_units_Z   1
loop_
 _symmetry_equiv_pos_site_id
 _symmetry_equiv_pos_as_xyz
  1  'x, y, z'
loop_
 _atom_site_type_symbol
 _atom_site_label
 _atom_site_symmetry_multiplicity
 _atom_site_fract_x
 _atom_site_fract_y
 _atom_site_fract_z
 _atom_site_occupancy
  Pr  Pr0  1  0.273407  0.000000  0.750000  1
  Pr  Pr1  1  0.727009  0.000000  0.250000  1
  Pr  Pr2  1  0.996472  0.269232  0.750000  1
  Pr  Pr3  1  0.999916  0.729554  0.250000  1
  Pr  Pr4  1  0.727239  0.730768  0.750000  1
  Pr  Pr5  1  0.270363  0.270446  0.250000  1
  Pr  Pr6  1  0.335238  0.668440  0.498111  1
  Pr  Pr7  1  0.666799  0.331560  0.498111  1
  Pr  Pr8  1  0.666799  0.331560  0.001889  1
  Pr  Pr9  1  0.335238  0.668440  0.001889  1
  In  In10  1  0.614761  0.000000  0.750000  1
  Bi  Bi11  1  0.386567  0.000000  0.250000  1
  Bi  Bi12  1  0.998916  0.616095  0.750000  1
  Bi  Bi13  1  0.999461  0.382979  0.250000  1
  Bi  Bi14  1  0.382820  0.383905  0.750000  1
  Bi  Bi15  1  0.616482  0.617021  0.250000  1
  Br  Br16  1  0.001256  0.000000  0.499535  1
  Br  Br17  1  0.001256  0.000000  0.000465  1
