# generated using pymatgen
data_Ca5Yb(PrBi3)2
_symmetry_space_group_name_H-M   'P 1'
_cell_length_a   8.40694301
_cell_length_b   8.46861896
_cell_length_c   8.40614689
_cell_angle_alpha   109.49379782
_cell_angle_beta   109.16301496
_cell_angle_gamma   109.49431977
_symmetry_Int_Tables_number   1
_chemical_formula_structural   Ca5Yb(PrBi3)2
_chemical_formula_sum   'Ca5 Yb1 Pr2 Bi6'
_cell_volume   462.19082129
_cell_formula_units_Z   1
loop_
 _symmetry_equiv_pos_site_id
 _symmetry_equiv_pos_as_xyz
  1  'x, y, z'
loop_
 _atom_site_type_symbol
 _atom_site_label
 _atom_site_symmetry_multiplicity
 _atom_site_fract_x
 _atom_site_fract_y
 _atom_site_fract_z
 _atom_site_occupancy
  Ca  Ca0  1  0.501640  0.001819  0.143278  1
  Ca  Ca1  1  0.643233  0.501683  0.001691  1
  Ca  Ca2  1  0.998741  0.642927  0.500268  1
  Ca  Ca3  1  0.857466  0.855765  0.857177  1
  Ca  Ca4  1  0.000394  0.142951  0.498664  1
  Yb  Yb5  1  0.357090  0.355756  0.357310  1
  Pr  Pr6  1  0.141572  0.499585  0.000415  1
  Pr  Pr7  1  0.500218  0.999718  0.641566  1
  Bi  Bi8  1  0.624029  0.748193  0.374815  1
  Bi  Bi9  1  0.750382  0.375752  0.624721  1
  Bi  Bi10  1  0.250406  0.125817  0.875037  1
  Bi  Bi11  1  0.374758  0.625540  0.750081  1
  Bi  Bi12  1  0.125081  0.876063  0.250716  1
  Bi  Bi13  1  0.874988  0.248431  0.124260  1
