# generated using pymatgen
data_Sr5La2Nd(Si3Pd)4
_symmetry_space_group_name_H-M   'P 1'
_cell_length_a   8.41208400
_cell_length_b   8.40027899
_cell_length_c   8.79044800
_cell_angle_alpha   90.00000000
_cell_angle_beta   90.00000000
_cell_angle_gamma   120.04649822
_symmetry_Int_Tables_number   1
_chemical_formula_structural   Sr5La2Nd(Si3Pd)4
_chemical_formula_sum   'Sr5 La2 Nd1 Si12 Pd4'
_cell_volume   537.69410330
_cell_formula_units_Z   1
loop_
 _symmetry_equiv_pos_site_id
 _symmetry_equiv_pos_as_xyz
  1  'x, y, z'
loop_
 _atom_site_type_symbol
 _atom_site_label
 _atom_site_symmetry_multiplicity
 _atom_site_fract_x
 _atom_site_fract_y
 _atom_site_fract_z
 _atom_site_occupancy
  Sr  Sr0  1  0.498851  0.501080  0.750000  1
  Sr  Sr1  1  0.501319  0.498952  0.250000  1
  Sr  Sr2  1  0.002229  0.501080  0.750000  1
  Sr  Sr3  1  0.997633  0.498952  0.250000  1
  Sr  Sr4  1  0.498888  0.997775  0.750000  1
  La  La5  1  0.500831  0.001662  0.250000  1
  La  La6  1  0.000092  0.000182  0.750000  1
  Nd  Nd7  1  0.000005  0.000010  0.250000  1
  Si  Si8  1  0.836915  0.162885  0.003572  1
  Si  Si9  1  0.163009  0.837106  0.004901  1
  Si  Si10  1  0.325970  0.162885  0.003572  1
  Si  Si11  1  0.163009  0.837106  0.495099  1
  Si  Si12  1  0.674097  0.837106  0.004901  1
  Si  Si13  1  0.836915  0.162885  0.496428  1
  Si  Si14  1  0.836499  0.672999  0.001147  1
  Si  Si15  1  0.674097  0.837106  0.495099  1
  Si  Si16  1  0.163524  0.327049  0.002902  1
  Si  Si17  1  0.325970  0.162885  0.496428  1
  Si  Si18  1  0.163524  0.327049  0.497098  1
  Si  Si19  1  0.836499  0.672999  0.498853  1
  Pd  Pd20  1  0.665621  0.331242  0.001847  1
  Pd  Pd21  1  0.334439  0.668880  0.007633  1
  Pd  Pd22  1  0.334439  0.668880  0.492367  1
  Pd  Pd23  1  0.665621  0.331242  0.498153  1
