# generated using pymatgen
data_Sc2Si5Ni7P2Ru5
_symmetry_space_group_name_H-M   'P 1'
_cell_length_a   9.22312703
_cell_length_b   9.27228390
_cell_length_c   3.67628900
_cell_angle_alpha   90.00000000
_cell_angle_beta   90.00000000
_cell_angle_gamma   119.57420673
_symmetry_Int_Tables_number   1
_chemical_formula_structural   Sc2Si5Ni7P2Ru5
_chemical_formula_sum   'Sc2 Si5 Ni7 P2 Ru5'
_cell_volume   273.43406321
_cell_formula_units_Z   1
loop_
 _symmetry_equiv_pos_site_id
 _symmetry_equiv_pos_as_xyz
  1  'x, y, z'
loop_
 _atom_site_type_symbol
 _atom_site_label
 _atom_site_symmetry_multiplicity
 _atom_site_fract_x
 _atom_site_fract_y
 _atom_site_fract_z
 _atom_site_occupancy
  Sc  Sc0  1  0.669186  0.334940  0.500000  1
  Sc  Sc1  1  0.331650  0.662392  0.000000  1
  Si  Si2  1  0.996697  0.997198  0.000000  1
  Si  Si3  1  0.409316  0.287835  0.000000  1
  Si  Si4  1  0.593857  0.713948  0.500000  1
  Si  Si5  1  0.708760  0.119600  0.000000  1
  Si  Si6  1  0.882190  0.594588  0.000000  1
  Ni  Ni7  1  0.711187  0.877052  0.000000  1
  Ni  Ni8  1  0.132282  0.843122  0.000000  1
  Ni  Ni9  1  0.152263  0.278421  0.000000  1
  Ni  Ni10  1  0.938123  0.374672  0.000000  1
  Ni  Ni11  1  0.626143  0.566919  0.000000  1
  Ni  Ni12  1  0.438876  0.059454  0.000000  1
  Ni  Ni13  1  0.558516  0.947947  0.500000  1
  P  P14  1  0.294763  0.883821  0.500000  1
  P  P15  1  0.115916  0.402447  0.500000  1
  Ru  Ru16  1  0.382564  0.437908  0.500000  1
  Ru  Ru17  1  0.061317  0.615598  0.500000  1
  Ru  Ru18  1  0.216803  0.089561  0.500000  1
  Ru  Ru19  1  0.882181  0.787222  0.500000  1
  Ru  Ru20  1  0.897410  0.125355  0.500000  1
