# generated using pymatgen
data_LiBi(CO3)2
_symmetry_space_group_name_H-M   'P 1'
_cell_length_a   6.34658762
_cell_length_b   6.34659187
_cell_length_c   7.02199331
_cell_angle_alpha   116.53959812
_cell_angle_beta   63.46035722
_cell_angle_gamma   104.21352073
_symmetry_Int_Tables_number   1
_chemical_formula_structural   LiBi(CO3)2
_chemical_formula_sum   'Li2 Bi2 C4 O12'
_cell_volume   226.00019471
_cell_formula_units_Z   2
loop_
 _symmetry_equiv_pos_site_id
 _symmetry_equiv_pos_as_xyz
  1  'x, y, z'
loop_
 _atom_site_type_symbol
 _atom_site_label
 _atom_site_symmetry_multiplicity
 _atom_site_fract_x
 _atom_site_fract_y
 _atom_site_fract_z
 _atom_site_occupancy
  Li  Li0  1  0.248875  0.248875  0.250000  1
  Li  Li1  1  0.751120  0.751120  0.749999  1
  Bi  Bi2  1  0.801536  0.801536  0.250000  1
  Bi  Bi3  1  0.198463  0.198464  0.750001  1
  C  C4  1  0.321902  0.784989  0.128838  1
  C  C5  1  0.784988  0.321904  0.371163  1
  C  C6  1  0.215011  0.678097  0.628838  1
  C  C7  1  0.678098  0.215012  0.871163  1
  O  O8  1  0.200980  0.615712  0.022785  1
  O  O9  1  0.547217  0.781794  0.055784  1
  O  O10  1  0.961473  0.202263  0.194820  1
  O  O11  1  0.202265  0.961470  0.305175  1
  O  O12  1  0.781796  0.547216  0.444215  1
  O  O13  1  0.615711  0.200978  0.477215  1
  O  O14  1  0.384288  0.799021  0.522785  1
  O  O15  1  0.218204  0.452786  0.555785  1
  O  O16  1  0.797735  0.038530  0.694823  1
  O  O17  1  0.038529  0.797735  0.805177  1
  O  O18  1  0.452784  0.218205  0.944215  1
  O  O19  1  0.799020  0.384287  0.977215  1
