# generated using pymatgen
data_Sr3Li11Au
_symmetry_space_group_name_H-M   'P 1'
_cell_length_a   10.29913600
_cell_length_b   10.29913737
_cell_length_c   8.56045400
_cell_angle_alpha   90.00000000
_cell_angle_beta   90.00000000
_cell_angle_gamma   119.99999559
_symmetry_Int_Tables_number   1
_chemical_formula_structural   Sr3Li11Au
_chemical_formula_sum   'Sr6 Li22 Au2'
_cell_volume   786.37390410
_cell_formula_units_Z   2
loop_
 _symmetry_equiv_pos_site_id
 _symmetry_equiv_pos_as_xyz
  1  'x, y, z'
loop_
 _atom_site_type_symbol
 _atom_site_label
 _atom_site_symmetry_multiplicity
 _atom_site_fract_x
 _atom_site_fract_y
 _atom_site_fract_z
 _atom_site_occupancy
  Sr  Sr0  1  0.526690  0.053380  0.250000  1
  Sr  Sr1  1  0.473310  0.946620  0.750000  1
  Sr  Sr2  1  0.946620  0.473310  0.250000  1
  Sr  Sr3  1  0.053380  0.526690  0.750000  1
  Sr  Sr4  1  0.526690  0.473310  0.250000  1
  Sr  Sr5  1  0.473310  0.526690  0.750000  1
  Li  Li6  1  0.157776  0.315552  0.058739  1
  Li  Li7  1  0.842224  0.684448  0.941261  1
  Li  Li8  1  0.684448  0.842224  0.058739  1
  Li  Li9  1  0.842224  0.684448  0.558739  1
  Li  Li10  1  0.315552  0.157776  0.941261  1
  Li  Li11  1  0.157776  0.315552  0.441261  1
  Li  Li12  1  0.157776  0.842224  0.058739  1
  Li  Li13  1  0.315552  0.157776  0.558739  1
  Li  Li14  1  0.842224  0.157776  0.941261  1
  Li  Li15  1  0.684448  0.842224  0.441261  1
  Li  Li16  1  0.842224  0.157776  0.558739  1
  Li  Li17  1  0.157776  0.842224  0.441261  1
  Li  Li18  1  0.907247  0.814495  0.250000  1
  Li  Li19  1  0.092753  0.185505  0.750000  1
  Li  Li20  1  0.185505  0.092753  0.250000  1
  Li  Li21  1  0.814495  0.907247  0.750000  1
  Li  Li22  1  0.907247  0.092753  0.250000  1
  Li  Li23  1  0.092753  0.907247  0.750000  1
  Li  Li24  1  0.333333  0.666667  0.081343  1
  Li  Li25  1  0.666667  0.333333  0.918657  1
  Li  Li26  1  0.666667  0.333333  0.581343  1
  Li  Li27  1  0.333333  0.666667  0.418657  1
  Au  Au28  1  0.000000  0.000000  0.000000  1
  Au  Au29  1  0.000000  0.000000  0.500000  1
