# generated using pymatgen
data_CsIrRhS4
_symmetry_space_group_name_H-M   'P 1'
_cell_length_a   6.24334800
_cell_length_b   7.26801600
_cell_length_c   15.85550600
_cell_angle_alpha   90.00000000
_cell_angle_beta   90.00000000
_cell_angle_gamma   90.00000000
_symmetry_Int_Tables_number   1
_chemical_formula_structural   CsIrRhS4
_chemical_formula_sum   'Cs4 Ir4 Rh4 S16'
_cell_volume   719.47138195
_cell_formula_units_Z   4
loop_
 _symmetry_equiv_pos_site_id
 _symmetry_equiv_pos_as_xyz
  1  'x, y, z'
loop_
 _atom_site_type_symbol
 _atom_site_label
 _atom_site_symmetry_multiplicity
 _atom_site_fract_x
 _atom_site_fract_y
 _atom_site_fract_z
 _atom_site_occupancy
  Cs  Cs0  1  0.353638  0.000000  0.000000  1
  Cs  Cs1  1  0.646362  0.500000  0.500000  1
  Cs  Cs2  1  0.033842  0.000000  0.500000  1
  Cs  Cs3  1  0.966158  0.500000  0.000000  1
  Ir  Ir4  1  0.500000  0.250000  0.250000  1
  Ir  Ir5  1  0.500000  0.750000  0.750000  1
  Ir  Ir6  1  0.500000  0.750000  0.250000  1
  Ir  Ir7  1  0.500000  0.250000  0.750000  1
  Rh  Rh8  1  0.002288  0.000000  0.249840  1
  Rh  Rh9  1  0.002288  0.000000  0.750160  1
  Rh  Rh10  1  0.997712  0.500000  0.250160  1
  Rh  Rh11  1  0.997712  0.500000  0.749840  1
  S  S12  1  0.833453  0.249351  0.324315  1
  S  S13  1  0.833453  0.750649  0.675685  1
  S  S14  1  0.166547  0.749351  0.175685  1
  S  S15  1  0.166547  0.250649  0.824315  1
  S  S16  1  0.166547  0.250649  0.175685  1
  S  S17  1  0.166547  0.749351  0.824315  1
  S  S18  1  0.833453  0.750649  0.324315  1
  S  S19  1  0.833453  0.249351  0.675685  1
  S  S20  1  0.667039  0.000000  0.175924  1
  S  S21  1  0.667039  0.000000  0.824076  1
  S  S22  1  0.332961  0.500000  0.324076  1
  S  S23  1  0.332961  0.500000  0.675924  1
  S  S24  1  0.340251  0.000000  0.324120  1
  S  S25  1  0.340251  0.000000  0.675880  1
  S  S26  1  0.659749  0.500000  0.175880  1
  S  S27  1  0.659749  0.500000  0.824120  1
