# generated using pymatgen
data_Sr10InSi4Au
_symmetry_space_group_name_H-M   'P 1'
_cell_length_a   9.95127447
_cell_length_b   9.95127548
_cell_length_c   9.82063751
_cell_angle_alpha   130.63129929
_cell_angle_beta   130.63130078
_cell_angle_gamma   73.17629612
_symmetry_Int_Tables_number   1
_chemical_formula_structural   Sr10InSi4Au
_chemical_formula_sum   'Sr10 In1 Si4 Au1'
_cell_volume   544.60905108
_cell_formula_units_Z   1
loop_
 _symmetry_equiv_pos_site_id
 _symmetry_equiv_pos_as_xyz
  1  'x, y, z'
loop_
 _atom_site_type_symbol
 _atom_site_label
 _atom_site_symmetry_multiplicity
 _atom_site_fract_x
 _atom_site_fract_y
 _atom_site_fract_z
 _atom_site_occupancy
  Sr  Sr0  1  0.055084  0.529201  0.863121  1
  Sr  Sr1  1  0.312555  0.828856  0.861564  1
  Sr  Sr2  1  0.970799  0.444916  0.136879  1
  Sr  Sr3  1  0.987332  0.993894  0.005858  1
  Sr  Sr4  1  0.450865  0.304353  0.479215  1
  Sr  Sr5  1  0.195647  0.049135  0.520785  1
  Sr  Sr6  1  0.671144  0.187445  0.138436  1
  Sr  Sr7  1  0.524952  0.680254  0.482301  1
  Sr  Sr8  1  0.819746  0.975048  0.517699  1
  Sr  Sr9  1  0.506106  0.512668  0.994142  1
  In  In10  1  0.750687  0.749313  0.000000  1
  Si  Si11  1  0.607695  0.108236  0.716467  1
  Si  Si12  1  0.112884  0.387116  0.500000  1
  Si  Si13  1  0.249942  0.250058  0.000000  1
  Si  Si14  1  0.391764  0.892305  0.283533  1
  Au  Au15  1  0.892798  0.607202  0.500000  1
