# generated using pymatgen
data_Y16Cd4Co3Rh
_symmetry_space_group_name_H-M   'P 1'
_cell_length_a   9.61492210
_cell_length_b   9.59099991
_cell_length_c   9.59099900
_cell_angle_alpha   60.00000658
_cell_angle_beta   60.08227579
_cell_angle_gamma   60.08227293
_symmetry_Int_Tables_number   1
_chemical_formula_structural   Y16Cd4Co3Rh
_chemical_formula_sum   'Y16 Cd4 Co3 Rh1'
_cell_volume   626.17754119
_cell_formula_units_Z   1
loop_
 _symmetry_equiv_pos_site_id
 _symmetry_equiv_pos_as_xyz
  1  'x, y, z'
loop_
 _atom_site_type_symbol
 _atom_site_label
 _atom_site_symmetry_multiplicity
 _atom_site_fract_x
 _atom_site_fract_y
 _atom_site_fract_z
 _atom_site_occupancy
  Y  Y0  1  0.592353  0.600368  0.600368  1
  Y  Y1  1  0.592353  0.600368  0.206910  1
  Y  Y2  1  0.592353  0.206910  0.600368  1
  Y  Y3  1  0.211638  0.596121  0.596121  1
  Y  Y4  1  0.067101  0.438178  0.438178  1
  Y  Y5  1  0.438115  0.062023  0.062023  1
  Y  Y6  1  0.438115  0.062023  0.437840  1
  Y  Y7  1  0.067101  0.438178  0.056541  1
  Y  Y8  1  0.438115  0.437840  0.062023  1
  Y  Y9  1  0.067101  0.056541  0.438178  1
  Y  Y10  1  0.185747  0.813435  0.813435  1
  Y  Y11  1  0.812251  0.187411  0.187411  1
  Y  Y12  1  0.812251  0.187411  0.812926  1
  Y  Y13  1  0.185747  0.813435  0.187382  1
  Y  Y14  1  0.812251  0.812926  0.187411  1
  Y  Y15  1  0.185747  0.187382  0.813435  1
  Cd  Cd16  1  0.830612  0.829873  0.829873  1
  Cd  Cd17  1  0.830612  0.829873  0.509640  1
  Cd  Cd18  1  0.830612  0.509640  0.829873  1
  Cd  Cd19  1  0.508805  0.830398  0.830398  1
  Co  Co20  1  0.391732  0.391104  0.391104  1
  Co  Co21  1  0.391732  0.391104  0.826059  1
  Co  Co22  1  0.391732  0.826059  0.391104  1
  Rh  Rh23  1  0.825816  0.391395  0.391395  1
