# generated using pymatgen
data_Pr6IrO12
_symmetry_space_group_name_H-M   'P 1'
_cell_length_a   6.78158504
_cell_length_b   6.78158475
_cell_length_c   6.78158469
_cell_angle_alpha   98.48159507
_cell_angle_beta   98.48160393
_cell_angle_gamma   98.48160523
_symmetry_Int_Tables_number   1
_chemical_formula_structural   Pr6IrO12
_chemical_formula_sum   'Pr6 Ir1 O12'
_cell_volume   300.49883532
_cell_formula_units_Z   1
loop_
 _symmetry_equiv_pos_site_id
 _symmetry_equiv_pos_as_xyz
  1  'x, y, z'
loop_
 _atom_site_type_symbol
 _atom_site_label
 _atom_site_symmetry_multiplicity
 _atom_site_fract_x
 _atom_site_fract_y
 _atom_site_fract_z
 _atom_site_occupancy
  Pr  Pr0  1  0.144056  0.307574  0.609830  1
  Pr  Pr1  1  0.390170  0.855944  0.692426  1
  Pr  Pr2  1  0.692426  0.390170  0.855944  1
  Pr  Pr3  1  0.307574  0.609830  0.144056  1
  Pr  Pr4  1  0.609830  0.144056  0.307574  1
  Pr  Pr5  1  0.855944  0.692426  0.390170  1
  Ir  Ir6  1  0.000000  0.000000  0.000000  1
  O  O7  1  0.067202  0.287529  0.967648  1
  O  O8  1  0.032352  0.932798  0.712471  1
  O  O9  1  0.406873  0.558983  0.822555  1
  O  O10  1  0.177445  0.593127  0.441017  1
  O  O11  1  0.712471  0.032352  0.932798  1
  O  O12  1  0.441017  0.177445  0.593127  1
  O  O13  1  0.558983  0.822555  0.406873  1
  O  O14  1  0.287529  0.967648  0.067202  1
  O  O15  1  0.822555  0.406873  0.558983  1
  O  O16  1  0.593127  0.441017  0.177445  1
  O  O17  1  0.967648  0.067202  0.287529  1
  O  O18  1  0.932798  0.712471  0.032352  1
