# generated using pymatgen
data_Lu2Al2SiAu
_symmetry_space_group_name_H-M   'P 1'
_cell_length_a   6.88495000
_cell_length_b   6.88495034
_cell_length_c   8.46499100
_cell_angle_alpha   90.00000000
_cell_angle_beta   90.00000000
_cell_angle_gamma   119.99999835
_symmetry_Int_Tables_number   1
_chemical_formula_structural   Lu2Al2SiAu
_chemical_formula_sum   'Lu6 Al6 Si3 Au3'
_cell_volume   347.50314752
_cell_formula_units_Z   3
loop_
 _symmetry_equiv_pos_site_id
 _symmetry_equiv_pos_as_xyz
  1  'x, y, z'
loop_
 _atom_site_type_symbol
 _atom_site_label
 _atom_site_symmetry_multiplicity
 _atom_site_fract_x
 _atom_site_fract_y
 _atom_site_fract_z
 _atom_site_occupancy
  Lu  Lu0  1  0.580026  0.999362  0.744151  1
  Lu  Lu1  1  0.000638  0.580663  0.744151  1
  Lu  Lu2  1  0.419337  0.419974  0.744151  1
  Lu  Lu3  1  0.000352  0.580529  0.255923  1
  Lu  Lu4  1  0.580177  0.999648  0.255923  1
  Lu  Lu5  1  0.419471  0.419823  0.255923  1
  Al  Al6  1  0.746341  0.751783  0.999990  1
  Al  Al7  1  0.248217  0.994558  0.999990  1
  Al  Al8  1  0.005442  0.253659  0.999990  1
  Al  Al9  1  0.756931  0.756633  0.500016  1
  Al  Al10  1  0.243367  0.000298  0.500016  1
  Al  Al11  1  0.999702  0.243069  0.500016  1
  Si  Si12  1  0.666667  0.333333  0.999824  1
  Si  Si13  1  0.666667  0.333333  0.500237  1
  Si  Si14  1  0.333333  0.666667  0.499858  1
  Au  Au15  1  0.000000  0.000000  0.754560  1
  Au  Au16  1  0.000000  0.000000  0.245390  1
  Au  Au17  1  0.333333  0.666667  0.999891  1
