# generated using pymatgen
data_Th(NbS2)5
_symmetry_space_group_name_H-M   'P 1'
_cell_length_a   5.86158186
_cell_length_b   7.94987301
_cell_length_c   8.67511649
_cell_angle_alpha   115.12922203
_cell_angle_beta   96.62860974
_cell_angle_gamma   104.06861842
_symmetry_Int_Tables_number   1
_chemical_formula_structural   Th(NbS2)5
_chemical_formula_sum   'Th1 Nb5 S10'
_cell_volume   343.83058964
_cell_formula_units_Z   1
loop_
 _symmetry_equiv_pos_site_id
 _symmetry_equiv_pos_as_xyz
  1  'x, y, z'
loop_
 _atom_site_type_symbol
 _atom_site_label
 _atom_site_symmetry_multiplicity
 _atom_site_fract_x
 _atom_site_fract_y
 _atom_site_fract_z
 _atom_site_occupancy
  Th  Th0  1  0.668421  0.510221  0.993054  1
  Nb  Nb1  1  0.003874  0.996259  0.000553  1
  Nb  Nb2  1  0.597949  0.204602  0.203893  1
  Nb  Nb3  1  0.195842  0.398779  0.398256  1
  Nb  Nb4  1  0.798120  0.599613  0.602691  1
  Nb  Nb5  1  0.402868  0.795628  0.798173  1
  S  S6  1  0.235819  0.066174  0.290618  1
  S  S7  1  0.051910  0.660304  0.891122  1
  S  S8  1  0.835225  0.265155  0.488869  1
  S  S9  1  0.636890  0.874465  0.099992  1
  S  S10  1  0.424861  0.449682  0.679255  1
  S  S11  1  0.897299  0.543102  0.314363  1
  S  S12  1  0.699011  0.133024  0.909341  1
  S  S13  1  0.495889  0.733346  0.511216  1
  S  S14  1  0.290620  0.335754  0.107524  1
  S  S15  1  0.098203  0.931490  0.712681  1
