# generated using pymatgen
data_Nd3CrWC6
_symmetry_space_group_name_H-M   'P 1'
_cell_length_a   8.33564000
_cell_length_b   8.33563950
_cell_length_c   5.23766000
_cell_angle_alpha   90.00000000
_cell_angle_beta   90.00000000
_cell_angle_gamma   119.99999404
_symmetry_Int_Tables_number   1
_chemical_formula_structural   Nd3CrWC6
_chemical_formula_sum   'Nd6 Cr2 W2 C12'
_cell_volume   315.17069903
_cell_formula_units_Z   2
loop_
 _symmetry_equiv_pos_site_id
 _symmetry_equiv_pos_as_xyz
  1  'x, y, z'
loop_
 _atom_site_type_symbol
 _atom_site_label
 _atom_site_symmetry_multiplicity
 _atom_site_fract_x
 _atom_site_fract_y
 _atom_site_fract_z
 _atom_site_occupancy
  Nd  Nd0  1  0.612108  0.681160  0.750000  1
  Nd  Nd1  1  0.930948  0.612108  0.250000  1
  Nd  Nd2  1  0.681160  0.069052  0.250000  1
  Nd  Nd3  1  0.318840  0.930948  0.750000  1
  Nd  Nd4  1  0.069052  0.387892  0.750000  1
  Nd  Nd5  1  0.387892  0.318840  0.250000  1
  Cr  Cr6  1  0.666667  0.333333  0.750000  1
  Cr  Cr7  1  0.333333  0.666667  0.250000  1
  W  W8  1  0.000000  0.000000  0.500000  1
  W  W9  1  0.000000  0.000000  0.000000  1
  C  C10  1  0.957351  0.766148  0.750000  1
  C  C11  1  0.191201  0.957351  0.250000  1
  C  C12  1  0.766148  0.808799  0.250000  1
  C  C13  1  0.233852  0.191201  0.750000  1
  C  C14  1  0.808799  0.042649  0.750000  1
  C  C15  1  0.042649  0.233852  0.250000  1
  C  C16  1  0.859104  0.574967  0.750000  1
  C  C17  1  0.284136  0.859104  0.250000  1
  C  C18  1  0.574967  0.715864  0.250000  1
  C  C19  1  0.425033  0.284136  0.750000  1
  C  C20  1  0.140896  0.425033  0.250000  1
  C  C21  1  0.715864  0.140896  0.750000  1
