# generated using pymatgen
data_Rb8NdU3Br20
_symmetry_space_group_name_H-M   'P 1'
_cell_length_a   8.81772406
_cell_length_b   9.42305500
_cell_length_c   14.24469069
_cell_angle_alpha   90.00000000
_cell_angle_beta   90.00269020
_cell_angle_gamma   90.00000000
_symmetry_Int_Tables_number   1
_chemical_formula_structural   Rb8NdU3Br20
_chemical_formula_sum   'Rb8 Nd1 U3 Br20'
_cell_volume   1183.58990678
_cell_formula_units_Z   1
loop_
 _symmetry_equiv_pos_site_id
 _symmetry_equiv_pos_as_xyz
  1  'x, y, z'
loop_
 _atom_site_type_symbol
 _atom_site_label
 _atom_site_symmetry_multiplicity
 _atom_site_fract_x
 _atom_site_fract_y
 _atom_site_fract_z
 _atom_site_occupancy
  Rb  Rb0  1  0.946960  0.004564  0.827554  1
  Rb  Rb1  1  0.053519  0.995819  0.172265  1
  Rb  Rb2  1  0.446835  0.995612  0.672127  1
  Rb  Rb3  1  0.053519  0.504181  0.172265  1
  Rb  Rb4  1  0.553257  0.004405  0.328134  1
  Rb  Rb5  1  0.946960  0.495436  0.827554  1
  Rb  Rb6  1  0.553257  0.495595  0.328134  1
  Rb  Rb7  1  0.446835  0.504388  0.672127  1
  Nd  Nd8  1  0.573319  0.750000  0.003623  1
  U  U9  1  0.930274  0.750000  0.502820  1
  U  U10  1  0.070183  0.250000  0.496928  1
  U  U11  1  0.427998  0.250000  0.996643  1
  Br  Br12  1  0.119840  0.750000  0.673604  1
  Br  Br13  1  0.880471  0.250000  0.325446  1
  Br  Br14  1  0.619598  0.250000  0.825979  1
  Br  Br15  1  0.380798  0.750000  0.173091  1
  Br  Br16  1  0.838894  0.042151  0.574396  1
  Br  Br17  1  0.160428  0.957167  0.426038  1
  Br  Br18  1  0.339260  0.956644  0.926270  1
  Br  Br19  1  0.160428  0.542833  0.426038  1
  Br  Br20  1  0.660491  0.042010  0.073614  1
  Br  Br21  1  0.838894  0.457849  0.574396  1
  Br  Br22  1  0.660491  0.457990  0.073614  1
  Br  Br23  1  0.339260  0.543356  0.926270  1
  Br  Br24  1  0.588022  0.750000  0.509980  1
  Br  Br25  1  0.412272  0.250000  0.489917  1
  Br  Br26  1  0.088140  0.250000  0.990075  1
  Br  Br27  1  0.910555  0.750000  0.010555  1
  Br  Br28  1  0.657185  0.750000  0.803088  1
  Br  Br29  1  0.342376  0.250000  0.197166  1
  Br  Br30  1  0.158030  0.250000  0.697528  1
  Br  Br31  1  0.841648  0.750000  0.302763  1
