# generated using pymatgen
data_Tm16In6CoRu
_symmetry_space_group_name_H-M   'P 1'
_cell_length_a   10.25625900
_cell_length_b   10.25626189
_cell_length_c   6.92163600
_cell_angle_alpha   89.99992172
_cell_angle_beta   90.00010553
_cell_angle_gamma   120.00006527
_symmetry_Int_Tables_number   1
_chemical_formula_structural   Tm16In6CoRu
_chemical_formula_sum   'Tm16 In6 Co1 Ru1'
_cell_volume   630.54659362
_cell_formula_units_Z   1
loop_
 _symmetry_equiv_pos_site_id
 _symmetry_equiv_pos_as_xyz
  1  'x, y, z'
loop_
 _atom_site_type_symbol
 _atom_site_label
 _atom_site_symmetry_multiplicity
 _atom_site_fract_x
 _atom_site_fract_y
 _atom_site_fract_z
 _atom_site_occupancy
  Tm  Tm0  1  0.531453  0.062906  0.513931  1
  Tm  Tm1  1  0.937094  0.468548  0.513930  1
  Tm  Tm2  1  0.531452  0.468548  0.513931  1
  Tm  Tm3  1  0.466245  0.932489  0.014359  1
  Tm  Tm4  1  0.067512  0.533755  0.014359  1
  Tm  Tm5  1  0.466244  0.533756  0.014358  1
  Tm  Tm6  1  0.178807  0.357614  0.723621  1
  Tm  Tm7  1  0.642386  0.821193  0.723622  1
  Tm  Tm8  1  0.178807  0.821193  0.723620  1
  Tm  Tm9  1  0.822481  0.644962  0.219233  1
  Tm  Tm10  1  0.355037  0.177519  0.219232  1
  Tm  Tm11  1  0.822482  0.177518  0.219233  1
  Tm  Tm12  1  0.666666  0.333333  0.891640  1
  Tm  Tm13  1  0.333333  0.666667  0.403621  1
  Tm  Tm14  1  0.000000  0.000000  0.501010  1
  Tm  Tm15  1  0.000000  0.000000  0.000073  1
  In  In16  1  0.837560  0.675122  0.758850  1
  In  In17  1  0.324877  0.162439  0.758849  1
  In  In18  1  0.837561  0.162439  0.758850  1
  In  In19  1  0.163324  0.326647  0.262441  1
  In  In20  1  0.673353  0.836676  0.262441  1
  In  In21  1  0.163322  0.836676  0.262441  1
  Co  Co22  1  0.333334  0.666668  0.791573  1
  Ru  Ru23  1  0.666666  0.333333  0.292785  1
