# generated using pymatgen
data_LaNd(Al3Ni2)2
_symmetry_space_group_name_H-M   'P 1'
_cell_length_a   6.40387488
_cell_length_b   6.40387533
_cell_length_c   5.14785100
_cell_angle_alpha   90.00000000
_cell_angle_beta   90.00000000
_cell_angle_gamma   104.60802985
_symmetry_Int_Tables_number   1
_chemical_formula_structural   LaNd(Al3Ni2)2
_chemical_formula_sum   'La1 Nd1 Al6 Ni4'
_cell_volume   204.28697263
_cell_formula_units_Z   1
loop_
 _symmetry_equiv_pos_site_id
 _symmetry_equiv_pos_as_xyz
  1  'x, y, z'
loop_
 _atom_site_type_symbol
 _atom_site_label
 _atom_site_symmetry_multiplicity
 _atom_site_fract_x
 _atom_site_fract_y
 _atom_site_fract_z
 _atom_site_occupancy
  La  La0  1  0.349722  0.349722  0.750000  1
  Nd  Nd1  1  0.654198  0.654198  0.250000  1
  Al  Al2  1  0.056013  0.056013  0.250000  1
  Al  Al3  1  0.942562  0.942562  0.750000  1
  Al  Al4  1  0.081546  0.473974  0.250000  1
  Al  Al5  1  0.917569  0.525720  0.750000  1
  Al  Al6  1  0.473974  0.081546  0.250000  1
  Al  Al7  1  0.525720  0.917569  0.750000  1
  Ni  Ni8  1  0.797727  0.201620  0.000057  1
  Ni  Ni9  1  0.201620  0.797727  0.000057  1
  Ni  Ni10  1  0.201620  0.797727  0.499943  1
  Ni  Ni11  1  0.797727  0.201620  0.499943  1
