# generated using pymatgen
data_Li6Ta6Ir11Os
_symmetry_space_group_name_H-M   'P 1'
_cell_length_a   4.36388400
_cell_length_b   6.15006400
_cell_length_c   13.07358400
_cell_angle_alpha   90.00000000
_cell_angle_beta   89.99978978
_cell_angle_gamma   90.00000000
_symmetry_Int_Tables_number   1
_chemical_formula_structural   Li6Ta6Ir11Os
_chemical_formula_sum   'Li6 Ta6 Ir11 Os1'
_cell_volume   350.87101615
_cell_formula_units_Z   1
loop_
 _symmetry_equiv_pos_site_id
 _symmetry_equiv_pos_as_xyz
  1  'x, y, z'
loop_
 _atom_site_type_symbol
 _atom_site_label
 _atom_site_symmetry_multiplicity
 _atom_site_fract_x
 _atom_site_fract_y
 _atom_site_fract_z
 _atom_site_occupancy
  Li  Li0  1  0.000000  0.500204  0.000000  1
  Li  Li1  1  0.499811  0.999905  0.166446  1
  Li  Li2  1  0.999808  0.500086  0.333275  1
  Li  Li3  1  0.499999  0.999838  0.500000  1
  Li  Li4  1  0.000193  0.500086  0.666725  1
  Li  Li5  1  0.500190  0.999905  0.833554  1
  Ta  Ta6  1  0.000000  0.003528  0.000000  1
  Ta  Ta7  1  0.499841  0.498184  0.164764  1
  Ta  Ta8  1  0.999841  0.000050  0.332951  1
  Ta  Ta9  1  0.499999  0.499922  0.500000  1
  Ta  Ta10  1  0.000158  0.000050  0.667049  1
  Ta  Ta11  1  0.500161  0.498184  0.835236  1
  Ir  Ir12  1  0.499999  0.749952  0.000000  1
  Ir  Ir13  1  0.999846  0.250510  0.166843  1
  Ir  Ir14  1  0.999841  0.749441  0.167289  1
  Ir  Ir15  1  0.499844  0.249319  0.333706  1
  Ir  Ir16  1  0.499843  0.750865  0.333813  1
  Ir  Ir17  1  0.000000  0.250711  0.500000  1
  Ir  Ir18  1  0.000000  0.749404  0.500000  1
  Ir  Ir19  1  0.500157  0.249319  0.666294  1
  Ir  Ir20  1  0.500158  0.750865  0.666187  1
  Ir  Ir21  1  0.000153  0.250510  0.833157  1
  Ir  Ir22  1  0.000158  0.749441  0.832711  1
  Os  Os23  1  0.499999  0.249722  0.000000  1
