# generated using pymatgen
data_Tb15CeZnCd3Co4
_symmetry_space_group_name_H-M   'P 1'
_cell_length_a   9.55343096
_cell_length_b   9.55343178
_cell_length_c   9.34670116
_cell_angle_alpha   60.47089965
_cell_angle_beta   60.47089886
_cell_angle_gamma   59.67696902
_symmetry_Int_Tables_number   1
_chemical_formula_structural   Tb15CeZnCd3Co4
_chemical_formula_sum   'Tb15 Ce1 Zn1 Cd3 Co4'
_cell_volume   605.94150902
_cell_formula_units_Z   1
loop_
 _symmetry_equiv_pos_site_id
 _symmetry_equiv_pos_as_xyz
  1  'x, y, z'
loop_
 _atom_site_type_symbol
 _atom_site_label
 _atom_site_symmetry_multiplicity
 _atom_site_fract_x
 _atom_site_fract_y
 _atom_site_fract_z
 _atom_site_occupancy
  Tb  Tb0  1  0.602255  0.602255  0.591479  1
  Tb  Tb1  1  0.189882  0.806647  0.813561  1
  Tb  Tb2  1  0.060057  0.060057  0.441440  1
  Tb  Tb3  1  0.436752  0.056043  0.065041  1
  Tb  Tb4  1  0.806647  0.189882  0.813561  1
  Tb  Tb5  1  0.436919  0.055138  0.444302  1
  Tb  Tb6  1  0.592301  0.214280  0.594948  1
  Tb  Tb7  1  0.817096  0.817096  0.187200  1
  Tb  Tb8  1  0.214280  0.592301  0.594948  1
  Tb  Tb9  1  0.808815  0.186707  0.192894  1
  Tb  Tb10  1  0.055138  0.436919  0.444302  1
  Tb  Tb11  1  0.186707  0.808815  0.192894  1
  Tb  Tb12  1  0.600560  0.600560  0.206919  1
  Tb  Tb13  1  0.179506  0.179506  0.821444  1
  Tb  Tb14  1  0.056043  0.436752  0.065041  1
  Ce  Ce15  1  0.432011  0.432011  0.069185  1
  Zn  Zn16  1  0.832163  0.832163  0.504801  1
  Cd  Cd17  1  0.832410  0.832410  0.824110  1
  Cd  Cd18  1  0.512419  0.834003  0.824924  1
  Cd  Cd19  1  0.834003  0.512419  0.824924  1
  Co  Co20  1  0.401163  0.401163  0.348585  1
  Co  Co21  1  0.824328  0.387367  0.393958  1
  Co  Co22  1  0.387367  0.824328  0.393958  1
  Co  Co23  1  0.401175  0.401175  0.845583  1
