# generated using pymatgen
data_Er3Tl2InCuPd2
_symmetry_space_group_name_H-M   'P 1'
_cell_length_a   7.81408117
_cell_length_b   7.79449863
_cell_length_c   3.68962900
_cell_angle_alpha   90.00000000
_cell_angle_beta   90.00000000
_cell_angle_gamma   119.91712681
_symmetry_Int_Tables_number   1
_chemical_formula_structural   Er3Tl2InCuPd2
_chemical_formula_sum   'Er3 Tl2 In1 Cu1 Pd2'
_cell_volume   194.77871733
_cell_formula_units_Z   1
loop_
 _symmetry_equiv_pos_site_id
 _symmetry_equiv_pos_as_xyz
  1  'x, y, z'
loop_
 _atom_site_type_symbol
 _atom_site_label
 _atom_site_symmetry_multiplicity
 _atom_site_fract_x
 _atom_site_fract_y
 _atom_site_fract_z
 _atom_site_occupancy
  Er  Er0  1  0.409224  0.999760  0.500000  1
  Er  Er1  1  0.590776  0.590536  0.500000  1
  Er  Er2  1  0.000000  0.409141  0.500000  1
  Tl  Tl3  1  0.261123  0.260205  0.000000  1
  Tl  Tl4  1  0.738877  0.999081  0.000000  1
  In  In5  1  0.000000  0.740487  0.000000  1
  Cu  Cu6  1  0.000000  0.993045  0.500000  1
  Pd  Pd7  1  0.671835  0.339790  0.000000  1
  Pd  Pd8  1  0.328165  0.667955  0.000000  1
