# generated using pymatgen
data_Mn6ZnCo12Si5
_symmetry_space_group_name_H-M   'P 1'
_cell_length_a   3.99017200
_cell_length_b   5.64155900
_cell_length_c   11.96672400
_cell_angle_alpha   89.99987682
_cell_angle_beta   90.00117286
_cell_angle_gamma   89.99990614
_symmetry_Int_Tables_number   1
_chemical_formula_structural   Mn6ZnCo12Si5
_chemical_formula_sum   'Mn6 Zn1 Co12 Si5'
_cell_volume   269.38042000
_cell_formula_units_Z   1
loop_
 _symmetry_equiv_pos_site_id
 _symmetry_equiv_pos_as_xyz
  1  'x, y, z'
loop_
 _atom_site_type_symbol
 _atom_site_label
 _atom_site_symmetry_multiplicity
 _atom_site_fract_x
 _atom_site_fract_y
 _atom_site_fract_z
 _atom_site_occupancy
  Mn  Mn0  1  0.999985  0.499949  0.000004  1
  Mn  Mn1  1  0.499920  0.999995  0.164082  1
  Mn  Mn2  1  0.999969  0.500010  0.335193  1
  Mn  Mn3  1  0.500051  0.000006  0.500024  1
  Mn  Mn4  1  0.000021  0.500009  0.664802  1
  Mn  Mn5  1  0.500080  0.999996  0.835915  1
  Zn  Zn6  1  0.999998  0.999992  0.999998  1
  Co  Co7  1  0.500000  0.262667  0.999997  1
  Co  Co8  1  0.499998  0.737431  0.999998  1
  Co  Co9  1  0.999910  0.256213  0.171537  1
  Co  Co10  1  0.999911  0.743789  0.171537  1
  Co  Co11  1  0.499955  0.249869  0.334044  1
  Co  Co12  1  0.499966  0.750099  0.334054  1
  Co  Co13  1  0.999991  0.249153  0.500000  1
  Co  Co14  1  0.999993  0.750826  0.500000  1
  Co  Co15  1  0.500033  0.249865  0.665954  1
  Co  Co16  1  0.500043  0.750104  0.665944  1
  Co  Co17  1  0.000087  0.256213  0.828460  1
  Co  Co18  1  0.000088  0.743789  0.828460  1
  Si  Si19  1  0.499909  0.500044  0.166763  1
  Si  Si20  1  0.999934  0.999966  0.332549  1
  Si  Si21  1  0.499999  0.500008  0.499999  1
  Si  Si22  1  0.000063  0.999967  0.667450  1
  Si  Si23  1  0.500090  0.500042  0.833235  1
