# generated using pymatgen
data_YU(P2O7)2
_symmetry_space_group_name_H-M   'P 1'
_cell_length_a   8.84238254
_cell_length_b   5.29960567
_cell_length_c   7.40352873
_cell_angle_alpha   71.86255945
_cell_angle_beta   90.67475635
_cell_angle_gamma   90.25879835
_symmetry_Int_Tables_number   1
_chemical_formula_structural   YU(P2O7)2
_chemical_formula_sum   'Y1 U1 P4 O14'
_cell_volume   329.67633881
_cell_formula_units_Z   1
loop_
 _symmetry_equiv_pos_site_id
 _symmetry_equiv_pos_as_xyz
  1  'x, y, z'
loop_
 _atom_site_type_symbol
 _atom_site_label
 _atom_site_symmetry_multiplicity
 _atom_site_fract_x
 _atom_site_fract_y
 _atom_site_fract_z
 _atom_site_occupancy
  Y  Y0  1  0.546060  0.799921  0.723970  1
  U  U1  1  0.048366  0.197818  0.282459  1
  P  P2  1  0.276330  0.760142  0.097797  1
  P  P3  1  0.777229  0.239859  0.899934  1
  P  P4  1  0.374896  0.407863  0.472702  1
  P  P5  1  0.864234  0.595663  0.529506  1
  O  O6  1  0.372796  0.584781  0.597197  1
  O  O7  1  0.650180  0.420622  0.915842  1
  O  O8  1  0.142569  0.566470  0.097577  1
  O  O9  1  0.214323  0.275666  0.467685  1
  O  O10  1  0.881271  0.161818  0.083062  1
  O  O11  1  0.213826  0.988742  0.164888  1
  O  O12  1  0.358404  0.855061  0.913140  1
  O  O13  1  0.988334  0.815259  0.484463  1
  O  O14  1  0.396574  0.596139  0.253354  1
  O  O15  1  0.890964  0.416988  0.401407  1
  O  O16  1  0.495897  0.198460  0.511437  1
  O  O17  1  0.732360  0.997084  0.847077  1
  O  O18  1  0.707569  0.709312  0.513474  1
  O  O19  1  0.899543  0.412333  0.743030  1
