# generated using pymatgen
data_Ce2SmY(AlRh)4
_symmetry_space_group_name_H-M   'P 1'
_cell_length_a   4.21766500
_cell_length_b   7.02882316
_cell_length_c   15.94588238
_cell_angle_alpha   90.28172038
_cell_angle_beta   90.00000000
_cell_angle_gamma   90.00000000
_symmetry_Int_Tables_number   1
_chemical_formula_structural   Ce2SmY(AlRh)4
_chemical_formula_sum   'Ce4 Sm2 Y2 Al8 Rh8'
_cell_volume   472.71349962
_cell_formula_units_Z   2
loop_
 _symmetry_equiv_pos_site_id
 _symmetry_equiv_pos_as_xyz
  1  'x, y, z'
loop_
 _atom_site_type_symbol
 _atom_site_label
 _atom_site_symmetry_multiplicity
 _atom_site_fract_x
 _atom_site_fract_y
 _atom_site_fract_z
 _atom_site_occupancy
  Ce  Ce0  1  0.250000  0.030899  0.780472  1
  Ce  Ce1  1  0.750000  0.969101  0.219528  1
  Ce  Ce2  1  0.250000  0.530703  0.721002  1
  Ce  Ce3  1  0.750000  0.469297  0.278998  1
  Sm  Sm4  1  0.250000  0.157651  0.560180  1
  Sm  Sm5  1  0.750000  0.842349  0.439820  1
  Y  Y6  1  0.250000  0.658082  0.941019  1
  Y  Y7  1  0.750000  0.341918  0.058981  1
  Al  Al8  1  0.250000  0.141392  0.351305  1
  Al  Al9  1  0.750000  0.858608  0.648695  1
  Al  Al10  1  0.250000  0.638925  0.146148  1
  Al  Al11  1  0.750000  0.361075  0.853852  1
  Al  Al12  1  0.250000  0.007620  0.060783  1
  Al  Al13  1  0.750000  0.992380  0.939217  1
  Al  Al14  1  0.250000  0.506113  0.438195  1
  Al  Al15  1  0.750000  0.493887  0.561805  1
  Rh  Rh16  1  0.750000  0.281156  0.425388  1
  Rh  Rh17  1  0.250000  0.718844  0.574612  1
  Rh  Rh18  1  0.750000  0.776982  0.072494  1
  Rh  Rh19  1  0.250000  0.223018  0.927506  1
  Rh  Rh20  1  0.750000  0.742961  0.813421  1
  Rh  Rh21  1  0.250000  0.257039  0.186579  1
  Rh  Rh22  1  0.750000  0.244062  0.688089  1
  Rh  Rh23  1  0.250000  0.755938  0.311911  1
