# generated using pymatgen
data_Hf3Ta3FeB4Ru9
_symmetry_space_group_name_H-M   'P 1'
_cell_length_a   9.37942421
_cell_length_b   9.37942388
_cell_length_c   3.09135500
_cell_angle_alpha   90.00000000
_cell_angle_beta   90.00000000
_cell_angle_gamma   89.68146313
_symmetry_Int_Tables_number   1
_chemical_formula_structural   Hf3Ta3FeB4Ru9
_chemical_formula_sum   'Hf3 Ta3 Fe1 B4 Ru9'
_cell_volume   271.95341115
_cell_formula_units_Z   1
loop_
 _symmetry_equiv_pos_site_id
 _symmetry_equiv_pos_as_xyz
  1  'x, y, z'
loop_
 _atom_site_type_symbol
 _atom_site_label
 _atom_site_symmetry_multiplicity
 _atom_site_fract_x
 _atom_site_fract_y
 _atom_site_fract_z
 _atom_site_occupancy
  Hf  Hf0  1  0.821946  0.678080  0.000000  1
  Hf  Hf1  1  0.178080  0.321946  0.000000  1
  Hf  Hf2  1  0.327889  0.827889  0.000000  1
  Ta  Ta3  1  0.669799  0.169799  0.000000  1
  Ta  Ta4  1  0.499786  0.501411  0.000000  1
  Ta  Ta5  1  0.001411  0.999786  0.000000  1
  Fe  Fe6  1  0.504897  0.004897  0.500000  1
  B  B7  1  0.613179  0.889081  0.000000  1
  B  B8  1  0.389081  0.113179  0.000000  1
  B  B9  1  0.120882  0.620882  0.000000  1
  B  B10  1  0.877508  0.377508  0.000000  1
  Ru  Ru11  1  0.567767  0.725009  0.500000  1
  Ru  Ru12  1  0.436771  0.276633  0.500000  1
  Ru  Ru13  1  0.069146  0.782001  0.500000  1
  Ru  Ru14  1  0.924645  0.215223  0.500000  1
  Ru  Ru15  1  0.282001  0.569146  0.500000  1
  Ru  Ru16  1  0.715223  0.424645  0.500000  1
  Ru  Ru17  1  0.225009  0.067767  0.500000  1
  Ru  Ru18  1  0.776633  0.936771  0.500000  1
  Ru  Ru19  1  0.998348  0.498348  0.500000  1
