# generated using pymatgen
data_YTh3Pd11Pt
_symmetry_space_group_name_H-M   'P 1'
_cell_length_a   5.92404500
_cell_length_b   5.92285688
_cell_length_c   9.76039712
_cell_angle_alpha   89.86439855
_cell_angle_beta   90.00000000
_cell_angle_gamma   120.00663039
_symmetry_Int_Tables_number   1
_chemical_formula_structural   YTh3Pd11Pt
_chemical_formula_sum   'Y1 Th3 Pd11 Pt1'
_cell_volume   296.56306753
_cell_formula_units_Z   1
loop_
 _symmetry_equiv_pos_site_id
 _symmetry_equiv_pos_as_xyz
  1  'x, y, z'
loop_
 _atom_site_type_symbol
 _atom_site_label
 _atom_site_symmetry_multiplicity
 _atom_site_fract_x
 _atom_site_fract_y
 _atom_site_fract_z
 _atom_site_occupancy
  Y  Y0  1  0.000000  0.000000  0.500000  1
  Th  Th1  1  0.000000  0.000000  0.000000  1
  Th  Th2  1  0.333625  0.667250  0.254031  1
  Th  Th3  1  0.666375  0.332750  0.745969  1
  Pd  Pd4  1  0.500000  0.500000  0.500000  1
  Pd  Pd5  1  0.500000  0.000000  0.500000  1
  Pd  Pd6  1  0.000000  0.500000  0.500000  1
  Pd  Pd7  1  0.500000  0.500000  0.000000  1
  Pd  Pd8  1  0.000000  0.500000  0.000000  1
  Pd  Pd9  1  0.826043  0.652086  0.250820  1
  Pd  Pd10  1  0.348644  0.174600  0.250446  1
  Pd  Pd11  1  0.825955  0.174600  0.250446  1
  Pd  Pd12  1  0.173957  0.347914  0.749180  1
  Pd  Pd13  1  0.651356  0.825400  0.749554  1
  Pd  Pd14  1  0.174045  0.825400  0.749554  1
  Pt  Pt15  1  0.500000  0.000000  0.000000  1
