# generated using pymatgen
data_Tb16PrEr3Sn16
_symmetry_space_group_name_H-M   'P 1'
_cell_length_a   8.06567504
_cell_length_b   8.21672123
_cell_length_c   15.54557993
_cell_angle_alpha   90.01653543
_cell_angle_beta   89.70153921
_cell_angle_gamma   89.81542692
_symmetry_Int_Tables_number   1
_chemical_formula_structural   Tb16PrEr3Sn16
_chemical_formula_sum   'Tb16 Pr1 Er3 Sn16'
_cell_volume   1030.23911790
_cell_formula_units_Z   1
loop_
 _symmetry_equiv_pos_site_id
 _symmetry_equiv_pos_as_xyz
  1  'x, y, z'
loop_
 _atom_site_type_symbol
 _atom_site_label
 _atom_site_symmetry_multiplicity
 _atom_site_fract_x
 _atom_site_fract_y
 _atom_site_fract_z
 _atom_site_occupancy
  Tb  Tb0  1  0.364494  0.836674  0.876902  1
  Tb  Tb1  1  0.866947  0.662758  0.620591  1
  Tb  Tb2  1  0.632269  0.161984  0.377845  1
  Tb  Tb3  1  0.135876  0.337163  0.122999  1
  Tb  Tb4  1  0.635494  0.163728  0.123407  1
  Tb  Tb5  1  0.132275  0.337857  0.377941  1
  Tb  Tb6  1  0.368974  0.837903  0.621426  1
  Tb  Tb7  1  0.865330  0.662849  0.877559  1
  Tb  Tb8  1  0.518640  0.321958  0.903174  1
  Tb  Tb9  1  0.021658  0.179412  0.598074  1
  Tb  Tb10  1  0.479363  0.679025  0.401640  1
  Tb  Tb11  1  0.982645  0.819153  0.097391  1
  Tb  Tb12  1  0.481446  0.678953  0.097877  1
  Tb  Tb13  1  0.979371  0.821054  0.402109  1
  Tb  Tb14  1  0.520197  0.321103  0.596426  1
  Tb  Tb15  1  0.198269  0.502485  0.749178  1
  Pr  Pr16  1  0.014364  0.179203  0.904476  1
  Er  Er17  1  0.698326  0.996777  0.749092  1
  Er  Er18  1  0.801937  0.497353  0.250478  1
  Er  Er19  1  0.302401  0.002449  0.250868  1
  Sn  Sn20  1  0.299116  0.034302  0.044120  1
  Sn  Sn21  1  0.791719  0.463430  0.457167  1
  Sn  Sn22  1  0.708778  0.965742  0.542236  1
  Sn  Sn23  1  0.206188  0.540166  0.959261  1
  Sn  Sn24  1  0.698307  0.957665  0.959756  1
  Sn  Sn25  1  0.208228  0.537950  0.541113  1
  Sn  Sn26  1  0.291900  0.036276  0.457553  1
  Sn  Sn27  1  0.794709  0.463696  0.042661  1
  Sn  Sn28  1  0.564957  0.619172  0.749601  1
  Sn  Sn29  1  0.063761  0.880250  0.748791  1
  Sn  Sn30  1  0.436400  0.382556  0.250751  1
  Sn  Sn31  1  0.937048  0.118030  0.250305  1
  Sn  Sn32  1  0.331063  0.147010  0.749400  1
  Sn  Sn33  1  0.824925  0.353584  0.748112  1
  Sn  Sn34  1  0.671765  0.851470  0.249781  1
  Sn  Sn35  1  0.170866  0.648856  0.249940  1
