# generated using pymatgen
data_Nd20Sn8Bi3Pb5
_symmetry_space_group_name_H-M   'P 1'
_cell_length_a   8.37647157
_cell_length_b   8.43900041
_cell_length_c   16.02136100
_cell_angle_alpha   89.97202087
_cell_angle_beta   90.02114270
_cell_angle_gamma   90.04323167
_symmetry_Int_Tables_number   1
_chemical_formula_structural   Nd20Sn8Bi3Pb5
_chemical_formula_sum   'Nd20 Sn8 Bi3 Pb5'
_cell_volume   1132.53420625
_cell_formula_units_Z   1
loop_
 _symmetry_equiv_pos_site_id
 _symmetry_equiv_pos_as_xyz
  1  'x, y, z'
loop_
 _atom_site_type_symbol
 _atom_site_label
 _atom_site_symmetry_multiplicity
 _atom_site_fract_x
 _atom_site_fract_y
 _atom_site_fract_z
 _atom_site_occupancy
  Nd  Nd0  1  0.039529  0.176884  0.392831  1
  Nd  Nd1  1  0.384236  0.837912  0.120273  1
  Nd  Nd2  1  0.112640  0.338673  0.619459  1
  Nd  Nd3  1  0.459479  0.675681  0.892223  1
  Nd  Nd4  1  0.884686  0.662296  0.119864  1
  Nd  Nd5  1  0.112862  0.334393  0.879404  1
  Nd  Nd6  1  0.215225  0.499309  0.252737  1
  Nd  Nd7  1  0.715015  0.000107  0.252842  1
  Nd  Nd8  1  0.457954  0.674103  0.606271  1
  Nd  Nd9  1  0.285274  0.999819  0.751197  1
  Nd  Nd10  1  0.616237  0.164444  0.619761  1
  Nd  Nd11  1  0.784859  0.500644  0.750010  1
  Nd  Nd12  1  0.885593  0.662937  0.380412  1
  Nd  Nd13  1  0.044342  0.174500  0.107256  1
  Nd  Nd14  1  0.959839  0.824231  0.892167  1
  Nd  Nd15  1  0.612817  0.165422  0.879259  1
  Nd  Nd16  1  0.544101  0.325290  0.106783  1
  Nd  Nd17  1  0.387124  0.834667  0.379567  1
  Nd  Nd18  1  0.955844  0.823689  0.606642  1
  Nd  Nd19  1  0.542916  0.325587  0.393583  1
  Sn  Sn20  1  0.657272  0.860968  0.749767  1
  Sn  Sn21  1  0.843325  0.360416  0.249468  1
  Sn  Sn22  1  0.584504  0.622038  0.248659  1
  Sn  Sn23  1  0.414890  0.378388  0.749183  1
  Sn  Sn24  1  0.157657  0.639205  0.749743  1
  Sn  Sn25  1  0.915161  0.121645  0.749160  1
  Sn  Sn26  1  0.343623  0.139843  0.249786  1
  Sn  Sn27  1  0.084310  0.877622  0.249401  1
  Bi  Bi28  1  0.226121  0.524084  0.044255  1
  Bi  Bi29  1  0.273655  0.024334  0.543792  1
  Bi  Bi30  1  0.726382  0.976251  0.044125  1
  Pb  Pb31  1  0.773165  0.475618  0.543881  1
  Pb  Pb32  1  0.727476  0.975138  0.456852  1
  Pb  Pb33  1  0.226460  0.524148  0.456419  1
  Pb  Pb34  1  0.272810  0.023932  0.956496  1
  Pb  Pb35  1  0.772610  0.475785  0.956469  1
