# generated using pymatgen
data_Tb5Ho6ScPb10
_symmetry_space_group_name_H-M   'P 1'
_cell_length_a   11.73232645
_cell_length_b   11.72729570
_cell_length_c   11.74034868
_cell_angle_alpha   147.43333744
_cell_angle_beta   132.60797845
_cell_angle_gamma   58.59086182
_symmetry_Int_Tables_number   1
_chemical_formula_structural   Tb5Ho6ScPb10
_chemical_formula_sum   'Tb5 Ho6 Sc1 Pb10'
_cell_volume   634.96530496
_cell_formula_units_Z   1
loop_
 _symmetry_equiv_pos_site_id
 _symmetry_equiv_pos_as_xyz
  1  'x, y, z'
loop_
 _atom_site_type_symbol
 _atom_site_label
 _atom_site_symmetry_multiplicity
 _atom_site_fract_x
 _atom_site_fract_y
 _atom_site_fract_z
 _atom_site_occupancy
  Tb  Tb0  1  0.696186  0.946331  0.250001  1
  Tb  Tb1  1  0.252046  0.639718  0.611073  1
  Tb  Tb2  1  0.674931  0.940972  0.733508  1
  Tb  Tb3  1  0.028657  0.140942  0.888888  1
  Tb  Tb4  1  0.970641  0.858156  0.111067  1
  Ho  Ho5  1  0.792520  0.559689  0.233402  1
  Ho  Ho6  1  0.207786  0.441512  0.766915  1
  Ho  Ho7  1  0.303689  0.053803  0.749989  1
  Ho  Ho8  1  0.326266  0.058984  0.266567  1
  Ho  Ho9  1  0.304015  0.554040  0.249864  1
  Ho  Ho10  1  0.747146  0.359697  0.389091  1
  Sc  Sc11  1  0.694634  0.444677  0.749953  1
  Pb  Pb12  1  0.479703  0.569394  0.895899  1
  Pb  Pb13  1  0.598010  0.786573  0.798686  1
  Pb  Pb14  1  0.673538  0.084213  0.603992  1
  Pb  Pb15  1  0.000658  0.749590  0.749554  1
  Pb  Pb16  1  0.987815  0.299501  0.700690  1
  Pb  Pb17  1  0.523796  0.424438  0.098658  1
  Pb  Pb18  1  0.006673  0.702258  0.297054  1
  Pb  Pb19  1  0.405301  0.209687  0.203047  1
  Pb  Pb20  1  0.325913  0.925058  0.401351  1
  Pb  Pb21  1  0.000074  0.250767  0.250750  1
