# generated using pymatgen
data_Tb3Tm13InAg3Rh4
_symmetry_space_group_name_H-M   'P 1'
_cell_length_a   9.50537464
_cell_length_b   9.49598457
_cell_length_c   9.49626531
_cell_angle_alpha   59.67367610
_cell_angle_beta   59.62014308
_cell_angle_gamma   59.65461811
_symmetry_Int_Tables_number   1
_chemical_formula_structural   Tb3Tm13InAg3Rh4
_chemical_formula_sum   'Tb3 Tm13 In1 Ag3 Rh4'
_cell_volume   601.27630410
_cell_formula_units_Z   1
loop_
 _symmetry_equiv_pos_site_id
 _symmetry_equiv_pos_as_xyz
  1  'x, y, z'
loop_
 _atom_site_type_symbol
 _atom_site_label
 _atom_site_symmetry_multiplicity
 _atom_site_fract_x
 _atom_site_fract_y
 _atom_site_fract_z
 _atom_site_occupancy
  Tb  Tb0  1  0.061933  0.062912  0.440359  1
  Tb  Tb1  1  0.435876  0.063985  0.436367  1
  Tb  Tb2  1  0.060905  0.436146  0.069590  1
  Tm  Tm3  1  0.050321  0.647239  0.651182  1
  Tm  Tm4  1  0.436166  0.436491  0.065894  1
  Tm  Tm5  1  0.647223  0.050316  0.651081  1
  Tm  Tm6  1  0.189466  0.813718  0.187686  1
  Tm  Tm7  1  0.190262  0.189859  0.811983  1
  Tm  Tm8  1  0.812497  0.812827  0.187241  1
  Tm  Tm9  1  0.437172  0.060478  0.066973  1
  Tm  Tm10  1  0.813959  0.188533  0.187211  1
  Tm  Tm11  1  0.063737  0.437993  0.437826  1
  Tm  Tm12  1  0.809930  0.189513  0.812909  1
  Tm  Tm13  1  0.189352  0.809771  0.813848  1
  Tm  Tm14  1  0.648373  0.648019  0.051900  1
  Tm  Tm15  1  0.649415  0.648122  0.648833  1
  In  In16  1  0.421168  0.421512  0.736940  1
  Ag  Ag17  1  0.417912  0.419460  0.413612  1
  Ag  Ag18  1  0.747425  0.418833  0.416492  1
  Ag  Ag19  1  0.418911  0.748419  0.413379  1
  Rh  Rh20  1  0.857337  0.855177  0.428135  1
  Rh  Rh21  1  0.856566  0.857821  0.857285  1
  Rh  Rh22  1  0.428514  0.855042  0.857317  1
  Rh  Rh23  1  0.855579  0.427814  0.855959  1
