# generated using pymatgen
data_Pr6Nd2Si12PdAu3
_symmetry_space_group_name_H-M   'P 1'
_cell_length_a   8.30206705
_cell_length_b   8.30206754
_cell_length_c   8.70012300
_cell_angle_alpha   90.00148130
_cell_angle_beta   89.99851733
_cell_angle_gamma   120.01210303
_symmetry_Int_Tables_number   1
_chemical_formula_structural   Pr6Nd2Si12PdAu3
_chemical_formula_sum   'Pr6 Nd2 Si12 Pd1 Au3'
_cell_volume   519.24885095
_cell_formula_units_Z   1
loop_
 _symmetry_equiv_pos_site_id
 _symmetry_equiv_pos_as_xyz
  1  'x, y, z'
loop_
 _atom_site_type_symbol
 _atom_site_label
 _atom_site_symmetry_multiplicity
 _atom_site_fract_x
 _atom_site_fract_y
 _atom_site_fract_z
 _atom_site_occupancy
  Pr  Pr0  1  0.998375  0.499185  0.747854  1
  Pr  Pr1  1  0.997603  0.498807  0.251956  1
  Pr  Pr2  1  0.500815  0.001625  0.747854  1
  Pr  Pr3  1  0.501193  0.002397  0.251956  1
  Pr  Pr4  1  0.999999  0.000001  0.748359  1
  Pr  Pr5  1  0.999999  0.000001  0.252004  1
  Nd  Nd6  1  0.500822  0.499178  0.747816  1
  Nd  Nd7  1  0.501197  0.498803  0.251983  1
  Si  Si8  1  0.836192  0.163808  0.001057  1
  Si  Si9  1  0.164127  0.835873  0.998986  1
  Si  Si10  1  0.327569  0.163982  0.001069  1
  Si  Si11  1  0.162631  0.837369  0.499681  1
  Si  Si12  1  0.671777  0.835681  0.998983  1
  Si  Si13  1  0.832370  0.167630  0.500546  1
  Si  Si14  1  0.836018  0.672431  0.001069  1
  Si  Si15  1  0.674826  0.837196  0.499680  1
  Si  Si16  1  0.164319  0.328223  0.998983  1
  Si  Si17  1  0.335256  0.167899  0.500543  1
  Si  Si18  1  0.162804  0.325174  0.499680  1
  Si  Si19  1  0.832101  0.664744  0.500543  1
  Pd  Pd20  1  0.666571  0.333429  0.500509  1
  Au  Au21  1  0.666542  0.333458  0.998439  1
  Au  Au22  1  0.333445  0.666555  0.001131  1
  Au  Au23  1  0.333448  0.666552  0.499317  1
