# generated using pymatgen
data_Nd5ThHg10
_symmetry_space_group_name_H-M   'P 1'
_cell_length_a   6.52131352
_cell_length_b   6.52131480
_cell_length_c   10.58841872
_cell_angle_alpha   90.10734650
_cell_angle_beta   90.10734679
_cell_angle_gamma   105.30986367
_symmetry_Int_Tables_number   1
_chemical_formula_structural   Nd5ThHg10
_chemical_formula_sum   'Nd5 Th1 Hg10'
_cell_volume   434.31707675
_cell_formula_units_Z   1
loop_
 _symmetry_equiv_pos_site_id
 _symmetry_equiv_pos_as_xyz
  1  'x, y, z'
loop_
 _atom_site_type_symbol
 _atom_site_label
 _atom_site_symmetry_multiplicity
 _atom_site_fract_x
 _atom_site_fract_y
 _atom_site_fract_z
 _atom_site_occupancy
  Nd  Nd0  1  0.591247  0.590779  0.249933  1
  Nd  Nd1  1  0.409221  0.408753  0.750067  1
  Nd  Nd2  1  0.203695  0.796305  0.000000  1
  Nd  Nd3  1  0.796434  0.203566  0.500000  1
  Nd  Nd4  1  0.795685  0.204315  0.000000  1
  Th  Th5  1  0.203544  0.796456  0.500000  1
  Hg  Hg6  1  0.996503  0.996314  0.249838  1
  Hg  Hg7  1  0.003686  0.003497  0.750162  1
  Hg  Hg8  1  0.301825  0.302077  0.033899  1
  Hg  Hg9  1  0.697923  0.698175  0.966101  1
  Hg  Hg10  1  0.303010  0.302997  0.466402  1
  Hg  Hg11  1  0.697003  0.696990  0.533598  1
  Hg  Hg12  1  0.486653  0.050212  0.250210  1
  Hg  Hg13  1  0.949788  0.513347  0.749790  1
  Hg  Hg14  1  0.512836  0.949054  0.749788  1
  Hg  Hg15  1  0.050946  0.487164  0.250212  1
