# generated using pymatgen
data_Tm8Si(Pd5Pt3)3
_symmetry_space_group_name_H-M   'P 1'
_cell_length_a   8.31160300
_cell_length_b   8.32000900
_cell_length_c   8.33380400
_cell_angle_alpha   90.00000000
_cell_angle_beta   90.00000000
_cell_angle_gamma   90.00000000
_symmetry_Int_Tables_number   1
_chemical_formula_structural   Tm8Si(Pd5Pt3)3
_chemical_formula_sum   'Tm8 Si1 Pd15 Pt9'
_cell_volume   576.30431253
_cell_formula_units_Z   1
loop_
 _symmetry_equiv_pos_site_id
 _symmetry_equiv_pos_as_xyz
  1  'x, y, z'
loop_
 _atom_site_type_symbol
 _atom_site_label
 _atom_site_symmetry_multiplicity
 _atom_site_fract_x
 _atom_site_fract_y
 _atom_site_fract_z
 _atom_site_occupancy
  Tm  Tm0  1  0.253473  0.253626  0.253439  1
  Tm  Tm1  1  0.745818  0.746067  0.745853  1
  Tm  Tm2  1  0.745818  0.746067  0.254147  1
  Tm  Tm3  1  0.746527  0.253626  0.746561  1
  Tm  Tm4  1  0.253473  0.253626  0.746561  1
  Tm  Tm5  1  0.254182  0.746067  0.254147  1
  Tm  Tm6  1  0.254182  0.746067  0.745853  1
  Tm  Tm7  1  0.746527  0.253626  0.253439  1
  Si  Si8  1  0.000000  0.002953  0.000000  1
  Pd  Pd9  1  0.257713  0.499852  0.000000  1
  Pd  Pd10  1  0.742287  0.499852  0.000000  1
  Pd  Pd11  1  0.000000  0.257506  0.500000  1
  Pd  Pd12  1  0.500000  0.257121  0.000000  1
  Pd  Pd13  1  0.000000  0.741897  0.500000  1
  Pd  Pd14  1  0.500000  0.741985  0.000000  1
  Pd  Pd15  1  0.500000  0.999960  0.257643  1
  Pd  Pd16  1  0.257756  0.999955  0.500000  1
  Pd  Pd17  1  0.500000  0.999960  0.742357  1
  Pd  Pd18  1  0.742244  0.999955  0.500000  1
  Pd  Pd19  1  0.000000  0.499994  0.257829  1
  Pd  Pd20  1  0.000000  0.499994  0.742171  1
  Pd  Pd21  1  0.000000  0.720802  0.000000  1
  Pd  Pd22  1  0.000000  0.999346  0.281595  1
  Pd  Pd23  1  0.000000  0.999346  0.718405  1
  Pt  Pt24  1  0.251657  0.499951  0.500000  1
  Pt  Pt25  1  0.748343  0.499951  0.500000  1
  Pt  Pt26  1  0.500000  0.251870  0.500000  1
  Pt  Pt27  1  0.500000  0.748243  0.500000  1
  Pt  Pt28  1  0.500000  0.499926  0.251991  1
  Pt  Pt29  1  0.500000  0.499926  0.748009  1
  Pt  Pt30  1  0.279934  0.998948  0.000000  1
  Pt  Pt31  1  0.720066  0.998948  0.000000  1
  Pt  Pt32  1  0.000000  0.282990  0.000000  1
