# generated using pymatgen
data_Zr3Sc5Nb11Si16Ru
_symmetry_space_group_name_H-M   'P 1'
_cell_length_a   6.70154151
_cell_length_b   6.89271287
_cell_length_c   13.08861209
_cell_angle_alpha   90.10555996
_cell_angle_beta   90.05027333
_cell_angle_gamma   90.14821581
_symmetry_Int_Tables_number   1
_chemical_formula_structural   Zr3Sc5Nb11Si16Ru
_chemical_formula_sum   'Zr3 Sc5 Nb11 Si16 Ru1'
_cell_volume   604.58328569
_cell_formula_units_Z   1
loop_
 _symmetry_equiv_pos_site_id
 _symmetry_equiv_pos_as_xyz
  1  'x, y, z'
loop_
 _atom_site_type_symbol
 _atom_site_label
 _atom_site_symmetry_multiplicity
 _atom_site_fract_x
 _atom_site_fract_y
 _atom_site_fract_z
 _atom_site_occupancy
  Zr  Zr0  1  0.499942  0.674749  0.595749  1
  Zr  Zr1  1  0.997567  0.829641  0.904509  1
  Zr  Zr2  1  0.497359  0.326814  0.095162  1
  Sc  Sc3  1  0.003856  0.175078  0.405163  1
  Sc  Sc4  1  0.497611  0.328038  0.404183  1
  Sc  Sc5  1  0.001161  0.172709  0.094080  1
  Sc  Sc6  1  0.496389  0.671524  0.906072  1
  Sc  Sc7  1  0.000645  0.823437  0.594427  1
  Nb  Nb8  1  0.167108  0.326063  0.874811  1
  Nb  Nb9  1  0.334341  0.828859  0.123995  1
  Nb  Nb10  1  0.832290  0.671684  0.379233  1
  Nb  Nb11  1  0.336990  0.833185  0.377250  1
  Nb  Nb12  1  0.834899  0.672967  0.124647  1
  Nb  Nb13  1  0.665558  0.169493  0.872529  1
  Nb  Nb14  1  0.166546  0.333037  0.623773  1
  Nb  Nb15  1  0.838401  0.499641  0.748796  1
  Nb  Nb16  1  0.336115  0.004219  0.748888  1
  Nb  Nb17  1  0.160776  0.505462  0.249946  1
  Nb  Nb18  1  0.661275  0.996890  0.250837  1
  Si  Si19  1  0.670073  0.968298  0.463255  1
  Si  Si20  1  0.167011  0.534686  0.038120  1
  Si  Si21  1  0.332337  0.034701  0.960111  1
  Si  Si22  1  0.827524  0.454197  0.543766  1
  Si  Si23  1  0.336759  0.038460  0.541645  1
  Si  Si24  1  0.830610  0.465527  0.959417  1
  Si  Si25  1  0.668857  0.964871  0.039147  1
  Si  Si26  1  0.168460  0.536361  0.460357  1
  Si  Si27  1  0.467727  0.382861  0.745457  1
  Si  Si28  1  0.958239  0.119328  0.746646  1
  Si  Si29  1  0.537762  0.614938  0.251070  1
  Si  Si30  1  0.038584  0.885400  0.251334  1
  Si  Si31  1  0.703579  0.862511  0.750058  1
  Si  Si32  1  0.206718  0.638002  0.751432  1
  Si  Si33  1  0.293424  0.138034  0.250427  1
  Si  Si34  1  0.794179  0.362212  0.251221  1
  Ru  Ru35  1  0.669332  0.156125  0.622489  1
