# generated using pymatgen
data_Tb7Er10Lu3Pb16
_symmetry_space_group_name_H-M   'P 1'
_cell_length_a   8.16224101
_cell_length_b   8.24265381
_cell_length_c   15.56668563
_cell_angle_alpha   90.01558430
_cell_angle_beta   90.05010348
_cell_angle_gamma   89.90304215
_symmetry_Int_Tables_number   1
_chemical_formula_structural   Tb7Er10Lu3Pb16
_chemical_formula_sum   'Tb7 Er10 Lu3 Pb16'
_cell_volume   1047.30174046
_cell_formula_units_Z   1
loop_
 _symmetry_equiv_pos_site_id
 _symmetry_equiv_pos_as_xyz
  1  'x, y, z'
loop_
 _atom_site_type_symbol
 _atom_site_label
 _atom_site_symmetry_multiplicity
 _atom_site_fract_x
 _atom_site_fract_y
 _atom_site_fract_z
 _atom_site_occupancy
  Tb  Tb0  1  0.034575  0.176909  0.600040  1
  Tb  Tb1  1  0.465668  0.676488  0.400307  1
  Tb  Tb2  1  0.965118  0.822974  0.099691  1
  Tb  Tb3  1  0.465548  0.676379  0.099621  1
  Tb  Tb4  1  0.965272  0.822867  0.400305  1
  Tb  Tb5  1  0.534522  0.323200  0.599608  1
  Tb  Tb6  1  0.034669  0.176914  0.900066  1
  Er  Er7  1  0.376582  0.841446  0.878871  1
  Er  Er8  1  0.876320  0.658534  0.620916  1
  Er  Er9  1  0.623924  0.158943  0.379256  1
  Er  Er10  1  0.123007  0.341324  0.120753  1
  Er  Er11  1  0.623717  0.159082  0.120537  1
  Er  Er12  1  0.123242  0.341423  0.379201  1
  Er  Er13  1  0.376549  0.841441  0.621225  1
  Er  Er14  1  0.876381  0.658457  0.879136  1
  Er  Er15  1  0.534975  0.323412  0.900152  1
  Er  Er16  1  0.291836  0.004574  0.249973  1
  Lu  Lu17  1  0.208470  0.504486  0.750155  1
  Lu  Lu18  1  0.708187  0.995176  0.750107  1
  Lu  Lu19  1  0.791543  0.495168  0.249964  1
  Pb  Pb20  1  0.282149  0.033872  0.042881  1
  Pb  Pb21  1  0.782417  0.466275  0.456691  1
  Pb  Pb22  1  0.717577  0.966374  0.543565  1
  Pb  Pb23  1  0.218722  0.533092  0.956325  1
  Pb  Pb24  1  0.717266  0.966965  0.956375  1
  Pb  Pb25  1  0.217683  0.533911  0.543517  1
  Pb  Pb26  1  0.282307  0.033983  0.457178  1
  Pb  Pb27  1  0.781870  0.465832  0.042894  1
  Pb  Pb28  1  0.571012  0.626920  0.750023  1
  Pb  Pb29  1  0.071119  0.872212  0.749997  1
  Pb  Pb30  1  0.429108  0.373093  0.249939  1
  Pb  Pb31  1  0.927939  0.128296  0.250015  1
  Pb  Pb32  1  0.347218  0.154364  0.750614  1
  Pb  Pb33  1  0.845825  0.346855  0.750149  1
  Pb  Pb34  1  0.654060  0.846673  0.249955  1
  Pb  Pb35  1  0.153629  0.652083  0.250000  1
