# generated using pymatgen
data_SnPd6
_symmetry_space_group_name_H-M   'P 1'
_cell_length_a   4.90612280
_cell_length_b   4.89596074
_cell_length_c   4.89711517
_cell_angle_alpha   99.51283004
_cell_angle_beta   99.46568256
_cell_angle_gamma   99.47841875
_symmetry_Int_Tables_number   1
_chemical_formula_structural   SnPd6
_chemical_formula_sum   'Sn1 Pd6'
_cell_volume   112.18500880
_cell_formula_units_Z   1
loop_
 _symmetry_equiv_pos_site_id
 _symmetry_equiv_pos_as_xyz
  1  'x, y, z'
loop_
 _atom_site_type_symbol
 _atom_site_label
 _atom_site_symmetry_multiplicity
 _atom_site_fract_x
 _atom_site_fract_y
 _atom_site_fract_z
 _atom_site_occupancy
  Sn  Sn0  1  0.155138  0.882773  0.058675  1
  Pd  Pd1  1  0.867282  0.311179  0.915823  1
  Pd  Pd2  1  0.583557  0.740145  0.771287  1
  Pd  Pd3  1  0.726742  0.024802  0.346795  1
  Pd  Pd4  1  0.297415  0.170314  0.630085  1
  Pd  Pd5  1  0.013084  0.594595  0.487060  1
  Pd  Pd6  1  0.443724  0.453926  0.201833  1
