# generated using pymatgen
data_Tb2Dy3Re2C7
_symmetry_space_group_name_H-M   'P 1'
_cell_length_a   8.36137188
_cell_length_b   8.35874163
_cell_length_c   3.43226600
_cell_angle_alpha   90.00000000
_cell_angle_beta   90.00000000
_cell_angle_gamma   122.87567503
_symmetry_Int_Tables_number   1
_chemical_formula_structural   Tb2Dy3Re2C7
_chemical_formula_sum   'Tb2 Dy3 Re2 C7'
_cell_volume   201.46578922
_cell_formula_units_Z   1
loop_
 _symmetry_equiv_pos_site_id
 _symmetry_equiv_pos_as_xyz
  1  'x, y, z'
loop_
 _atom_site_type_symbol
 _atom_site_label
 _atom_site_symmetry_multiplicity
 _atom_site_fract_x
 _atom_site_fract_y
 _atom_site_fract_z
 _atom_site_occupancy
  Tb  Tb0  1  0.666379  0.925106  0.500000  1
  Tb  Tb1  1  0.333621  0.074894  0.500000  1
  Dy  Dy2  1  0.500000  0.500000  0.000000  1
  Dy  Dy3  1  0.074920  0.334278  0.500000  1
  Dy  Dy4  1  0.925080  0.665722  0.500000  1
  Re  Re5  1  0.714646  0.285948  0.000000  1
  Re  Re6  1  0.285354  0.714052  0.000000  1
  C  C7  1  0.627609  0.373575  0.500000  1
  C  C8  1  0.372391  0.626425  0.500000  1
  C  C9  1  0.000000  0.000000  0.000000  1
  C  C10  1  0.169075  0.170574  0.000000  1
  C  C11  1  0.830925  0.829426  0.000000  1
  C  C12  1  0.000000  0.500000  0.000000  1
  C  C13  1  0.500000  0.000000  0.000000  1
