# generated using pymatgen
data_Gd4HoLuGa10
_symmetry_space_group_name_H-M   'P 1'
_cell_length_a   6.11088200
_cell_length_b   9.64666700
_cell_length_c   11.51281800
_cell_angle_alpha   90.00000000
_cell_angle_beta   90.00000000
_cell_angle_gamma   90.00000000
_symmetry_Int_Tables_number   1
_chemical_formula_structural   Gd4HoLuGa10
_chemical_formula_sum   'Gd8 Ho2 Lu2 Ga20'
_cell_volume   678.67651943
_cell_formula_units_Z   2
loop_
 _symmetry_equiv_pos_site_id
 _symmetry_equiv_pos_as_xyz
  1  'x, y, z'
loop_
 _atom_site_type_symbol
 _atom_site_label
 _atom_site_symmetry_multiplicity
 _atom_site_fract_x
 _atom_site_fract_y
 _atom_site_fract_z
 _atom_site_occupancy
  Gd  Gd0  1  0.890186  0.510301  0.351871  1
  Gd  Gd1  1  0.609814  0.989699  0.851871  1
  Gd  Gd2  1  0.109213  0.009463  0.648346  1
  Gd  Gd3  1  0.390787  0.490537  0.148346  1
  Gd  Gd4  1  0.109213  0.490537  0.648346  1
  Gd  Gd5  1  0.390787  0.009463  0.148346  1
  Gd  Gd6  1  0.890186  0.989699  0.351871  1
  Gd  Gd7  1  0.609814  0.510301  0.851871  1
  Ho  Ho8  1  0.150417  0.250000  0.926020  1
  Ho  Ho9  1  0.349583  0.250000  0.426020  1
  Lu  Lu10  1  0.849083  0.750000  0.074306  1
  Lu  Lu11  1  0.650917  0.750000  0.574306  1
  Ga  Ga12  1  0.874912  0.052503  0.089919  1
  Ga  Ga13  1  0.625088  0.447497  0.589919  1
  Ga  Ga14  1  0.125122  0.553518  0.910060  1
  Ga  Ga15  1  0.374878  0.946482  0.410060  1
  Ga  Ga16  1  0.125122  0.946482  0.910060  1
  Ga  Ga17  1  0.374878  0.553518  0.410060  1
  Ga  Ga18  1  0.874912  0.447497  0.089919  1
  Ga  Ga19  1  0.625088  0.052503  0.589919  1
  Ga  Ga20  1  0.173056  0.750000  0.251517  1
  Ga  Ga21  1  0.326944  0.750000  0.751517  1
  Ga  Ga22  1  0.825621  0.250000  0.748056  1
  Ga  Ga23  1  0.674379  0.250000  0.248056  1
  Ga  Ga24  1  0.372334  0.750000  0.004506  1
  Ga  Ga25  1  0.127666  0.750000  0.504506  1
  Ga  Ga26  1  0.629053  0.250000  0.995644  1
  Ga  Ga27  1  0.870947  0.250000  0.495644  1
  Ga  Ga28  1  0.601184  0.750000  0.298897  1
  Ga  Ga29  1  0.898816  0.750000  0.798897  1
  Ga  Ga30  1  0.399185  0.250000  0.700663  1
  Ga  Ga31  1  0.100815  0.250000  0.200663  1
