# generated using pymatgen
data_K3Ce(BO3)2
_symmetry_space_group_name_H-M   'P 1'
_cell_length_a   5.69831700
_cell_length_b   7.06557200
_cell_length_c   9.69561300
_cell_angle_alpha   90.00000000
_cell_angle_beta   90.00000000
_cell_angle_gamma   90.00000000
_symmetry_Int_Tables_number   1
_chemical_formula_structural   K3Ce(BO3)2
_chemical_formula_sum   'K6 Ce2 B4 O12'
_cell_volume   390.36350089
_cell_formula_units_Z   2
loop_
 _symmetry_equiv_pos_site_id
 _symmetry_equiv_pos_as_xyz
  1  'x, y, z'
loop_
 _atom_site_type_symbol
 _atom_site_label
 _atom_site_symmetry_multiplicity
 _atom_site_fract_x
 _atom_site_fract_y
 _atom_site_fract_z
 _atom_site_occupancy
  K  K0  1  0.000000  0.231618  0.332079  1
  K  K1  1  0.000000  0.768382  0.667921  1
  K  K2  1  0.500000  0.731618  0.167921  1
  K  K3  1  0.500000  0.500000  0.500000  1
  K  K4  1  0.500000  0.268382  0.832079  1
  K  K5  1  0.000000  0.000000  0.000000  1
  Ce  Ce6  1  0.000000  0.500000  0.000000  1
  Ce  Ce7  1  0.500000  0.000000  0.500000  1
  B  B8  1  0.000000  0.760750  0.334322  1
  B  B9  1  0.000000  0.239250  0.665678  1
  B  B10  1  0.500000  0.739250  0.834322  1
  B  B11  1  0.500000  0.260750  0.165678  1
  O  O12  1  0.711976  0.292185  0.097366  1
  O  O13  1  0.211976  0.207815  0.597366  1
  O  O14  1  0.500000  0.199785  0.302766  1
  O  O15  1  0.711976  0.707815  0.902634  1
  O  O16  1  0.288024  0.292185  0.097366  1
  O  O17  1  0.211976  0.792185  0.402634  1
  O  O18  1  0.788024  0.207815  0.597366  1
  O  O19  1  0.288024  0.707815  0.902634  1
  O  O20  1  0.788024  0.792185  0.402634  1
  O  O21  1  0.000000  0.300215  0.802766  1
  O  O22  1  0.000000  0.699785  0.197234  1
  O  O23  1  0.500000  0.800215  0.697234  1
