# generated using pymatgen
data_Tb4Ga17SiIr6
_symmetry_space_group_name_H-M   'P 1'
_cell_length_a   7.60121172
_cell_length_b   7.58106593
_cell_length_c   9.50933040
_cell_angle_alpha   90.04850891
_cell_angle_beta   89.82793197
_cell_angle_gamma   119.88754318
_symmetry_Int_Tables_number   1
_chemical_formula_structural   Tb4Ga17SiIr6
_chemical_formula_sum   'Tb4 Ga17 Si1 Ir6'
_cell_volume   475.09735740
_cell_formula_units_Z   1
loop_
 _symmetry_equiv_pos_site_id
 _symmetry_equiv_pos_as_xyz
  1  'x, y, z'
loop_
 _atom_site_type_symbol
 _atom_site_label
 _atom_site_symmetry_multiplicity
 _atom_site_fract_x
 _atom_site_fract_y
 _atom_site_fract_z
 _atom_site_occupancy
  Tb  Tb0  1  0.996930  0.665352  0.248474  1
  Tb  Tb1  1  0.002949  0.331336  0.751024  1
  Tb  Tb2  1  0.672680  0.001247  0.248467  1
  Tb  Tb3  1  0.331013  0.002740  0.750124  1
  Ga  Ga4  1  0.129115  0.128616  0.250761  1
  Ga  Ga5  1  0.873235  0.874067  0.750650  1
  Ga  Ga6  1  0.999437  0.670176  0.918012  1
  Ga  Ga7  1  0.000620  0.666097  0.580073  1
  Ga  Ga8  1  0.333896  0.998610  0.419812  1
  Ga  Ga9  1  0.999431  0.334431  0.420840  1
  Ga  Ga10  1  0.665363  0.000088  0.580153  1
  Ga  Ga11  1  0.660047  0.995313  0.918115  1
  Ga  Ga12  1  0.333860  0.998400  0.081155  1
  Ga  Ga13  1  0.332318  0.331713  0.564201  1
  Ga  Ga14  1  0.668352  0.668722  0.435253  1
  Ga  Ga15  1  0.668048  0.668751  0.066427  1
  Ga  Ga16  1  0.337318  0.332570  0.934334  1
  Ga  Ga17  1  0.340736  0.545909  0.251358  1
  Ga  Ga18  1  0.661024  0.452596  0.750852  1
  Ga  Ga19  1  0.547011  0.339637  0.250392  1
  Ga  Ga20  1  0.452228  0.659703  0.750259  1
  Si  Si21  1  0.999498  0.334293  0.073232  1
  Ir  Ir22  1  0.683664  0.329550  0.003136  1
  Ir  Ir23  1  0.314172  0.656939  0.001660  1
  Ir  Ir24  1  0.328012  0.670970  0.500155  1
  Ir  Ir25  1  0.671390  0.328550  0.499990  1
  Ir  Ir26  1  0.998324  0.013509  0.001423  1
  Ir  Ir27  1  0.999327  0.000114  0.499665  1
