# generated using pymatgen
data_LaPaSnRh2
_symmetry_space_group_name_H-M   'P 1'
_cell_length_a   7.79660700
_cell_length_b   7.82564100
_cell_length_c   3.75690400
_cell_angle_alpha   90.00000000
_cell_angle_beta   90.00000000
_cell_angle_gamma   90.00000000
_symmetry_Int_Tables_number   1
_chemical_formula_structural   LaPaSnRh2
_chemical_formula_sum   'La2 Pa2 Sn2 Rh4'
_cell_volume   229.22166459
_cell_formula_units_Z   2
loop_
 _symmetry_equiv_pos_site_id
 _symmetry_equiv_pos_as_xyz
  1  'x, y, z'
loop_
 _atom_site_type_symbol
 _atom_site_label
 _atom_site_symmetry_multiplicity
 _atom_site_fract_x
 _atom_site_fract_y
 _atom_site_fract_z
 _atom_site_occupancy
  La  La0  1  0.673037  0.174713  0.500000  1
  La  La1  1  0.173037  0.325287  0.500000  1
  Pa  Pa2  1  0.824075  0.668555  0.500000  1
  Pa  Pa3  1  0.324075  0.831445  0.500000  1
  Sn  Sn4  1  0.993987  0.993227  0.000000  1
  Sn  Sn5  1  0.493987  0.506773  0.000000  1
  Rh  Rh6  1  0.861731  0.417141  0.000000  1
  Rh  Rh7  1  0.361731  0.082859  0.000000  1
  Rh  Rh8  1  0.647169  0.844355  0.000000  1
  Rh  Rh9  1  0.147169  0.655645  0.000000  1
