# generated using pymatgen
data_Nd5B6
_symmetry_space_group_name_H-M   'P 1'
_cell_length_a   3.72014700
_cell_length_b   18.20150010
_cell_length_c   18.20150240
_cell_angle_alpha   170.15185656
_cell_angle_beta   90.00000000
_cell_angle_gamma   90.00000000
_symmetry_Int_Tables_number   1
_chemical_formula_structural   Nd5B6
_chemical_formula_sum   'Nd5 B6'
_cell_volume   210.79762165
_cell_formula_units_Z   1
loop_
 _symmetry_equiv_pos_site_id
 _symmetry_equiv_pos_as_xyz
  1  'x, y, z'
loop_
 _atom_site_type_symbol
 _atom_site_label
 _atom_site_symmetry_multiplicity
 _atom_site_fract_x
 _atom_site_fract_y
 _atom_site_fract_z
 _atom_site_occupancy
  Nd  Nd0  1  0.000000  0.000000  0.000000  1
  Nd  Nd1  1  0.499999  0.797199  0.202798  1
  Nd  Nd2  1  0.000000  0.597857  0.402140  1
  Nd  Nd3  1  0.000000  0.402140  0.597857  1
  Nd  Nd4  1  0.499999  0.202798  0.797199  1
  B  B5  1  0.499999  0.943180  0.056816  1
  B  B6  1  0.000000  0.742936  0.257061  1
  B  B7  1  0.499999  0.543955  0.456041  1
  B  B8  1  0.499999  0.456041  0.543955  1
  B  B9  1  0.000000  0.257061  0.742936  1
  B  B10  1  0.499999  0.056816  0.943180  1
