# generated using pymatgen
data_PrCrF7
_symmetry_space_group_name_H-M   'P 1'
_cell_length_a   5.59801300
_cell_length_b   9.08650013
_cell_length_c   12.11852084
_cell_angle_alpha   62.37117307
_cell_angle_beta   90.00000000
_cell_angle_gamma   90.00000000
_symmetry_Int_Tables_number   1
_chemical_formula_structural   PrCrF7
_chemical_formula_sum   'Pr4 Cr4 F28'
_cell_volume   546.13417303
_cell_formula_units_Z   4
loop_
 _symmetry_equiv_pos_site_id
 _symmetry_equiv_pos_as_xyz
  1  'x, y, z'
loop_
 _atom_site_type_symbol
 _atom_site_label
 _atom_site_symmetry_multiplicity
 _atom_site_fract_x
 _atom_site_fract_y
 _atom_site_fract_z
 _atom_site_occupancy
  Pr  Pr0  1  0.758979  0.806229  0.765926  1
  Pr  Pr1  1  0.258979  0.193771  0.734074  1
  Pr  Pr2  1  0.241021  0.193771  0.234074  1
  Pr  Pr3  1  0.741021  0.806229  0.265926  1
  Cr  Cr4  1  0.755447  0.273324  0.957445  1
  Cr  Cr5  1  0.255447  0.726676  0.542555  1
  Cr  Cr6  1  0.244553  0.726676  0.042555  1
  Cr  Cr7  1  0.744553  0.273324  0.457445  1
  F  F8  1  0.427496  0.709112  0.921450  1
  F  F9  1  0.927496  0.290888  0.578550  1
  F  F10  1  0.572504  0.290888  0.078550  1
  F  F11  1  0.072504  0.709112  0.421450  1
  F  F12  1  0.460820  0.280878  0.537498  1
  F  F13  1  0.960820  0.719122  0.962502  1
  F  F14  1  0.539180  0.719122  0.462502  1
  F  F15  1  0.039180  0.280878  0.037498  1
  F  F16  1  0.767728  0.502760  0.866001  1
  F  F17  1  0.267728  0.497240  0.633999  1
  F  F18  1  0.232272  0.497240  0.133999  1
  F  F19  1  0.732272  0.502760  0.366001  1
  F  F20  1  0.758326  0.045343  0.044887  1
  F  F21  1  0.258326  0.954657  0.455113  1
  F  F22  1  0.241674  0.954657  0.955113  1
  F  F23  1  0.741674  0.045343  0.544887  1
  F  F24  1  0.977873  0.728985  0.626899  1
  F  F25  1  0.477873  0.271015  0.873101  1
  F  F26  1  0.022127  0.271015  0.373101  1
  F  F27  1  0.522127  0.728985  0.126899  1
  F  F28  1  0.063155  0.740973  0.167561  1
  F  F29  1  0.563155  0.259027  0.332439  1
  F  F30  1  0.936845  0.259027  0.832439  1
  F  F31  1  0.436845  0.740973  0.667561  1
  F  F32  1  0.402342  0.966224  0.228319  1
  F  F33  1  0.902342  0.033776  0.271681  1
  F  F34  1  0.597658  0.033776  0.771681  1
  F  F35  1  0.097658  0.966224  0.728319  1
