# generated using pymatgen
data_PrCu2Bi2(SeO2)2
_symmetry_space_group_name_H-M   'P 1'
_cell_length_a   12.98162047
_cell_length_b   3.96541535
_cell_length_c   3.96541500
_cell_angle_alpha   90.00000000
_cell_angle_beta   98.78527501
_cell_angle_gamma   98.78527574
_symmetry_Int_Tables_number   1
_chemical_formula_structural   PrCu2Bi2(SeO2)2
_chemical_formula_sum   'Pr1 Cu2 Bi2 Se2 O4'
_cell_volume   199.31110685
_cell_formula_units_Z   1
loop_
 _symmetry_equiv_pos_site_id
 _symmetry_equiv_pos_as_xyz
  1  'x, y, z'
loop_
 _atom_site_type_symbol
 _atom_site_label
 _atom_site_symmetry_multiplicity
 _atom_site_fract_x
 _atom_site_fract_y
 _atom_site_fract_z
 _atom_site_occupancy
  Pr  Pr0  1  0.000000  0.000000  0.000000  1
  Cu  Cu1  1  0.500000  0.750000  0.250000  1
  Cu  Cu2  1  0.500000  0.250000  0.750000  1
  Bi  Bi3  1  0.795300  0.397649  0.397649  1
  Bi  Bi4  1  0.204701  0.602350  0.602350  1
  Se  Se5  1  0.382271  0.191135  0.191135  1
  Se  Se6  1  0.617729  0.808864  0.808864  1
  O  O7  1  0.118077  0.559038  0.059039  1
  O  O8  1  0.881923  0.940961  0.440961  1
  O  O9  1  0.118077  0.059039  0.559038  1
  O  O10  1  0.881923  0.440961  0.940961  1
