# generated using pymatgen
data_Tm12TcNiRu2
_symmetry_space_group_name_H-M   'P 1'
_cell_length_a   6.23522091
_cell_length_b   7.18595728
_cell_length_c   9.00965700
_cell_angle_alpha   90.00000000
_cell_angle_beta   90.00000000
_cell_angle_gamma   89.58909045
_symmetry_Int_Tables_number   1
_chemical_formula_structural   Tm12TcNiRu2
_chemical_formula_sum   'Tm12 Tc1 Ni1 Ru2'
_cell_volume   403.67659013
_cell_formula_units_Z   1
loop_
 _symmetry_equiv_pos_site_id
 _symmetry_equiv_pos_as_xyz
  1  'x, y, z'
loop_
 _atom_site_type_symbol
 _atom_site_label
 _atom_site_symmetry_multiplicity
 _atom_site_fract_x
 _atom_site_fract_y
 _atom_site_fract_z
 _atom_site_occupancy
  Tm  Tm0  1  0.634679  0.035426  0.250000  1
  Tm  Tm1  1  0.366072  0.962095  0.750000  1
  Tm  Tm2  1  0.129948  0.457915  0.750000  1
  Tm  Tm3  1  0.877050  0.542456  0.250000  1
  Tm  Tm4  1  0.170699  0.177851  0.063847  1
  Tm  Tm5  1  0.825796  0.820151  0.933334  1
  Tm  Tm6  1  0.666262  0.323186  0.938769  1
  Tm  Tm7  1  0.825796  0.820151  0.566666  1
  Tm  Tm8  1  0.331013  0.678197  0.062350  1
  Tm  Tm9  1  0.170699  0.177851  0.436153  1
  Tm  Tm10  1  0.331013  0.678197  0.437650  1
  Tm  Tm11  1  0.666262  0.323186  0.561231  1
  Tc  Tc12  1  0.465792  0.387855  0.250000  1
  Ni  Ni13  1  0.044763  0.887327  0.250000  1
  Ru  Ru14  1  0.533879  0.615736  0.750000  1
  Ru  Ru15  1  0.960275  0.112421  0.750000  1
