# generated using pymatgen
data_Tm6HfZr(Co4P3)4
_symmetry_space_group_name_H-M   'P 1'
_cell_length_a   3.70292400
_cell_length_b   10.65370300
_cell_length_c   12.34238600
_cell_angle_alpha   90.00000000
_cell_angle_beta   90.00000000
_cell_angle_gamma   90.00000000
_symmetry_Int_Tables_number   1
_chemical_formula_structural   Tm6HfZr(Co4P3)4
_chemical_formula_sum   'Tm6 Hf1 Zr1 Co16 P12'
_cell_volume   486.90530754
_cell_formula_units_Z   1
loop_
 _symmetry_equiv_pos_site_id
 _symmetry_equiv_pos_as_xyz
  1  'x, y, z'
loop_
 _atom_site_type_symbol
 _atom_site_label
 _atom_site_symmetry_multiplicity
 _atom_site_fract_x
 _atom_site_fract_y
 _atom_site_fract_z
 _atom_site_occupancy
  Tm  Tm0  1  0.000000  0.500000  0.529804  1
  Tm  Tm1  1  0.500000  0.000000  0.470587  1
  Tm  Tm2  1  0.500000  0.822686  0.204662  1
  Tm  Tm3  1  0.500000  0.177314  0.204662  1
  Tm  Tm4  1  0.000000  0.677451  0.795299  1
  Tm  Tm5  1  0.000000  0.322549  0.795299  1
  Hf  Hf6  1  0.000000  0.000000  0.841641  1
  Zr  Zr7  1  0.500000  0.500000  0.158680  1
  Co  Co8  1  0.500000  0.500000  0.702937  1
  Co  Co9  1  0.000000  0.000000  0.297054  1
  Co  Co10  1  0.000000  0.500000  0.985802  1
  Co  Co11  1  0.500000  0.000000  0.013241  1
  Co  Co12  1  0.500000  0.331344  0.992490  1
  Co  Co13  1  0.500000  0.668656  0.992490  1
  Co  Co14  1  0.000000  0.167408  0.006417  1
  Co  Co15  1  0.000000  0.832592  0.006417  1
  Co  Co16  1  0.500000  0.294977  0.433535  1
  Co  Co17  1  0.500000  0.705023  0.433535  1
  Co  Co18  1  0.000000  0.204808  0.566664  1
  Co  Co19  1  0.000000  0.795192  0.566664  1
  Co  Co20  1  0.500000  0.876983  0.702676  1
  Co  Co21  1  0.500000  0.123017  0.702676  1
  Co  Co22  1  0.000000  0.623551  0.298660  1
  Co  Co23  1  0.000000  0.376449  0.298660  1
  P  P24  1  0.500000  0.500000  0.882741  1
  P  P25  1  0.000000  0.000000  0.117304  1
  P  P26  1  0.500000  0.500000  0.364754  1
  P  P27  1  0.000000  0.000000  0.636385  1
  P  P28  1  0.500000  0.311300  0.616247  1
  P  P29  1  0.500000  0.688700  0.616247  1
  P  P30  1  0.000000  0.188409  0.383952  1
  P  P31  1  0.000000  0.811591  0.383952  1
  P  P32  1  0.500000  0.838064  0.891829  1
  P  P33  1  0.500000  0.161936  0.891829  1
  P  P34  1  0.000000  0.663285  0.107105  1
  P  P35  1  0.000000  0.336715  0.107105  1
