# generated using pymatgen
data_La9Y(IrOs)2
_symmetry_space_group_name_H-M   'P 1'
_cell_length_a   6.73947406
_cell_length_b   7.42048401
_cell_length_c   9.11910481
_cell_angle_alpha   95.08711823
_cell_angle_beta   111.68633005
_cell_angle_gamma   89.99998934
_symmetry_Int_Tables_number   1
_chemical_formula_structural   La9Y(IrOs)2
_chemical_formula_sum   'La9 Y1 Ir2 Os2'
_cell_volume   421.83537128
_cell_formula_units_Z   1
loop_
 _symmetry_equiv_pos_site_id
 _symmetry_equiv_pos_as_xyz
  1  'x, y, z'
loop_
 _atom_site_type_symbol
 _atom_site_label
 _atom_site_symmetry_multiplicity
 _atom_site_fract_x
 _atom_site_fract_y
 _atom_site_fract_z
 _atom_site_occupancy
  La  La0  1  0.978386  0.912325  0.181441  1
  La  La1  1  0.796944  0.587675  0.818559  1
  La  La2  1  0.010239  0.088624  0.818473  1
  La  La3  1  0.191767  0.411376  0.181527  1
  La  La4  1  0.651563  0.819493  0.434104  1
  La  La5  1  0.217457  0.680507  0.565896  1
  La  La6  1  0.360317  0.177225  0.576064  1
  La  La7  1  0.784254  0.322775  0.423936  1
  La  La8  1  0.429636  0.750000  0.000000  1
  Y  Y9  1  0.565029  0.250000  0.000000  1
  Ir  Ir10  1  0.181072  0.420619  0.778506  1
  Ir  Ir11  1  0.402568  0.079381  0.221494  1
  Os  Os12  1  0.823600  0.572845  0.216430  1
  Os  Os13  1  0.607169  0.927155  0.783570  1
