# generated using pymatgen
data_Cs2PrNd(GeSe4)2
_symmetry_space_group_name_H-M   'P 1'
_cell_length_a   7.23626400
_cell_length_b   6.93322999
_cell_length_c   19.89409592
_cell_angle_alpha   71.32315060
_cell_angle_beta   90.00000000
_cell_angle_gamma   90.00000000
_symmetry_Int_Tables_number   1
_chemical_formula_structural   Cs2PrNd(GeSe4)2
_chemical_formula_sum   'Cs4 Pr2 Nd2 Ge4 Se16'
_cell_volume   945.54015205
_cell_formula_units_Z   2
loop_
 _symmetry_equiv_pos_site_id
 _symmetry_equiv_pos_as_xyz
  1  'x, y, z'
loop_
 _atom_site_type_symbol
 _atom_site_label
 _atom_site_symmetry_multiplicity
 _atom_site_fract_x
 _atom_site_fract_y
 _atom_site_fract_z
 _atom_site_occupancy
  Cs  Cs0  1  0.750342  0.728442  0.032939  1
  Cs  Cs1  1  0.249661  0.271621  0.966951  1
  Cs  Cs2  1  0.749661  0.728379  0.533049  1
  Cs  Cs3  1  0.250342  0.271558  0.467061  1
  Pr  Pr4  1  0.234199  0.226754  0.226942  1
  Pr  Pr5  1  0.734199  0.773246  0.273058  1
  Nd  Nd6  1  0.766689  0.772651  0.773043  1
  Nd  Nd7  1  0.266689  0.227349  0.726957  1
  Ge  Ge8  1  0.732947  0.213673  0.833695  1
  Ge  Ge9  1  0.767190  0.213611  0.333956  1
  Ge  Ge10  1  0.232947  0.786327  0.666305  1
  Ge  Ge11  1  0.267190  0.786389  0.166044  1
  Se  Se12  1  0.505648  0.038865  0.143240  1
  Se  Se13  1  0.759509  0.413075  0.410009  1
  Se  Se14  1  0.005144  0.008385  0.846883  1
  Se  Se15  1  0.837446  0.426840  0.216923  1
  Se  Se16  1  0.994472  0.038581  0.644279  1
  Se  Se17  1  0.259509  0.586925  0.089991  1
  Se  Se18  1  0.740668  0.415488  0.909159  1
  Se  Se19  1  0.337446  0.573160  0.283077  1
  Se  Se20  1  0.240668  0.584512  0.590841  1
  Se  Se21  1  0.494472  0.961419  0.855721  1
  Se  Se22  1  0.661287  0.428780  0.717252  1
  Se  Se23  1  0.161287  0.571220  0.782748  1
  Se  Se24  1  0.005648  0.961135  0.356760  1
  Se  Se25  1  0.994800  0.991344  0.151948  1
  Se  Se26  1  0.494800  0.008656  0.348052  1
  Se  Se27  1  0.505144  0.991615  0.653117  1
