# generated using pymatgen
data_LiNi20(P3Pb)2
_symmetry_space_group_name_H-M   'P 1'
_cell_length_a   7.89904247
_cell_length_b   7.89904238
_cell_length_c   7.89904200
_cell_angle_alpha   59.99999323
_cell_angle_beta   59.99999358
_cell_angle_gamma   60.00000262
_symmetry_Int_Tables_number   1
_chemical_formula_structural   LiNi20(P3Pb)2
_chemical_formula_sum   'Li1 Ni20 P6 Pb2'
_cell_volume   348.50441419
_cell_formula_units_Z   1
loop_
 _symmetry_equiv_pos_site_id
 _symmetry_equiv_pos_as_xyz
  1  'x, y, z'
loop_
 _atom_site_type_symbol
 _atom_site_label
 _atom_site_symmetry_multiplicity
 _atom_site_fract_x
 _atom_site_fract_y
 _atom_site_fract_z
 _atom_site_occupancy
  Li  Li0  1  0.000000  0.000000  0.000000  1
  Ni  Ni1  1  0.385541  0.843374  0.385541  1
  Ni  Ni2  1  0.385541  0.385541  0.843374  1
  Ni  Ni3  1  0.348014  0.000000  0.651986  1
  Ni  Ni4  1  0.000000  0.348014  0.651986  1
  Ni  Ni5  1  0.156626  0.614459  0.614459  1
  Ni  Ni6  1  0.651986  0.000000  0.000000  1
  Ni  Ni7  1  0.843374  0.385541  0.385541  1
  Ni  Ni8  1  0.651986  0.348014  0.000000  1
  Ni  Ni9  1  0.000000  0.348014  0.000000  1
  Ni  Ni10  1  0.348014  0.651986  0.000000  1
  Ni  Ni11  1  0.000000  0.000000  0.348014  1
  Ni  Ni12  1  0.614459  0.156626  0.614459  1
  Ni  Ni13  1  0.651986  0.000000  0.348014  1
  Ni  Ni14  1  0.000000  0.651986  0.000000  1
  Ni  Ni15  1  0.614459  0.614459  0.156626  1
  Ni  Ni16  1  0.000000  0.651986  0.348014  1
  Ni  Ni17  1  0.348014  0.000000  0.000000  1
  Ni  Ni18  1  0.000000  0.000000  0.651986  1
  Ni  Ni19  1  0.385541  0.385541  0.385541  1
  Ni  Ni20  1  0.614459  0.614459  0.614459  1
  P  P21  1  0.261964  0.261964  0.738036  1
  P  P22  1  0.261964  0.738036  0.261964  1
  P  P23  1  0.738036  0.261964  0.261964  1
  P  P24  1  0.261964  0.738036  0.738036  1
  P  P25  1  0.738036  0.261964  0.738036  1
  P  P26  1  0.738036  0.738036  0.261964  1
  Pb  Pb27  1  0.750000  0.750000  0.750000  1
  Pb  Pb28  1  0.250000  0.250000  0.250000  1
