# generated using pymatgen
data_Tb13Dy6ErSn16
_symmetry_space_group_name_H-M   'P 1'
_cell_length_a   8.04521944
_cell_length_b   8.19257335
_cell_length_c   15.48675704
_cell_angle_alpha   89.99625707
_cell_angle_beta   90.03628960
_cell_angle_gamma   90.01804367
_symmetry_Int_Tables_number   1
_chemical_formula_structural   Tb13Dy6ErSn16
_chemical_formula_sum   'Tb13 Dy6 Er1 Sn16'
_cell_volume   1020.74816593
_cell_formula_units_Z   1
loop_
 _symmetry_equiv_pos_site_id
 _symmetry_equiv_pos_as_xyz
  1  'x, y, z'
loop_
 _atom_site_type_symbol
 _atom_site_label
 _atom_site_symmetry_multiplicity
 _atom_site_fract_x
 _atom_site_fract_y
 _atom_site_fract_z
 _atom_site_occupancy
  Tb  Tb0  1  0.134326  0.337076  0.121897  1
  Tb  Tb1  1  0.633454  0.162942  0.122461  1
  Tb  Tb2  1  0.133762  0.336980  0.378026  1
  Tb  Tb3  1  0.366496  0.837194  0.622257  1
  Tb  Tb4  1  0.866622  0.662617  0.877893  1
  Tb  Tb5  1  0.519309  0.320624  0.902757  1
  Tb  Tb6  1  0.019342  0.179381  0.597171  1
  Tb  Tb7  1  0.480879  0.679619  0.403234  1
  Tb  Tb8  1  0.980309  0.820762  0.097193  1
  Tb  Tb9  1  0.481071  0.679662  0.096900  1
  Tb  Tb10  1  0.981758  0.820702  0.403437  1
  Tb  Tb11  1  0.518516  0.321087  0.596905  1
  Tb  Tb12  1  0.018889  0.178564  0.902371  1
  Dy  Dy13  1  0.365695  0.837718  0.876565  1
  Dy  Dy14  1  0.865032  0.662467  0.622763  1
  Dy  Dy15  1  0.634520  0.162400  0.377637  1
  Dy  Dy16  1  0.197554  0.503100  0.750210  1
  Dy  Dy17  1  0.697704  0.997097  0.749511  1
  Dy  Dy18  1  0.802440  0.497160  0.250732  1
  Er  Er19  1  0.302510  0.002974  0.249834  1
  Sn  Sn20  1  0.294086  0.036345  0.041318  1
  Sn  Sn21  1  0.793341  0.461980  0.458954  1
  Sn  Sn22  1  0.706879  0.961996  0.541336  1
  Sn  Sn23  1  0.207270  0.538329  0.958018  1
  Sn  Sn24  1  0.703736  0.962364  0.957876  1
  Sn  Sn25  1  0.203624  0.537878  0.542219  1
  Sn  Sn26  1  0.296112  0.037653  0.457736  1
  Sn  Sn27  1  0.794063  0.462980  0.042270  1
  Sn  Sn28  1  0.563850  0.618132  0.749874  1
  Sn  Sn29  1  0.063662  0.881740  0.749827  1
  Sn  Sn30  1  0.436177  0.381619  0.250363  1
  Sn  Sn31  1  0.936831  0.117528  0.250312  1
  Sn  Sn32  1  0.328460  0.148495  0.749819  1
  Sn  Sn33  1  0.828461  0.351873  0.749784  1
  Sn  Sn34  1  0.671419  0.852085  0.250353  1
  Sn  Sn35  1  0.171842  0.648879  0.250184  1
