# generated using pymatgen
data_Tb4Dy5Lu(In2Pt)4
_symmetry_space_group_name_H-M   'P 1'
_cell_length_a   3.63881900
_cell_length_b   8.16623488
_cell_length_c   18.25294053
_cell_angle_alpha   89.84398077
_cell_angle_beta   90.00000000
_cell_angle_gamma   90.00000000
_symmetry_Int_Tables_number   1
_chemical_formula_structural   Tb4Dy5Lu(In2Pt)4
_chemical_formula_sum   'Tb4 Dy5 Lu1 In8 Pt4'
_cell_volume   542.39234213
_cell_formula_units_Z   1
loop_
 _symmetry_equiv_pos_site_id
 _symmetry_equiv_pos_as_xyz
  1  'x, y, z'
loop_
 _atom_site_type_symbol
 _atom_site_label
 _atom_site_symmetry_multiplicity
 _atom_site_fract_x
 _atom_site_fract_y
 _atom_site_fract_z
 _atom_site_occupancy
  Tb  Tb0  1  0.000000  0.257746  0.719207  1
  Tb  Tb1  1  0.000000  0.740980  0.281474  1
  Tb  Tb2  1  0.000000  0.999668  0.000328  1
  Tb  Tb3  1  0.000000  0.500563  0.499165  1
  Dy  Dy4  1  0.000000  0.883219  0.584303  1
  Dy  Dy5  1  0.000000  0.383239  0.915018  1
  Dy  Dy6  1  0.000000  0.617007  0.085500  1
  Dy  Dy7  1  0.000000  0.242431  0.220468  1
  Dy  Dy8  1  0.000000  0.757813  0.779581  1
  Lu  Lu9  1  0.000000  0.116331  0.413591  1
  In  In10  1  0.500000  0.418469  0.351546  1
  In  In11  1  0.500000  0.577225  0.648654  1
  In  In12  1  0.500000  0.077143  0.850526  1
  In  In13  1  0.500000  0.923573  0.150552  1
  In  In14  1  0.500000  0.292365  0.067164  1
  In  In15  1  0.500000  0.707645  0.932975  1
  In  In16  1  0.500000  0.205925  0.564572  1
  In  In17  1  0.500000  0.797281  0.433650  1
  Pt  Pt18  1  0.500000  0.025745  0.305923  1
  Pt  Pt19  1  0.500000  0.975805  0.695597  1
  Pt  Pt20  1  0.500000  0.475595  0.803290  1
  Pt  Pt21  1  0.500000  0.524232  0.196917  1
