# generated using pymatgen
data_Ca13In(PbN4)2
_symmetry_space_group_name_H-M   'P 1'
_cell_length_a   3.59292926
_cell_length_b   11.97304857
_cell_length_c   11.48852429
_cell_angle_alpha   91.17012922
_cell_angle_beta   89.96774320
_cell_angle_gamma   89.97196237
_symmetry_Int_Tables_number   1
_chemical_formula_structural   Ca13In(PbN4)2
_chemical_formula_sum   'Ca13 In1 Pb2 N8'
_cell_volume   494.11377297
_cell_formula_units_Z   1
loop_
 _symmetry_equiv_pos_site_id
 _symmetry_equiv_pos_as_xyz
  1  'x, y, z'
loop_
 _atom_site_type_symbol
 _atom_site_label
 _atom_site_symmetry_multiplicity
 _atom_site_fract_x
 _atom_site_fract_y
 _atom_site_fract_z
 _atom_site_occupancy
  Ca  Ca0  1  0.499888  0.329547  0.760739  1
  Ca  Ca1  1  0.499667  0.169063  0.259334  1
  Ca  Ca2  1  0.499871  0.827639  0.736153  1
  Ca  Ca3  1  0.499979  0.499417  0.998938  1
  Ca  Ca4  1  0.500132  0.996102  0.496167  1
  Ca  Ca5  1  0.000125  0.923580  0.254109  1
  Ca  Ca6  1  0.999594  0.069848  0.733686  1
  Ca  Ca7  1  0.001712  0.432157  0.244042  1
  Ca  Ca8  1  0.999556  0.574732  0.766378  1
  Ca  Ca9  1  0.001315  0.756413  0.475883  1
  Ca  Ca10  1  0.999190  0.231849  0.517895  1
  Ca  Ca11  1  0.000630  0.267331  0.021095  1
  Ca  Ca12  1  0.999727  0.743021  0.985615  1
  In  In13  1  0.501891  0.668917  0.249225  1
  Pb  Pb14  1  0.506932  0.501362  0.496972  1
  Pb  Pb15  1  0.487504  0.004333  0.995945  1
  N  N16  1  0.002009  0.614887  0.146923  1
  N  N17  1  0.999818  0.403053  0.871927  1
  N  N18  1  0.999522  0.094797  0.364370  1
  N  N19  1  0.999959  0.892799  0.625315  1
  N  N20  1  0.500693  0.825600  0.350302  1
  N  N21  1  0.499363  0.165486  0.638491  1
  N  N22  1  0.501347  0.338764  0.142312  1
  N  N23  1  0.499577  0.669303  0.868184  1
