# generated using pymatgen
data_Dy5Ho5(InBi2)2
_symmetry_space_group_name_H-M   'P 1'
_cell_length_a   9.07739574
_cell_length_b   9.08084634
_cell_length_c   6.49709700
_cell_angle_alpha   90.00000000
_cell_angle_beta   90.00000000
_cell_angle_gamma   119.75995141
_symmetry_Int_Tables_number   1
_chemical_formula_structural   Dy5Ho5(InBi2)2
_chemical_formula_sum   'Dy5 Ho5 In2 Bi4'
_cell_volume   464.92512300
_cell_formula_units_Z   1
loop_
 _symmetry_equiv_pos_site_id
 _symmetry_equiv_pos_as_xyz
  1  'x, y, z'
loop_
 _atom_site_type_symbol
 _atom_site_label
 _atom_site_symmetry_multiplicity
 _atom_site_fract_x
 _atom_site_fract_y
 _atom_site_fract_z
 _atom_site_occupancy
  Dy  Dy0  1  0.761999  0.761939  0.750000  1
  Dy  Dy1  1  0.235941  0.998424  0.750000  1
  Dy  Dy2  1  0.998466  0.236054  0.750000  1
  Dy  Dy3  1  0.234305  0.234241  0.250000  1
  Dy  Dy4  1  0.765103  0.008137  0.250000  1
  Ho  Ho5  1  0.668783  0.328853  0.003551  1
  Ho  Ho6  1  0.328823  0.668828  0.003558  1
  Ho  Ho7  1  0.328823  0.668828  0.496442  1
  Ho  Ho8  1  0.668783  0.328853  0.496449  1
  Ho  Ho9  1  0.008294  0.765097  0.250000  1
  In  In10  1  0.395898  0.001200  0.250000  1
  In  In11  1  0.001330  0.396272  0.250000  1
  Bi  Bi12  1  0.393812  0.393803  0.750000  1
  Bi  Bi13  1  0.603323  0.996950  0.750000  1
  Bi  Bi14  1  0.996963  0.603336  0.750000  1
  Bi  Bi15  1  0.609354  0.609182  0.250000  1
