# generated using pymatgen
data_Y8In2IrPd
_symmetry_space_group_name_H-M   'P 1'
_cell_length_a   9.74261591
_cell_length_b   9.75618176
_cell_length_c   9.74261702
_cell_angle_alpha   59.95392836
_cell_angle_beta   59.86129860
_cell_angle_gamma   59.95392951
_symmetry_Int_Tables_number   1
_chemical_formula_structural   Y8In2IrPd
_chemical_formula_sum   'Y16 In4 Ir2 Pd2'
_cell_volume   653.66712018
_cell_formula_units_Z   2
loop_
 _symmetry_equiv_pos_site_id
 _symmetry_equiv_pos_as_xyz
  1  'x, y, z'
loop_
 _atom_site_type_symbol
 _atom_site_label
 _atom_site_symmetry_multiplicity
 _atom_site_fract_x
 _atom_site_fract_y
 _atom_site_fract_z
 _atom_site_occupancy
  Y  Y0  1  0.808263  0.191737  0.808263  1
  Y  Y1  1  0.936988  0.564553  0.559822  1
  Y  Y2  1  0.563266  0.936734  0.563266  1
  Y  Y3  1  0.813419  0.191053  0.190353  1
  Y  Y4  1  0.189966  0.810034  0.189966  1
  Y  Y5  1  0.349631  0.945697  0.349631  1
  Y  Y6  1  0.936988  0.938637  0.559822  1
  Y  Y7  1  0.559822  0.938637  0.936988  1
  Y  Y8  1  0.190353  0.805174  0.813419  1
  Y  Y9  1  0.347434  0.351947  0.948673  1
  Y  Y10  1  0.559822  0.564553  0.936988  1
  Y  Y11  1  0.349631  0.355042  0.349631  1
  Y  Y12  1  0.190353  0.191053  0.813419  1
  Y  Y13  1  0.813419  0.805174  0.190353  1
  Y  Y14  1  0.939209  0.560791  0.939209  1
  Y  Y15  1  0.948673  0.351947  0.347434  1
  In  In16  1  0.583478  0.583202  0.583478  1
  In  In17  1  0.583478  0.249842  0.583478  1
  In  In18  1  0.583400  0.582790  0.251021  1
  In  In19  1  0.251021  0.582790  0.583400  1
  Ir  Ir20  1  0.142817  0.573068  0.142817  1
  Ir  Ir21  1  0.142817  0.141299  0.142817  1
  Pd  Pd22  1  0.143423  0.142123  0.572331  1
  Pd  Pd23  1  0.572331  0.142123  0.143423  1
