# generated using pymatgen
data_Y2Re7Si4Os
_symmetry_space_group_name_H-M   'P 1'
_cell_length_a   7.42476406
_cell_length_b   7.42145630
_cell_length_c   4.10592200
_cell_angle_alpha   90.00000000
_cell_angle_beta   90.00000000
_cell_angle_gamma   90.08779153
_symmetry_Int_Tables_number   1
_chemical_formula_structural   Y2Re7Si4Os
_chemical_formula_sum   'Y2 Re7 Si4 Os1'
_cell_volume   226.24655602
_cell_formula_units_Z   1
loop_
 _symmetry_equiv_pos_site_id
 _symmetry_equiv_pos_as_xyz
  1  'x, y, z'
loop_
 _atom_site_type_symbol
 _atom_site_label
 _atom_site_symmetry_multiplicity
 _atom_site_fract_x
 _atom_site_fract_y
 _atom_site_fract_z
 _atom_site_occupancy
  Y  Y0  1  0.499863  0.501323  0.000000  1
  Y  Y1  1  0.000051  0.000793  0.500000  1
  Re  Re2  1  0.156550  0.593293  0.500000  1
  Re  Re3  1  0.092024  0.339703  0.000000  1
  Re  Re4  1  0.911655  0.654787  0.000000  1
  Re  Re5  1  0.405941  0.841902  0.500000  1
  Re  Re6  1  0.589799  0.156937  0.500000  1
  Re  Re7  1  0.344867  0.091914  0.000000  1
  Re  Re8  1  0.839690  0.408249  0.500000  1
  Si  Si9  1  0.208531  0.793059  0.000000  1
  Si  Si10  1  0.789346  0.207410  0.000000  1
  Si  Si11  1  0.707385  0.710983  0.500000  1
  Si  Si12  1  0.290537  0.292947  0.500000  1
  Os  Os13  1  0.663761  0.906698  0.000000  1
