# generated using pymatgen
data_NaAc8Sc11Pb16
_symmetry_space_group_name_H-M   'P 1'
_cell_length_a   8.30231400
_cell_length_b   8.34561650
_cell_length_c   15.85589700
_cell_angle_alpha   90.00000000
_cell_angle_beta   90.00000000
_cell_angle_gamma   90.06579776
_symmetry_Int_Tables_number   1
_chemical_formula_structural   NaAc8Sc11Pb16
_chemical_formula_sum   'Na1 Ac8 Sc11 Pb16'
_cell_volume   1098.62153689
_cell_formula_units_Z   1
loop_
 _symmetry_equiv_pos_site_id
 _symmetry_equiv_pos_as_xyz
  1  'x, y, z'
loop_
 _atom_site_type_symbol
 _atom_site_label
 _atom_site_symmetry_multiplicity
 _atom_site_fract_x
 _atom_site_fract_y
 _atom_site_fract_z
 _atom_site_occupancy
  Na  Na0  1  0.305468  0.003585  0.250000  1
  Ac  Ac1  1  0.517858  0.328662  0.903967  1
  Ac  Ac2  1  0.017568  0.173518  0.596124  1
  Ac  Ac3  1  0.483226  0.676461  0.405940  1
  Ac  Ac4  1  0.988170  0.825893  0.093325  1
  Ac  Ac5  1  0.483226  0.676461  0.094060  1
  Ac  Ac6  1  0.988170  0.825893  0.406675  1
  Ac  Ac7  1  0.517858  0.328662  0.596033  1
  Ac  Ac8  1  0.017568  0.173518  0.903876  1
  Sc  Sc9  1  0.355905  0.843991  0.872349  1
  Sc  Sc10  1  0.856480  0.656526  0.626550  1
  Sc  Sc11  1  0.639611  0.158119  0.375458  1
  Sc  Sc12  1  0.141806  0.338408  0.123498  1
  Sc  Sc13  1  0.639611  0.158119  0.124542  1
  Sc  Sc14  1  0.141806  0.338408  0.376502  1
  Sc  Sc15  1  0.355905  0.843991  0.627651  1
  Sc  Sc16  1  0.856480  0.656526  0.873450  1
  Sc  Sc17  1  0.192960  0.510306  0.750000  1
  Sc  Sc18  1  0.691200  0.988314  0.750000  1
  Sc  Sc19  1  0.805615  0.489702  0.250000  1
  Pb  Pb20  1  0.316736  0.056428  0.041752  1
  Pb  Pb21  1  0.813408  0.448164  0.451349  1
  Pb  Pb22  1  0.685323  0.946420  0.548794  1
  Pb  Pb23  1  0.185751  0.554552  0.950730  1
  Pb  Pb24  1  0.685323  0.946420  0.951206  1
  Pb  Pb25  1  0.185751  0.554552  0.549270  1
  Pb  Pb26  1  0.316736  0.056428  0.458248  1
  Pb  Pb27  1  0.813408  0.448164  0.048651  1
  Pb  Pb28  1  0.548753  0.643841  0.750000  1
  Pb  Pb29  1  0.049167  0.855957  0.750000  1
  Pb  Pb30  1  0.448843  0.363388  0.250000  1
  Pb  Pb31  1  0.941401  0.144471  0.250000  1
  Pb  Pb32  1  0.330630  0.136928  0.750000  1
  Pb  Pb33  1  0.830804  0.364210  0.750000  1
  Pb  Pb34  1  0.683984  0.863763  0.250000  1
  Pb  Pb35  1  0.167488  0.621257  0.250000  1
