# generated using pymatgen
data_Ce9Pr7(CdRu)4
_symmetry_space_group_name_H-M   'P 1'
_cell_length_a   9.78485778
_cell_length_b   9.78485779
_cell_length_c   9.74025500
_cell_angle_alpha   60.15067138
_cell_angle_beta   60.15067131
_cell_angle_gamma   60.85940031
_symmetry_Int_Tables_number   1
_chemical_formula_structural   Ce9Pr7(CdRu)4
_chemical_formula_sum   'Ce9 Pr7 Cd4 Ru4'
_cell_volume   665.12641753
_cell_formula_units_Z   1
loop_
 _symmetry_equiv_pos_site_id
 _symmetry_equiv_pos_as_xyz
  1  'x, y, z'
loop_
 _atom_site_type_symbol
 _atom_site_label
 _atom_site_symmetry_multiplicity
 _atom_site_fract_x
 _atom_site_fract_y
 _atom_site_fract_z
 _atom_site_occupancy
  Ce  Ce0  1  0.345373  0.345373  0.347376  1
  Ce  Ce1  1  0.345373  0.345373  0.961877  1
  Ce  Ce2  1  0.343717  0.961892  0.347195  1
  Ce  Ce3  1  0.961892  0.343717  0.347195  1
  Ce  Ce4  1  0.807278  0.189172  0.191477  1
  Ce  Ce5  1  0.189172  0.807278  0.812073  1
  Ce  Ce6  1  0.189172  0.807278  0.191477  1
  Ce  Ce7  1  0.807278  0.189172  0.812073  1
  Ce  Ce8  1  0.189334  0.189334  0.810666  1
  Pr  Pr9  1  0.804946  0.804946  0.195054  1
  Pr  Pr10  1  0.942964  0.556727  0.561835  1
  Pr  Pr11  1  0.556727  0.942964  0.938474  1
  Pr  Pr12  1  0.556727  0.942964  0.561835  1
  Pr  Pr13  1  0.942964  0.556727  0.938474  1
  Pr  Pr14  1  0.560243  0.560243  0.939757  1
  Pr  Pr15  1  0.940318  0.940318  0.559682  1
  Cd  Cd16  1  0.578855  0.578855  0.579128  1
  Cd  Cd17  1  0.578855  0.578855  0.263161  1
  Cd  Cd18  1  0.579386  0.263441  0.578586  1
  Cd  Cd19  1  0.263441  0.579386  0.578586  1
  Ru  Ru20  1  0.135554  0.135554  0.137733  1
  Ru  Ru21  1  0.135554  0.135554  0.591159  1
  Ru  Ru22  1  0.160743  0.584131  0.127563  1
  Ru  Ru23  1  0.584131  0.160743  0.127563  1
