# generated using pymatgen
data_Y15Hf4ThIr12
_symmetry_space_group_name_H-M   'P 1'
_cell_length_a   10.92598121
_cell_length_b   10.91098399
_cell_length_c   6.27555364
_cell_angle_alpha   90.11123701
_cell_angle_beta   89.61307152
_cell_angle_gamma   90.11873611
_symmetry_Int_Tables_number   1
_chemical_formula_structural   Y15Hf4ThIr12
_chemical_formula_sum   'Y15 Hf4 Th1 Ir12'
_cell_volume   748.10881363
_cell_formula_units_Z   1
loop_
 _symmetry_equiv_pos_site_id
 _symmetry_equiv_pos_as_xyz
  1  'x, y, z'
loop_
 _atom_site_type_symbol
 _atom_site_label
 _atom_site_symmetry_multiplicity
 _atom_site_fract_x
 _atom_site_fract_y
 _atom_site_fract_z
 _atom_site_occupancy
  Y  Y0  1  0.288927  0.910476  0.873768  1
  Y  Y1  1  0.709630  0.085613  0.875078  1
  Y  Y2  1  0.709996  0.913654  0.373504  1
  Y  Y3  1  0.584345  0.789661  0.875558  1
  Y  Y4  1  0.592347  0.212379  0.375740  1
  Y  Y5  1  0.415619  0.783448  0.374207  1
  Y  Y6  1  0.416415  0.213228  0.873484  1
  Y  Y7  1  0.210374  0.414127  0.623493  1
  Y  Y8  1  0.211210  0.583648  0.124494  1
  Y  Y9  1  0.789089  0.416537  0.124481  1
  Y  Y10  1  0.788989  0.586150  0.624302  1
  Y  Y11  1  0.915656  0.711560  0.125465  1
  Y  Y12  1  0.913890  0.289835  0.623648  1
  Y  Y13  1  0.084856  0.710220  0.622951  1
  Y  Y14  1  0.082231  0.289112  0.120931  1
  Hf  Hf15  1  0.995243  0.998213  0.501521  1
  Hf  Hf16  1  0.999083  0.000363  0.999890  1
  Hf  Hf17  1  0.500757  0.500143  0.003350  1
  Hf  Hf18  1  0.501210  0.498766  0.503369  1
  Th  Th19  1  0.290126  0.086648  0.377816  1
  Ir  Ir20  1  0.857863  0.142317  0.249104  1
  Ir  Ir21  1  0.857002  0.858019  0.753137  1
  Ir  Ir22  1  0.141878  0.142050  0.741049  1
  Ir  Ir23  1  0.144297  0.862357  0.253014  1
  Ir  Ir24  1  0.643610  0.360690  0.750053  1
  Ir  Ir25  1  0.641918  0.641720  0.250611  1
  Ir  Ir26  1  0.359781  0.355812  0.254244  1
  Ir  Ir27  1  0.358988  0.640371  0.753345  1
  Ir  Ir28  1  0.496380  0.001453  0.122061  1
  Ir  Ir29  1  0.498176  0.000021  0.616082  1
  Ir  Ir30  1  0.000089  0.500351  0.880475  1
  Ir  Ir31  1  0.000023  0.501056  0.379775  1
