# generated using pymatgen
data_TbCeHo6(B6Os)4
_symmetry_space_group_name_H-M   'P 1'
_cell_length_a   3.66142400
_cell_length_b   9.15757407
_cell_length_c   11.52625901
_cell_angle_alpha   90.05571247
_cell_angle_beta   90.00000000
_cell_angle_gamma   90.00000000
_symmetry_Int_Tables_number   1
_chemical_formula_structural   TbCeHo6(B6Os)4
_chemical_formula_sum   'Tb1 Ce1 Ho6 B24 Os4'
_cell_volume   386.47253244
_cell_formula_units_Z   1
loop_
 _symmetry_equiv_pos_site_id
 _symmetry_equiv_pos_as_xyz
  1  'x, y, z'
loop_
 _atom_site_type_symbol
 _atom_site_label
 _atom_site_symmetry_multiplicity
 _atom_site_fract_x
 _atom_site_fract_y
 _atom_site_fract_z
 _atom_site_occupancy
  Tb  Tb0  1  0.000000  0.679052  0.587181  1
  Ce  Ce1  1  0.000000  0.322788  0.413407  1
  Ho  Ho2  1  0.000000  0.821629  0.085599  1
  Ho  Ho3  1  0.000000  0.177948  0.913634  1
  Ho  Ho4  1  0.000000  0.943729  0.373476  1
  Ho  Ho5  1  0.000000  0.054766  0.627149  1
  Ho  Ho6  1  0.000000  0.444428  0.125553  1
  Ho  Ho7  1  0.000000  0.556197  0.874231  1
  B  B8  1  0.500000  0.554843  0.432070  1
  B  B9  1  0.500000  0.446201  0.568277  1
  B  B10  1  0.500000  0.053526  0.066793  1
  B  B11  1  0.500000  0.946061  0.933145  1
  B  B12  1  0.500000  0.748880  0.419746  1
  B  B13  1  0.500000  0.251756  0.581229  1
  B  B14  1  0.500000  0.247756  0.078972  1
  B  B15  1  0.500000  0.752206  0.920346  1
  B  B16  1  0.500000  0.791569  0.266162  1
  B  B17  1  0.500000  0.208468  0.734604  1
  B  B18  1  0.500000  0.290626  0.232065  1
  B  B19  1  0.500000  0.708962  0.767340  1
  B  B20  1  0.500000  0.632723  0.184481  1
  B  B21  1  0.500000  0.367887  0.815178  1
  B  B22  1  0.500000  0.131126  0.313745  1
  B  B23  1  0.500000  0.868031  0.685837  1
  B  B24  1  0.500000  0.982480  0.212519  1
  B  B25  1  0.500000  0.016653  0.787136  1
  B  B26  1  0.500000  0.484897  0.285857  1
  B  B27  1  0.500000  0.516447  0.714279  1
  B  B28  1  0.500000  0.610281  0.030265  1
  B  B29  1  0.500000  0.389829  0.969421  1
  B  B30  1  0.500000  0.107203  0.470375  1
  B  B31  1  0.500000  0.890805  0.530149  1
  Os  Os32  1  0.000000  0.638344  0.320722  1
  Os  Os33  1  0.000000  0.361799  0.678612  1
  Os  Os34  1  0.000000  0.137445  0.178781  1
  Os  Os35  1  0.000000  0.862657  0.821665  1
