# generated using pymatgen
data_Tm7Lu13Ir12
_symmetry_space_group_name_H-M   'P 1'
_cell_length_a   10.69734214
_cell_length_b   10.69872612
_cell_length_c   6.27467608
_cell_angle_alpha   89.98753966
_cell_angle_beta   89.98631653
_cell_angle_gamma   89.98786317
_symmetry_Int_Tables_number   1
_chemical_formula_structural   Tm7Lu13Ir12
_chemical_formula_sum   'Tm7 Lu13 Ir12'
_cell_volume   718.12365903
_cell_formula_units_Z   1
loop_
 _symmetry_equiv_pos_site_id
 _symmetry_equiv_pos_as_xyz
  1  'x, y, z'
loop_
 _atom_site_type_symbol
 _atom_site_label
 _atom_site_symmetry_multiplicity
 _atom_site_fract_x
 _atom_site_fract_y
 _atom_site_fract_z
 _atom_site_occupancy
  Tm  Tm0  1  0.209859  0.587439  0.124723  1
  Tm  Tm1  1  0.790764  0.412229  0.124383  1
  Tm  Tm2  1  0.790614  0.587642  0.624519  1
  Tm  Tm3  1  0.912436  0.709381  0.124317  1
  Tm  Tm4  1  0.912656  0.290423  0.624643  1
  Tm  Tm5  1  0.087952  0.709295  0.624553  1
  Tm  Tm6  1  0.088196  0.290430  0.124600  1
  Lu  Lu7  1  0.291957  0.086225  0.376971  1
  Lu  Lu8  1  0.291960  0.913732  0.876911  1
  Lu  Lu9  1  0.707885  0.086447  0.877035  1
  Lu  Lu10  1  0.708029  0.913674  0.376908  1
  Lu  Lu11  1  0.586252  0.791975  0.877158  1
  Lu  Lu12  1  0.586311  0.208133  0.376681  1
  Lu  Lu13  1  0.413750  0.792016  0.377390  1
  Lu  Lu14  1  0.413025  0.208493  0.876641  1
  Lu  Lu15  1  0.208874  0.412625  0.623703  1
  Lu  Lu16  1  0.000018  0.999886  0.498072  1
  Lu  Lu17  1  0.000042  0.000212  0.998214  1
  Lu  Lu18  1  0.500148  0.499781  0.998384  1
  Lu  Lu19  1  0.499614  0.499795  0.498564  1
  Ir  Ir20  1  0.845238  0.152469  0.249233  1
  Ir  Ir21  1  0.845304  0.847872  0.749476  1
  Ir  Ir22  1  0.154362  0.152902  0.747968  1
  Ir  Ir23  1  0.154671  0.847642  0.248971  1
  Ir  Ir24  1  0.652345  0.345508  0.748879  1
  Ir  Ir25  1  0.652203  0.654240  0.249621  1
  Ir  Ir26  1  0.347177  0.345587  0.250622  1
  Ir  Ir27  1  0.347350  0.654109  0.749030  1
  Ir  Ir28  1  0.499954  0.000176  0.122008  1
  Ir  Ir29  1  0.499854  0.000307  0.622429  1
  Ir  Ir30  1  0.000799  0.499513  0.878489  1
  Ir  Ir31  1  0.000400  0.499840  0.378906  1
