# generated using pymatgen
data_Lu3Sc3Co2(Sn3Pt2)2
_symmetry_space_group_name_H-M   'P 1'
_cell_length_a   7.50445200
_cell_length_b   7.50445280
_cell_length_c   7.23764800
_cell_angle_alpha   90.00000000
_cell_angle_beta   90.00000000
_cell_angle_gamma   119.99999646
_symmetry_Int_Tables_number   1
_chemical_formula_structural   Lu3Sc3Co2(Sn3Pt2)2
_chemical_formula_sum   'Lu3 Sc3 Co2 Sn6 Pt4'
_cell_volume   352.99302126
_cell_formula_units_Z   1
loop_
 _symmetry_equiv_pos_site_id
 _symmetry_equiv_pos_as_xyz
  1  'x, y, z'
loop_
 _atom_site_type_symbol
 _atom_site_label
 _atom_site_symmetry_multiplicity
 _atom_site_fract_x
 _atom_site_fract_y
 _atom_site_fract_z
 _atom_site_occupancy
  Lu  Lu0  1  0.400386  0.999550  0.750000  1
  Lu  Lu1  1  0.599164  0.599614  0.750000  1
  Lu  Lu2  1  0.000450  0.400836  0.750000  1
  Sc  Sc3  1  0.393419  0.000132  0.250000  1
  Sc  Sc4  1  0.606713  0.606581  0.250000  1
  Sc  Sc5  1  0.999868  0.393287  0.250000  1
  Co  Co6  1  0.000000  0.000000  0.750000  1
  Co  Co7  1  0.000000  0.000000  0.250000  1
  Sn  Sn8  1  0.255956  0.255818  0.005896  1
  Sn  Sn9  1  0.999863  0.744044  0.005896  1
  Sn  Sn10  1  0.999863  0.744044  0.494104  1
  Sn  Sn11  1  0.744182  0.000137  0.494104  1
  Sn  Sn12  1  0.255956  0.255818  0.494104  1
  Sn  Sn13  1  0.744182  0.000137  0.005896  1
  Pt  Pt14  1  0.666667  0.333333  0.012690  1
  Pt  Pt15  1  0.333333  0.666667  0.486411  1
  Pt  Pt16  1  0.333333  0.666667  0.013589  1
  Pt  Pt17  1  0.666667  0.333333  0.487310  1
