# generated using pymatgen
data_Gd2Al16CoPt8
_symmetry_space_group_name_H-M   'P 1'
_cell_length_a   11.17122375
_cell_length_b   11.17122544
_cell_length_c   11.17122400
_cell_angle_alpha   158.49329216
_cell_angle_beta   116.25502151
_cell_angle_gamma   68.11517945
_symmetry_Int_Tables_number   1
_chemical_formula_structural   Gd2Al16CoPt8
_chemical_formula_sum   'Gd2 Al16 Co1 Pt8'
_cell_volume   455.16575671
_cell_formula_units_Z   1
loop_
 _symmetry_equiv_pos_site_id
 _symmetry_equiv_pos_as_xyz
  1  'x, y, z'
loop_
 _atom_site_type_symbol
 _atom_site_label
 _atom_site_symmetry_multiplicity
 _atom_site_fract_x
 _atom_site_fract_y
 _atom_site_fract_z
 _atom_site_occupancy
  Gd  Gd0  1  0.230137  0.229496  0.000641  1
  Gd  Gd1  1  0.771144  0.770504  0.000641  1
  Al  Al2  1  0.275225  0.391742  0.883483  1
  Al  Al3  1  0.090553  0.922827  0.167726  1
  Al  Al4  1  0.509201  0.202544  0.306658  1
  Al  Al5  1  0.244898  0.077173  0.167726  1
  Al  Al6  1  0.909888  0.415264  0.494623  1
  Al  Al7  1  0.725553  0.600586  0.124967  1
  Al  Al8  1  0.900045  0.206874  0.693171  1
  Al  Al9  1  0.486298  0.793126  0.693171  1
  Al  Al10  1  0.388558  0.000000  0.388558  1
  Al  Al11  1  0.623491  0.000000  0.623491  1
  Al  Al12  1  0.491741  0.608258  0.883483  1
  Al  Al13  1  0.104114  0.797456  0.306658  1
  Al  Al14  1  0.899413  0.080317  0.819096  1
  Al  Al15  1  0.738780  0.919683  0.819096  1
  Al  Al16  1  0.524381  0.399414  0.124967  1
  Al  Al17  1  0.079360  0.584736  0.494623  1
  Co  Co18  1  0.763698  0.500000  0.263698  1
  Pt  Pt19  1  0.024583  0.341976  0.682606  1
  Pt  Pt20  1  0.629015  0.125650  0.503364  1
  Pt  Pt21  1  0.255619  0.500000  0.755619  1
  Pt  Pt22  1  0.377714  0.874350  0.503364  1
  Pt  Pt23  1  0.988515  0.000000  0.988515  1
  Pt  Pt24  1  0.651698  0.337975  0.313723  1
  Pt  Pt25  1  0.340630  0.658024  0.682606  1
  Pt  Pt26  1  0.975748  0.662025  0.313723  1
