# generated using pymatgen
data_Tb5Mg2P12Ru17
_symmetry_space_group_name_H-M   'P 1'
_cell_length_a   3.98357400
_cell_length_b   12.60113370
_cell_length_c   12.60102024
_cell_angle_alpha   119.08854908
_cell_angle_beta   90.00000000
_cell_angle_gamma   90.00000000
_symmetry_Int_Tables_number   1
_chemical_formula_structural   Tb5Mg2P12Ru17
_chemical_formula_sum   'Tb5 Mg2 P12 Ru17'
_cell_volume   552.75763624
_cell_formula_units_Z   1
loop_
 _symmetry_equiv_pos_site_id
 _symmetry_equiv_pos_as_xyz
  1  'x, y, z'
loop_
 _atom_site_type_symbol
 _atom_site_label
 _atom_site_symmetry_multiplicity
 _atom_site_fract_x
 _atom_site_fract_y
 _atom_site_fract_z
 _atom_site_occupancy
  Tb  Tb0  1  0.500000  0.000754  0.181312  1
  Tb  Tb1  1  0.500000  0.181315  0.000757  1
  Tb  Tb2  1  0.500000  0.818416  0.818420  1
  Tb  Tb3  1  0.000000  0.336205  0.661592  1
  Tb  Tb4  1  0.000000  0.661579  0.336203  1
  Mg  Mg5  1  0.000000  0.000177  0.561097  1
  Mg  Mg6  1  0.000000  0.561068  0.000172  1
  P  P7  1  0.000000  0.000789  0.812497  1
  P  P8  1  0.000000  0.812493  0.000792  1
  P  P9  1  0.000000  0.182351  0.182350  1
  P  P10  1  0.500000  0.308909  0.477737  1
  P  P11  1  0.500000  0.183487  0.698512  1
  P  P12  1  0.500000  0.521891  0.821776  1
  P  P13  1  0.500000  0.821775  0.521893  1
  P  P14  1  0.500000  0.477744  0.308913  1
  P  P15  1  0.500000  0.698514  0.183492  1
  P  P16  1  0.000000  0.999218  0.362181  1
  P  P17  1  0.000000  0.362180  0.999222  1
  P  P18  1  0.000000  0.623434  0.623437  1
  Ru  Ru19  1  0.000000  0.443363  0.443364  1
  Ru  Ru20  1  0.500000  0.001237  0.716359  1
  Ru  Ru21  1  0.500000  0.716360  0.001240  1
  Ru  Ru22  1  0.500000  0.282893  0.282891  1
  Ru  Ru23  1  0.000000  0.192466  0.375788  1
  Ru  Ru24  1  0.000000  0.186250  0.802937  1
  Ru  Ru25  1  0.000000  0.623130  0.814120  1
  Ru  Ru26  1  0.000000  0.814114  0.623137  1
  Ru  Ru27  1  0.000000  0.375789  0.192470  1
  Ru  Ru28  1  0.000000  0.802933  0.186253  1
  Ru  Ru29  1  0.500000  0.128293  0.491958  1
  Ru  Ru30  1  0.500000  0.369455  0.880714  1
  Ru  Ru31  1  0.500000  0.508770  0.632237  1
  Ru  Ru32  1  0.500000  0.632235  0.508771  1
  Ru  Ru33  1  0.500000  0.491964  0.128303  1
  Ru  Ru34  1  0.500000  0.880716  0.369463  1
  Ru  Ru35  1  0.000000  0.997634  0.997639  1
