# generated using pymatgen
data_Ho3Lu7(SiBi)4
_symmetry_space_group_name_H-M   'P 1'
_cell_length_a   8.46755522
_cell_length_b   8.59907839
_cell_length_c   7.79731814
_cell_angle_alpha   89.95413200
_cell_angle_beta   89.84630336
_cell_angle_gamma   125.76311464
_symmetry_Int_Tables_number   1
_chemical_formula_structural   Ho3Lu7(SiBi)4
_chemical_formula_sum   'Ho3 Lu7 Si4 Bi4'
_cell_volume   460.68950937
_cell_formula_units_Z   1
loop_
 _symmetry_equiv_pos_site_id
 _symmetry_equiv_pos_as_xyz
  1  'x, y, z'
loop_
 _atom_site_type_symbol
 _atom_site_label
 _atom_site_symmetry_multiplicity
 _atom_site_fract_x
 _atom_site_fract_y
 _atom_site_fract_z
 _atom_site_occupancy
  Ho  Ho0  1  0.207210  0.454004  0.833711  1
  Ho  Ho1  1  0.707687  0.954553  0.666653  1
  Ho  Ho2  1  0.294809  0.046264  0.333162  1
  Lu  Lu3  1  0.041879  0.279211  0.337073  1
  Lu  Lu4  1  0.959718  0.721619  0.662529  1
  Lu  Lu5  1  0.458639  0.220322  0.837015  1
  Lu  Lu6  1  0.788190  0.546129  0.164616  1
  Lu  Lu7  1  0.541025  0.778618  0.162827  1
  Lu  Lu8  1  0.999249  0.999272  0.000455  1
  Lu  Lu9  1  0.500902  0.500194  0.499644  1
  Si  Si10  1  0.365177  0.365287  0.133394  1
  Si  Si11  1  0.635660  0.634510  0.866732  1
  Si  Si12  1  0.136340  0.135213  0.634012  1
  Si  Si13  1  0.864739  0.863705  0.364908  1
  Bi  Bi14  1  0.783611  0.201579  0.011814  1
  Bi  Bi15  1  0.211381  0.796289  0.992364  1
  Bi  Bi16  1  0.717462  0.302289  0.508205  1
  Bi  Bi17  1  0.286323  0.700942  0.490884  1
