# generated using pymatgen
data_Y2Fe8Co4P7
_symmetry_space_group_name_H-M   'P 1'
_cell_length_a   3.61568600
_cell_length_b   8.98161662
_cell_length_c   8.96748700
_cell_angle_alpha   120.02858966
_cell_angle_beta   90.00000000
_cell_angle_gamma   90.00000000
_symmetry_Int_Tables_number   1
_chemical_formula_structural   Y2Fe8Co4P7
_chemical_formula_sum   'Y2 Fe8 Co4 P7'
_cell_volume   252.12819889
_cell_formula_units_Z   1
loop_
 _symmetry_equiv_pos_site_id
 _symmetry_equiv_pos_as_xyz
  1  'x, y, z'
loop_
 _atom_site_type_symbol
 _atom_site_label
 _atom_site_symmetry_multiplicity
 _atom_site_fract_x
 _atom_site_fract_y
 _atom_site_fract_z
 _atom_site_occupancy
  Y  Y0  1  0.000000  0.666167  0.332335  1
  Y  Y1  1  0.500000  0.333874  0.667186  1
  Fe  Fe2  1  0.000000  0.568882  0.627853  1
  Fe  Fe3  1  0.000000  0.880487  0.726249  1
  Fe  Fe4  1  0.000000  0.272821  0.154168  1
  Fe  Fe5  1  0.000000  0.847751  0.119883  1
  Fe  Fe6  1  0.500000  0.614346  0.049149  1
  Fe  Fe7  1  0.500000  0.126487  0.898517  1
  Fe  Fe8  1  0.500000  0.101550  0.228715  1
  Fe  Fe9  1  0.500000  0.778100  0.877054  1
  Co  Co10  1  0.000000  0.370245  0.940019  1
  Co  Co11  1  0.000000  0.058970  0.431875  1
  Co  Co12  1  0.500000  0.949027  0.563713  1
  Co  Co13  1  0.500000  0.434582  0.383996  1
  P  P14  1  0.000000  0.110579  0.704486  1
  P  P15  1  0.000000  0.296800  0.407916  1
  P  P16  1  0.000000  0.593648  0.889311  1
  P  P17  1  0.500000  0.709778  0.601077  1
  P  P18  1  0.500000  0.400886  0.111643  1
  P  P19  1  0.500000  0.884894  0.285183  1
  P  P20  1  0.000000  0.000126  0.999673  1
