# generated using pymatgen
data_DyY3(Mn5P3)4
_symmetry_space_group_name_H-M   'P 1'
_cell_length_a   3.60307000
_cell_length_b   12.23213724
_cell_length_c   10.70192487
_cell_angle_alpha   89.89565637
_cell_angle_beta   90.00000000
_cell_angle_gamma   90.00000000
_symmetry_Int_Tables_number   1
_chemical_formula_structural   DyY3(Mn5P3)4
_chemical_formula_sum   'Dy1 Y3 Mn20 P12'
_cell_volume   471.66779339
_cell_formula_units_Z   1
loop_
 _symmetry_equiv_pos_site_id
 _symmetry_equiv_pos_as_xyz
  1  'x, y, z'
loop_
 _atom_site_type_symbol
 _atom_site_label
 _atom_site_symmetry_multiplicity
 _atom_site_fract_x
 _atom_site_fract_y
 _atom_site_fract_z
 _atom_site_occupancy
  Dy  Dy0  1  0.750000  0.705781  0.087360  1
  Y  Y1  1  0.250000  0.294548  0.912649  1
  Y  Y2  1  0.250000  0.794317  0.587399  1
  Y  Y3  1  0.750000  0.205616  0.412642  1
  Mn  Mn4  1  0.750000  0.692318  0.382755  1
  Mn  Mn5  1  0.250000  0.307705  0.616977  1
  Mn  Mn6  1  0.250000  0.807555  0.883014  1
  Mn  Mn7  1  0.750000  0.192271  0.117119  1
  Mn  Mn8  1  0.750000  0.981719  0.217407  1
  Mn  Mn9  1  0.250000  0.017903  0.782363  1
  Mn  Mn10  1  0.250000  0.517892  0.718360  1
  Mn  Mn11  1  0.750000  0.482481  0.281794  1
  Mn  Mn12  1  0.750000  0.680433  0.788771  1
  Mn  Mn13  1  0.250000  0.319268  0.211440  1
  Mn  Mn14  1  0.250000  0.819210  0.288274  1
  Mn  Mn15  1  0.750000  0.180790  0.711454  1
  Mn  Mn16  1  0.750000  0.934763  0.966613  1
  Mn  Mn17  1  0.250000  0.065413  0.033187  1
  Mn  Mn18  1  0.250000  0.565280  0.466755  1
  Mn  Mn19  1  0.750000  0.434794  0.532963  1
  Mn  Mn20  1  0.750000  0.993517  0.590329  1
  Mn  Mn21  1  0.250000  0.006227  0.409778  1
  Mn  Mn22  1  0.250000  0.506512  0.090622  1
  Mn  Mn23  1  0.750000  0.493741  0.909815  1
  P  P24  1  0.750000  0.615192  0.589940  1
  P  P25  1  0.250000  0.384891  0.410036  1
  P  P26  1  0.250000  0.884579  0.089330  1
  P  P27  1  0.750000  0.115352  0.910445  1
  P  P28  1  0.750000  0.883237  0.408551  1
  P  P29  1  0.250000  0.116583  0.591297  1
  P  P30  1  0.250000  0.616736  0.909427  1
  P  P31  1  0.750000  0.383355  0.091213  1
  P  P32  1  0.750000  0.875547  0.765469  1
  P  P33  1  0.250000  0.124157  0.234699  1
  P  P34  1  0.250000  0.624500  0.265094  1
  P  P35  1  0.750000  0.375820  0.734660  1
