# generated using pymatgen
data_La6Tb3Er(Sn3Cl)2
_symmetry_space_group_name_H-M   'P 1'
_cell_length_a   9.48767500
_cell_length_b   9.48767512
_cell_length_c   6.74974100
_cell_angle_alpha   90.00000000
_cell_angle_beta   90.00000000
_cell_angle_gamma   119.99999610
_symmetry_Int_Tables_number   1
_chemical_formula_structural   La6Tb3Er(Sn3Cl)2
_chemical_formula_sum   'La6 Tb3 Er1 Sn6 Cl2'
_cell_volume   526.18366526
_cell_formula_units_Z   1
loop_
 _symmetry_equiv_pos_site_id
 _symmetry_equiv_pos_as_xyz
  1  'x, y, z'
loop_
 _atom_site_type_symbol
 _atom_site_label
 _atom_site_symmetry_multiplicity
 _atom_site_fract_x
 _atom_site_fract_y
 _atom_site_fract_z
 _atom_site_occupancy
  La  La0  1  0.738288  0.999938  0.750173  1
  La  La1  1  0.738288  0.738350  0.249827  1
  La  La2  1  0.000062  0.261712  0.249827  1
  La  La3  1  0.000062  0.738350  0.750173  1
  La  La4  1  0.261650  0.261712  0.750173  1
  La  La5  1  0.261650  0.999938  0.249827  1
  Tb  Tb6  1  0.666667  0.333333  0.000000  1
  Tb  Tb7  1  0.333333  0.666667  0.500000  1
  Tb  Tb8  1  0.666667  0.333333  0.500000  1
  Er  Er9  1  0.333333  0.666667  0.000000  1
  Sn  Sn10  1  0.607460  0.608295  0.750512  1
  Sn  Sn11  1  0.000835  0.608295  0.249488  1
  Sn  Sn12  1  0.607460  0.999165  0.249488  1
  Sn  Sn13  1  0.391705  0.999165  0.750512  1
  Sn  Sn14  1  0.000835  0.392540  0.750512  1
  Sn  Sn15  1  0.391705  0.392540  0.249488  1
  Cl  Cl16  1  0.000000  0.000000  0.500000  1
  Cl  Cl17  1  0.000000  0.000000  0.000000  1
