# generated using pymatgen
data_HoCo2(PRu)3
_symmetry_space_group_name_H-M   'P 1'
_cell_length_a   3.77930300
_cell_length_b   10.62436600
_cell_length_c   12.08810400
_cell_angle_alpha   90.00000000
_cell_angle_beta   90.00000000
_cell_angle_gamma   90.00000000
_symmetry_Int_Tables_number   1
_chemical_formula_structural   HoCo2(PRu)3
_chemical_formula_sum   'Ho4 Co8 P12 Ru12'
_cell_volume   485.36999289
_cell_formula_units_Z   4
loop_
 _symmetry_equiv_pos_site_id
 _symmetry_equiv_pos_as_xyz
  1  'x, y, z'
loop_
 _atom_site_type_symbol
 _atom_site_label
 _atom_site_symmetry_multiplicity
 _atom_site_fract_x
 _atom_site_fract_y
 _atom_site_fract_z
 _atom_site_occupancy
  Ho  Ho0  1  0.250000  0.584555  0.706652  1
  Ho  Ho1  1  0.250000  0.915445  0.206652  1
  Ho  Ho2  1  0.750000  0.415445  0.293348  1
  Ho  Ho3  1  0.750000  0.084555  0.793348  1
  Co  Co4  1  0.250000  0.888057  0.696433  1
  Co  Co5  1  0.250000  0.611943  0.196433  1
  Co  Co6  1  0.750000  0.111943  0.303567  1
  Co  Co7  1  0.750000  0.388057  0.803567  1
  Co  Co8  1  0.250000  0.463017  0.934591  1
  Co  Co9  1  0.250000  0.036983  0.434591  1
  Co  Co10  1  0.750000  0.536983  0.065409  1
  Co  Co11  1  0.750000  0.963017  0.565409  1
  P  P12  1  0.250000  0.425784  0.112810  1
  P  P13  1  0.250000  0.074216  0.612810  1
  P  P14  1  0.750000  0.574216  0.887190  1
  P  P15  1  0.750000  0.925784  0.387190  1
  P  P16  1  0.250000  0.271691  0.871045  1
  P  P17  1  0.250000  0.228309  0.371045  1
  P  P18  1  0.750000  0.728309  0.128955  1
  P  P19  1  0.750000  0.771691  0.628955  1
  P  P20  1  0.250000  0.600831  0.387257  1
  P  P21  1  0.250000  0.899169  0.887257  1
  P  P22  1  0.750000  0.399169  0.612743  1
  P  P23  1  0.750000  0.100831  0.112743  1
  Ru  Ru24  1  0.250000  0.706345  0.987166  1
  Ru  Ru25  1  0.250000  0.793655  0.487166  1
  Ru  Ru26  1  0.750000  0.293655  0.012834  1
  Ru  Ru27  1  0.750000  0.206345  0.512834  1
  Ru  Ru28  1  0.250000  0.405422  0.485357  1
  Ru  Ru29  1  0.250000  0.094578  0.985357  1
  Ru  Ru30  1  0.750000  0.594578  0.514643  1
  Ru  Ru31  1  0.750000  0.905422  0.014643  1
  Ru  Ru32  1  0.250000  0.223931  0.180043  1
  Ru  Ru33  1  0.250000  0.276069  0.680043  1
  Ru  Ru34  1  0.750000  0.776069  0.819957  1
  Ru  Ru35  1  0.750000  0.723931  0.319957  1
