# generated using pymatgen
data_YMgCu3Ir
_symmetry_space_group_name_H-M   'P 1'
_cell_length_a   5.05696152
_cell_length_b   5.22580685
_cell_length_c   5.05696100
_cell_angle_alpha   61.06316629
_cell_angle_beta   59.99999684
_cell_angle_gamma   61.06316730
_symmetry_Int_Tables_number   1
_chemical_formula_structural   YMgCu3Ir
_chemical_formula_sum   'Y1 Mg1 Cu3 Ir1'
_cell_volume   95.98708579
_cell_formula_units_Z   1
loop_
 _symmetry_equiv_pos_site_id
 _symmetry_equiv_pos_as_xyz
  1  'x, y, z'
loop_
 _atom_site_type_symbol
 _atom_site_label
 _atom_site_symmetry_multiplicity
 _atom_site_fract_x
 _atom_site_fract_y
 _atom_site_fract_z
 _atom_site_occupancy
  Y  Y0  1  0.748081  0.755757  0.748081  1
  Mg  Mg1  1  0.001304  0.996087  0.001304  1
  Cu  Cu2  1  0.375379  0.372958  0.876285  1
  Cu  Cu3  1  0.876285  0.372958  0.375379  1
  Cu  Cu4  1  0.375379  0.372958  0.375379  1
  Ir  Ir5  1  0.373573  0.879283  0.373573  1
