# generated using pymatgen
data_Tb3TmNi4(SnH)4
_symmetry_space_group_name_H-M   'P 1'
_cell_length_a   4.23893200
_cell_length_b   7.08643302
_cell_length_c   8.30353903
_cell_angle_alpha   89.99093215
_cell_angle_beta   90.00000000
_cell_angle_gamma   90.00000000
_symmetry_Int_Tables_number   1
_chemical_formula_structural   Tb3TmNi4(SnH)4
_chemical_formula_sum   'Tb3 Tm1 Ni4 Sn4 H4'
_cell_volume   249.42923929
_cell_formula_units_Z   1
loop_
 _symmetry_equiv_pos_site_id
 _symmetry_equiv_pos_as_xyz
  1  'x, y, z'
loop_
 _atom_site_type_symbol
 _atom_site_label
 _atom_site_symmetry_multiplicity
 _atom_site_fract_x
 _atom_site_fract_y
 _atom_site_fract_z
 _atom_site_occupancy
  Tb  Tb0  1  0.750000  0.515458  0.813265  1
  Tb  Tb1  1  0.250000  0.484368  0.185966  1
  Tb  Tb2  1  0.250000  0.984412  0.313442  1
  Tm  Tm3  1  0.750000  0.015737  0.684868  1
  Ni  Ni4  1  0.750000  0.273616  0.394314  1
  Ni  Ni5  1  0.250000  0.729651  0.608016  1
  Ni  Ni6  1  0.250000  0.222868  0.889865  1
  Ni  Ni7  1  0.750000  0.774339  0.108584  1
  Sn  Sn8  1  0.750000  0.155980  0.069864  1
  Sn  Sn9  1  0.250000  0.843364  0.926950  1
  Sn  Sn10  1  0.250000  0.343096  0.571668  1
  Sn  Sn11  1  0.750000  0.656846  0.429676  1
  H  H12  1  0.250000  0.952388  0.580015  1
  H  H13  1  0.750000  0.050695  0.424167  1
  H  H14  1  0.750000  0.550869  0.078636  1
  H  H15  1  0.250000  0.446313  0.920704  1
