# generated using pymatgen
data_Tm3AgPtRh3O14
_symmetry_space_group_name_H-M   'P 1'
_cell_length_a   7.27531791
_cell_length_b   7.27531734
_cell_length_c   7.10357216
_cell_angle_alpha   59.19693972
_cell_angle_beta   59.19694267
_cell_angle_gamma   60.00000152
_symmetry_Int_Tables_number   1
_chemical_formula_structural   Tm3AgPtRh3O14
_chemical_formula_sum   'Tm3 Ag1 Pt1 Rh3 O14'
_cell_volume   262.59478562
_cell_formula_units_Z   1
loop_
 _symmetry_equiv_pos_site_id
 _symmetry_equiv_pos_as_xyz
  1  'x, y, z'
loop_
 _atom_site_type_symbol
 _atom_site_label
 _atom_site_symmetry_multiplicity
 _atom_site_fract_x
 _atom_site_fract_y
 _atom_site_fract_z
 _atom_site_occupancy
  Tm  Tm0  1  0.625000  0.625000  0.625000  1
  Tm  Tm1  1  0.625000  0.125000  0.625000  1
  Tm  Tm2  1  0.125000  0.625000  0.625000  1
  Ag  Ag3  1  0.625000  0.625000  0.125000  1
  Pt  Pt4  1  0.125000  0.125000  0.625000  1
  Rh  Rh5  1  0.125000  0.125000  0.125000  1
  Rh  Rh6  1  0.625000  0.125000  0.125000  1
  Rh  Rh7  1  0.125000  0.625000  0.125000  1
  O  O8  1  0.031372  0.465526  0.471729  1
  O  O9  1  0.796270  0.796270  0.213474  1
  O  O10  1  0.796270  0.193987  0.213474  1
  O  O11  1  0.465526  0.031372  0.471729  1
  O  O12  1  0.031372  0.031372  0.471729  1
  O  O13  1  0.056013  0.453730  0.036526  1
  O  O14  1  0.747574  0.747574  0.757278  1
  O  O15  1  0.502426  0.502426  0.492722  1
  O  O16  1  0.784474  0.218628  0.778271  1
  O  O17  1  0.193987  0.796270  0.213474  1
  O  O18  1  0.218628  0.218628  0.778271  1
  O  O19  1  0.453730  0.056013  0.036526  1
  O  O20  1  0.453730  0.453730  0.036526  1
  O  O21  1  0.218628  0.784474  0.778271  1
