# generated using pymatgen
data_Sm5Th3(Si3Au)4
_symmetry_space_group_name_H-M   'P 1'
_cell_length_a   8.26748300
_cell_length_b   8.27347537
_cell_length_c   8.56690700
_cell_angle_alpha   90.00000000
_cell_angle_beta   90.00000000
_cell_angle_gamma   119.97605565
_symmetry_Int_Tables_number   1
_chemical_formula_structural   Sm5Th3(Si3Au)4
_chemical_formula_sum   'Sm5 Th3 Si12 Au4'
_cell_volume   507.59894267
_cell_formula_units_Z   1
loop_
 _symmetry_equiv_pos_site_id
 _symmetry_equiv_pos_as_xyz
  1  'x, y, z'
loop_
 _atom_site_type_symbol
 _atom_site_label
 _atom_site_symmetry_multiplicity
 _atom_site_fract_x
 _atom_site_fract_y
 _atom_site_fract_z
 _atom_site_occupancy
  Sm  Sm0  1  0.499372  0.500612  0.750000  1
  Sm  Sm1  1  0.500574  0.499444  0.250000  1
  Sm  Sm2  1  0.001240  0.500612  0.750000  1
  Sm  Sm3  1  0.998872  0.499445  0.250000  1
  Sm  Sm4  1  0.499372  0.998743  0.750000  1
  Th  Th5  1  0.500727  0.001455  0.250000  1
  Th  Th6  1  0.999983  0.999964  0.750000  1
  Th  Th7  1  0.999996  0.999993  0.250000  1
  Si  Si8  1  0.835826  0.163883  0.998673  1
  Si  Si9  1  0.164150  0.836102  0.999903  1
  Si  Si10  1  0.328058  0.163883  0.998673  1
  Si  Si11  1  0.164150  0.836102  0.500097  1
  Si  Si12  1  0.671951  0.836102  0.999903  1
  Si  Si13  1  0.835826  0.163883  0.501327  1
  Si  Si14  1  0.835938  0.671877  0.999499  1
  Si  Si15  1  0.671951  0.836102  0.500097  1
  Si  Si16  1  0.164033  0.328065  0.000666  1
  Si  Si17  1  0.328058  0.163883  0.501327  1
  Si  Si18  1  0.164033  0.328065  0.499334  1
  Si  Si19  1  0.835938  0.671877  0.500501  1
  Au  Au20  1  0.667447  0.334894  0.996473  1
  Au  Au21  1  0.332529  0.665056  0.999811  1
  Au  Au22  1  0.332529  0.665056  0.500189  1
  Au  Au23  1  0.667447  0.334894  0.503527  1
