# generated using pymatgen
data_Cs3ScInAs3
_symmetry_space_group_name_H-M   'P 1'
_cell_length_a   6.54121800
_cell_length_b   8.39432919
_cell_length_c   11.56717450
_cell_angle_alpha   70.28234609
_cell_angle_beta   90.00000000
_cell_angle_gamma   90.00000000
_symmetry_Int_Tables_number   1
_chemical_formula_structural   Cs3ScInAs3
_chemical_formula_sum   'Cs6 Sc2 In2 As6'
_cell_volume   597.90296651
_cell_formula_units_Z   2
loop_
 _symmetry_equiv_pos_site_id
 _symmetry_equiv_pos_as_xyz
  1  'x, y, z'
loop_
 _atom_site_type_symbol
 _atom_site_label
 _atom_site_symmetry_multiplicity
 _atom_site_fract_x
 _atom_site_fract_y
 _atom_site_fract_z
 _atom_site_occupancy
  Cs  Cs0  1  0.249426  0.439709  0.424480  1
  Cs  Cs1  1  0.747020  0.136067  0.925894  1
  Cs  Cs2  1  0.753361  0.483336  0.145239  1
  Cs  Cs3  1  0.253361  0.516664  0.854761  1
  Cs  Cs4  1  0.749426  0.560291  0.575520  1
  Cs  Cs5  1  0.247020  0.863933  0.074106  1
  Sc  Sc6  1  0.499612  0.023376  0.350079  1
  Sc  Sc7  1  0.999612  0.976624  0.649921  1
  In  In8  1  0.000317  0.025616  0.340163  1
  In  In9  1  0.500317  0.974384  0.659837  1
  As  As10  1  0.249778  0.819696  0.530351  1
  As  As11  1  0.749778  0.180304  0.469649  1
  As  As12  1  0.259567  0.240002  0.184398  1
  As  As13  1  0.759567  0.759998  0.815602  1
  As  As14  1  0.240919  0.150190  0.747629  1
  As  As15  1  0.740919  0.849810  0.252371  1
