# generated using pymatgen
data_UTi6Tc12Sn5
_symmetry_space_group_name_H-M   'P 1'
_cell_length_a   4.49885700
_cell_length_b   6.43540500
_cell_length_c   13.41849400
_cell_angle_alpha   89.99979959
_cell_angle_beta   89.99880924
_cell_angle_gamma   89.99982182
_symmetry_Int_Tables_number   1
_chemical_formula_structural   UTi6Tc12Sn5
_chemical_formula_sum   'U1 Ti6 Tc12 Sn5'
_cell_volume   388.49179319
_cell_formula_units_Z   1
loop_
 _symmetry_equiv_pos_site_id
 _symmetry_equiv_pos_as_xyz
  1  'x, y, z'
loop_
 _atom_site_type_symbol
 _atom_site_label
 _atom_site_symmetry_multiplicity
 _atom_site_fract_x
 _atom_site_fract_y
 _atom_site_fract_z
 _atom_site_occupancy
  U  U0  1  0.000000  0.000000  0.000000  1
  Ti  Ti1  1  0.000000  0.500000  0.000000  1
  Ti  Ti2  1  0.499956  0.000002  0.180763  1
  Ti  Ti3  1  0.999924  0.499999  0.333223  1
  Ti  Ti4  1  0.500001  0.000000  0.500000  1
  Ti  Ti5  1  0.000076  0.500001  0.666777  1
  Ti  Ti6  1  0.500044  0.999998  0.819237  1
  Tc  Tc7  1  0.500003  0.230061  0.999997  1
  Tc  Tc8  1  0.499999  0.769938  0.000003  1
  Tc  Tc9  1  0.999975  0.239428  0.157819  1
  Tc  Tc10  1  0.999968  0.760565  0.157823  1
  Tc  Tc11  1  0.499916  0.252434  0.332747  1
  Tc  Tc12  1  0.499924  0.747563  0.332750  1
  Tc  Tc13  1  0.000007  0.253343  0.500004  1
  Tc  Tc14  1  0.999993  0.746657  0.499996  1
  Tc  Tc15  1  0.500074  0.252436  0.667249  1
  Tc  Tc16  1  0.500082  0.747565  0.667252  1
  Tc  Tc17  1  0.000031  0.239434  0.842177  1
  Tc  Tc18  1  0.000024  0.760571  0.842181  1
  Sn  Sn19  1  0.499971  0.499994  0.166001  1
  Sn  Sn20  1  0.999933  0.000003  0.334958  1
  Sn  Sn21  1  0.500001  0.500000  0.500000  1
  Sn  Sn22  1  0.000066  0.999997  0.665042  1
  Sn  Sn23  1  0.500031  0.500006  0.833999  1
