# generated using pymatgen
data_NdCuAuO4
_symmetry_space_group_name_H-M   'P 1'
_cell_length_a   6.56442393
_cell_length_b   6.56442425
_cell_length_c   6.60948637
_cell_angle_alpha   125.69318137
_cell_angle_beta   125.86424856
_cell_angle_gamma   79.78523118
_symmetry_Int_Tables_number   1
_chemical_formula_structural   NdCuAuO4
_chemical_formula_sum   'Nd2 Cu2 Au2 O8'
_cell_volume   181.50918798
_cell_formula_units_Z   2
loop_
 _symmetry_equiv_pos_site_id
 _symmetry_equiv_pos_as_xyz
  1  'x, y, z'
loop_
 _atom_site_type_symbol
 _atom_site_label
 _atom_site_symmetry_multiplicity
 _atom_site_fract_x
 _atom_site_fract_y
 _atom_site_fract_z
 _atom_site_occupancy
  Nd  Nd0  1  0.999984  0.999984  0.000000  1
  Nd  Nd1  1  0.750016  0.250016  0.500000  1
  Cu  Cu2  1  0.375000  0.125000  0.750000  1
  Cu  Cu3  1  0.375000  0.625000  0.250000  1
  Au  Au4  1  0.875000  0.625000  0.250000  1
  Au  Au5  1  0.375000  0.625000  0.750000  1
  O  O6  1  0.156890  0.596267  0.864863  1
  O  O7  1  0.731404  0.292027  0.135137  1
  O  O8  1  0.593110  0.653733  0.635137  1
  O  O9  1  0.018596  0.957973  0.364863  1
  O  O10  1  0.347723  0.001809  0.949061  1
  O  O11  1  0.052748  0.398662  0.050939  1
  O  O12  1  0.697252  0.851338  0.449061  1
  O  O13  1  0.402277  0.248191  0.550939  1
