# generated using pymatgen
data_Tb2Sc3(In2Pd)2
_symmetry_space_group_name_H-M   'P 1'
_cell_length_a   3.57675700
_cell_length_b   7.92000700
_cell_length_c   17.68164500
_cell_angle_alpha   90.00180858
_cell_angle_beta   90.00000000
_cell_angle_gamma   90.00000000
_symmetry_Int_Tables_number   1
_chemical_formula_structural   Tb2Sc3(In2Pd)2
_chemical_formula_sum   'Tb4 Sc6 In8 Pd4'
_cell_volume   500.88458710
_cell_formula_units_Z   2
loop_
 _symmetry_equiv_pos_site_id
 _symmetry_equiv_pos_as_xyz
  1  'x, y, z'
loop_
 _atom_site_type_symbol
 _atom_site_label
 _atom_site_symmetry_multiplicity
 _atom_site_fract_x
 _atom_site_fract_y
 _atom_site_fract_z
 _atom_site_occupancy
  Tb  Tb0  1  0.000000  0.242174  0.216280  1
  Tb  Tb1  1  0.000000  0.757612  0.783570  1
  Tb  Tb2  1  0.000000  0.257396  0.716160  1
  Tb  Tb3  1  0.000000  0.742014  0.283927  1
  Sc  Sc4  1  0.000000  0.115090  0.417074  1
  Sc  Sc5  1  0.000000  0.885208  0.582945  1
  Sc  Sc6  1  0.000000  0.385408  0.916968  1
  Sc  Sc7  1  0.000000  0.614898  0.083253  1
  Sc  Sc8  1  0.000000  0.999849  0.000016  1
  Sc  Sc9  1  0.000000  0.500106  0.500019  1
  In  In10  1  0.500000  0.415797  0.356210  1
  In  In11  1  0.500000  0.584520  0.643865  1
  In  In12  1  0.500000  0.084160  0.855913  1
  In  In13  1  0.500000  0.915528  0.143974  1
  In  In14  1  0.500000  0.295733  0.058675  1
  In  In15  1  0.500000  0.704523  0.941221  1
  In  In16  1  0.500000  0.204178  0.558570  1
  In  In17  1  0.500000  0.795911  0.441380  1
  Pd  Pd18  1  0.500000  0.032009  0.308040  1
  Pd  Pd19  1  0.500000  0.967874  0.691857  1
  Pd  Pd20  1  0.500000  0.467697  0.808004  1
  Pd  Pd21  1  0.500000  0.532314  0.192081  1
