# generated using pymatgen
data_Gd3Dy3NbO12
_symmetry_space_group_name_H-M   'P 1'
_cell_length_a   6.53131841
_cell_length_b   6.52549125
_cell_length_c   6.53086959
_cell_angle_alpha   98.59863423
_cell_angle_beta   98.69972822
_cell_angle_gamma   98.75778702
_symmetry_Int_Tables_number   1
_chemical_formula_structural   Gd3Dy3NbO12
_chemical_formula_sum   'Gd3 Dy3 Nb1 O12'
_cell_volume   267.66109729
_cell_formula_units_Z   1
loop_
 _symmetry_equiv_pos_site_id
 _symmetry_equiv_pos_as_xyz
  1  'x, y, z'
loop_
 _atom_site_type_symbol
 _atom_site_label
 _atom_site_symmetry_multiplicity
 _atom_site_fract_x
 _atom_site_fract_y
 _atom_site_fract_z
 _atom_site_occupancy
  Gd  Gd0  1  0.699605  0.863319  0.391757  1
  Gd  Gd1  1  0.391827  0.694028  0.858682  1
  Gd  Gd2  1  0.138661  0.606900  0.304335  1
  Dy  Dy3  1  0.860133  0.386558  0.699072  1
  Dy  Dy4  1  0.611834  0.299568  0.136248  1
  Dy  Dy5  1  0.304082  0.142847  0.613371  1
  Nb  Nb6  1  0.002890  0.999088  0.000911  1
  O  O7  1  0.930636  0.045408  0.696584  1
  O  O8  1  0.953993  0.303957  0.069037  1
  O  O9  1  0.586950  0.177947  0.436637  1
  O  O10  1  0.818901  0.561730  0.410986  1
  O  O11  1  0.303756  0.075582  0.958866  1
  O  O12  1  0.564013  0.409384  0.822319  1
  O  O13  1  0.435525  0.585827  0.176783  1
  O  O14  1  0.696999  0.931125  0.043215  1
  O  O15  1  0.174704  0.434320  0.587249  1
  O  O16  1  0.412494  0.824557  0.565743  1
  O  O17  1  0.037774  0.697043  0.924462  1
  O  O18  1  0.075222  0.960812  0.303743  1
