# generated using pymatgen
data_Sm4SiBi5Rh7
_symmetry_space_group_name_H-M   'P 1'
_cell_length_a   7.79195426
_cell_length_b   7.79196819
_cell_length_c   7.79196915
_cell_angle_alpha   106.72603392
_cell_angle_beta   110.86096085
_cell_angle_gamma   110.86095526
_symmetry_Int_Tables_number   1
_chemical_formula_structural   Sm4SiBi5Rh7
_chemical_formula_sum   'Sm4 Si1 Bi5 Rh7'
_cell_volume   363.55958936
_cell_formula_units_Z   1
loop_
 _symmetry_equiv_pos_site_id
 _symmetry_equiv_pos_as_xyz
  1  'x, y, z'
loop_
 _atom_site_type_symbol
 _atom_site_label
 _atom_site_symmetry_multiplicity
 _atom_site_fract_x
 _atom_site_fract_y
 _atom_site_fract_z
 _atom_site_occupancy
  Sm  Sm0  1  0.000002  0.984977  0.531222  1
  Sm  Sm1  1  0.000002  0.531222  0.984977  1
  Sm  Sm2  1  0.453752  0.984974  0.984974  1
  Sm  Sm3  1  0.546246  0.531223  0.531223  1
  Si  Si4  1  0.999995  0.637093  0.637093  1
  Bi  Bi5  1  0.686538  0.703171  0.016632  1
  Bi  Bi6  1  0.313462  0.016633  0.330094  1
  Bi  Bi7  1  0.000003  0.308717  0.308717  1
  Bi  Bi8  1  0.313462  0.330094  0.016633  1
  Bi  Bi9  1  0.686538  0.016632  0.703171  1
  Rh  Rh10  1  0.757964  0.265066  0.507102  1
  Rh  Rh11  1  0.757964  0.507102  0.265066  1
  Rh  Rh12  1  0.500002  0.263863  0.763861  1
  Rh  Rh13  1  0.242033  0.507103  0.749138  1
  Rh  Rh14  1  0.242033  0.749138  0.507103  1
  Rh  Rh15  1  0.500002  0.763861  0.263863  1
  Rh  Rh16  1  0.999999  0.899133  0.899133  1
