# generated using pymatgen
data_Y3ScTe4
_symmetry_space_group_name_H-M   'P 1'
_cell_length_a   4.22272700
_cell_length_b   4.22272824
_cell_length_c   14.75870400
_cell_angle_alpha   90.00000000
_cell_angle_beta   90.00000000
_cell_angle_gamma   119.99999811
_symmetry_Int_Tables_number   1
_chemical_formula_structural   Y3ScTe4
_chemical_formula_sum   'Y3 Sc1 Te4'
_cell_volume   227.91084984
_cell_formula_units_Z   1
loop_
 _symmetry_equiv_pos_site_id
 _symmetry_equiv_pos_as_xyz
  1  'x, y, z'
loop_
 _atom_site_type_symbol
 _atom_site_label
 _atom_site_symmetry_multiplicity
 _atom_site_fract_x
 _atom_site_fract_y
 _atom_site_fract_z
 _atom_site_occupancy
  Y  Y0  1  0.333333  0.666667  0.873632  1
  Y  Y1  1  0.666667  0.333333  0.118779  1
  Y  Y2  1  0.666667  0.333333  0.389194  1
  Sc  Sc3  1  0.333333  0.666667  0.616810  1
  Te  Te4  1  0.333333  0.666667  0.253757  1
  Te  Te5  1  0.666667  0.333333  0.739723  1
  Te  Te6  1  0.000000  0.000000  0.511720  1
  Te  Te7  1  0.000000  0.000000  0.996385  1
