# generated using pymatgen
data_Y4MnRe6Tc
_symmetry_space_group_name_H-M   'P 1'
_cell_length_a   5.35186800
_cell_length_b   5.35186881
_cell_length_c   9.02459900
_cell_angle_alpha   90.00000000
_cell_angle_beta   90.00000000
_cell_angle_gamma   120.00000737
_symmetry_Int_Tables_number   1
_chemical_formula_structural   Y4MnRe6Tc
_chemical_formula_sum   'Y4 Mn1 Re6 Tc1'
_cell_volume   223.85632258
_cell_formula_units_Z   1
loop_
 _symmetry_equiv_pos_site_id
 _symmetry_equiv_pos_as_xyz
  1  'x, y, z'
loop_
 _atom_site_type_symbol
 _atom_site_label
 _atom_site_symmetry_multiplicity
 _atom_site_fract_x
 _atom_site_fract_y
 _atom_site_fract_z
 _atom_site_occupancy
  Y  Y0  1  0.333333  0.666667  0.438010  1
  Y  Y1  1  0.666667  0.333333  0.561990  1
  Y  Y2  1  0.666667  0.333333  0.936690  1
  Y  Y3  1  0.333333  0.666667  0.063310  1
  Mn  Mn4  1  0.000000  0.000000  0.500000  1
  Re  Re5  1  0.830402  0.169598  0.251786  1
  Re  Re6  1  0.830402  0.660804  0.251786  1
  Re  Re7  1  0.339196  0.169598  0.251786  1
  Re  Re8  1  0.169598  0.830402  0.748214  1
  Re  Re9  1  0.169598  0.339196  0.748214  1
  Re  Re10  1  0.660804  0.830402  0.748214  1
  Tc  Tc11  1  0.000000  0.000000  0.000000  1
