# generated using pymatgen
data_LaNd2NpO7
_symmetry_space_group_name_H-M   'P 1'
_cell_length_a   6.79410946
_cell_length_b   6.79411004
_cell_length_c   7.97663200
_cell_angle_alpha   90.00000000
_cell_angle_beta   90.00000000
_cell_angle_gamma   109.35216554
_symmetry_Int_Tables_number   1
_chemical_formula_structural   LaNd2NpO7
_chemical_formula_sum   'La2 Nd4 Np2 O14'
_cell_volume   347.39727798
_cell_formula_units_Z   2
loop_
 _symmetry_equiv_pos_site_id
 _symmetry_equiv_pos_as_xyz
  1  'x, y, z'
loop_
 _atom_site_type_symbol
 _atom_site_label
 _atom_site_symmetry_multiplicity
 _atom_site_fract_x
 _atom_site_fract_y
 _atom_site_fract_z
 _atom_site_occupancy
  La  La0  1  0.500000  0.500000  0.500000  1
  La  La1  1  0.500000  0.500000  0.000000  1
  Nd  Nd2  1  0.533847  0.002424  0.750000  1
  Nd  Nd3  1  0.002424  0.533847  0.250000  1
  Nd  Nd4  1  0.466153  0.997576  0.250000  1
  Nd  Nd5  1  0.997576  0.466153  0.750000  1
  Np  Np6  1  0.000000  0.000000  0.500000  1
  Np  Np7  1  0.000000  0.000000  0.000000  1
  O  O8  1  0.673782  0.921428  0.471035  1
  O  O9  1  0.921428  0.673782  0.528965  1
  O  O10  1  0.673782  0.921428  0.028965  1
  O  O11  1  0.921428  0.673782  0.971035  1
  O  O12  1  0.326218  0.078572  0.528965  1
  O  O13  1  0.078572  0.326218  0.471035  1
  O  O14  1  0.326218  0.078572  0.971035  1
  O  O15  1  0.078572  0.326218  0.028965  1
  O  O16  1  0.914692  0.085308  0.750000  1
  O  O17  1  0.085308  0.914692  0.250000  1
  O  O18  1  0.366952  0.633048  0.750000  1
  O  O19  1  0.633048  0.366952  0.250000  1
  O  O20  1  0.634288  0.365712  0.750000  1
  O  O21  1  0.365712  0.634288  0.250000  1
