# generated using pymatgen
data_Ti24P3Se5
_symmetry_space_group_name_H-M   'P 1'
_cell_length_a   10.04817334
_cell_length_b   10.04229978
_cell_length_c   5.06396447
_cell_angle_alpha   89.93384628
_cell_angle_beta   89.94204294
_cell_angle_gamma   89.98713818
_symmetry_Int_Tables_number   1
_chemical_formula_structural   Ti24P3Se5
_chemical_formula_sum   'Ti24 P3 Se5'
_cell_volume   510.98767822
_cell_formula_units_Z   1
loop_
 _symmetry_equiv_pos_site_id
 _symmetry_equiv_pos_as_xyz
  1  'x, y, z'
loop_
 _atom_site_type_symbol
 _atom_site_label
 _atom_site_symmetry_multiplicity
 _atom_site_fract_x
 _atom_site_fract_y
 _atom_site_fract_z
 _atom_site_occupancy
  Ti  Ti0  1  0.971065  0.853487  0.283806  1
  Ti  Ti1  1  0.354488  0.528917  0.786301  1
  Ti  Ti2  1  0.645833  0.471467  0.784511  1
  Ti  Ti3  1  0.027844  0.142701  0.287390  1
  Ti  Ti4  1  0.527302  0.637258  0.217073  1
  Ti  Ti5  1  0.137635  0.966804  0.715967  1
  Ti  Ti6  1  0.859763  0.021203  0.714989  1
  Ti  Ti7  1  0.473056  0.363595  0.216161  1
  Ti  Ti8  1  0.816401  0.288676  0.014614  1
  Ti  Ti9  1  0.787031  0.679206  0.511646  1
  Ti  Ti10  1  0.216196  0.322332  0.507046  1
  Ti  Ti11  1  0.179104  0.712393  0.011141  1
  Ti  Ti12  1  0.683528  0.219975  0.486674  1
  Ti  Ti13  1  0.719449  0.816060  0.987212  1
  Ti  Ti14  1  0.284200  0.183136  0.990180  1
  Ti  Ti15  1  0.317198  0.780511  0.486762  1
  Ti  Ti16  1  0.912720  0.398802  0.530825  1
  Ti  Ti17  1  0.894586  0.584554  0.042083  1
  Ti  Ti18  1  0.107803  0.419822  0.049411  1
  Ti  Ti19  1  0.085055  0.605817  0.538428  1
  Ti  Ti20  1  0.583468  0.103449  0.957889  1
  Ti  Ti21  1  0.603118  0.916623  0.460884  1
  Ti  Ti22  1  0.397310  0.083751  0.459093  1
  Ti  Ti23  1  0.416854  0.896761  0.958612  1
  P  P24  1  0.706025  0.461802  0.286954  1
  P  P25  1  0.293952  0.541467  0.289021  1
  P  P26  1  0.959991  0.790583  0.786894  1
  Se  Se27  1  0.460758  0.294780  0.712029  1
  Se  Se28  1  0.793567  0.039542  0.212211  1
  Se  Se29  1  0.206157  0.959920  0.212725  1
  Se  Se30  1  0.540056  0.705703  0.713218  1
  Se  Se31  1  0.038488  0.208901  0.788252  1
