# generated using pymatgen
data_Dy3TmLu16(CoSb2)4
_symmetry_space_group_name_H-M   'P 1'
_cell_length_a   7.69779714
_cell_length_b   8.70197100
_cell_length_c   11.96403102
_cell_angle_alpha   90.00000000
_cell_angle_beta   90.03418738
_cell_angle_gamma   90.00000000
_symmetry_Int_Tables_number   1
_chemical_formula_structural   Dy3TmLu16(CoSb2)4
_chemical_formula_sum   'Dy3 Tm1 Lu16 Co4 Sb8'
_cell_volume   801.42252807
_cell_formula_units_Z   1
loop_
 _symmetry_equiv_pos_site_id
 _symmetry_equiv_pos_as_xyz
  1  'x, y, z'
loop_
 _atom_site_type_symbol
 _atom_site_label
 _atom_site_symmetry_multiplicity
 _atom_site_fract_x
 _atom_site_fract_y
 _atom_site_fract_z
 _atom_site_occupancy
  Dy  Dy0  1  0.877783  0.750000  0.807681  1
  Dy  Dy1  1  0.377935  0.250000  0.691901  1
  Dy  Dy2  1  0.122384  0.250000  0.192261  1
  Tm  Tm3  1  0.620990  0.750000  0.309188  1
  Lu  Lu4  1  0.155542  0.750000  0.203785  1
  Lu  Lu5  1  0.344933  0.750000  0.703493  1
  Lu  Lu6  1  0.844913  0.250000  0.796497  1
  Lu  Lu7  1  0.655048  0.250000  0.296449  1
  Lu  Lu8  1  0.446972  0.750000  0.997617  1
  Lu  Lu9  1  0.052527  0.750000  0.497909  1
  Lu  Lu10  1  0.552645  0.250000  0.002425  1
  Lu  Lu11  1  0.946276  0.250000  0.502128  1
  Lu  Lu12  1  0.824074  0.536828  0.065395  1
  Lu  Lu13  1  0.676085  0.962078  0.564794  1
  Lu  Lu14  1  0.176039  0.037599  0.934718  1
  Lu  Lu15  1  0.324619  0.464339  0.434286  1
  Lu  Lu16  1  0.176039  0.462401  0.934718  1
  Lu  Lu17  1  0.324619  0.035661  0.434286  1
  Lu  Lu18  1  0.824074  0.963172  0.065395  1
  Lu  Lu19  1  0.676085  0.537922  0.564794  1
  Co  Co20  1  0.432720  0.750000  0.491784  1
  Co  Co21  1  0.067631  0.750000  0.992021  1
  Co  Co22  1  0.567339  0.250000  0.507695  1
  Co  Co23  1  0.932286  0.250000  0.008260  1
  Sb  Sb24  1  0.930061  0.509198  0.328822  1
  Sb  Sb25  1  0.568952  0.991641  0.828956  1
  Sb  Sb26  1  0.068924  0.008627  0.671047  1
  Sb  Sb27  1  0.432283  0.492422  0.171433  1
  Sb  Sb28  1  0.068924  0.491373  0.671047  1
  Sb  Sb29  1  0.432283  0.007578  0.171433  1
  Sb  Sb30  1  0.930061  0.990802  0.328822  1
  Sb  Sb31  1  0.568952  0.508359  0.828956  1
