# generated using pymatgen
data_Dy4Lu3CoI12
_symmetry_space_group_name_H-M   'P 1'
_cell_length_a   9.69921587
_cell_length_b   9.69921568
_cell_length_c   9.69921478
_cell_angle_alpha   106.81270565
_cell_angle_beta   106.81270372
_cell_angle_gamma   106.81270609
_symmetry_Int_Tables_number   1
_chemical_formula_structural   Dy4Lu3CoI12
_chemical_formula_sum   'Dy4 Lu3 Co1 I12'
_cell_volume   763.74760138
_cell_formula_units_Z   1
loop_
 _symmetry_equiv_pos_site_id
 _symmetry_equiv_pos_as_xyz
  1  'x, y, z'
loop_
 _atom_site_type_symbol
 _atom_site_label
 _atom_site_symmetry_multiplicity
 _atom_site_fract_x
 _atom_site_fract_y
 _atom_site_fract_z
 _atom_site_occupancy
  Dy  Dy0  1  0.499992  0.499992  0.499992  1
  Dy  Dy1  1  0.713097  0.909766  0.979914  1
  Dy  Dy2  1  0.979914  0.713097  0.909766  1
  Dy  Dy3  1  0.909766  0.979914  0.713097  1
  Lu  Lu4  1  0.281450  0.090229  0.022119  1
  Lu  Lu5  1  0.022119  0.281450  0.090229  1
  Lu  Lu6  1  0.090229  0.022119  0.281450  1
  Co  Co7  1  0.000497  0.000497  0.000497  1
  I  I8  1  0.461815  0.159953  0.385526  1
  I  I9  1  0.385526  0.461815  0.159953  1
  I  I10  1  0.159953  0.385526  0.461815  1
  I  I11  1  0.536859  0.840343  0.613750  1
  I  I12  1  0.613750  0.536859  0.840343  1
  I  I13  1  0.840343  0.613750  0.536859  1
  I  I14  1  0.323954  0.777914  0.929954  1
  I  I15  1  0.929954  0.323954  0.777914  1
  I  I16  1  0.777914  0.929954  0.323954  1
  I  I17  1  0.676799  0.225191  0.070877  1
  I  I18  1  0.070877  0.676799  0.225191  1
  I  I19  1  0.225191  0.070877  0.676799  1
