# generated using pymatgen
data_Ta2Be9Nb
_symmetry_space_group_name_H-M   'P 1'
_cell_length_a   7.49363730
_cell_length_b   7.49363749
_cell_length_c   7.49363749
_cell_angle_alpha   35.46550646
_cell_angle_beta   35.46550058
_cell_angle_gamma   35.46550388
_symmetry_Int_Tables_number   1
_chemical_formula_structural   Ta2Be9Nb
_chemical_formula_sum   'Ta2 Be9 Nb1'
_cell_volume   126.58824959
_cell_formula_units_Z   1
loop_
 _symmetry_equiv_pos_site_id
 _symmetry_equiv_pos_as_xyz
  1  'x, y, z'
loop_
 _atom_site_type_symbol
 _atom_site_label
 _atom_site_symmetry_multiplicity
 _atom_site_fract_x
 _atom_site_fract_y
 _atom_site_fract_z
 _atom_site_occupancy
  Ta  Ta0  1  0.140039  0.140039  0.140039  1
  Ta  Ta1  1  0.859961  0.859961  0.859961  1
  Be  Be2  1  0.500000  0.500000  0.500000  1
  Be  Be3  1  0.334381  0.334381  0.334382  1
  Be  Be4  1  0.665619  0.665619  0.665618  1
  Be  Be5  1  0.075488  0.584083  0.584083  1
  Be  Be6  1  0.584083  0.584083  0.075488  1
  Be  Be7  1  0.584083  0.075488  0.584083  1
  Be  Be8  1  0.415917  0.924512  0.415917  1
  Be  Be9  1  0.924512  0.415917  0.415917  1
  Be  Be10  1  0.415917  0.415917  0.924512  1
  Nb  Nb11  1  0.000000  0.000000  0.000000  1
