# generated using pymatgen
data_Zr6SiHgBi
_symmetry_space_group_name_H-M   'P 1'
_cell_length_a   7.73573100
_cell_length_b   7.73573076
_cell_length_c   3.89613700
_cell_angle_alpha   90.00000000
_cell_angle_beta   90.00000000
_cell_angle_gamma   120.00000529
_symmetry_Int_Tables_number   1
_chemical_formula_structural   Zr6SiHgBi
_chemical_formula_sum   'Zr6 Si1 Hg1 Bi1'
_cell_volume   201.91451188
_cell_formula_units_Z   1
loop_
 _symmetry_equiv_pos_site_id
 _symmetry_equiv_pos_as_xyz
  1  'x, y, z'
loop_
 _atom_site_type_symbol
 _atom_site_label
 _atom_site_symmetry_multiplicity
 _atom_site_fract_x
 _atom_site_fract_y
 _atom_site_fract_z
 _atom_site_occupancy
  Zr  Zr0  1  0.385370  0.384187  0.500000  1
  Zr  Zr1  1  0.615813  0.001184  0.500000  1
  Zr  Zr2  1  0.998816  0.614630  0.500000  1
  Zr  Zr3  1  0.761363  0.752617  0.000000  1
  Zr  Zr4  1  0.247383  0.008746  0.000000  1
  Zr  Zr5  1  0.991254  0.238637  0.000000  1
  Si  Si6  1  0.000000  0.000000  0.500000  1
  Hg  Hg7  1  0.666667  0.333333  0.000000  1
  Bi  Bi8  1  0.333333  0.666667  0.000000  1
