# generated using pymatgen
data_MgZr3B14PIr12
_symmetry_space_group_name_H-M   'P 1'
_cell_length_a   3.48816176
_cell_length_b   7.69862423
_cell_length_c   13.32625497
_cell_angle_alpha   90.08844534
_cell_angle_beta   90.07277464
_cell_angle_gamma   89.95927321
_symmetry_Int_Tables_number   1
_chemical_formula_structural   MgZr3B14PIr12
_chemical_formula_sum   'Mg1 Zr3 B14 P1 Ir12'
_cell_volume   357.86306775
_cell_formula_units_Z   1
loop_
 _symmetry_equiv_pos_site_id
 _symmetry_equiv_pos_as_xyz
  1  'x, y, z'
loop_
 _atom_site_type_symbol
 _atom_site_label
 _atom_site_symmetry_multiplicity
 _atom_site_fract_x
 _atom_site_fract_y
 _atom_site_fract_z
 _atom_site_occupancy
  Mg  Mg0  1  0.256746  0.500879  0.833148  1
  Zr  Zr1  1  0.259167  0.999404  0.332778  1
  Zr  Zr2  1  0.757577  0.001568  0.669298  1
  Zr  Zr3  1  0.757097  0.498737  0.164213  1
  B  B4  1  0.503880  0.000408  0.997977  1
  B  B5  1  0.004817  0.001023  0.997624  1
  B  B6  1  0.761719  0.333920  0.729246  1
  B  B7  1  0.759375  0.825638  0.222346  1
  B  B8  1  0.755272  0.747386  0.803779  1
  B  B9  1  0.760311  0.247345  0.300548  1
  B  B10  1  0.754222  0.427276  0.970179  1
  B  B11  1  0.762005  0.921496  0.475404  1
  B  B12  1  0.253947  0.179613  0.778968  1
  B  B13  1  0.256446  0.673634  0.272978  1
  B  B14  1  0.259142  0.746661  0.705595  1
  B  B15  1  0.257720  0.247225  0.196223  1
  B  B16  1  0.256677  0.076506  0.526200  1
  B  B17  1  0.257112  0.572496  0.020421  1
  P  P18  1  0.273876  0.498350  0.500482  1
  Ir  Ir19  1  0.759597  0.593398  0.671368  1
  Ir  Ir20  1  0.757820  0.089357  0.164408  1
  Ir  Ir21  1  0.756573  0.707539  0.963748  1
  Ir  Ir22  1  0.757047  0.200623  0.461141  1
  Ir  Ir23  1  0.754184  0.204316  0.873313  1
  Ir  Ir24  1  0.757315  0.706458  0.367786  1
  Ir  Ir25  1  0.254889  0.913925  0.837994  1
  Ir  Ir26  1  0.260015  0.407964  0.331288  1
  Ir  Ir27  1  0.261707  0.795079  0.538864  1
  Ir  Ir28  1  0.254896  0.291386  0.037990  1
  Ir  Ir29  1  0.260468  0.293139  0.628015  1
  Ir  Ir30  1  0.258382  0.797252  0.126679  1
