# generated using pymatgen
data_Nd3AlHg2Pt3
_symmetry_space_group_name_H-M   'P 1'
_cell_length_a   7.78798351
_cell_length_b   7.61903513
_cell_length_c   3.96312300
_cell_angle_alpha   90.00000000
_cell_angle_beta   90.00000000
_cell_angle_gamma   119.28496410
_symmetry_Int_Tables_number   1
_chemical_formula_structural   Nd3AlHg2Pt3
_chemical_formula_sum   'Nd3 Al1 Hg2 Pt3'
_cell_volume   205.10557849
_cell_formula_units_Z   1
loop_
 _symmetry_equiv_pos_site_id
 _symmetry_equiv_pos_as_xyz
  1  'x, y, z'
loop_
 _atom_site_type_symbol
 _atom_site_label
 _atom_site_symmetry_multiplicity
 _atom_site_fract_x
 _atom_site_fract_y
 _atom_site_fract_z
 _atom_site_occupancy
  Nd  Nd0  1  0.408200  0.403766  0.500000  1
  Nd  Nd1  1  0.591800  0.995566  0.500000  1
  Nd  Nd2  1  0.000000  0.595597  0.500000  1
  Al  Al3  1  0.000000  0.252583  0.000000  1
  Hg  Hg4  1  0.744719  0.744900  0.000000  1
  Hg  Hg5  1  0.255281  0.000181  0.000000  1
  Pt  Pt6  1  0.689540  0.324967  0.000000  1
  Pt  Pt7  1  0.310460  0.635427  0.000000  1
  Pt  Pt8  1  0.000000  0.047012  0.500000  1
