# generated using pymatgen
data_K2ThI6
_symmetry_space_group_name_H-M   'P 1'
_cell_length_a   8.96255300
_cell_length_b   8.36569937
_cell_length_c   14.42121655
_cell_angle_alpha   55.57914874
_cell_angle_beta   90.00000000
_cell_angle_gamma   90.00000000
_symmetry_Int_Tables_number   1
_chemical_formula_structural   K2ThI6
_chemical_formula_sum   'K4 Th2 I12'
_cell_volume   891.95166317
_cell_formula_units_Z   2
loop_
 _symmetry_equiv_pos_site_id
 _symmetry_equiv_pos_as_xyz
  1  'x, y, z'
loop_
 _atom_site_type_symbol
 _atom_site_label
 _atom_site_symmetry_multiplicity
 _atom_site_fract_x
 _atom_site_fract_y
 _atom_site_fract_z
 _atom_site_occupancy
  K  K0  1  0.590849  0.724928  0.250685  1
  K  K1  1  0.090849  0.275072  0.249315  1
  K  K2  1  0.409151  0.275072  0.749315  1
  K  K3  1  0.909151  0.724928  0.750685  1
  Th  Th4  1  0.000000  0.000000  0.000000  1
  Th  Th5  1  0.500000  0.000000  0.500000  1
  I  I6  1  0.973067  0.861516  0.247957  1
  I  I7  1  0.473067  0.138484  0.252043  1
  I  I8  1  0.026933  0.138484  0.752043  1
  I  I9  1  0.526933  0.861516  0.747957  1
  I  I10  1  0.678963  0.639341  0.557961  1
  I  I11  1  0.178963  0.360659  0.942039  1
  I  I12  1  0.321037  0.360659  0.442039  1
  I  I13  1  0.821037  0.639341  0.057961  1
  I  I14  1  0.705743  0.227475  0.945281  1
  I  I15  1  0.205743  0.772525  0.554719  1
  I  I16  1  0.294257  0.772525  0.054719  1
  I  I17  1  0.794257  0.227475  0.445281  1
