# generated using pymatgen
data_Ho9Si4AgB16
_symmetry_space_group_name_H-M   'P 1'
_cell_length_a   7.17784200
_cell_length_b   7.17784200
_cell_length_c   7.91433200
_cell_angle_alpha   90.00000000
_cell_angle_beta   90.00000000
_cell_angle_gamma   90.00000000
_symmetry_Int_Tables_number   1
_chemical_formula_structural   Ho9Si4AgB16
_chemical_formula_sum   'Ho9 Si4 Ag1 B16'
_cell_volume   407.75758957
_cell_formula_units_Z   1
loop_
 _symmetry_equiv_pos_site_id
 _symmetry_equiv_pos_as_xyz
  1  'x, y, z'
loop_
 _atom_site_type_symbol
 _atom_site_label
 _atom_site_symmetry_multiplicity
 _atom_site_fract_x
 _atom_site_fract_y
 _atom_site_fract_z
 _atom_site_occupancy
  Ho  Ho0  1  0.681596  0.180220  0.230088  1
  Ho  Ho1  1  0.318404  0.819780  0.769912  1
  Ho  Ho2  1  0.318404  0.819780  0.230088  1
  Ho  Ho3  1  0.819780  0.681596  0.230088  1
  Ho  Ho4  1  0.819780  0.681596  0.769912  1
  Ho  Ho5  1  0.681596  0.180220  0.769912  1
  Ho  Ho6  1  0.180220  0.318404  0.769912  1
  Ho  Ho7  1  0.180220  0.318404  0.230088  1
  Ho  Ho8  1  0.500000  0.500000  0.500000  1
  Si  Si9  1  0.116048  0.615144  0.500000  1
  Si  Si10  1  0.883952  0.384856  0.500000  1
  Si  Si11  1  0.384856  0.116048  0.500000  1
  Si  Si12  1  0.615144  0.883952  0.500000  1
  Ag  Ag13  1  0.000000  0.000000  0.500000  1
  B  B14  1  0.175189  0.038487  0.000000  1
  B  B15  1  0.824811  0.961513  0.000000  1
  B  B16  1  0.961513  0.175189  0.000000  1
  B  B17  1  0.327379  0.540407  0.000000  1
  B  B18  1  0.038487  0.824811  0.000000  1
  B  B19  1  0.672621  0.459593  0.000000  1
  B  B20  1  0.540407  0.672621  0.000000  1
  B  B21  1  0.459593  0.327379  0.000000  1
  B  B22  1  0.089362  0.588522  0.000000  1
  B  B23  1  0.910638  0.411478  0.000000  1
  B  B24  1  0.411478  0.089362  0.000000  1
  B  B25  1  0.588522  0.910638  0.000000  1
  B  B26  1  0.000000  0.000000  0.158118  1
  B  B27  1  0.000000  0.000000  0.841882  1
  B  B28  1  0.500000  0.500000  0.835132  1
  B  B29  1  0.500000  0.500000  0.164868  1
