# generated using pymatgen
data_Tb6Er4(InSb)3
_symmetry_space_group_name_H-M   'P 1'
_cell_length_a   8.97976900
_cell_length_b   8.96034470
_cell_length_c   6.53431700
_cell_angle_alpha   90.00000000
_cell_angle_beta   90.00000000
_cell_angle_gamma   120.07173275
_symmetry_Int_Tables_number   1
_chemical_formula_structural   Tb6Er4(InSb)3
_chemical_formula_sum   'Tb6 Er4 In3 Sb3'
_cell_volume   454.99470156
_cell_formula_units_Z   1
loop_
 _symmetry_equiv_pos_site_id
 _symmetry_equiv_pos_as_xyz
  1  'x, y, z'
loop_
 _atom_site_type_symbol
 _atom_site_label
 _atom_site_symmetry_multiplicity
 _atom_site_fract_x
 _atom_site_fract_y
 _atom_site_fract_z
 _atom_site_occupancy
  Tb  Tb0  1  0.002807  0.763073  0.750000  1
  Tb  Tb1  1  0.003452  0.239627  0.250000  1
  Tb  Tb2  1  0.763825  0.760373  0.250000  1
  Tb  Tb3  1  0.761270  0.000000  0.750000  1
  Tb  Tb4  1  0.239734  0.236927  0.750000  1
  Tb  Tb5  1  0.237990  0.000000  0.250000  1
  Er  Er6  1  0.330691  0.666092  0.499038  1
  Er  Er7  1  0.664600  0.333908  0.000962  1
  Er  Er8  1  0.664600  0.333908  0.499038  1
  Er  Er9  1  0.330691  0.666092  0.000962  1
  In  In10  1  0.397996  0.000000  0.750000  1
  In  In11  1  0.396038  0.398199  0.250000  1
  In  In12  1  0.997839  0.601801  0.250000  1
  Sb  Sb13  1  0.997307  0.392384  0.750000  1
  Sb  Sb14  1  0.604923  0.607616  0.750000  1
  Sb  Sb15  1  0.606237  0.000000  0.250000  1
