# generated using pymatgen
data_RbNd(SeO4)2
_symmetry_space_group_name_H-M   'P 1'
_cell_length_a   5.06277054
_cell_length_b   5.06277023
_cell_length_c   9.85043621
_cell_angle_alpha   105.08323251
_cell_angle_beta   105.08322990
_cell_angle_gamma   64.01910510
_symmetry_Int_Tables_number   1
_chemical_formula_structural   RbNd(SeO4)2
_chemical_formula_sum   'Rb1 Nd1 Se2 O8'
_cell_volume   216.01543054
_cell_formula_units_Z   1
loop_
 _symmetry_equiv_pos_site_id
 _symmetry_equiv_pos_as_xyz
  1  'x, y, z'
loop_
 _atom_site_type_symbol
 _atom_site_label
 _atom_site_symmetry_multiplicity
 _atom_site_fract_x
 _atom_site_fract_y
 _atom_site_fract_z
 _atom_site_occupancy
  Rb  Rb0  1  0.949629  0.050370  0.000000  1
  Nd  Nd1  1  0.547617  0.452383  0.500000  1
  Se  Se2  1  0.791544  0.786259  0.278524  1
  Se  Se3  1  0.213741  0.208456  0.721477  1
  O  O4  1  0.635403  0.716382  0.111992  1
  O  O5  1  0.132916  0.518122  0.309131  1
  O  O6  1  0.821172  0.117859  0.313896  1
  O  O7  1  0.589517  0.829133  0.401465  1
  O  O8  1  0.170867  0.410484  0.598535  1
  O  O9  1  0.882141  0.178828  0.686103  1
  O  O10  1  0.481878  0.867084  0.690870  1
  O  O11  1  0.283618  0.364597  0.888007  1
