# generated using pymatgen
data_Sm7Y(Pt2Pb)4
_symmetry_space_group_name_H-M   'P 1'
_cell_length_a   8.02789678
_cell_length_b   8.02789793
_cell_length_c   7.38312300
_cell_angle_alpha   90.00000000
_cell_angle_beta   90.00000000
_cell_angle_gamma   89.85531694
_symmetry_Int_Tables_number   1
_chemical_formula_structural   Sm7Y(Pt2Pb)4
_chemical_formula_sum   'Sm7 Y1 Pt8 Pb4'
_cell_volume   475.81961425
_cell_formula_units_Z   1
loop_
 _symmetry_equiv_pos_site_id
 _symmetry_equiv_pos_as_xyz
  1  'x, y, z'
loop_
 _atom_site_type_symbol
 _atom_site_label
 _atom_site_symmetry_multiplicity
 _atom_site_fract_x
 _atom_site_fract_y
 _atom_site_fract_z
 _atom_site_occupancy
  Sm  Sm0  1  0.674669  0.673531  0.000000  1
  Sm  Sm1  1  0.335858  0.336386  0.500000  1
  Sm  Sm2  1  0.826141  0.173859  0.500000  1
  Sm  Sm3  1  0.663614  0.664142  0.500000  1
  Sm  Sm4  1  0.326469  0.325331  0.000000  1
  Sm  Sm5  1  0.175027  0.824973  0.500000  1
  Sm  Sm6  1  0.835928  0.164072  0.000000  1
  Y  Y7  1  0.162688  0.837312  0.000000  1
  Pt  Pt8  1  0.873727  0.872531  0.739862  1
  Pt  Pt9  1  0.127469  0.126273  0.739862  1
  Pt  Pt10  1  0.627395  0.372605  0.760272  1
  Pt  Pt11  1  0.627395  0.372605  0.239728  1
  Pt  Pt12  1  0.371403  0.628597  0.235064  1
  Pt  Pt13  1  0.127469  0.126273  0.260138  1
  Pt  Pt14  1  0.873727  0.872531  0.260138  1
  Pt  Pt15  1  0.371403  0.628597  0.764936  1
  Pb  Pb16  1  0.498572  0.998761  0.751750  1
  Pb  Pb17  1  0.498572  0.998761  0.248250  1
  Pb  Pb18  1  0.001239  0.501428  0.751750  1
  Pb  Pb19  1  0.001239  0.501428  0.248250  1
