# generated using pymatgen
data_RbCoAs2Ru
_symmetry_space_group_name_H-M   'P 1'
_cell_length_a   7.70600791
_cell_length_b   7.70600779
_cell_length_c   7.70600852
_cell_angle_alpha   150.28527878
_cell_angle_beta   150.28527815
_cell_angle_gamma   42.52280450
_symmetry_Int_Tables_number   1
_chemical_formula_structural   RbCoAs2Ru
_chemical_formula_sum   'Rb1 Co1 As2 Ru1'
_cell_volume   112.15438850
_cell_formula_units_Z   1
loop_
 _symmetry_equiv_pos_site_id
 _symmetry_equiv_pos_as_xyz
  1  'x, y, z'
loop_
 _atom_site_type_symbol
 _atom_site_label
 _atom_site_symmetry_multiplicity
 _atom_site_fract_x
 _atom_site_fract_y
 _atom_site_fract_z
 _atom_site_occupancy
  Rb  Rb0  1  0.000000  0.000000  0.000000  1
  Co  Co1  1  0.750000  0.250000  0.500000  1
  As  As2  1  0.656705  0.656705  0.000000  1
  As  As3  1  0.343295  0.343295  0.000000  1
  Ru  Ru4  1  0.250000  0.750000  0.500000  1
