# generated using pymatgen
data_Sc3Nb3B4(Ir2Ru3)2
_symmetry_space_group_name_H-M   'P 1'
_cell_length_a   9.54098111
_cell_length_b   9.54890072
_cell_length_c   3.05677000
_cell_angle_alpha   90.00000000
_cell_angle_beta   90.00000000
_cell_angle_gamma   90.04313707
_symmetry_Int_Tables_number   1
_chemical_formula_structural   Sc3Nb3B4(Ir2Ru3)2
_chemical_formula_sum   'Sc3 Nb3 B4 Ir4 Ru6'
_cell_volume   278.48964611
_cell_formula_units_Z   1
loop_
 _symmetry_equiv_pos_site_id
 _symmetry_equiv_pos_as_xyz
  1  'x, y, z'
loop_
 _atom_site_type_symbol
 _atom_site_label
 _atom_site_symmetry_multiplicity
 _atom_site_fract_x
 _atom_site_fract_y
 _atom_site_fract_z
 _atom_site_occupancy
  Sc  Sc0  1  0.175402  0.825051  0.000000  1
  Sc  Sc1  1  0.325348  0.327136  0.000000  1
  Sc  Sc2  1  0.672931  0.674276  0.000000  1
  Nb  Nb3  1  0.497079  0.999479  0.000000  1
  Nb  Nb4  1  0.002022  0.502297  0.000000  1
  Nb  Nb5  1  0.825072  0.174221  0.000000  1
  B  B6  1  0.624452  0.385424  0.000000  1
  B  B7  1  0.376250  0.614458  0.000000  1
  B  B8  1  0.125574  0.115753  0.000000  1
  B  B9  1  0.874338  0.883916  0.000000  1
  Ir  Ir10  1  0.577308  0.217797  0.500000  1
  Ir  Ir11  1  0.428310  0.778808  0.500000  1
  Ir  Ir12  1  0.068965  0.278978  0.500000  1
  Ir  Ir13  1  0.925554  0.721623  0.500000  1
  Ru  Ru14  1  0.501574  0.498220  0.500000  1
  Ru  Ru15  1  0.996431  0.003749  0.500000  1
  Ru  Ru16  1  0.282155  0.071485  0.500000  1
  Ru  Ru17  1  0.717514  0.935172  0.500000  1
  Ru  Ru18  1  0.217539  0.570420  0.500000  1
  Ru  Ru19  1  0.786181  0.421737  0.500000  1
