# generated using pymatgen
data_YbLu5(Co7C2)2
_symmetry_space_group_name_H-M   'P 1'
_cell_length_a   5.00640800
_cell_length_b   5.00640706
_cell_length_c   13.65349700
_cell_angle_alpha   90.00000000
_cell_angle_beta   90.00000000
_cell_angle_gamma   119.99999301
_symmetry_Int_Tables_number   1
_chemical_formula_structural   YbLu5(Co7C2)2
_chemical_formula_sum   'Yb1 Lu5 Co14 C4'
_cell_volume   296.36503156
_cell_formula_units_Z   1
loop_
 _symmetry_equiv_pos_site_id
 _symmetry_equiv_pos_as_xyz
  1  'x, y, z'
loop_
 _atom_site_type_symbol
 _atom_site_label
 _atom_site_symmetry_multiplicity
 _atom_site_fract_x
 _atom_site_fract_y
 _atom_site_fract_z
 _atom_site_occupancy
  Yb  Yb0  1  0.333333  0.666667  0.750000  1
  Lu  Lu1  1  0.333333  0.666667  0.535839  1
  Lu  Lu2  1  0.666667  0.333333  0.033427  1
  Lu  Lu3  1  0.666667  0.333333  0.466573  1
  Lu  Lu4  1  0.333333  0.666667  0.964161  1
  Lu  Lu5  1  0.666667  0.333333  0.250000  1
  Co  Co6  1  0.000000  0.000000  0.999049  1
  Co  Co7  1  0.000000  0.000000  0.500951  1
  Co  Co8  1  0.164688  0.329376  0.153622  1
  Co  Co9  1  0.835053  0.670105  0.654064  1
  Co  Co10  1  0.670624  0.835312  0.153622  1
  Co  Co11  1  0.164688  0.835312  0.153622  1
  Co  Co12  1  0.835053  0.164947  0.654064  1
  Co  Co13  1  0.329895  0.164947  0.654064  1
  Co  Co14  1  0.835053  0.670105  0.845936  1
  Co  Co15  1  0.835053  0.164947  0.845936  1
  Co  Co16  1  0.329895  0.164947  0.845936  1
  Co  Co17  1  0.670624  0.835312  0.346378  1
  Co  Co18  1  0.164688  0.835312  0.346378  1
  Co  Co19  1  0.164688  0.329376  0.346378  1
  C  C20  1  0.333333  0.666667  0.250000  1
  C  C21  1  0.666667  0.333333  0.750000  1
  C  C22  1  0.000000  0.000000  0.250000  1
  C  C23  1  0.000000  0.000000  0.750000  1
