# generated using pymatgen
data_SmBi(IO4)2
_symmetry_space_group_name_H-M   'P 1'
_cell_length_a   5.70243965
_cell_length_b   5.75095000
_cell_length_c   11.14139883
_cell_angle_alpha   90.00000000
_cell_angle_beta   89.78923950
_cell_angle_gamma   90.00000000
_symmetry_Int_Tables_number   1
_chemical_formula_structural   SmBi(IO4)2
_chemical_formula_sum   'Sm2 Bi2 I4 O16'
_cell_volume   365.37352274
_cell_formula_units_Z   2
loop_
 _symmetry_equiv_pos_site_id
 _symmetry_equiv_pos_as_xyz
  1  'x, y, z'
loop_
 _atom_site_type_symbol
 _atom_site_label
 _atom_site_symmetry_multiplicity
 _atom_site_fract_x
 _atom_site_fract_y
 _atom_site_fract_z
 _atom_site_occupancy
  Sm  Sm0  1  0.492220  0.313443  0.887337  1
  Sm  Sm1  1  0.507780  0.813443  0.112663  1
  Bi  Bi2  1  0.014303  0.812536  0.899106  1
  Bi  Bi3  1  0.985697  0.312536  0.100894  1
  I  I4  1  0.007699  0.330553  0.634513  1
  I  I5  1  0.992301  0.830553  0.365487  1
  I  I6  1  0.498013  0.825191  0.637052  1
  I  I7  1  0.501987  0.325191  0.362948  1
  O  O8  1  0.243181  0.064552  0.006772  1
  O  O9  1  0.756819  0.564552  0.993228  1
  O  O10  1  0.256122  0.568552  0.004384  1
  O  O11  1  0.743878  0.068552  0.995616  1
  O  O12  1  0.137536  0.418088  0.779555  1
  O  O13  1  0.862464  0.918088  0.220445  1
  O  O14  1  0.384173  0.938567  0.781564  1
  O  O15  1  0.615827  0.438567  0.218436  1
  O  O16  1  0.837223  0.093432  0.707726  1
  O  O17  1  0.162777  0.593432  0.292274  1
  O  O18  1  0.638883  0.570229  0.712228  1
  O  O19  1  0.361117  0.070229  0.287772  1
  O  O20  1  0.250528  0.166840  0.562982  1
  O  O21  1  0.749472  0.666840  0.437018  1
  O  O22  1  0.244759  0.674839  0.568938  1
  O  O23  1  0.755241  0.174839  0.431062  1
