# generated using pymatgen
data_LiTm2(Co3P2)3
_symmetry_space_group_name_H-M   'P 1'
_cell_length_a   3.65865300
_cell_length_b   10.23021200
_cell_length_c   11.79584800
_cell_angle_alpha   90.00000000
_cell_angle_beta   90.00000000
_cell_angle_gamma   90.00000000
_symmetry_Int_Tables_number   1
_chemical_formula_structural   LiTm2(Co3P2)3
_chemical_formula_sum   'Li2 Tm4 Co18 P12'
_cell_volume   441.50438637
_cell_formula_units_Z   2
loop_
 _symmetry_equiv_pos_site_id
 _symmetry_equiv_pos_as_xyz
  1  'x, y, z'
loop_
 _atom_site_type_symbol
 _atom_site_label
 _atom_site_symmetry_multiplicity
 _atom_site_fract_x
 _atom_site_fract_y
 _atom_site_fract_z
 _atom_site_occupancy
  Li  Li0  1  0.250000  0.704631  0.990587  1
  Li  Li1  1  0.250000  0.795369  0.490587  1
  Tm  Tm2  1  0.250000  0.580195  0.702682  1
  Tm  Tm3  1  0.250000  0.919805  0.202682  1
  Tm  Tm4  1  0.750000  0.418934  0.297381  1
  Tm  Tm5  1  0.750000  0.081066  0.797381  1
  Co  Co6  1  0.750000  0.287678  0.008931  1
  Co  Co7  1  0.750000  0.212322  0.508931  1
  Co  Co8  1  0.250000  0.404366  0.486656  1
  Co  Co9  1  0.250000  0.095634  0.986656  1
  Co  Co10  1  0.750000  0.591179  0.515018  1
  Co  Co11  1  0.750000  0.908821  0.015018  1
  Co  Co12  1  0.250000  0.223083  0.175533  1
  Co  Co13  1  0.250000  0.276917  0.675533  1
  Co  Co14  1  0.750000  0.780938  0.825346  1
  Co  Co15  1  0.750000  0.719062  0.325346  1
  Co  Co16  1  0.250000  0.882072  0.698582  1
  Co  Co17  1  0.250000  0.617928  0.198582  1
  Co  Co18  1  0.750000  0.119592  0.299916  1
  Co  Co19  1  0.750000  0.380408  0.799916  1
  Co  Co20  1  0.250000  0.464293  0.931522  1
  Co  Co21  1  0.250000  0.035707  0.431522  1
  Co  Co22  1  0.750000  0.532843  0.066673  1
  Co  Co23  1  0.750000  0.967157  0.566673  1
  P  P24  1  0.250000  0.421205  0.112611  1
  P  P25  1  0.250000  0.078795  0.612611  1
  P  P26  1  0.750000  0.578486  0.883864  1
  P  P27  1  0.750000  0.921514  0.383864  1
  P  P28  1  0.250000  0.267760  0.867396  1
  P  P29  1  0.250000  0.232240  0.367396  1
  P  P30  1  0.750000  0.730557  0.137478  1
  P  P31  1  0.750000  0.769443  0.637478  1
  P  P32  1  0.250000  0.599567  0.391842  1
  P  P33  1  0.250000  0.900433  0.891842  1
  P  P34  1  0.750000  0.397380  0.607979  1
  P  P35  1  0.750000  0.102620  0.107979  1
