# generated using pymatgen
data_Ti6GaGe5Rh12
_symmetry_space_group_name_H-M   'P 1'
_cell_length_a   4.00852100
_cell_length_b   7.21113100
_cell_length_c   12.02948500
_cell_angle_alpha   90.00000000
_cell_angle_beta   90.00000476
_cell_angle_gamma   90.00000000
_symmetry_Int_Tables_number   1
_chemical_formula_structural   Ti6GaGe5Rh12
_chemical_formula_sum   'Ti6 Ga1 Ge5 Rh12'
_cell_volume   347.72393309
_cell_formula_units_Z   1
loop_
 _symmetry_equiv_pos_site_id
 _symmetry_equiv_pos_as_xyz
  1  'x, y, z'
loop_
 _atom_site_type_symbol
 _atom_site_label
 _atom_site_symmetry_multiplicity
 _atom_site_fract_x
 _atom_site_fract_y
 _atom_site_fract_z
 _atom_site_occupancy
  Ti  Ti0  1  0.000000  0.500001  0.998489  1
  Ti  Ti1  1  0.500007  0.000000  0.166495  1
  Ti  Ti2  1  0.000009  0.500001  0.333345  1
  Ti  Ti3  1  0.500001  0.000000  0.500183  1
  Ti  Ti4  1  0.999991  0.500001  0.668167  1
  Ti  Ti5  1  0.499993  0.000000  0.833326  1
  Ga  Ga6  1  0.499993  0.500001  0.833302  1
  Ge  Ge7  1  0.999999  0.000000  0.999763  1
  Ge  Ge8  1  0.500008  0.500001  0.165981  1
  Ge  Ge9  1  0.000009  0.000000  0.333365  1
  Ge  Ge10  1  0.500001  0.500001  0.500711  1
  Ge  Ge11  1  0.999991  0.000000  0.666878  1
  Rh  Rh12  1  0.500001  0.249375  0.000832  1
  Rh  Rh13  1  0.500001  0.750625  0.000832  1
  Rh  Rh14  1  0.000009  0.249864  0.167511  1
  Rh  Rh15  1  0.000009  0.750136  0.167511  1
  Rh  Rh16  1  0.500005  0.249387  0.333336  1
  Rh  Rh17  1  0.500005  0.750613  0.333336  1
  Rh  Rh18  1  0.000000  0.249897  0.499162  1
  Rh  Rh19  1  0.000000  0.750103  0.499162  1
  Rh  Rh20  1  0.499996  0.249344  0.665829  1
  Rh  Rh21  1  0.499996  0.750656  0.665829  1
  Rh  Rh22  1  0.999989  0.248944  0.833326  1
  Rh  Rh23  1  0.999989  0.751056  0.833326  1
