# generated using pymatgen
data_Th5Co19(Si5P)2
_symmetry_space_group_name_H-M   'P 1'
_cell_length_a   12.31385894
_cell_length_b   12.31385849
_cell_length_c   3.81971100
_cell_angle_alpha   90.00000000
_cell_angle_beta   90.00000000
_cell_angle_gamma   120.30013120
_symmetry_Int_Tables_number   1
_chemical_formula_structural   Th5Co19(Si5P)2
_chemical_formula_sum   'Th5 Co19 Si10 P2'
_cell_volume   500.06684731
_cell_formula_units_Z   1
loop_
 _symmetry_equiv_pos_site_id
 _symmetry_equiv_pos_as_xyz
  1  'x, y, z'
loop_
 _atom_site_type_symbol
 _atom_site_label
 _atom_site_symmetry_multiplicity
 _atom_site_fract_x
 _atom_site_fract_y
 _atom_site_fract_z
 _atom_site_occupancy
  Th  Th0  1  0.668011  0.332729  0.000000  1
  Th  Th1  1  0.332729  0.668011  0.000000  1
  Th  Th2  1  0.189624  0.189624  0.500000  1
  Th  Th3  1  0.808543  0.000054  0.500000  1
  Th  Th4  1  0.000054  0.808543  0.500000  1
  Co  Co5  1  0.565513  0.565513  0.000000  1
  Co  Co6  1  0.435011  0.000168  0.000000  1
  Co  Co7  1  0.000168  0.435011  0.000000  1
  Co  Co8  1  0.823202  0.196171  0.000000  1
  Co  Co9  1  0.803939  0.622694  0.000000  1
  Co  Co10  1  0.374199  0.177668  0.000000  1
  Co  Co11  1  0.196171  0.823202  0.000000  1
  Co  Co12  1  0.622694  0.803939  0.000000  1
  Co  Co13  1  0.177668  0.374199  0.000000  1
  Co  Co14  1  0.641078  0.123764  0.500000  1
  Co  Co15  1  0.877778  0.516984  0.500000  1
  Co  Co16  1  0.482529  0.359244  0.500000  1
  Co  Co17  1  0.123764  0.641078  0.500000  1
  Co  Co18  1  0.516984  0.877778  0.500000  1
  Co  Co19  1  0.359244  0.482529  0.500000  1
  Co  Co20  1  0.719871  0.719871  0.500000  1
  Co  Co21  1  0.275982  0.000402  0.500000  1
  Co  Co22  1  0.000402  0.275982  0.500000  1
  Co  Co23  1  0.003194  0.003194  0.000000  1
  Si  Si24  1  0.379862  0.379862  0.000000  1
  Si  Si25  1  0.619772  0.000791  0.000000  1
  Si  Si26  1  0.000791  0.619772  0.000000  1
  Si  Si27  1  0.842686  0.314434  0.500000  1
  Si  Si28  1  0.686365  0.526358  0.500000  1
  Si  Si29  1  0.473341  0.158726  0.500000  1
  Si  Si30  1  0.314434  0.842686  0.500000  1
  Si  Si31  1  0.526358  0.686365  0.500000  1
  Si  Si32  1  0.158726  0.473341  0.500000  1
  Si  Si33  1  0.814023  0.814023  0.000000  1
  P  P34  1  0.185014  0.000274  0.000000  1
  P  P35  1  0.000274  0.185014  0.000000  1
