# generated using pymatgen
data_LaYbZnIr2
_symmetry_space_group_name_H-M   'P 1'
_cell_length_a   5.61901664
_cell_length_b   5.61901622
_cell_length_c   5.61901618
_cell_angle_alpha   136.14493212
_cell_angle_beta   117.31764252
_cell_angle_gamma   79.62920304
_symmetry_Int_Tables_number   1
_chemical_formula_structural   LaYbZnIr2
_chemical_formula_sum   'La1 Yb1 Zn1 Ir2'
_cell_volume   105.87612795
_cell_formula_units_Z   1
loop_
 _symmetry_equiv_pos_site_id
 _symmetry_equiv_pos_as_xyz
  1  'x, y, z'
loop_
 _atom_site_type_symbol
 _atom_site_label
 _atom_site_symmetry_multiplicity
 _atom_site_fract_x
 _atom_site_fract_y
 _atom_site_fract_z
 _atom_site_occupancy
  La  La0  1  0.702688  0.202688  0.500000  1
  Yb  Yb1  1  0.295341  0.795342  0.500001  1
  Zn  Zn2  1  0.006695  0.006695  0.000000  1
  Ir  Ir3  1  0.725864  0.497637  0.228228  1
  Ir  Ir4  1  0.269409  0.497638  0.771772  1
