# generated using pymatgen
data_Na3(CuTe)4
_symmetry_space_group_name_H-M   'P 1'
_cell_length_a   4.15289000
_cell_length_b   7.96588000
_cell_length_c   16.05373900
_cell_angle_alpha   90.00000000
_cell_angle_beta   90.00000000
_cell_angle_gamma   90.00000000
_symmetry_Int_Tables_number   1
_chemical_formula_structural   Na3(CuTe)4
_chemical_formula_sum   'Na6 Cu8 Te8'
_cell_volume   531.08053690
_cell_formula_units_Z   2
loop_
 _symmetry_equiv_pos_site_id
 _symmetry_equiv_pos_as_xyz
  1  'x, y, z'
loop_
 _atom_site_type_symbol
 _atom_site_label
 _atom_site_symmetry_multiplicity
 _atom_site_fract_x
 _atom_site_fract_y
 _atom_site_fract_z
 _atom_site_occupancy
  Na  Na0  1  0.000000  0.487956  0.744762  1
  Na  Na1  1  0.000000  0.512044  0.255238  1
  Na  Na2  1  0.000000  0.012044  0.244762  1
  Na  Na3  1  0.500000  0.500000  0.500000  1
  Na  Na4  1  0.500000  0.000000  0.000000  1
  Na  Na5  1  0.000000  0.987956  0.755238  1
  Cu  Cu6  1  0.500000  0.942576  0.580996  1
  Cu  Cu7  1  0.000000  0.374745  0.064383  1
  Cu  Cu8  1  0.500000  0.442576  0.919004  1
  Cu  Cu9  1  0.000000  0.874745  0.435617  1
  Cu  Cu10  1  0.500000  0.057424  0.419004  1
  Cu  Cu11  1  0.000000  0.125255  0.564383  1
  Cu  Cu12  1  0.000000  0.625255  0.935617  1
  Cu  Cu13  1  0.500000  0.557424  0.080996  1
  Te  Te14  1  0.500000  0.765667  0.346507  1
  Te  Te15  1  0.500000  0.734333  0.846507  1
  Te  Te16  1  0.500000  0.265667  0.153493  1
  Te  Te17  1  0.000000  0.756163  0.590460  1
  Te  Te18  1  0.000000  0.256163  0.909540  1
  Te  Te19  1  0.000000  0.243837  0.409540  1
  Te  Te20  1  0.000000  0.743837  0.090460  1
  Te  Te21  1  0.500000  0.234333  0.653493  1
