# generated using pymatgen
data_Lu2Th2(Ga8Pt3)3
_symmetry_space_group_name_H-M   'P 1'
_cell_length_a   7.61043911
_cell_length_b   7.62351280
_cell_length_c   13.34625097
_cell_angle_alpha   84.41556008
_cell_angle_beta   78.85556525
_cell_angle_gamma   60.02307575
_symmetry_Int_Tables_number   1
_chemical_formula_structural   Lu2Th2(Ga8Pt3)3
_chemical_formula_sum   'Lu2 Th2 Ga24 Pt9'
_cell_volume   658.09392169
_cell_formula_units_Z   1
loop_
 _symmetry_equiv_pos_site_id
 _symmetry_equiv_pos_as_xyz
  1  'x, y, z'
loop_
 _atom_site_type_symbol
 _atom_site_label
 _atom_site_symmetry_multiplicity
 _atom_site_fract_x
 _atom_site_fract_y
 _atom_site_fract_z
 _atom_site_occupancy
  Lu  Lu0  1  0.733724  0.498500  0.806505  1
  Lu  Lu1  1  0.266276  0.501500  0.193495  1
  Th  Th2  1  0.395042  0.167910  0.808437  1
  Th  Th3  1  0.604958  0.832090  0.191563  1
  Ga  Ga4  1  0.688655  0.828552  0.937949  1
  Ga  Ga5  1  0.311345  0.171448  0.062051  1
  Ga  Ga6  1  0.145802  0.833326  0.560275  1
  Ga  Ga7  1  0.854198  0.166674  0.439725  1
  Ga  Ga8  1  0.480789  0.167402  0.556136  1
  Ga  Ga9  1  0.519211  0.832598  0.443864  1
  Ga  Ga10  1  0.215316  0.169662  0.328982  1
  Ga  Ga11  1  0.784684  0.830338  0.671018  1
  Ga  Ga12  1  0.438417  0.508327  0.671888  1
  Ga  Ga13  1  0.561583  0.491673  0.328112  1
  Ga  Ga14  1  0.105384  0.161919  0.670103  1
  Ga  Ga15  1  0.894616  0.838081  0.329897  1
  Ga  Ga16  1  0.357838  0.500850  0.941215  1
  Ga  Ga17  1  0.642162  0.499150  0.058785  1
  Ga  Ga18  1  0.013318  0.170759  0.945440  1
  Ga  Ga19  1  0.986682  0.829241  0.054560  1
  Ga  Ga20  1  0.185563  0.500057  0.442379  1
  Ga  Ga21  1  0.814437  0.499943  0.557621  1
  Ga  Ga22  1  0.734052  0.168741  0.182309  1
  Ga  Ga23  1  0.265948  0.831259  0.817691  1
  Ga  Ga24  1  0.057476  0.634998  0.816347  1
  Ga  Ga25  1  0.942524  0.365002  0.183653  1
  Ga  Ga26  1  0.861366  0.042434  0.816690  1
  Ga  Ga27  1  0.138634  0.957566  0.183310  1
  Pt  Pt28  1  0.120535  0.492475  0.639489  1
  Pt  Pt29  1  0.879465  0.507525  0.360511  1
  Pt  Pt30  1  0.658865  0.167340  0.999710  1
  Pt  Pt31  1  0.341135  0.832660  0.000290  1
  Pt  Pt32  1  0.539105  0.166059  0.360259  1
  Pt  Pt33  1  0.460895  0.833941  0.639741  1
  Pt  Pt34  1  0.779138  0.173929  0.638026  1
  Pt  Pt35  1  0.220862  0.826071  0.361974  1
  Pt  Pt36  1  0.000000  0.500000  0.000000  1
