# generated using pymatgen
data_Dy2Y2Ni13C4
_symmetry_space_group_name_H-M   'P 1'
_cell_length_a   8.39781476
_cell_length_b   8.39781500
_cell_length_c   3.86303900
_cell_angle_alpha   90.00000000
_cell_angle_beta   90.00000000
_cell_angle_gamma   91.13593716
_symmetry_Int_Tables_number   1
_chemical_formula_structural   Dy2Y2Ni13C4
_chemical_formula_sum   'Dy2 Y2 Ni13 C4'
_cell_volume   272.38069779
_cell_formula_units_Z   1
loop_
 _symmetry_equiv_pos_site_id
 _symmetry_equiv_pos_as_xyz
  1  'x, y, z'
loop_
 _atom_site_type_symbol
 _atom_site_label
 _atom_site_symmetry_multiplicity
 _atom_site_fract_x
 _atom_site_fract_y
 _atom_site_fract_z
 _atom_site_occupancy
  Dy  Dy0  1  0.812901  0.187099  0.500000  1
  Dy  Dy1  1  0.187099  0.812901  0.500000  1
  Y  Y2  1  0.651093  0.651093  0.500000  1
  Y  Y3  1  0.348907  0.348907  0.500000  1
  Ni  Ni4  1  0.500000  0.000000  0.500000  1
  Ni  Ni5  1  0.000000  0.500000  0.500000  1
  Ni  Ni6  1  0.000000  0.000000  0.000000  1
  Ni  Ni7  1  0.430332  0.784722  0.000000  1
  Ni  Ni8  1  0.569668  0.215278  0.000000  1
  Ni  Ni9  1  0.215278  0.569668  0.000000  1
  Ni  Ni10  1  0.784722  0.430332  0.000000  1
  Ni  Ni11  1  0.709005  0.926377  0.000000  1
  Ni  Ni12  1  0.290995  0.073623  0.000000  1
  Ni  Ni13  1  0.073623  0.290995  0.000000  1
  Ni  Ni14  1  0.926377  0.709005  0.000000  1
  Ni  Ni15  1  0.877099  0.877099  0.500000  1
  Ni  Ni16  1  0.122901  0.122901  0.500000  1
  C  C17  1  0.442952  0.557048  0.000000  1
  C  C18  1  0.557048  0.442952  0.000000  1
  C  C19  1  0.500000  0.000000  0.000000  1
  C  C20  1  0.000000  0.500000  0.000000  1
