# generated using pymatgen
data_Ho4Ga18Ir5Au
_symmetry_space_group_name_H-M   'P 1'
_cell_length_a   7.62247785
_cell_length_b   7.62244745
_cell_length_c   9.49867848
_cell_angle_alpha   89.98242028
_cell_angle_beta   89.98145721
_cell_angle_gamma   119.87332079
_symmetry_Int_Tables_number   1
_chemical_formula_structural   Ho4Ga18Ir5Au
_chemical_formula_sum   'Ho4 Ga18 Ir5 Au1'
_cell_volume   478.56100460
_cell_formula_units_Z   1
loop_
 _symmetry_equiv_pos_site_id
 _symmetry_equiv_pos_as_xyz
  1  'x, y, z'
loop_
 _atom_site_type_symbol
 _atom_site_label
 _atom_site_symmetry_multiplicity
 _atom_site_fract_x
 _atom_site_fract_y
 _atom_site_fract_z
 _atom_site_occupancy
  Ho  Ho0  1  0.994603  0.666783  0.251105  1
  Ho  Ho1  1  0.000784  0.329794  0.748935  1
  Ho  Ho2  1  0.670207  0.999217  0.251065  1
  Ho  Ho3  1  0.333219  0.005399  0.748896  1
  Ga  Ga4  1  0.126861  0.124429  0.250848  1
  Ga  Ga5  1  0.875571  0.873139  0.749154  1
  Ga  Ga6  1  0.008426  0.334419  0.084526  1
  Ga  Ga7  1  0.010269  0.674037  0.916208  1
  Ga  Ga8  1  0.002807  0.665883  0.579254  1
  Ga  Ga9  1  0.334117  0.997193  0.420747  1
  Ga  Ga10  1  0.998470  0.334461  0.419928  1
  Ga  Ga11  1  0.665539  0.001533  0.580073  1
  Ga  Ga12  1  0.665581  0.991574  0.915475  1
  Ga  Ga13  1  0.325963  0.989732  0.083792  1
  Ga  Ga14  1  0.329846  0.330608  0.564782  1
  Ga  Ga15  1  0.669392  0.670154  0.435219  1
  Ga  Ga16  1  0.668343  0.675948  0.071327  1
  Ga  Ga17  1  0.324052  0.331657  0.928674  1
  Ga  Ga18  1  0.340684  0.549272  0.251293  1
  Ga  Ga19  1  0.660281  0.459331  0.743421  1
  Ga  Ga20  1  0.540670  0.339720  0.256576  1
  Ga  Ga21  1  0.450729  0.659317  0.748708  1
  Ir  Ir22  1  0.330322  0.669689  0.000000  1
  Ir  Ir23  1  0.328789  0.671214  0.500001  1
  Ir  Ir24  1  0.671825  0.328179  0.499987  1
  Ir  Ir25  1  0.000558  0.999425  0.000001  1
  Ir  Ir26  1  0.999662  0.000318  0.500003  1
  Au  Au27  1  0.672428  0.327575  0.000000  1
