# generated using pymatgen
data_Zn3FeP6N13
_symmetry_space_group_name_H-M   'P 1'
_cell_length_a   7.00248161
_cell_length_b   6.97938205
_cell_length_c   7.00248176
_cell_angle_alpha   109.40440558
_cell_angle_beta   109.53794138
_cell_angle_gamma   109.40441770
_symmetry_Int_Tables_number   1
_chemical_formula_structural   Zn3FeP6N13
_chemical_formula_sum   'Zn3 Fe1 P6 N13'
_cell_volume   263.66743325
_cell_formula_units_Z   1
loop_
 _symmetry_equiv_pos_site_id
 _symmetry_equiv_pos_as_xyz
  1  'x, y, z'
loop_
 _atom_site_type_symbol
 _atom_site_label
 _atom_site_symmetry_multiplicity
 _atom_site_fract_x
 _atom_site_fract_y
 _atom_site_fract_z
 _atom_site_occupancy
  Zn  Zn0  1  0.715540  0.998848  0.000000  1
  Zn  Zn1  1  0.000000  0.998848  0.715540  1
  Zn  Zn2  1  0.284460  0.283308  0.284460  1
  Fe  Fe3  1  0.000000  0.705647  0.000000  1
  P  P4  1  0.498496  0.249947  0.748298  1
  P  P5  1  0.501504  0.751451  0.249803  1
  P  P6  1  0.750197  0.501649  0.251702  1
  P  P7  1  0.249803  0.751451  0.501504  1
  P  P8  1  0.748298  0.249947  0.498496  1
  P  P9  1  0.251702  0.501649  0.750197  1
  N  N10  1  0.000000  0.738888  0.457105  1
  N  N11  1  0.274319  0.539854  0.538893  1
  N  N12  1  0.736687  0.462368  0.000000  1
  N  N13  1  0.263313  0.725682  0.263313  1
  N  N14  1  0.461107  0.000961  0.735426  1
  N  N15  1  0.725681  0.265534  0.264574  1
  N  N16  1  0.542895  0.281782  0.542895  1
  N  N17  1  0.735426  0.000961  0.461107  1
  N  N18  1  0.264574  0.265534  0.725681  1
  N  N19  1  0.457105  0.738888  0.000000  1
  N  N20  1  0.538893  0.539854  0.274319  1
  N  N21  1  0.000000  0.462368  0.736687  1
  N  N22  1  0.000000  0.984580  0.000000  1
