# generated using pymatgen
data_Ac2Nd2P7Ir8
_symmetry_space_group_name_H-M   'P 1'
_cell_length_a   4.02192500
_cell_length_b   13.02618650
_cell_length_c   13.37992832
_cell_angle_alpha   81.09591048
_cell_angle_beta   90.00000000
_cell_angle_gamma   90.00000000
_symmetry_Int_Tables_number   1
_chemical_formula_structural   Ac2Nd2P7Ir8
_chemical_formula_sum   'Ac4 Nd4 P14 Ir16'
_cell_volume   692.53143840
_cell_formula_units_Z   2
loop_
 _symmetry_equiv_pos_site_id
 _symmetry_equiv_pos_as_xyz
  1  'x, y, z'
loop_
 _atom_site_type_symbol
 _atom_site_label
 _atom_site_symmetry_multiplicity
 _atom_site_fract_x
 _atom_site_fract_y
 _atom_site_fract_z
 _atom_site_occupancy
  Ac  Ac0  1  0.250000  0.106557  0.787682  1
  Ac  Ac1  1  0.750000  0.893443  0.212318  1
  Ac  Ac2  1  0.250000  0.281739  0.105075  1
  Ac  Ac3  1  0.750000  0.718261  0.894925  1
  Nd  Nd4  1  0.250000  0.518521  0.294339  1
  Nd  Nd5  1  0.750000  0.481479  0.705661  1
  Nd  Nd6  1  0.250000  0.209611  0.440137  1
  Nd  Nd7  1  0.750000  0.790389  0.559863  1
  P  P8  1  0.250000  0.053600  0.097064  1
  P  P9  1  0.750000  0.946400  0.902936  1
  P  P10  1  0.250000  0.318863  0.683938  1
  P  P11  1  0.750000  0.681137  0.316062  1
  P  P12  1  0.250000  0.606946  0.562691  1
  P  P13  1  0.750000  0.393054  0.437309  1
  P  P14  1  0.250000  0.844132  0.715416  1
  P  P15  1  0.750000  0.155868  0.284584  1
  P  P16  1  0.750000  0.258712  0.915539  1
  P  P17  1  0.250000  0.741288  0.084461  1
  P  P18  1  0.750000  0.091612  0.587490  1
  P  P19  1  0.250000  0.908388  0.412510  1
  P  P20  1  0.750000  0.474729  0.128539  1
  P  P21  1  0.250000  0.525271  0.871461  1
  Ir  Ir22  1  0.250000  0.988246  0.575409  1
  Ir  Ir23  1  0.750000  0.011754  0.424591  1
  Ir  Ir24  1  0.250000  0.662170  0.727509  1
  Ir  Ir25  1  0.750000  0.337830  0.272491  1
  Ir  Ir26  1  0.250000  0.549163  0.050073  1
  Ir  Ir27  1  0.750000  0.450837  0.949927  1
  Ir  Ir28  1  0.250000  0.063189  0.274164  1
  Ir  Ir29  1  0.750000  0.936811  0.725836  1
  Ir  Ir30  1  0.250000  0.424453  0.524739  1
  Ir  Ir31  1  0.750000  0.575547  0.475261  1
  Ir  Ir32  1  0.250000  0.916128  0.998958  1
  Ir  Ir33  1  0.750000  0.083872  0.001042  1
  Ir  Ir34  1  0.250000  0.726723  0.398605  1
  Ir  Ir35  1  0.750000  0.273277  0.601395  1
  Ir  Ir36  1  0.250000  0.344044  0.856412  1
  Ir  Ir37  1  0.750000  0.655956  0.143588  1
