# generated using pymatgen
data_Tb2Y2ReRuC4
_symmetry_space_group_name_H-M   'P 1'
_cell_length_a   5.13379000
_cell_length_b   6.54910700
_cell_length_c   9.87738100
_cell_angle_alpha   90.00000000
_cell_angle_beta   90.00000000
_cell_angle_gamma   90.00000000
_symmetry_Int_Tables_number   1
_chemical_formula_structural   Tb2Y2ReRuC4
_chemical_formula_sum   'Tb4 Y4 Re2 Ru2 C8'
_cell_volume   332.09473612
_cell_formula_units_Z   2
loop_
 _symmetry_equiv_pos_site_id
 _symmetry_equiv_pos_as_xyz
  1  'x, y, z'
loop_
 _atom_site_type_symbol
 _atom_site_label
 _atom_site_symmetry_multiplicity
 _atom_site_fract_x
 _atom_site_fract_y
 _atom_site_fract_z
 _atom_site_occupancy
  Tb  Tb0  1  0.750000  0.468738  0.784614  1
  Tb  Tb1  1  0.250000  0.031262  0.284614  1
  Tb  Tb2  1  0.750000  0.971014  0.714934  1
  Tb  Tb3  1  0.250000  0.528986  0.214934  1
  Y  Y4  1  0.750000  0.822883  0.054333  1
  Y  Y5  1  0.250000  0.677117  0.554333  1
  Y  Y6  1  0.750000  0.318113  0.443598  1
  Y  Y7  1  0.250000  0.181887  0.943598  1
  Re  Re8  1  0.750000  0.777011  0.363989  1
  Re  Re9  1  0.250000  0.722989  0.863989  1
  Ru  Ru10  1  0.750000  0.276251  0.135214  1
  Ru  Ru11  1  0.250000  0.223749  0.635214  1
  C  C12  1  0.750000  0.177599  0.951056  1
  C  C13  1  0.250000  0.821055  0.049651  1
  C  C14  1  0.750000  0.678945  0.549651  1
  C  C15  1  0.250000  0.322401  0.451056  1
  C  C16  1  0.750000  0.042149  0.260168  1
  C  C17  1  0.250000  0.457851  0.760168  1
  C  C18  1  0.750000  0.543701  0.242444  1
  C  C19  1  0.250000  0.956299  0.742444  1
