# generated using pymatgen
data_DyPa3(CdPt2)2
_symmetry_space_group_name_H-M   'P 1'
_cell_length_a   7.85522709
_cell_length_b   7.85522709
_cell_length_c   3.64046000
_cell_angle_alpha   90.00000000
_cell_angle_beta   90.00000000
_cell_angle_gamma   91.08804305
_symmetry_Int_Tables_number   1
_chemical_formula_structural   DyPa3(CdPt2)2
_chemical_formula_sum   'Dy1 Pa3 Cd2 Pt4'
_cell_volume   224.59259914
_cell_formula_units_Z   1
loop_
 _symmetry_equiv_pos_site_id
 _symmetry_equiv_pos_as_xyz
  1  'x, y, z'
loop_
 _atom_site_type_symbol
 _atom_site_label
 _atom_site_symmetry_multiplicity
 _atom_site_fract_x
 _atom_site_fract_y
 _atom_site_fract_z
 _atom_site_occupancy
  Dy  Dy0  1  0.671990  0.828011  0.499999  1
  Pa  Pa1  1  0.332349  0.167652  0.499999  1
  Pa  Pa2  1  0.829123  0.330026  0.499999  1
  Pa  Pa3  1  0.169975  0.670878  0.499999  1
  Cd  Cd4  1  0.994283  0.998564  0.000000  1
  Cd  Cd5  1  0.501436  0.505717  0.000000  1
  Pt  Pt6  1  0.626765  0.141456  0.000000  1
  Pt  Pt7  1  0.136548  0.363453  0.000000  1
  Pt  Pt8  1  0.878990  0.621011  0.000000  1
  Pt  Pt9  1  0.358545  0.873236  0.000000  1
