# generated using pymatgen
data_Ac2La3Zn2Ru3
_symmetry_space_group_name_H-M   'P 1'
_cell_length_a   8.74492872
_cell_length_b   8.70606582
_cell_length_c   8.70384671
_cell_angle_alpha   109.78430774
_cell_angle_beta   109.31148281
_cell_angle_gamma   109.70708787
_symmetry_Int_Tables_number   1
_chemical_formula_structural   Ac2La3Zn2Ru3
_chemical_formula_sum   'Ac4 La6 Zn4 Ru6'
_cell_volume   507.64184089
_cell_formula_units_Z   2
loop_
 _symmetry_equiv_pos_site_id
 _symmetry_equiv_pos_as_xyz
  1  'x, y, z'
loop_
 _atom_site_type_symbol
 _atom_site_label
 _atom_site_symmetry_multiplicity
 _atom_site_fract_x
 _atom_site_fract_y
 _atom_site_fract_z
 _atom_site_occupancy
  Ac  Ac0  1  0.249969  0.689096  0.439457  1
  Ac  Ac1  1  0.750608  0.811860  0.059984  1
  Ac  Ac2  1  0.438990  0.249129  0.688600  1
  Ac  Ac3  1  0.690120  0.440035  0.251039  1
  La  La4  1  0.061453  0.750231  0.812386  1
  La  La5  1  0.811965  0.061104  0.750268  1
  La  La6  1  0.215630  0.215176  0.214200  1
  La  La7  1  0.500022  0.000007  0.282676  1
  La  La8  1  0.280078  0.499192  0.998960  1
  La  La9  1  0.999502  0.283141  0.501483  1
  Zn  Zn10  1  0.497204  0.997582  0.914441  1
  Zn  Zn11  1  0.586878  0.586958  0.586225  1
  Zn  Zn12  1  0.917260  0.499015  0.996780  1
  Zn  Zn13  1  0.998802  0.916675  0.502902  1
  Ru  Ru14  1  0.243967  0.121338  0.879523  1
  Ru  Ru15  1  0.758683  0.379122  0.622682  1
  Ru  Ru16  1  0.878119  0.243778  0.119497  1
  Ru  Ru17  1  0.131873  0.881372  0.249904  1
  Ru  Ru18  1  0.622308  0.758706  0.378637  1
  Ru  Ru19  1  0.366570  0.616487  0.750359  1
