# generated using pymatgen
data_Li4MgAl7Pt4
_symmetry_space_group_name_H-M   'P 1'
_cell_length_a   6.08908100
_cell_length_b   4.33106400
_cell_length_c   8.69954400
_cell_angle_alpha   90.00000000
_cell_angle_beta   90.00169929
_cell_angle_gamma   90.00000000
_symmetry_Int_Tables_number   1
_chemical_formula_structural   Li4MgAl7Pt4
_chemical_formula_sum   'Li4 Mg1 Al7 Pt4'
_cell_volume   229.42610998
_cell_formula_units_Z   1
loop_
 _symmetry_equiv_pos_site_id
 _symmetry_equiv_pos_as_xyz
  1  'x, y, z'
loop_
 _atom_site_type_symbol
 _atom_site_label
 _atom_site_symmetry_multiplicity
 _atom_site_fract_x
 _atom_site_fract_y
 _atom_site_fract_z
 _atom_site_occupancy
  Li  Li0  1  0.247613  0.250000  0.124886  1
  Li  Li1  1  0.752095  0.750001  0.376562  1
  Li  Li2  1  0.248800  0.250000  0.624924  1
  Li  Li3  1  0.752196  0.750001  0.873582  1
  Mg  Mg4  1  0.498660  0.750001  0.125020  1
  Al  Al5  1  0.004725  0.750001  0.125085  1
  Al  Al6  1  0.502522  0.250000  0.374711  1
  Al  Al7  1  0.998210  0.250000  0.374736  1
  Al  Al8  1  0.997422  0.750001  0.625040  1
  Al  Al9  1  0.497881  0.750001  0.625084  1
  Al  Al10  1  0.998200  0.250000  0.875178  1
  Al  Al11  1  0.502544  0.250000  0.875193  1
  Pt  Pt12  1  0.765036  0.250000  0.124969  1
  Pt  Pt13  1  0.243008  0.750001  0.382807  1
  Pt  Pt14  1  0.748123  0.250000  0.624974  1
  Pt  Pt15  1  0.242968  0.750001  0.867248  1
