# generated using pymatgen
data_PrHo3(CI)2
_symmetry_space_group_name_H-M   'P 1'
_cell_length_a   3.77635500
_cell_length_b   3.77635444
_cell_length_c   14.99868100
_cell_angle_alpha   90.00000000
_cell_angle_beta   90.00000000
_cell_angle_gamma   119.99999619
_symmetry_Int_Tables_number   1
_chemical_formula_structural   PrHo3(CI)2
_chemical_formula_sum   'Pr1 Ho3 C2 I2'
_cell_volume   185.23765714
_cell_formula_units_Z   1
loop_
 _symmetry_equiv_pos_site_id
 _symmetry_equiv_pos_as_xyz
  1  'x, y, z'
loop_
 _atom_site_type_symbol
 _atom_site_label
 _atom_site_symmetry_multiplicity
 _atom_site_fract_x
 _atom_site_fract_y
 _atom_site_fract_z
 _atom_site_occupancy
  Pr  Pr0  1  0.333333  0.666667  0.414868  1
  Ho  Ho1  1  0.333333  0.666667  0.079707  1
  Ho  Ho2  1  0.666667  0.333333  0.590984  1
  Ho  Ho3  1  0.666667  0.333333  0.913201  1
  C  C4  1  0.000000  0.000000  0.995641  1
  C  C5  1  0.000000  0.000000  0.514605  1
  I  I6  1  0.666667  0.333333  0.236361  1
  I  I7  1  0.333333  0.666667  0.754634  1
