# generated using pymatgen
data_Ti8Mo3Ir4Pd
_symmetry_space_group_name_H-M   'P 1'
_cell_length_a   6.27790900
_cell_length_b   4.41747400
_cell_length_c   8.82735300
_cell_angle_alpha   90.00000000
_cell_angle_beta   89.99899176
_cell_angle_gamma   90.00000000
_symmetry_Int_Tables_number   1
_chemical_formula_structural   Ti8Mo3Ir4Pd
_chemical_formula_sum   'Ti8 Mo3 Ir4 Pd1'
_cell_volume   244.80456513
_cell_formula_units_Z   1
loop_
 _symmetry_equiv_pos_site_id
 _symmetry_equiv_pos_as_xyz
  1  'x, y, z'
loop_
 _atom_site_type_symbol
 _atom_site_label
 _atom_site_symmetry_multiplicity
 _atom_site_fract_x
 _atom_site_fract_y
 _atom_site_fract_z
 _atom_site_occupancy
  Ti  Ti0  1  0.008534  0.749999  0.125000  1
  Ti  Ti1  1  0.491436  0.749999  0.124994  1
  Ti  Ti2  1  0.003431  0.249999  0.378731  1
  Ti  Ti3  1  0.496579  0.249999  0.378731  1
  Ti  Ti4  1  0.499839  0.749999  0.625006  1
  Ti  Ti5  1  0.000150  0.749999  0.625002  1
  Ti  Ti6  1  0.496590  0.249999  0.871258  1
  Ti  Ti7  1  0.003440  0.249999  0.871267  1
  Mo  Mo8  1  0.249984  0.749999  0.372965  1
  Mo  Mo9  1  0.750003  0.249999  0.625005  1
  Mo  Mo10  1  0.250017  0.749999  0.877041  1
  Ir  Ir11  1  0.250001  0.249999  0.125000  1
  Ir  Ir12  1  0.750005  0.749999  0.372692  1
  Ir  Ir13  1  0.249990  0.249999  0.625002  1
  Ir  Ir14  1  0.750015  0.749999  0.877309  1
  Pd  Pd15  1  0.749986  0.249999  0.124998  1
