# generated using pymatgen
data_Ba10V2HN9
_symmetry_space_group_name_H-M   'P 1'
_cell_length_a   8.04092075
_cell_length_b   8.04091962
_cell_length_c   9.55681500
_cell_angle_alpha   76.34775903
_cell_angle_beta   76.34775365
_cell_angle_gamma   96.17877595
_symmetry_Int_Tables_number   1
_chemical_formula_structural   Ba10V2HN9
_chemical_formula_sum   'Ba10 V2 H1 N9'
_cell_volume   574.69037858
_cell_formula_units_Z   1
loop_
 _symmetry_equiv_pos_site_id
 _symmetry_equiv_pos_as_xyz
  1  'x, y, z'
loop_
 _atom_site_type_symbol
 _atom_site_label
 _atom_site_symmetry_multiplicity
 _atom_site_fract_x
 _atom_site_fract_y
 _atom_site_fract_z
 _atom_site_occupancy
  Ba  Ba0  1  0.369300  0.369300  0.384004  1
  Ba  Ba1  1  0.602597  0.602597  0.629771  1
  Ba  Ba2  1  0.661783  0.661783  0.999772  1
  Ba  Ba3  1  0.338197  0.338197  0.991639  1
  Ba  Ba4  1  0.940821  0.940821  0.186320  1
  Ba  Ba5  1  0.076635  0.076635  0.799402  1
  Ba  Ba6  1  0.562798  0.089512  0.761316  1
  Ba  Ba7  1  0.918393  0.430398  0.235077  1
  Ba  Ba8  1  0.430398  0.918393  0.235077  1
  Ba  Ba9  1  0.089512  0.562798  0.761316  1
  V  V10  1  0.755350  0.244375  0.002254  1
  V  V11  1  0.244375  0.755350  0.002254  1
  H  H12  1  0.654101  0.654101  0.308618  1
  N  N13  1  0.351309  0.351309  0.673311  1
  N  N14  1  0.711810  0.017181  0.000310  1
  N  N15  1  0.981895  0.279532  0.012365  1
  N  N16  1  0.279532  0.981895  0.012365  1
  N  N17  1  0.017181  0.711810  0.000310  1
  N  N18  1  0.394149  0.727574  0.834685  1
  N  N19  1  0.281431  0.610860  0.167574  1
  N  N20  1  0.610860  0.281431  0.167574  1
  N  N21  1  0.727574  0.394149  0.834685  1
