# generated using pymatgen
data_Sr3NiSn4Ir3
_symmetry_space_group_name_H-M   'P 1'
_cell_length_a   7.06257905
_cell_length_b   6.92305792
_cell_length_c   7.06257884
_cell_angle_alpha   109.07152911
_cell_angle_beta   109.86794128
_cell_angle_gamma   109.07152999
_symmetry_Int_Tables_number   1
_chemical_formula_structural   Sr3NiSn4Ir3
_chemical_formula_sum   'Sr3 Ni1 Sn4 Ir3'
_cell_volume   267.12910082
_cell_formula_units_Z   1
loop_
 _symmetry_equiv_pos_site_id
 _symmetry_equiv_pos_as_xyz
  1  'x, y, z'
loop_
 _atom_site_type_symbol
 _atom_site_label
 _atom_site_symmetry_multiplicity
 _atom_site_fract_x
 _atom_site_fract_y
 _atom_site_fract_z
 _atom_site_occupancy
  Sr  Sr0  1  0.499186  0.497070  0.000000  1
  Sr  Sr1  1  0.000000  0.497070  0.499186  1
  Sr  Sr2  1  0.500814  0.997884  0.500814  1
  Ni  Ni3  1  0.000000  0.763519  0.000000  1
  Sn  Sn4  1  0.382104  0.992742  0.000000  1
  Sn  Sn5  1  0.000000  0.992742  0.382104  1
  Sn  Sn6  1  0.000000  0.397843  0.000000  1
  Sn  Sn7  1  0.617895  0.610637  0.617896  1
  Ir  Ir8  1  0.000000  0.000403  0.750716  1
  Ir  Ir9  1  0.249284  0.249686  0.249284  1
  Ir  Ir10  1  0.750716  0.000403  0.000000  1
