# generated using pymatgen
data_Pr20IrRu3Pt8
_symmetry_space_group_name_H-M   'P 1'
_cell_length_a   11.45815000
_cell_length_b   11.45815000
_cell_length_c   6.65567500
_cell_angle_alpha   90.00000000
_cell_angle_beta   90.00000000
_cell_angle_gamma   90.00000000
_symmetry_Int_Tables_number   1
_chemical_formula_structural   Pr20IrRu3Pt8
_chemical_formula_sum   'Pr20 Ir1 Ru3 Pt8'
_cell_volume   873.81825568
_cell_formula_units_Z   1
loop_
 _symmetry_equiv_pos_site_id
 _symmetry_equiv_pos_as_xyz
  1  'x, y, z'
loop_
 _atom_site_type_symbol
 _atom_site_label
 _atom_site_symmetry_multiplicity
 _atom_site_fract_x
 _atom_site_fract_y
 _atom_site_fract_z
 _atom_site_occupancy
  Pr  Pr0  1  0.296800  0.088454  0.374892  1
  Pr  Pr1  1  0.296905  0.911566  0.874983  1
  Pr  Pr2  1  0.703095  0.088434  0.874983  1
  Pr  Pr3  1  0.703200  0.911546  0.374892  1
  Pr  Pr4  1  0.588434  0.796905  0.874983  1
  Pr  Pr5  1  0.588454  0.203200  0.374892  1
  Pr  Pr6  1  0.411546  0.796800  0.374892  1
  Pr  Pr7  1  0.411566  0.203095  0.874983  1
  Pr  Pr8  1  0.204342  0.410790  0.625930  1
  Pr  Pr9  1  0.204156  0.589050  0.124099  1
  Pr  Pr10  1  0.795844  0.410950  0.124099  1
  Pr  Pr11  1  0.795658  0.589210  0.625930  1
  Pr  Pr12  1  0.910950  0.704156  0.124099  1
  Pr  Pr13  1  0.910790  0.295658  0.625930  1
  Pr  Pr14  1  0.089210  0.704342  0.625930  1
  Pr  Pr15  1  0.089050  0.295844  0.124099  1
  Pr  Pr16  1  0.000000  0.000000  0.499823  1
  Pr  Pr17  1  0.000000  0.000000  0.999729  1
  Pr  Pr18  1  0.500000  0.500000  0.999729  1
  Pr  Pr19  1  0.500000  0.500000  0.499823  1
  Ir  Ir20  1  0.000000  0.500000  0.384316  1
  Ru  Ru21  1  0.500000  0.000000  0.115983  1
  Ru  Ru22  1  0.500000  0.000000  0.616221  1
  Ru  Ru23  1  0.000000  0.500000  0.884604  1
  Pt  Pt24  1  0.846528  0.153733  0.250121  1
  Pt  Pt25  1  0.846435  0.846169  0.749919  1
  Pt  Pt26  1  0.153565  0.153831  0.749919  1
  Pt  Pt27  1  0.153472  0.846267  0.250121  1
  Pt  Pt28  1  0.653831  0.346435  0.749919  1
  Pt  Pt29  1  0.653733  0.653472  0.250121  1
  Pt  Pt30  1  0.346267  0.346528  0.250121  1
  Pt  Pt31  1  0.346169  0.653565  0.749919  1
