# generated using pymatgen
data_CaDyLu6(B6Ru)4
_symmetry_space_group_name_H-M   'P 1'
_cell_length_a   3.60692900
_cell_length_b   9.05469485
_cell_length_c   11.43655786
_cell_angle_alpha   89.93670849
_cell_angle_beta   90.00000000
_cell_angle_gamma   90.00000000
_symmetry_Int_Tables_number   1
_chemical_formula_structural   CaDyLu6(B6Ru)4
_chemical_formula_sum   'Ca1 Dy1 Lu6 B24 Ru4'
_cell_volume   373.51365115
_cell_formula_units_Z   1
loop_
 _symmetry_equiv_pos_site_id
 _symmetry_equiv_pos_as_xyz
  1  'x, y, z'
loop_
 _atom_site_type_symbol
 _atom_site_label
 _atom_site_symmetry_multiplicity
 _atom_site_fract_x
 _atom_site_fract_y
 _atom_site_fract_z
 _atom_site_occupancy
  Ca  Ca0  1  0.000000  0.678096  0.585849  1
  Dy  Dy1  1  0.000000  0.323102  0.415014  1
  Lu  Lu2  1  0.000000  0.820786  0.084768  1
  Lu  Lu3  1  0.000000  0.178499  0.914172  1
  Lu  Lu4  1  0.000000  0.942454  0.371374  1
  Lu  Lu5  1  0.000000  0.055854  0.629352  1
  Lu  Lu6  1  0.000000  0.443803  0.127311  1
  Lu  Lu7  1  0.000000  0.557018  0.871475  1
  B  B8  1  0.500000  0.554599  0.431742  1
  B  B9  1  0.500000  0.444995  0.568037  1
  B  B10  1  0.500000  0.054047  0.066097  1
  B  B11  1  0.500000  0.946681  0.934552  1
  B  B12  1  0.500000  0.749872  0.417599  1
  B  B13  1  0.500000  0.249836  0.581958  1
  B  B14  1  0.500000  0.249330  0.079529  1
  B  B15  1  0.500000  0.751153  0.920432  1
  B  B16  1  0.500000  0.791896  0.263601  1
  B  B17  1  0.500000  0.207279  0.736180  1
  B  B18  1  0.500000  0.291005  0.233428  1
  B  B19  1  0.500000  0.709578  0.766933  1
  B  B20  1  0.500000  0.631036  0.182871  1
  B  B21  1  0.500000  0.368584  0.816362  1
  B  B22  1  0.500000  0.130058  0.314903  1
  B  B23  1  0.500000  0.870319  0.685976  1
  B  B24  1  0.500000  0.981855  0.211780  1
  B  B25  1  0.500000  0.018190  0.788897  1
  B  B26  1  0.500000  0.482954  0.286023  1
  B  B27  1  0.500000  0.516644  0.713810  1
  B  B28  1  0.500000  0.605214  0.028590  1
  B  B29  1  0.500000  0.394621  0.971077  1
  B  B30  1  0.500000  0.102002  0.471983  1
  B  B31  1  0.500000  0.899288  0.527706  1
  Ru  Ru32  1  0.000000  0.639319  0.317482  1
  Ru  Ru33  1  0.000000  0.359032  0.681755  1
  Ru  Ru34  1  0.000000  0.137390  0.178252  1
  Ru  Ru35  1  0.000000  0.863610  0.823129  1
