# generated using pymatgen
data_Dy3Al3SiGePt
_symmetry_space_group_name_H-M   'P 1'
_cell_length_a   6.94654400
_cell_length_b   6.94654437
_cell_length_c   4.22490100
_cell_angle_alpha   90.00000000
_cell_angle_beta   90.00000000
_cell_angle_gamma   119.99999824
_symmetry_Int_Tables_number   1
_chemical_formula_structural   Dy3Al3SiGePt
_chemical_formula_sum   'Dy3 Al3 Si1 Ge1 Pt1'
_cell_volume   176.55693510
_cell_formula_units_Z   1
loop_
 _symmetry_equiv_pos_site_id
 _symmetry_equiv_pos_as_xyz
  1  'x, y, z'
loop_
 _atom_site_type_symbol
 _atom_site_label
 _atom_site_symmetry_multiplicity
 _atom_site_fract_x
 _atom_site_fract_y
 _atom_site_fract_z
 _atom_site_occupancy
  Dy  Dy0  1  0.582360  0.997427  0.000000  1
  Dy  Dy1  1  0.415066  0.417639  0.000000  1
  Dy  Dy2  1  0.002573  0.584934  0.000000  1
  Al  Al3  1  0.232891  0.996524  0.499999  1
  Al  Al4  1  0.003476  0.236369  0.499999  1
  Al  Al5  1  0.763632  0.767108  0.499999  1
  Si  Si6  1  0.333333  0.666667  0.499999  1
  Ge  Ge7  1  0.666666  0.333333  0.499999  1
  Pt  Pt8  1  0.000000  0.000000  0.000000  1
