# generated using pymatgen
data_Ba3AlS4Br
_symmetry_space_group_name_H-M   'P 1'
_cell_length_a   8.61584600
_cell_length_b   9.68576400
_cell_length_c   12.53306000
_cell_angle_alpha   90.00000000
_cell_angle_beta   90.00000000
_cell_angle_gamma   90.00000000
_symmetry_Int_Tables_number   1
_chemical_formula_structural   Ba3AlS4Br
_chemical_formula_sum   'Ba12 Al4 S16 Br4'
_cell_volume   1045.89702945
_cell_formula_units_Z   4
loop_
 _symmetry_equiv_pos_site_id
 _symmetry_equiv_pos_as_xyz
  1  'x, y, z'
loop_
 _atom_site_type_symbol
 _atom_site_label
 _atom_site_symmetry_multiplicity
 _atom_site_fract_x
 _atom_site_fract_y
 _atom_site_fract_z
 _atom_site_occupancy
  Ba  Ba0  1  0.919040  0.750000  0.474912  1
  Ba  Ba1  1  0.580960  0.750000  0.974912  1
  Ba  Ba2  1  0.080960  0.250000  0.525088  1
  Ba  Ba3  1  0.419040  0.250000  0.025088  1
  Ba  Ba4  1  0.588178  0.478315  0.663415  1
  Ba  Ba5  1  0.911822  0.021685  0.163415  1
  Ba  Ba6  1  0.411822  0.978315  0.336585  1
  Ba  Ba7  1  0.088178  0.521685  0.836585  1
  Ba  Ba8  1  0.411822  0.521685  0.336585  1
  Ba  Ba9  1  0.088178  0.978315  0.836585  1
  Ba  Ba10  1  0.588178  0.021685  0.663415  1
  Ba  Ba11  1  0.911822  0.478315  0.163415  1
  Al  Al12  1  0.311798  0.750000  0.605634  1
  Al  Al13  1  0.188202  0.750000  0.105634  1
  Al  Al14  1  0.688202  0.250000  0.394366  1
  Al  Al15  1  0.811798  0.250000  0.894366  1
  S  S16  1  0.810288  0.448301  0.428011  1
  S  S17  1  0.689712  0.051699  0.928011  1
  S  S18  1  0.189712  0.948301  0.571989  1
  S  S19  1  0.310288  0.551699  0.071989  1
  S  S20  1  0.189712  0.551699  0.571989  1
  S  S21  1  0.310288  0.948301  0.071989  1
  S  S22  1  0.810288  0.051699  0.428011  1
  S  S23  1  0.689712  0.448301  0.928011  1
  S  S24  1  0.138439  0.750000  0.282242  1
  S  S25  1  0.361561  0.750000  0.782242  1
  S  S26  1  0.861561  0.250000  0.717758  1
  S  S27  1  0.638439  0.250000  0.217758  1
  S  S28  1  0.533471  0.750000  0.509110  1
  S  S29  1  0.966529  0.750000  0.009110  1
  S  S30  1  0.466529  0.250000  0.490890  1
  S  S31  1  0.033471  0.250000  0.990890  1
  Br  Br32  1  0.670804  0.750000  0.232274  1
  Br  Br33  1  0.829196  0.750000  0.732274  1
  Br  Br34  1  0.329196  0.250000  0.767726  1
  Br  Br35  1  0.170804  0.250000  0.267726  1
