# generated using pymatgen
data_Tm4TaMnOs6
_symmetry_space_group_name_H-M   'P 1'
_cell_length_a   5.43787409
_cell_length_b   5.24947282
_cell_length_c   8.84966300
_cell_angle_alpha   90.00000000
_cell_angle_beta   90.00000000
_cell_angle_gamma   121.25700386
_symmetry_Int_Tables_number   1
_chemical_formula_structural   Tm4TaMnOs6
_chemical_formula_sum   'Tm4 Ta1 Mn1 Os6'
_cell_volume   215.95372502
_cell_formula_units_Z   1
loop_
 _symmetry_equiv_pos_site_id
 _symmetry_equiv_pos_as_xyz
  1  'x, y, z'
loop_
 _atom_site_type_symbol
 _atom_site_label
 _atom_site_symmetry_multiplicity
 _atom_site_fract_x
 _atom_site_fract_y
 _atom_site_fract_z
 _atom_site_occupancy
  Tm  Tm0  1  0.671467  0.343634  0.560008  1
  Tm  Tm1  1  0.332253  0.663983  0.431669  1
  Tm  Tm2  1  0.332253  0.663983  0.068331  1
  Tm  Tm3  1  0.671467  0.343634  0.939992  1
  Ta  Ta4  1  0.160766  0.322362  0.750000  1
  Mn  Mn5  1  0.832031  0.663124  0.250000  1
  Os  Os6  1  0.000985  0.001869  0.491010  1
  Os  Os7  1  0.000985  0.001869  0.008990  1
  Os  Os8  1  0.176911  0.828898  0.750000  1
  Os  Os9  1  0.651896  0.828928  0.750000  1
  Os  Os10  1  0.820430  0.169100  0.250000  1
  Os  Os11  1  0.348559  0.168615  0.250000  1
