# generated using pymatgen
data_Pr16CdTc(HgPd)3
_symmetry_space_group_name_H-M   'P 1'
_cell_length_a   10.09458884
_cell_length_b   10.11866260
_cell_length_c   10.11866009
_cell_angle_alpha   59.37759563
_cell_angle_beta   59.39343090
_cell_angle_gamma   59.39343622
_symmetry_Int_Tables_number   1
_chemical_formula_structural   Pr16CdTc(HgPd)3
_chemical_formula_sum   'Pr16 Cd1 Tc1 Hg3 Pd3'
_cell_volume   720.65920865
_cell_formula_units_Z   1
loop_
 _symmetry_equiv_pos_site_id
 _symmetry_equiv_pos_as_xyz
  1  'x, y, z'
loop_
 _atom_site_type_symbol
 _atom_site_label
 _atom_site_symmetry_multiplicity
 _atom_site_fract_x
 _atom_site_fract_y
 _atom_site_fract_z
 _atom_site_occupancy
  Pr  Pr0  1  0.354332  0.353592  0.353592  1
  Pr  Pr1  1  0.348459  0.348044  0.949966  1
  Pr  Pr2  1  0.348459  0.949966  0.348044  1
  Pr  Pr3  1  0.947719  0.348873  0.348873  1
  Pr  Pr4  1  0.816710  0.188936  0.188936  1
  Pr  Pr5  1  0.188009  0.807182  0.807182  1
  Pr  Pr6  1  0.187886  0.817131  0.188870  1
  Pr  Pr7  1  0.805926  0.189792  0.805989  1
  Pr  Pr8  1  0.187886  0.188870  0.817131  1
  Pr  Pr9  1  0.805926  0.805989  0.189792  1
  Pr  Pr10  1  0.934409  0.564838  0.564838  1
  Pr  Pr11  1  0.555664  0.938393  0.938393  1
  Pr  Pr12  1  0.564030  0.935641  0.564629  1
  Pr  Pr13  1  0.937544  0.556205  0.938279  1
  Pr  Pr14  1  0.564030  0.564629  0.935641  1
  Pr  Pr15  1  0.937544  0.938279  0.556205  1
  Cd  Cd16  1  0.259721  0.579988  0.579988  1
  Tc  Tc17  1  0.142499  0.142809  0.142809  1
  Hg  Hg18  1  0.581952  0.584212  0.584212  1
  Hg  Hg19  1  0.582946  0.585566  0.245929  1
  Hg  Hg20  1  0.582946  0.245929  0.585566  1
  Pd  Pd21  1  0.146676  0.146914  0.571541  1
  Pd  Pd22  1  0.146676  0.571541  0.146914  1
  Pd  Pd23  1  0.572055  0.146683  0.146683  1
