# generated using pymatgen
data_Y5AgIO12
_symmetry_space_group_name_H-M   'P 1'
_cell_length_a   6.56549912
_cell_length_b   6.42849740
_cell_length_c   6.59022389
_cell_angle_alpha   98.84167315
_cell_angle_beta   99.72086827
_cell_angle_gamma   96.83543458
_symmetry_Int_Tables_number   1
_chemical_formula_structural   Y5AgIO12
_chemical_formula_sum   'Y5 Ag1 I1 O12'
_cell_volume   267.87953236
_cell_formula_units_Z   1
loop_
 _symmetry_equiv_pos_site_id
 _symmetry_equiv_pos_as_xyz
  1  'x, y, z'
loop_
 _atom_site_type_symbol
 _atom_site_label
 _atom_site_symmetry_multiplicity
 _atom_site_fract_x
 _atom_site_fract_y
 _atom_site_fract_z
 _atom_site_occupancy
  Y  Y0  1  0.393270  0.692040  0.854041  1
  Y  Y1  1  0.857587  0.382416  0.676953  1
  Y  Y2  1  0.677800  0.851048  0.390826  1
  Y  Y3  1  0.605540  0.314281  0.135746  1
  Y  Y4  1  0.146924  0.610080  0.318494  1
  Ag  Ag5  1  0.318446  0.150915  0.583888  1
  I  I6  1  0.994857  0.994461  0.004387  1
  O  O7  1  0.187211  0.438096  0.598859  1
  O  O8  1  0.625467  0.180304  0.421982  1
  O  O9  1  0.428538  0.596498  0.175183  1
  O  O10  1  0.828621  0.563564  0.399495  1
  O  O11  1  0.403177  0.834433  0.564308  1
  O  O12  1  0.591707  0.434781  0.830591  1
  O  O13  1  0.912647  0.020918  0.719292  1
  O  O14  1  0.967340  0.289813  0.074465  1
  O  O15  1  0.284493  0.058394  0.000727  1
  O  O16  1  0.045269  0.954553  0.292145  1
  O  O17  1  0.029488  0.700169  0.930602  1
  O  O18  1  0.701618  0.933236  0.028013  1
