# generated using pymatgen
data_Pr2Al20ReIr3
_symmetry_space_group_name_H-M   'P 1'
_cell_length_a   6.91437777
_cell_length_b   6.90028298
_cell_length_c   9.24577223
_cell_angle_alpha   89.74099926
_cell_angle_beta   89.78106831
_cell_angle_gamma   97.03818297
_symmetry_Int_Tables_number   1
_chemical_formula_structural   Pr2Al20ReIr3
_chemical_formula_sum   'Pr2 Al20 Re1 Ir3'
_cell_volume   437.79380691
_cell_formula_units_Z   1
loop_
 _symmetry_equiv_pos_site_id
 _symmetry_equiv_pos_as_xyz
  1  'x, y, z'
loop_
 _atom_site_type_symbol
 _atom_site_label
 _atom_site_symmetry_multiplicity
 _atom_site_fract_x
 _atom_site_fract_y
 _atom_site_fract_z
 _atom_site_occupancy
  Pr  Pr0  1  0.876192  0.128728  0.750538  1
  Pr  Pr1  1  0.123808  0.871272  0.249462  1
  Al  Al2  1  0.409316  0.143411  0.749855  1
  Al  Al3  1  0.143133  0.409954  0.250327  1
  Al  Al4  1  0.590684  0.856589  0.250145  1
  Al  Al5  1  0.856867  0.590046  0.749673  1
  Al  Al6  1  0.516675  0.775547  0.750718  1
  Al  Al7  1  0.777281  0.516609  0.253216  1
  Al  Al8  1  0.483325  0.224453  0.249282  1
  Al  Al9  1  0.222719  0.483391  0.746784  1
  Al  Al10  1  0.841975  0.159412  0.397767  1
  Al  Al11  1  0.158025  0.840588  0.602233  1
  Al  Al12  1  0.839437  0.159199  0.104663  1
  Al  Al13  1  0.160563  0.840801  0.895337  1
  Al  Al14  1  0.624271  0.380163  0.549917  1
  Al  Al15  1  0.375729  0.619837  0.450083  1
  Al  Al16  1  0.621465  0.379133  0.947465  1
  Al  Al17  1  0.378535  0.620867  0.052535  1
  Al  Al18  1  0.775816  0.775279  0.000449  1
  Al  Al19  1  0.777046  0.775520  0.499064  1
  Al  Al20  1  0.224184  0.224721  0.999551  1
  Al  Al21  1  0.222954  0.224480  0.500936  1
  Re  Re22  1  0.000000  0.500000  0.500000  1
  Ir  Ir23  1  0.500000  0.000000  0.000000  1
  Ir  Ir24  1  0.000000  0.500000  0.000000  1
  Ir  Ir25  1  0.500000  0.000000  0.500000  1
