# generated using pymatgen
data_Tb16Cd4Ir3Ru
_symmetry_space_group_name_H-M   'P 1'
_cell_length_a   9.69103401
_cell_length_b   9.69260326
_cell_length_c   9.69103435
_cell_angle_alpha   59.85821312
_cell_angle_beta   59.84846095
_cell_angle_gamma   59.85821492
_symmetry_Int_Tables_number   1
_chemical_formula_structural   Tb16Cd4Ir3Ru
_chemical_formula_sum   'Tb16 Cd4 Ir3 Ru1'
_cell_volume   641.55502762
_cell_formula_units_Z   1
loop_
 _symmetry_equiv_pos_site_id
 _symmetry_equiv_pos_as_xyz
  1  'x, y, z'
loop_
 _atom_site_type_symbol
 _atom_site_label
 _atom_site_symmetry_multiplicity
 _atom_site_fract_x
 _atom_site_fract_y
 _atom_site_fract_z
 _atom_site_occupancy
  Tb  Tb0  1  0.598683  0.598658  0.598683  1
  Tb  Tb1  1  0.598363  0.598377  0.203620  1
  Tb  Tb2  1  0.598420  0.203647  0.598420  1
  Tb  Tb3  1  0.203620  0.598377  0.598363  1
  Tb  Tb4  1  0.063460  0.438084  0.438094  1
  Tb  Tb5  1  0.439098  0.061472  0.061449  1
  Tb  Tb6  1  0.438103  0.063453  0.438103  1
  Tb  Tb7  1  0.061470  0.439057  0.061470  1
  Tb  Tb8  1  0.438094  0.438084  0.063460  1
  Tb  Tb9  1  0.061449  0.061472  0.439098  1
  Tb  Tb10  1  0.186795  0.813027  0.813048  1
  Tb  Tb11  1  0.812199  0.187096  0.187133  1
  Tb  Tb12  1  0.813001  0.186831  0.813001  1
  Tb  Tb13  1  0.187107  0.812253  0.187107  1
  Tb  Tb14  1  0.813048  0.813027  0.186795  1
  Tb  Tb15  1  0.187133  0.187096  0.812199  1
  Cd  Cd16  1  0.830110  0.830122  0.830110  1
  Cd  Cd17  1  0.830272  0.830252  0.509501  1
  Cd  Cd18  1  0.830271  0.509483  0.830271  1
  Cd  Cd19  1  0.509501  0.830252  0.830272  1
  Ir  Ir20  1  0.391982  0.392027  0.824779  1
  Ir  Ir21  1  0.391987  0.824790  0.391987  1
  Ir  Ir22  1  0.824779  0.392027  0.391982  1
  Ru  Ru23  1  0.391057  0.391038  0.391057  1
