# generated using pymatgen
data_Tb3Ho7In8(PtAu)2
_symmetry_space_group_name_H-M   'P 1'
_cell_length_a   3.64633000
_cell_length_b   8.17029047
_cell_length_c   18.35228719
_cell_angle_alpha   90.07449566
_cell_angle_beta   90.00000000
_cell_angle_gamma   90.00000000
_symmetry_Int_Tables_number   1
_chemical_formula_structural   Tb3Ho7In8(PtAu)2
_chemical_formula_sum   'Tb3 Ho7 In8 Pt2 Au2'
_cell_volume   546.74308253
_cell_formula_units_Z   1
loop_
 _symmetry_equiv_pos_site_id
 _symmetry_equiv_pos_as_xyz
  1  'x, y, z'
loop_
 _atom_site_type_symbol
 _atom_site_label
 _atom_site_symmetry_multiplicity
 _atom_site_fract_x
 _atom_site_fract_y
 _atom_site_fract_z
 _atom_site_occupancy
  Tb  Tb0  1  0.000000  0.119673  0.419586  1
  Tb  Tb1  1  0.000000  0.000010  0.999987  1
  Tb  Tb2  1  0.000000  0.500064  0.499995  1
  Ho  Ho3  1  0.000000  0.880584  0.580909  1
  Ho  Ho4  1  0.000000  0.384617  0.916102  1
  Ho  Ho5  1  0.000000  0.615398  0.083895  1
  Ho  Ho6  1  0.000000  0.253218  0.216665  1
  Ho  Ho7  1  0.000000  0.746785  0.783283  1
  Ho  Ho8  1  0.000000  0.268361  0.721102  1
  Ho  Ho9  1  0.000000  0.731477  0.278839  1
  In  In10  1  0.500000  0.422409  0.352040  1
  In  In11  1  0.500000  0.578094  0.647810  1
  In  In12  1  0.500000  0.078253  0.852475  1
  In  In13  1  0.500000  0.921706  0.147483  1
  In  In14  1  0.500000  0.292108  0.065642  1
  In  In15  1  0.500000  0.707862  0.934343  1
  In  In16  1  0.500000  0.209619  0.567748  1
  In  In17  1  0.500000  0.789987  0.432516  1
  Pt  Pt18  1  0.500000  0.472323  0.804020  1
  Pt  Pt19  1  0.500000  0.527788  0.195988  1
  Au  Au20  1  0.500000  0.029002  0.301774  1
  Au  Au21  1  0.500000  0.970660  0.697797  1
