# generated using pymatgen
data_Sc2UMn3
_symmetry_space_group_name_H-M   'P 1'
_cell_length_a   5.28914500
_cell_length_b   5.28914531
_cell_length_c   7.74272500
_cell_angle_alpha   90.00000000
_cell_angle_beta   90.00000000
_cell_angle_gamma   120.00000433
_symmetry_Int_Tables_number   1
_chemical_formula_structural   Sc2UMn3
_chemical_formula_sum   'Sc4 U2 Mn6'
_cell_volume   187.58383869
_cell_formula_units_Z   2
loop_
 _symmetry_equiv_pos_site_id
 _symmetry_equiv_pos_as_xyz
  1  'x, y, z'
loop_
 _atom_site_type_symbol
 _atom_site_label
 _atom_site_symmetry_multiplicity
 _atom_site_fract_x
 _atom_site_fract_y
 _atom_site_fract_z
 _atom_site_occupancy
  Sc  Sc0  1  0.333333  0.666667  0.559773  1
  Sc  Sc1  1  0.666667  0.333333  0.440227  1
  Sc  Sc2  1  0.666667  0.333333  0.059773  1
  Sc  Sc3  1  0.333333  0.666667  0.940227  1
  U  U4  1  0.000000  0.000000  0.000000  1
  U  U5  1  0.000000  0.000000  0.500000  1
  Mn  Mn6  1  0.165615  0.331230  0.250000  1
  Mn  Mn7  1  0.834385  0.668770  0.750000  1
  Mn  Mn8  1  0.668770  0.834385  0.250000  1
  Mn  Mn9  1  0.331230  0.165615  0.750000  1
  Mn  Mn10  1  0.165615  0.834385  0.250000  1
  Mn  Mn11  1  0.834385  0.165615  0.750000  1
