# generated using pymatgen
data_YLu2Th(Al3Ir)6
_symmetry_space_group_name_H-M   'P 1'
_cell_length_a   7.56881107
_cell_length_b   7.57738379
_cell_length_c   9.45409000
_cell_angle_alpha   90.00000000
_cell_angle_beta   90.00000000
_cell_angle_gamma   119.41768093
_symmetry_Int_Tables_number   1
_chemical_formula_structural   YLu2Th(Al3Ir)6
_chemical_formula_sum   'Y1 Lu2 Th1 Al18 Ir6'
_cell_volume   472.29776447
_cell_formula_units_Z   1
loop_
 _symmetry_equiv_pos_site_id
 _symmetry_equiv_pos_as_xyz
  1  'x, y, z'
loop_
 _atom_site_type_symbol
 _atom_site_label
 _atom_site_symmetry_multiplicity
 _atom_site_fract_x
 _atom_site_fract_y
 _atom_site_fract_z
 _atom_site_occupancy
  Y  Y0  1  0.673669  0.995387  0.250000  1
  Lu  Lu1  1  0.002978  0.326662  0.750000  1
  Lu  Lu2  1  0.326024  0.003914  0.750000  1
  Th  Th3  1  0.994971  0.671487  0.250000  1
  Al  Al4  1  0.132181  0.133678  0.250000  1
  Al  Al5  1  0.872641  0.874849  0.750000  1
  Al  Al6  1  0.001726  0.331525  0.071620  1
  Al  Al7  1  0.999947  0.663835  0.916106  1
  Al  Al8  1  0.999947  0.663835  0.583894  1
  Al  Al9  1  0.340350  0.005408  0.428321  1
  Al  Al10  1  0.001726  0.331525  0.428380  1
  Al  Al11  1  0.664212  0.001012  0.578860  1
  Al  Al12  1  0.664212  0.001012  0.921140  1
  Al  Al13  1  0.340350  0.005408  0.071679  1
  Al  Al14  1  0.331624  0.331689  0.555968  1
  Al  Al15  1  0.663022  0.666627  0.455180  1
  Al  Al16  1  0.663022  0.666627  0.044820  1
  Al  Al17  1  0.331624  0.331689  0.944032  1
  Al  Al18  1  0.344087  0.548390  0.250000  1
  Al  Al19  1  0.657745  0.447553  0.750000  1
  Al  Al20  1  0.544359  0.337510  0.250000  1
  Al  Al21  1  0.448004  0.659967  0.750000  1
  Ir  Ir22  1  0.673179  0.329171  0.999277  1
  Ir  Ir23  1  0.326029  0.671508  0.999426  1
  Ir  Ir24  1  0.326029  0.671508  0.500574  1
  Ir  Ir25  1  0.673179  0.329171  0.500723  1
  Ir  Ir26  1  0.001579  0.999526  0.999185  1
  Ir  Ir27  1  0.001579  0.999526  0.500815  1
