# generated using pymatgen
data_Dy3HoCo4(P3Rh4)4
_symmetry_space_group_name_H-M   'P 1'
_cell_length_a   3.84455200
_cell_length_b   10.75349110
_cell_length_c   12.39309112
_cell_angle_alpha   89.98400045
_cell_angle_beta   90.00000000
_cell_angle_gamma   90.00000000
_symmetry_Int_Tables_number   1
_chemical_formula_structural   Dy3HoCo4(P3Rh4)4
_chemical_formula_sum   'Dy3 Ho1 Co4 P12 Rh16'
_cell_volume   512.35956178
_cell_formula_units_Z   1
loop_
 _symmetry_equiv_pos_site_id
 _symmetry_equiv_pos_as_xyz
  1  'x, y, z'
loop_
 _atom_site_type_symbol
 _atom_site_label
 _atom_site_symmetry_multiplicity
 _atom_site_fract_x
 _atom_site_fract_y
 _atom_site_fract_z
 _atom_site_occupancy
  Dy  Dy0  1  0.250000  0.914891  0.207775  1
  Dy  Dy1  1  0.750000  0.414920  0.292281  1
  Dy  Dy2  1  0.750000  0.085096  0.792238  1
  Ho  Ho3  1  0.250000  0.585089  0.707695  1
  Co  Co4  1  0.250000  0.464301  0.933807  1
  Co  Co5  1  0.250000  0.035775  0.434030  1
  Co  Co6  1  0.750000  0.535800  0.065923  1
  Co  Co7  1  0.750000  0.964071  0.566021  1
  P  P8  1  0.250000  0.424049  0.105973  1
  P  P9  1  0.250000  0.075912  0.606020  1
  P  P10  1  0.750000  0.575987  0.893768  1
  P  P11  1  0.750000  0.924054  0.393993  1
  P  P12  1  0.250000  0.272230  0.872648  1
  P  P13  1  0.250000  0.227769  0.372665  1
  P  P14  1  0.750000  0.727757  0.127346  1
  P  P15  1  0.750000  0.771975  0.627523  1
  P  P16  1  0.250000  0.599424  0.388074  1
  P  P17  1  0.250000  0.900580  0.888097  1
  P  P18  1  0.750000  0.400782  0.612029  1
  P  P19  1  0.750000  0.099446  0.111907  1
  Rh  Rh20  1  0.250000  0.716283  0.987418  1
  Rh  Rh21  1  0.250000  0.783805  0.487409  1
  Rh  Rh22  1  0.750000  0.283780  0.012526  1
  Rh  Rh23  1  0.750000  0.216272  0.512659  1
  Rh  Rh24  1  0.250000  0.408240  0.479989  1
  Rh  Rh25  1  0.250000  0.091837  0.980038  1
  Rh  Rh26  1  0.750000  0.591818  0.520497  1
  Rh  Rh27  1  0.750000  0.908170  0.019929  1
  Rh  Rh28  1  0.250000  0.227413  0.178076  1
  Rh  Rh29  1  0.250000  0.272621  0.678161  1
  Rh  Rh30  1  0.750000  0.772249  0.821714  1
  Rh  Rh31  1  0.750000  0.727298  0.321957  1
  Rh  Rh32  1  0.250000  0.886607  0.698743  1
  Rh  Rh33  1  0.250000  0.613318  0.198708  1
  Rh  Rh34  1  0.750000  0.113342  0.301276  1
  Rh  Rh35  1  0.750000  0.387040  0.801085  1
