# generated using pymatgen
data_Zr5CoNi3(P4Ru5)3
_symmetry_space_group_name_H-M   'P 1'
_cell_length_a   12.30419958
_cell_length_b   12.26207538
_cell_length_c   3.88055400
_cell_angle_alpha   90.00000000
_cell_angle_beta   90.00000000
_cell_angle_gamma   119.87487702
_symmetry_Int_Tables_number   1
_chemical_formula_structural   Zr5CoNi3(P4Ru5)3
_chemical_formula_sum   'Zr5 Co1 Ni3 P12 Ru15'
_cell_volume   507.67748103
_cell_formula_units_Z   1
loop_
 _symmetry_equiv_pos_site_id
 _symmetry_equiv_pos_as_xyz
  1  'x, y, z'
loop_
 _atom_site_type_symbol
 _atom_site_label
 _atom_site_symmetry_multiplicity
 _atom_site_fract_x
 _atom_site_fract_y
 _atom_site_fract_z
 _atom_site_occupancy
  Zr  Zr0  1  0.334019  0.668416  0.500000  1
  Zr  Zr1  1  0.664905  0.328833  0.500000  1
  Zr  Zr2  1  0.818827  0.998281  0.000000  1
  Zr  Zr3  1  0.002275  0.823028  0.000000  1
  Zr  Zr4  1  0.177305  0.180032  0.000000  1
  Co  Co5  1  0.635773  0.130862  0.000000  1
  Ni  Ni6  1  0.496979  0.363944  0.000000  1
  Ni  Ni7  1  0.868449  0.502683  0.000000  1
  Ni  Ni8  1  0.999396  0.999660  0.500000  1
  P  P9  1  0.176081  0.005948  0.500000  1
  P  P10  1  0.995670  0.171738  0.500000  1
  P  P11  1  0.828405  0.823690  0.500000  1
  P  P12  1  0.521372  0.692188  0.000000  1
  P  P13  1  0.308295  0.829343  0.000000  1
  P  P14  1  0.171911  0.480314  0.000000  1
  P  P15  1  0.485257  0.173088  0.000000  1
  P  P16  1  0.692203  0.515291  0.000000  1
  P  P17  1  0.822101  0.304996  0.000000  1
  P  P18  1  0.632743  0.996265  0.500000  1
  P  P19  1  0.006358  0.640038  0.500000  1
  P  P20  1  0.360344  0.367400  0.500000  1
  Ru  Ru21  1  0.626895  0.804072  0.500000  1
  Ru  Ru22  1  0.196467  0.823792  0.500000  1
  Ru  Ru23  1  0.177125  0.375062  0.500000  1
  Ru  Ru24  1  0.380381  0.192702  0.500000  1
  Ru  Ru25  1  0.810981  0.618135  0.500000  1
  Ru  Ru26  1  0.809696  0.188749  0.500000  1
  Ru  Ru27  1  0.284774  0.006951  0.000000  1
  Ru  Ru28  1  0.994832  0.279908  0.000000  1
  Ru  Ru29  1  0.721368  0.714710  0.000000  1
  Ru  Ru30  1  0.454838  0.012039  0.500000  1
  Ru  Ru31  1  0.987496  0.444106  0.500000  1
  Ru  Ru32  1  0.556553  0.543196  0.500000  1
  Ru  Ru33  1  0.510049  0.876182  0.000000  1
  Ru  Ru34  1  0.123549  0.634780  0.000000  1
  Ru  Ru35  1  0.366330  0.489577  0.000000  1
