# generated using pymatgen
data_Pa2Al2C3
_symmetry_space_group_name_H-M   'P 1'
_cell_length_a   3.40331500
_cell_length_b   5.18374700
_cell_length_c   11.40244600
_cell_angle_alpha   90.00000000
_cell_angle_beta   90.00000000
_cell_angle_gamma   90.00000000
_symmetry_Int_Tables_number   1
_chemical_formula_structural   Pa2Al2C3
_chemical_formula_sum   'Pa4 Al4 C6'
_cell_volume   201.16108485
_cell_formula_units_Z   2
loop_
 _symmetry_equiv_pos_site_id
 _symmetry_equiv_pos_as_xyz
  1  'x, y, z'
loop_
 _atom_site_type_symbol
 _atom_site_label
 _atom_site_symmetry_multiplicity
 _atom_site_fract_x
 _atom_site_fract_y
 _atom_site_fract_z
 _atom_site_occupancy
  Pa  Pa0  1  0.500000  0.835924  0.148676  1
  Pa  Pa1  1  0.000000  0.335924  0.351324  1
  Pa  Pa2  1  0.000000  0.664076  0.648676  1
  Pa  Pa3  1  0.500000  0.164076  0.851324  1
  Al  Al4  1  0.500000  0.827684  0.411381  1
  Al  Al5  1  0.000000  0.327684  0.088619  1
  Al  Al6  1  0.500000  0.172316  0.588619  1
  Al  Al7  1  0.000000  0.672316  0.911381  1
  C  C8  1  0.000000  0.170753  0.693306  1
  C  C9  1  0.500000  0.670753  0.806694  1
  C  C10  1  0.000000  0.829247  0.306694  1
  C  C11  1  0.000000  0.000000  0.000000  1
  C  C12  1  0.500000  0.329247  0.193306  1
  C  C13  1  0.500000  0.500000  0.500000  1
