# generated using pymatgen
data_Tb4Ga18Co5Pt
_symmetry_space_group_name_H-M   'P 1'
_cell_length_a   7.42643893
_cell_length_b   7.42643935
_cell_length_c   9.43361166
_cell_angle_alpha   90.11686320
_cell_angle_beta   90.11685984
_cell_angle_gamma   119.75910784
_symmetry_Int_Tables_number   1
_chemical_formula_structural   Tb4Ga18Co5Pt
_chemical_formula_sum   'Tb4 Ga18 Co5 Pt1'
_cell_volume   451.66390358
_cell_formula_units_Z   1
loop_
 _symmetry_equiv_pos_site_id
 _symmetry_equiv_pos_as_xyz
  1  'x, y, z'
loop_
 _atom_site_type_symbol
 _atom_site_label
 _atom_site_symmetry_multiplicity
 _atom_site_fract_x
 _atom_site_fract_y
 _atom_site_fract_z
 _atom_site_occupancy
  Tb  Tb0  1  0.328814  0.003049  0.251189  1
  Tb  Tb1  1  0.996951  0.671186  0.748811  1
  Tb  Tb2  1  0.671186  0.996951  0.748811  1
  Tb  Tb3  1  0.003049  0.328814  0.251189  1
  Ga  Ga4  1  0.344251  0.999581  0.924125  1
  Ga  Ga5  1  0.000419  0.655749  0.075875  1
  Ga  Ga6  1  0.334980  0.998502  0.571529  1
  Ga  Ga7  1  0.001498  0.665020  0.428471  1
  Ga  Ga8  1  0.655749  0.000419  0.075875  1
  Ga  Ga9  1  0.999581  0.344251  0.924125  1
  Ga  Ga10  1  0.665020  0.001498  0.428471  1
  Ga  Ga11  1  0.998502  0.334980  0.571529  1
  Ga  Ga12  1  0.656249  0.656249  0.937788  1
  Ga  Ga13  1  0.343751  0.343751  0.062212  1
  Ga  Ga14  1  0.666337  0.666337  0.557332  1
  Ga  Ga15  1  0.333663  0.333663  0.442668  1
  Ga  Ga16  1  0.129230  0.129230  0.741080  1
  Ga  Ga17  1  0.870770  0.870770  0.258920  1
  Ga  Ga18  1  0.448223  0.664495  0.251347  1
  Ga  Ga19  1  0.335505  0.551777  0.748653  1
  Ga  Ga20  1  0.551777  0.335505  0.748653  1
  Ga  Ga21  1  0.664495  0.448223  0.251347  1
  Co  Co22  1  0.000000  0.000000  0.500000  1
  Co  Co23  1  0.329580  0.670420  0.000000  1
  Co  Co24  1  0.329206  0.670794  0.500000  1
  Co  Co25  1  0.670420  0.329580  0.000000  1
  Co  Co26  1  0.670794  0.329206  0.500000  1
  Pt  Pt27  1  0.000000  0.000000  0.000000  1
