# generated using pymatgen
data_TbZr3Pd11Pt
_symmetry_space_group_name_H-M   'P 1'
_cell_length_a   5.70153200
_cell_length_b   5.70153180
_cell_length_c   9.28328200
_cell_angle_alpha   90.00000000
_cell_angle_beta   90.00000000
_cell_angle_gamma   120.02590425
_symmetry_Int_Tables_number   1
_chemical_formula_structural   TbZr3Pd11Pt
_chemical_formula_sum   'Tb1 Zr3 Pd11 Pt1'
_cell_volume   261.27741431
_cell_formula_units_Z   1
loop_
 _symmetry_equiv_pos_site_id
 _symmetry_equiv_pos_as_xyz
  1  'x, y, z'
loop_
 _atom_site_type_symbol
 _atom_site_label
 _atom_site_symmetry_multiplicity
 _atom_site_fract_x
 _atom_site_fract_y
 _atom_site_fract_z
 _atom_site_occupancy
  Tb  Tb0  1  0.333410  0.666590  0.250000  1
  Zr  Zr1  1  0.000712  0.999288  0.499870  1
  Zr  Zr2  1  0.000712  0.999288  0.000130  1
  Zr  Zr3  1  0.665789  0.334211  0.750000  1
  Pd  Pd4  1  0.501833  0.498167  0.503191  1
  Pd  Pd5  1  0.502248  0.003480  0.503580  1
  Pd  Pd6  1  0.996520  0.497752  0.503580  1
  Pd  Pd7  1  0.501833  0.498167  0.996809  1
  Pd  Pd8  1  0.502248  0.003480  0.996420  1
  Pd  Pd9  1  0.996520  0.497752  0.996420  1
  Pd  Pd10  1  0.830039  0.659952  0.250000  1
  Pd  Pd11  1  0.340048  0.169961  0.250000  1
  Pd  Pd12  1  0.829204  0.170796  0.250000  1
  Pd  Pd13  1  0.169307  0.339356  0.750000  1
  Pd  Pd14  1  0.660644  0.830693  0.750000  1
  Pt  Pt15  1  0.168937  0.831063  0.750000  1
