# generated using pymatgen
data_Ti16V(Si4W)3
_symmetry_space_group_name_H-M   'P 1'
_cell_length_a   7.38463347
_cell_length_b   7.38471062
_cell_length_c   13.92118300
_cell_angle_alpha   90.00000000
_cell_angle_beta   90.00000000
_cell_angle_gamma   140.44441083
_symmetry_Int_Tables_number   1
_chemical_formula_structural   Ti16V(Si4W)3
_chemical_formula_sum   'Ti16 V1 Si12 W3'
_cell_volume   483.45909824
_cell_formula_units_Z   1
loop_
 _symmetry_equiv_pos_site_id
 _symmetry_equiv_pos_as_xyz
  1  'x, y, z'
loop_
 _atom_site_type_symbol
 _atom_site_label
 _atom_site_symmetry_multiplicity
 _atom_site_fract_x
 _atom_site_fract_y
 _atom_site_fract_z
 _atom_site_occupancy
  Ti  Ti0  1  0.071449  0.429822  0.400051  1
  Ti  Ti1  1  0.571544  0.928773  0.898369  1
  Ti  Ti2  1  0.429800  0.071466  0.599975  1
  Ti  Ti3  1  0.928779  0.571548  0.101645  1
  Ti  Ti4  1  0.848985  0.648322  0.678809  1
  Ti  Ti5  1  0.351372  0.149601  0.178925  1
  Ti  Ti6  1  0.648335  0.849008  0.321216  1
  Ti  Ti7  1  0.149630  0.351383  0.821101  1
  Ti  Ti8  1  0.648335  0.849008  0.678784  1
  Ti  Ti9  1  0.149630  0.351383  0.178899  1
  Ti  Ti10  1  0.848985  0.648322  0.321191  1
  Ti  Ti11  1  0.351372  0.149601  0.821075  1
  Ti  Ti12  1  0.429800  0.071466  0.400025  1
  Ti  Ti13  1  0.928779  0.571548  0.898355  1
  Ti  Ti14  1  0.071449  0.429822  0.599949  1
  Ti  Ti15  1  0.571544  0.928773  0.101631  1
  V  V16  1  0.999913  0.999925  0.500000  1
  Si  Si17  1  0.249871  0.750087  0.749452  1
  Si  Si18  1  0.750166  0.249831  0.250545  1
  Si  Si19  1  0.750166  0.249831  0.749455  1
  Si  Si20  1  0.249871  0.750087  0.250548  1
  Si  Si21  1  0.244341  0.244440  0.659207  1
  Si  Si22  1  0.750219  0.750286  0.161751  1
  Si  Si23  1  0.244341  0.244440  0.340793  1
  Si  Si24  1  0.750219  0.750286  0.838249  1
  Si  Si25  1  0.596167  0.914093  0.500000  1
  Si  Si26  1  0.088074  0.412644  0.000000  1
  Si  Si27  1  0.914109  0.596144  0.500000  1
  Si  Si28  1  0.412690  0.088061  0.000000  1
  W  W29  1  0.500625  0.500598  0.000000  1
  W  W30  1  0.499416  0.499408  0.500000  1
  W  W31  1  0.000024  0.999996  0.000000  1
