# generated using pymatgen
data_LiY2(ScSi2)2
_symmetry_space_group_name_H-M   'P 1'
_cell_length_a   6.89595900
_cell_length_b   7.41840000
_cell_length_c   14.07309400
_cell_angle_alpha   90.00000000
_cell_angle_beta   90.00000000
_cell_angle_gamma   90.00000000
_symmetry_Int_Tables_number   1
_chemical_formula_structural   LiY2(ScSi2)2
_chemical_formula_sum   'Li4 Y8 Sc8 Si16'
_cell_volume   719.93701990
_cell_formula_units_Z   4
loop_
 _symmetry_equiv_pos_site_id
 _symmetry_equiv_pos_as_xyz
  1  'x, y, z'
loop_
 _atom_site_type_symbol
 _atom_site_label
 _atom_site_symmetry_multiplicity
 _atom_site_fract_x
 _atom_site_fract_y
 _atom_site_fract_z
 _atom_site_occupancy
  Li  Li0  1  0.158628  0.508070  0.750000  1
  Li  Li1  1  0.841372  0.491930  0.250000  1
  Li  Li2  1  0.341372  0.008070  0.250000  1
  Li  Li3  1  0.658628  0.991930  0.750000  1
  Y  Y4  1  0.013292  0.182104  0.098700  1
  Y  Y5  1  0.986708  0.817896  0.901300  1
  Y  Y6  1  0.486708  0.682104  0.901300  1
  Y  Y7  1  0.986708  0.817896  0.598700  1
  Y  Y8  1  0.513292  0.317896  0.098700  1
  Y  Y9  1  0.013292  0.182104  0.401300  1
  Y  Y10  1  0.513292  0.317896  0.401300  1
  Y  Y11  1  0.486708  0.682104  0.598700  1
  Sc  Sc12  1  0.329942  0.179461  0.626998  1
  Sc  Sc13  1  0.670058  0.820539  0.373002  1
  Sc  Sc14  1  0.170058  0.679461  0.373002  1
  Sc  Sc15  1  0.670058  0.820539  0.126998  1
  Sc  Sc16  1  0.829942  0.320539  0.626998  1
  Sc  Sc17  1  0.329942  0.179461  0.873002  1
  Sc  Sc18  1  0.829942  0.320539  0.873002  1
  Sc  Sc19  1  0.170058  0.679461  0.126998  1
  Si  Si20  1  0.030595  0.102826  0.750000  1
  Si  Si21  1  0.969405  0.897174  0.250000  1
  Si  Si22  1  0.469405  0.602826  0.250000  1
  Si  Si23  1  0.530595  0.397174  0.750000  1
  Si  Si24  1  0.281357  0.882000  0.750000  1
  Si  Si25  1  0.718643  0.118000  0.250000  1
  Si  Si26  1  0.218643  0.382000  0.250000  1
  Si  Si27  1  0.781357  0.618000  0.750000  1
  Si  Si28  1  0.157882  0.462957  0.535147  1
  Si  Si29  1  0.842118  0.537043  0.464853  1
  Si  Si30  1  0.342118  0.962957  0.464853  1
  Si  Si31  1  0.842118  0.537043  0.035147  1
  Si  Si32  1  0.657882  0.037043  0.535147  1
  Si  Si33  1  0.157882  0.462957  0.964853  1
  Si  Si34  1  0.657882  0.037043  0.964853  1
  Si  Si35  1  0.342118  0.962957  0.035147  1
