# generated using pymatgen
data_CsCaHg2(NO3)8
_symmetry_space_group_name_H-M   'P 1'
_cell_length_a   8.28844189
_cell_length_b   8.33518319
_cell_length_c   8.30161830
_cell_angle_alpha   90.26190391
_cell_angle_beta   88.72585396
_cell_angle_gamma   90.13560538
_symmetry_Int_Tables_number   1
_chemical_formula_structural   CsCaHg2(NO3)8
_chemical_formula_sum   'Cs1 Ca1 Hg2 N8 O24'
_cell_volume   573.37368884
_cell_formula_units_Z   1
loop_
 _symmetry_equiv_pos_site_id
 _symmetry_equiv_pos_as_xyz
  1  'x, y, z'
loop_
 _atom_site_type_symbol
 _atom_site_label
 _atom_site_symmetry_multiplicity
 _atom_site_fract_x
 _atom_site_fract_y
 _atom_site_fract_z
 _atom_site_occupancy
  Cs  Cs0  1  0.500000  0.000000  0.500000  1
  Ca  Ca1  1  0.000000  0.000000  0.000000  1
  Hg  Hg2  1  0.000000  0.500000  0.500000  1
  Hg  Hg3  1  0.500000  0.500000  0.000000  1
  N  N4  1  0.328832  0.378407  0.310314  1
  N  N5  1  0.303812  0.177242  0.888799  1
  N  N6  1  0.123155  0.806402  0.331832  1
  N  N7  1  0.825553  0.331576  0.169334  1
  N  N8  1  0.671168  0.621593  0.689686  1
  N  N9  1  0.174447  0.668424  0.830666  1
  N  N10  1  0.876845  0.193598  0.668168  1
  N  N11  1  0.696188  0.822758  0.111201  1
  O  O12  1  0.732282  0.312680  0.050646  1
  O  O13  1  0.147668  0.922431  0.236149  1
  O  O14  1  0.210117  0.783444  0.449730  1
  O  O15  1  0.215541  0.218700  0.007473  1
  O  O16  1  0.232954  0.344753  0.428876  1
  O  O17  1  0.447554  0.290485  0.282169  1
  O  O18  1  0.301080  0.500161  0.223703  1
  O  O19  1  0.195341  0.551830  0.735559  1
  O  O20  1  0.995577  0.288957  0.695760  1
  O  O21  1  0.731906  0.947145  0.190347  1
  O  O22  1  0.062114  0.767799  0.811385  1
  O  O23  1  0.571376  0.741207  0.152828  1
  O  O24  1  0.852332  0.077569  0.763851  1
  O  O25  1  0.789883  0.216556  0.550270  1
  O  O26  1  0.784459  0.781300  0.992527  1
  O  O27  1  0.267718  0.687320  0.949354  1
  O  O28  1  0.767046  0.655247  0.571124  1
  O  O29  1  0.552446  0.709515  0.717831  1
  O  O30  1  0.698920  0.499839  0.776297  1
  O  O31  1  0.804659  0.448170  0.264441  1
  O  O32  1  0.004423  0.711043  0.304240  1
  O  O33  1  0.268094  0.052855  0.809653  1
  O  O34  1  0.937886  0.232201  0.188615  1
  O  O35  1  0.428624  0.258793  0.847172  1
