# generated using pymatgen
data_Tm4TlIr
_symmetry_space_group_name_H-M   'P 1'
_cell_length_a   9.56713566
_cell_length_b   9.56713527
_cell_length_c   9.56713600
_cell_angle_alpha   60.00000439
_cell_angle_beta   60.00000573
_cell_angle_gamma   60.00001046
_symmetry_Int_Tables_number   1
_chemical_formula_structural   Tm4TlIr
_chemical_formula_sum   'Tm16 Tl4 Ir4'
_cell_volume   619.19988062
_cell_formula_units_Z   4
loop_
 _symmetry_equiv_pos_site_id
 _symmetry_equiv_pos_as_xyz
  1  'x, y, z'
loop_
 _atom_site_type_symbol
 _atom_site_label
 _atom_site_symmetry_multiplicity
 _atom_site_fract_x
 _atom_site_fract_y
 _atom_site_fract_z
 _atom_site_occupancy
  Tm  Tm0  1  0.810008  0.189992  0.810008  1
  Tm  Tm1  1  0.940064  0.559936  0.559936  1
  Tm  Tm2  1  0.559936  0.940064  0.559936  1
  Tm  Tm3  1  0.810008  0.189992  0.189992  1
  Tm  Tm4  1  0.189992  0.810008  0.189992  1
  Tm  Tm5  1  0.348904  0.953288  0.348904  1
  Tm  Tm6  1  0.940064  0.940064  0.559936  1
  Tm  Tm7  1  0.559936  0.940064  0.940064  1
  Tm  Tm8  1  0.189992  0.810008  0.810008  1
  Tm  Tm9  1  0.348904  0.348904  0.953288  1
  Tm  Tm10  1  0.559936  0.559936  0.940064  1
  Tm  Tm11  1  0.348904  0.348904  0.348904  1
  Tm  Tm12  1  0.189992  0.189992  0.810008  1
  Tm  Tm13  1  0.810008  0.810008  0.189992  1
  Tm  Tm14  1  0.940064  0.559936  0.940064  1
  Tm  Tm15  1  0.953288  0.348904  0.348904  1
  Tl  Tl16  1  0.586395  0.586395  0.586395  1
  Tl  Tl17  1  0.586395  0.240815  0.586395  1
  Tl  Tl18  1  0.586395  0.586395  0.240815  1
  Tl  Tl19  1  0.240815  0.586395  0.586395  1
  Ir  Ir20  1  0.141495  0.141495  0.575514  1
  Ir  Ir21  1  0.575514  0.141495  0.141495  1
  Ir  Ir22  1  0.141495  0.575514  0.141495  1
  Ir  Ir23  1  0.141495  0.141495  0.141495  1
