# generated using pymatgen
data_TbY3Er2GaCo2
_symmetry_space_group_name_H-M   'P 1'
_cell_length_a   8.24557525
_cell_length_b   8.27367270
_cell_length_c   8.27367213
_cell_angle_alpha   112.10031456
_cell_angle_beta   109.29115352
_cell_angle_gamma   107.18916671
_symmetry_Int_Tables_number   1
_chemical_formula_structural   TbY3Er2GaCo2
_chemical_formula_sum   'Tb2 Y6 Er4 Ga2 Co4'
_cell_volume   433.00541853
_cell_formula_units_Z   2
loop_
 _symmetry_equiv_pos_site_id
 _symmetry_equiv_pos_as_xyz
  1  'x, y, z'
loop_
 _atom_site_type_symbol
 _atom_site_label
 _atom_site_symmetry_multiplicity
 _atom_site_fract_x
 _atom_site_fract_y
 _atom_site_fract_z
 _atom_site_occupancy
  Tb  Tb0  1  0.959362  0.261854  0.697508  1
  Tb  Tb1  1  0.040638  0.738146  0.302492  1
  Y  Y2  1  0.563403  0.260222  0.303180  1
  Y  Y3  1  0.436597  0.739778  0.696820  1
  Y  Y4  1  0.180056  0.780001  0.960881  1
  Y  Y5  1  0.819944  0.780824  0.599946  1
  Y  Y6  1  0.180056  0.219176  0.400054  1
  Y  Y7  1  0.819944  0.219999  0.039119  1
  Er  Er8  1  0.672031  0.858968  0.185880  1
  Er  Er9  1  0.327969  0.513850  0.186938  1
  Er  Er10  1  0.327969  0.141032  0.814120  1
  Er  Er11  1  0.672031  0.486150  0.813062  1
  Ga  Ga12  1  0.000000  0.500000  0.500000  1
  Ga  Ga13  1  0.500000  0.000000  0.500000  1
  Co  Co14  1  0.116797  0.115448  0.001351  1
  Co  Co15  1  0.883203  0.884552  0.998649  1
  Co  Co16  1  0.661559  0.500542  0.161018  1
  Co  Co17  1  0.338441  0.499458  0.838982  1
