# generated using pymatgen
data_Nd7Sm(Si3Pt)4
_symmetry_space_group_name_H-M   'P 1'
_cell_length_a   8.23670849
_cell_length_b   8.23670911
_cell_length_c   8.58220400
_cell_angle_alpha   90.00000000
_cell_angle_beta   90.00000000
_cell_angle_gamma   120.00061740
_symmetry_Int_Tables_number   1
_chemical_formula_structural   Nd7Sm(Si3Pt)4
_chemical_formula_sum   'Nd7 Sm1 Si12 Pt4'
_cell_volume   504.23639333
_cell_formula_units_Z   1
loop_
 _symmetry_equiv_pos_site_id
 _symmetry_equiv_pos_as_xyz
  1  'x, y, z'
loop_
 _atom_site_type_symbol
 _atom_site_label
 _atom_site_symmetry_multiplicity
 _atom_site_fract_x
 _atom_site_fract_y
 _atom_site_fract_z
 _atom_site_occupancy
  Nd  Nd0  1  0.500115  0.499885  0.250000  1
  Nd  Nd1  1  0.000243  0.500121  0.750000  1
  Nd  Nd2  1  0.999767  0.499856  0.250000  1
  Nd  Nd3  1  0.499879  0.999757  0.750000  1
  Nd  Nd4  1  0.500144  0.000233  0.250000  1
  Nd  Nd5  1  0.000006  0.999994  0.750000  1
  Nd  Nd6  1  0.000006  0.999994  0.250000  1
  Sm  Sm7  1  0.499829  0.500171  0.750000  1
  Si  Si8  1  0.834065  0.165935  0.999556  1
  Si  Si9  1  0.165922  0.834078  0.000712  1
  Si  Si10  1  0.331726  0.166150  0.998622  1
  Si  Si11  1  0.165922  0.834078  0.499288  1
  Si  Si12  1  0.668267  0.833822  0.999816  1
  Si  Si13  1  0.834065  0.165935  0.500444  1
  Si  Si14  1  0.833850  0.668274  0.998622  1
  Si  Si15  1  0.668267  0.833822  0.500184  1
  Si  Si16  1  0.166178  0.331733  0.999816  1
  Si  Si17  1  0.331726  0.166150  0.501378  1
  Si  Si18  1  0.166178  0.331733  0.500184  1
  Si  Si19  1  0.833850  0.668274  0.501378  1
  Pt  Pt20  1  0.666367  0.333633  0.998139  1
  Pt  Pt21  1  0.333631  0.666369  0.998393  1
  Pt  Pt22  1  0.333631  0.666369  0.501607  1
  Pt  Pt23  1  0.666367  0.333633  0.501861  1
