# generated using pymatgen
data_Li4TaMn4Nb3O16
_symmetry_space_group_name_H-M   'P 1'
_cell_length_a   6.26342102
_cell_length_b   8.66122923
_cell_length_c   6.26158658
_cell_angle_alpha   89.92895782
_cell_angle_beta   89.99981099
_cell_angle_gamma   90.00066139
_symmetry_Int_Tables_number   1
_chemical_formula_structural   Li4TaMn4Nb3O16
_chemical_formula_sum   'Li4 Ta1 Mn4 Nb3 O16'
_cell_volume   339.68408082
_cell_formula_units_Z   1
loop_
 _symmetry_equiv_pos_site_id
 _symmetry_equiv_pos_as_xyz
  1  'x, y, z'
loop_
 _atom_site_type_symbol
 _atom_site_label
 _atom_site_symmetry_multiplicity
 _atom_site_fract_x
 _atom_site_fract_y
 _atom_site_fract_z
 _atom_site_occupancy
  Li  Li0  1  0.218908  0.999991  0.000002  1
  Li  Li1  1  0.777691  0.499994  0.999974  1
  Li  Li2  1  0.000271  0.247984  0.223762  1
  Li  Li3  1  0.000286  0.752016  0.776217  1
  Ta  Ta4  1  0.226717  0.000001  0.500004  1
  Mn  Mn5  1  0.253179  0.626010  0.254395  1
  Mn  Mn6  1  0.253183  0.373992  0.745614  1
  Mn  Mn7  1  0.748956  0.876899  0.254390  1
  Mn  Mn8  1  0.748954  0.123108  0.745610  1
  Nb  Nb9  1  0.779801  0.499999  0.499990  1
  Nb  Nb10  1  0.499714  0.748815  0.779161  1
  Nb  Nb11  1  0.499705  0.251183  0.220845  1
  O  O12  1  0.263737  0.253085  0.029721  1
  O  O13  1  0.735450  0.245613  0.029633  1
  O  O14  1  0.031748  0.997670  0.266231  1
  O  O15  1  0.970328  0.502761  0.263370  1
  O  O16  1  0.031739  0.002334  0.733770  1
  O  O17  1  0.970345  0.497240  0.736597  1
  O  O18  1  0.263742  0.746918  0.970287  1
  O  O19  1  0.735458  0.754394  0.970365  1
  O  O20  1  0.482279  0.019501  0.272251  1
  O  O21  1  0.514644  0.479943  0.268996  1
  O  O22  1  0.268197  0.229113  0.484132  1
  O  O23  1  0.729924  0.270444  0.485098  1
  O  O24  1  0.268190  0.770888  0.515882  1
  O  O25  1  0.729910  0.729552  0.514891  1
  O  O26  1  0.514670  0.520049  0.731051  1
  O  O27  1  0.482275  0.980503  0.727768  1
