# generated using pymatgen
data_K6LuSbSe3
_symmetry_space_group_name_H-M   'P 1'
_cell_length_a   10.66189300
_cell_length_b   10.66189172
_cell_length_c   8.62482400
_cell_angle_alpha   90.00000000
_cell_angle_beta   90.00000000
_cell_angle_gamma   120.00000087
_symmetry_Int_Tables_number   1
_chemical_formula_structural   K6LuSbSe3
_chemical_formula_sum   'K12 Lu2 Sb2 Se6'
_cell_volume   849.08165299
_cell_formula_units_Z   2
loop_
 _symmetry_equiv_pos_site_id
 _symmetry_equiv_pos_as_xyz
  1  'x, y, z'
loop_
 _atom_site_type_symbol
 _atom_site_label
 _atom_site_symmetry_multiplicity
 _atom_site_fract_x
 _atom_site_fract_y
 _atom_site_fract_z
 _atom_site_occupancy
  K  K0  1  0.144819  0.855181  0.537760  1
  K  K1  1  0.289636  0.144819  0.037760  1
  K  K2  1  0.855181  0.710364  0.037760  1
  K  K3  1  0.144819  0.289636  0.537760  1
  K  K4  1  0.710364  0.855181  0.537760  1
  K  K5  1  0.855181  0.144819  0.037760  1
  K  K6  1  0.529596  0.470404  0.371479  1
  K  K7  1  0.059194  0.529596  0.871479  1
  K  K8  1  0.470404  0.940806  0.871479  1
  K  K9  1  0.529596  0.059194  0.371479  1
  K  K10  1  0.940806  0.470404  0.371479  1
  K  K11  1  0.470404  0.529596  0.871479  1
  Lu  Lu12  1  0.333333  0.666667  0.245839  1
  Lu  Lu13  1  0.666667  0.333333  0.745839  1
  Sb  Sb14  1  0.333333  0.666667  0.582634  1
  Sb  Sb15  1  0.666667  0.333333  0.082634  1
  Se  Se16  1  0.192753  0.807247  0.151170  1
  Se  Se17  1  0.385504  0.192753  0.651170  1
  Se  Se18  1  0.807247  0.614496  0.651170  1
  Se  Se19  1  0.192753  0.385504  0.151170  1
  Se  Se20  1  0.614496  0.807247  0.151170  1
  Se  Se21  1  0.807247  0.192753  0.651170  1
