# generated using pymatgen
data_Ba3Na3AsP2
_symmetry_space_group_name_H-M   'P 1'
_cell_length_a   8.06850300
_cell_length_b   8.06850362
_cell_length_c   4.72582100
_cell_angle_alpha   90.00000000
_cell_angle_beta   90.00000000
_cell_angle_gamma   120.00000154
_symmetry_Int_Tables_number   1
_chemical_formula_structural   Ba3Na3AsP2
_chemical_formula_sum   'Ba3 Na3 As1 P2'
_cell_volume   266.43658343
_cell_formula_units_Z   1
loop_
 _symmetry_equiv_pos_site_id
 _symmetry_equiv_pos_as_xyz
  1  'x, y, z'
loop_
 _atom_site_type_symbol
 _atom_site_label
 _atom_site_symmetry_multiplicity
 _atom_site_fract_x
 _atom_site_fract_y
 _atom_site_fract_z
 _atom_site_occupancy
  Ba  Ba0  1  0.000000  0.584321  0.500000  1
  Ba  Ba1  1  0.584321  0.000000  0.500000  1
  Ba  Ba2  1  0.415679  0.415679  0.500000  1
  Na  Na3  1  0.244856  0.000000  0.000000  1
  Na  Na4  1  0.755144  0.755144  0.000000  1
  Na  Na5  1  0.000000  0.244856  0.000000  1
  As  As6  1  0.000000  0.000000  0.500000  1
  P  P7  1  0.666667  0.333333  0.000000  1
  P  P8  1  0.333333  0.666667  0.000000  1
