# generated using pymatgen
data_TbHo15Mg2(InIr2)2
_symmetry_space_group_name_H-M   'P 1'
_cell_length_a   9.66189817
_cell_length_b   9.66189835
_cell_length_c   9.67615100
_cell_angle_alpha   59.95119417
_cell_angle_beta   59.95119358
_cell_angle_gamma   59.73312003
_symmetry_Int_Tables_number   1
_chemical_formula_structural   TbHo15Mg2(InIr2)2
_chemical_formula_sum   'Tb1 Ho15 Mg2 In2 Ir4'
_cell_volume   636.95604264
_cell_formula_units_Z   1
loop_
 _symmetry_equiv_pos_site_id
 _symmetry_equiv_pos_as_xyz
  1  'x, y, z'
loop_
 _atom_site_type_symbol
 _atom_site_label
 _atom_site_symmetry_multiplicity
 _atom_site_fract_x
 _atom_site_fract_y
 _atom_site_fract_z
 _atom_site_occupancy
  Tb  Tb0  1  0.434469  0.434469  0.065531  1
  Ho  Ho1  1  0.650967  0.650967  0.044934  1
  Ho  Ho2  1  0.189640  0.811588  0.190006  1
  Ho  Ho3  1  0.060152  0.439335  0.061276  1
  Ho  Ho4  1  0.189640  0.811588  0.808765  1
  Ho  Ho5  1  0.060152  0.439335  0.439236  1
  Ho  Ho6  1  0.811588  0.189640  0.190006  1
  Ho  Ho7  1  0.650967  0.650967  0.653135  1
  Ho  Ho8  1  0.811588  0.189640  0.808765  1
  Ho  Ho9  1  0.187481  0.187481  0.812519  1
  Ho  Ho10  1  0.042923  0.652959  0.652059  1
  Ho  Ho11  1  0.439335  0.060152  0.061276  1
  Ho  Ho12  1  0.061811  0.061811  0.438189  1
  Ho  Ho13  1  0.652959  0.042923  0.652059  1
  Ho  Ho14  1  0.807429  0.807429  0.192571  1
  Ho  Ho15  1  0.439335  0.060152  0.439236  1
  Mg  Mg16  1  0.423808  0.423808  0.419177  1
  Mg  Mg17  1  0.423808  0.423808  0.733208  1
  In  In18  1  0.416353  0.748210  0.417719  1
  In  In19  1  0.748210  0.416353  0.417719  1
  Ir  Ir20  1  0.423377  0.859111  0.858755  1
  Ir  Ir21  1  0.857449  0.857449  0.860754  1
  Ir  Ir22  1  0.859111  0.423377  0.858755  1
  Ir  Ir23  1  0.857449  0.857449  0.424346  1
