# generated using pymatgen
data_LiIn5Co2
_symmetry_space_group_name_H-M   'P 1'
_cell_length_a   6.92660400
_cell_length_b   6.92660400
_cell_length_c   6.74948500
_cell_angle_alpha   90.00000000
_cell_angle_beta   90.00000000
_cell_angle_gamma   90.00000000
_symmetry_Int_Tables_number   1
_chemical_formula_structural   LiIn5Co2
_chemical_formula_sum   'Li2 In10 Co4'
_cell_volume   323.82573148
_cell_formula_units_Z   2
loop_
 _symmetry_equiv_pos_site_id
 _symmetry_equiv_pos_as_xyz
  1  'x, y, z'
loop_
 _atom_site_type_symbol
 _atom_site_label
 _atom_site_symmetry_multiplicity
 _atom_site_fract_x
 _atom_site_fract_y
 _atom_site_fract_z
 _atom_site_occupancy
  Li  Li0  1  0.000000  0.500000  0.000000  1
  Li  Li1  1  0.000000  0.500000  0.500000  1
  In  In2  1  0.500000  0.000000  0.500000  1
  In  In3  1  0.500000  0.000000  0.000000  1
  In  In4  1  0.143227  0.180970  0.256117  1
  In  In5  1  0.319030  0.643227  0.756117  1
  In  In6  1  0.680970  0.356773  0.756117  1
  In  In7  1  0.680970  0.356773  0.243883  1
  In  In8  1  0.319030  0.643227  0.243883  1
  In  In9  1  0.856773  0.819030  0.256117  1
  In  In10  1  0.143227  0.180970  0.743883  1
  In  In11  1  0.856773  0.819030  0.743883  1
  Co  Co12  1  0.368152  0.348815  0.000000  1
  Co  Co13  1  0.151185  0.868152  0.500000  1
  Co  Co14  1  0.848815  0.131848  0.500000  1
  Co  Co15  1  0.631848  0.651185  0.000000  1
