# generated using pymatgen
data_Er4Lu6Si5Te
_symmetry_space_group_name_H-M   'P 1'
_cell_length_a   8.36389600
_cell_length_b   8.39089509
_cell_length_c   6.23632500
_cell_angle_alpha   90.00000000
_cell_angle_beta   90.00000000
_cell_angle_gamma   119.89362533
_symmetry_Int_Tables_number   1
_chemical_formula_structural   Er4Lu6Si5Te
_chemical_formula_sum   'Er4 Lu6 Si5 Te1'
_cell_volume   379.43798964
_cell_formula_units_Z   1
loop_
 _symmetry_equiv_pos_site_id
 _symmetry_equiv_pos_as_xyz
  1  'x, y, z'
loop_
 _atom_site_type_symbol
 _atom_site_label
 _atom_site_symmetry_multiplicity
 _atom_site_fract_x
 _atom_site_fract_y
 _atom_site_fract_z
 _atom_site_occupancy
  Er  Er0  1  0.765711  0.000000  0.750000  1
  Er  Er1  1  0.754229  0.754027  0.250000  1
  Er  Er2  1  0.000201  0.245973  0.250000  1
  Er  Er3  1  0.241225  0.000000  0.250000  1
  Lu  Lu4  1  0.675761  0.344743  0.002970  1
  Lu  Lu5  1  0.331016  0.655257  0.497030  1
  Lu  Lu6  1  0.331016  0.655257  0.002970  1
  Lu  Lu7  1  0.675761  0.344743  0.497030  1
  Lu  Lu8  1  0.985396  0.744685  0.750000  1
  Lu  Lu9  1  0.240711  0.255315  0.750000  1
  Si  Si10  1  0.395384  0.392143  0.250000  1
  Si  Si11  1  0.003241  0.607857  0.250000  1
  Si  Si12  1  0.000042  0.396815  0.750000  1
  Si  Si13  1  0.603228  0.603185  0.750000  1
  Si  Si14  1  0.605642  0.000000  0.250000  1
  Te  Te15  1  0.391439  0.000000  0.750000  1
