# generated using pymatgen
data_LiLa8Sc11Si16
_symmetry_space_group_name_H-M   'P 1'
_cell_length_a   7.26623713
_cell_length_b   7.63068423
_cell_length_c   14.36261800
_cell_angle_alpha   90.00000000
_cell_angle_beta   90.00000000
_cell_angle_gamma   90.21876447
_symmetry_Int_Tables_number   1
_chemical_formula_structural   LiLa8Sc11Si16
_chemical_formula_sum   'Li1 La8 Sc11 Si16'
_cell_volume   796.34909932
_cell_formula_units_Z   1
loop_
 _symmetry_equiv_pos_site_id
 _symmetry_equiv_pos_as_xyz
  1  'x, y, z'
loop_
 _atom_site_type_symbol
 _atom_site_label
 _atom_site_symmetry_multiplicity
 _atom_site_fract_x
 _atom_site_fract_y
 _atom_site_fract_z
 _atom_site_occupancy
  Li  Li0  1  0.652794  0.007452  0.750000  1
  La  La1  1  0.011908  0.172612  0.402305  1
  La  La2  1  0.511177  0.330586  0.401936  1
  La  La3  1  0.490571  0.680314  0.899340  1
  La  La4  1  0.490571  0.680314  0.600660  1
  La  La5  1  0.980404  0.827188  0.601027  1
  La  La6  1  0.980404  0.827188  0.898973  1
  La  La7  1  0.511177  0.330586  0.098064  1
  La  La8  1  0.011908  0.172612  0.097695  1
  Sc  Sc9  1  0.335878  0.172215  0.625918  1
  Sc  Sc10  1  0.671723  0.823030  0.373523  1
  Sc  Sc11  1  0.171456  0.676378  0.375055  1
  Sc  Sc12  1  0.827533  0.316344  0.874397  1
  Sc  Sc13  1  0.827533  0.316344  0.625603  1
  Sc  Sc14  1  0.841506  0.503574  0.250000  1
  Sc  Sc15  1  0.341098  0.995866  0.250000  1
  Sc  Sc16  1  0.335878  0.172215  0.874082  1
  Sc  Sc17  1  0.171456  0.676378  0.124945  1
  Sc  Sc18  1  0.671723  0.823030  0.126477  1
  Sc  Sc19  1  0.158113  0.493057  0.750000  1
  Si  Si20  1  0.278698  0.889286  0.750000  1
  Si  Si21  1  0.467803  0.627264  0.250000  1
  Si  Si22  1  0.041692  0.126164  0.750000  1
  Si  Si23  1  0.532021  0.381549  0.750000  1
  Si  Si24  1  0.151449  0.464456  0.540976  1
  Si  Si25  1  0.969292  0.871509  0.250000  1
  Si  Si26  1  0.708136  0.114515  0.250000  1
  Si  Si27  1  0.851541  0.536738  0.038048  1
  Si  Si28  1  0.350898  0.963513  0.039642  1
  Si  Si29  1  0.151449  0.464456  0.959024  1
  Si  Si30  1  0.650462  0.040290  0.532480  1
  Si  Si31  1  0.350898  0.963513  0.460358  1
  Si  Si32  1  0.851541  0.536738  0.461952  1
  Si  Si33  1  0.790684  0.594503  0.750000  1
  Si  Si34  1  0.208165  0.387933  0.250000  1
  Si  Si35  1  0.650462  0.040290  0.967520  1
