# generated using pymatgen
data_Tb6Si2Hg
_symmetry_space_group_name_H-M   'P 1'
_cell_length_a   8.54114427
_cell_length_b   8.54112489
_cell_length_c   8.54114507
_cell_angle_alpha   111.61695555
_cell_angle_beta   110.71489453
_cell_angle_gamma   106.13393879
_symmetry_Int_Tables_number   1
_chemical_formula_structural   Tb6Si2Hg
_chemical_formula_sum   'Tb12 Si4 Hg2'
_cell_volume   478.40751325
_cell_formula_units_Z   2
loop_
 _symmetry_equiv_pos_site_id
 _symmetry_equiv_pos_as_xyz
  1  'x, y, z'
loop_
 _atom_site_type_symbol
 _atom_site_label
 _atom_site_symmetry_multiplicity
 _atom_site_fract_x
 _atom_site_fract_y
 _atom_site_fract_z
 _atom_site_occupancy
  Tb  Tb0  1  0.444206  0.243469  0.200735  1
  Tb  Tb1  1  0.555794  0.756531  0.799265  1
  Tb  Tb2  1  0.042734  0.243469  0.799263  1
  Tb  Tb3  1  0.957266  0.756531  0.200737  1
  Tb  Tb4  1  0.180906  0.273935  0.454843  1
  Tb  Tb5  1  0.819094  0.726065  0.545157  1
  Tb  Tb6  1  0.180906  0.726065  0.906971  1
  Tb  Tb7  1  0.819094  0.273935  0.093029  1
  Tb  Tb8  1  0.323269  0.619755  0.296486  1
  Tb  Tb9  1  0.676731  0.380245  0.703514  1
  Tb  Tb10  1  0.323270  0.026784  0.703514  1
  Tb  Tb11  1  0.676730  0.973216  0.296486  1
  Si  Si12  1  0.365040  0.000000  0.365040  1
  Si  Si13  1  0.634960  0.000000  0.634960  1
  Si  Si14  1  0.116977  0.616977  0.500000  1
  Si  Si15  1  0.883023  0.383023  0.500000  1
  Hg  Hg16  1  0.500000  0.500000  0.000000  1
  Hg  Hg17  1  0.000000  0.000000  0.000000  1
