# generated using pymatgen
data_Yb3Dy5Ga12NiAu3
_symmetry_space_group_name_H-M   'P 1'
_cell_length_a   7.16754002
_cell_length_b   8.86725173
_cell_length_c   8.85730300
_cell_angle_alpha   120.10125509
_cell_angle_beta   89.99585922
_cell_angle_gamma   89.99874259
_symmetry_Int_Tables_number   1
_chemical_formula_structural   Yb3Dy5Ga12NiAu3
_chemical_formula_sum   'Yb3 Dy5 Ga12 Ni1 Au3'
_cell_volume   487.02053592
_cell_formula_units_Z   1
loop_
 _symmetry_equiv_pos_site_id
 _symmetry_equiv_pos_as_xyz
  1  'x, y, z'
loop_
 _atom_site_type_symbol
 _atom_site_label
 _atom_site_symmetry_multiplicity
 _atom_site_fract_x
 _atom_site_fract_y
 _atom_site_fract_z
 _atom_site_occupancy
  Yb  Yb0  1  0.254492  0.959220  0.480037  1
  Yb  Yb1  1  0.750354  0.484929  0.969333  1
  Yb  Yb2  1  0.254532  0.518999  0.038411  1
  Dy  Dy3  1  0.739911  0.001391  0.003001  1
  Dy  Dy4  1  0.247273  0.001822  0.999513  1
  Dy  Dy5  1  0.749610  0.486055  0.513828  1
  Dy  Dy6  1  0.256689  0.521434  0.479902  1
  Dy  Dy7  1  0.748900  0.026627  0.512441  1
  Ga  Ga8  1  0.952199  0.834475  0.163632  1
  Ga  Ga9  1  0.048922  0.166250  0.833347  1
  Ga  Ga10  1  0.953287  0.328200  0.163166  1
  Ga  Ga11  1  0.456351  0.165039  0.835563  1
  Ga  Ga12  1  0.048981  0.669167  0.835052  1
  Ga  Ga13  1  0.544987  0.823721  0.173047  1
  Ga  Ga14  1  0.953156  0.837083  0.674268  1
  Ga  Ga15  1  0.455062  0.672815  0.837371  1
  Ga  Ga16  1  0.046921  0.164723  0.330149  1
  Ga  Ga17  1  0.545281  0.346819  0.171612  1
  Ga  Ga18  1  0.456921  0.162668  0.326369  1
  Ga  Ga19  1  0.545067  0.828922  0.656994  1
  Ni  Ni20  1  0.529759  0.666515  0.338215  1
  Au  Au21  1  0.960405  0.666497  0.333885  1
  Au  Au22  1  0.030135  0.333373  0.665487  1
  Au  Au23  1  0.470812  0.333259  0.665375  1
