# generated using pymatgen
data_Li2Fe2Co6NiP7Ru3
_symmetry_space_group_name_H-M   'P 1'
_cell_length_a   8.93109700
_cell_length_b   8.93037844
_cell_length_c   3.60131300
_cell_angle_alpha   90.00000000
_cell_angle_beta   90.00000000
_cell_angle_gamma   120.12706654
_symmetry_Int_Tables_number   1
_chemical_formula_structural   Li2Fe2Co6NiP7Ru3
_chemical_formula_sum   'Li2 Fe2 Co6 Ni1 P7 Ru3'
_cell_volume   248.43264947
_cell_formula_units_Z   1
loop_
 _symmetry_equiv_pos_site_id
 _symmetry_equiv_pos_as_xyz
  1  'x, y, z'
loop_
 _atom_site_type_symbol
 _atom_site_label
 _atom_site_symmetry_multiplicity
 _atom_site_fract_x
 _atom_site_fract_y
 _atom_site_fract_z
 _atom_site_occupancy
  Li  Li0  1  0.333130  0.665363  0.000000  1
  Li  Li1  1  0.668227  0.335585  0.500000  1
  Fe  Fe2  1  0.718187  0.879794  0.000000  1
  Fe  Fe3  1  0.160486  0.280136  0.000000  1
  Co  Co4  1  0.120180  0.836154  0.000000  1
  Co  Co5  1  0.624954  0.566041  0.000000  1
  Co  Co6  1  0.941772  0.375280  0.000000  1
  Co  Co7  1  0.559084  0.951545  0.500000  1
  Co  Co8  1  0.389552  0.442372  0.500000  1
  Co  Co9  1  0.048116  0.608606  0.500000  1
  Ni  Ni10  1  0.437051  0.061614  0.000000  1
  P  P11  1  0.583130  0.713110  0.500000  1
  P  P12  1  0.127977  0.416356  0.500000  1
  P  P13  1  0.285619  0.866625  0.500000  1
  P  P14  1  0.000104  0.998848  0.000000  1
  P  P15  1  0.877640  0.580157  0.000000  1
  P  P16  1  0.706387  0.119865  0.000000  1
  P  P17  1  0.415178  0.301379  0.000000  1
  Ru  Ru18  1  0.870930  0.777581  0.500000  1
  Ru  Ru19  1  0.903615  0.126538  0.500000  1
  Ru  Ru20  1  0.228680  0.097046  0.500000  1
