# generated using pymatgen
data_Tb6MgP12Rh17
_symmetry_space_group_name_H-M   'P 1'
_cell_length_a   3.94092800
_cell_length_b   11.24345600
_cell_length_c   12.83738500
_cell_angle_alpha   90.00000000
_cell_angle_beta   90.00000000
_cell_angle_gamma   90.00000000
_symmetry_Int_Tables_number   1
_chemical_formula_structural   Tb6MgP12Rh17
_chemical_formula_sum   'Tb6 Mg1 P12 Rh17'
_cell_volume   568.82004355
_cell_formula_units_Z   1
loop_
 _symmetry_equiv_pos_site_id
 _symmetry_equiv_pos_as_xyz
  1  'x, y, z'
loop_
 _atom_site_type_symbol
 _atom_site_label
 _atom_site_symmetry_multiplicity
 _atom_site_fract_x
 _atom_site_fract_y
 _atom_site_fract_z
 _atom_site_occupancy
  Tb  Tb0  1  0.000000  0.500000  0.519717  1
  Tb  Tb1  1  0.500000  0.000000  0.478968  1
  Tb  Tb2  1  0.500000  0.818132  0.205915  1
  Tb  Tb3  1  0.500000  0.181868  0.205915  1
  Tb  Tb4  1  0.000000  0.683036  0.795543  1
  Tb  Tb5  1  0.000000  0.316964  0.795543  1
  Mg  Mg6  1  0.500000  0.500000  0.156728  1
  P  P7  1  0.500000  0.500000  0.879800  1
  P  P8  1  0.000000  0.000000  0.120232  1
  P  P9  1  0.500000  0.500000  0.354779  1
  P  P10  1  0.000000  0.000000  0.647936  1
  P  P11  1  0.500000  0.314929  0.618667  1
  P  P12  1  0.500000  0.685071  0.618667  1
  P  P13  1  0.000000  0.186619  0.383095  1
  P  P14  1  0.000000  0.813381  0.383095  1
  P  P15  1  0.500000  0.847921  0.890642  1
  P  P16  1  0.500000  0.152079  0.890642  1
  P  P17  1  0.000000  0.661680  0.107021  1
  P  P18  1  0.000000  0.338320  0.107021  1
  Rh  Rh19  1  0.000000  0.000000  0.828227  1
  Rh  Rh20  1  0.500000  0.500000  0.702421  1
  Rh  Rh21  1  0.000000  0.000000  0.298374  1
  Rh  Rh22  1  0.000000  0.500000  0.984248  1
  Rh  Rh23  1  0.500000  0.000000  0.019461  1
  Rh  Rh24  1  0.500000  0.331466  0.993831  1
  Rh  Rh25  1  0.500000  0.668534  0.993831  1
  Rh  Rh26  1  0.000000  0.164452  0.004043  1
  Rh  Rh27  1  0.000000  0.835548  0.004043  1
  Rh  Rh28  1  0.500000  0.290454  0.433813  1
  Rh  Rh29  1  0.500000  0.709546  0.433813  1
  Rh  Rh30  1  0.000000  0.203782  0.571487  1
  Rh  Rh31  1  0.000000  0.796218  0.571487  1
  Rh  Rh32  1  0.500000  0.874068  0.710671  1
  Rh  Rh33  1  0.500000  0.125932  0.710671  1
  Rh  Rh34  1  0.000000  0.626731  0.289830  1
  Rh  Rh35  1  0.000000  0.373269  0.289830  1
