# generated using pymatgen
data_CaPr3(Sc3Sn4)2
_symmetry_space_group_name_H-M   'P 1'
_cell_length_a   7.81158901
_cell_length_b   8.05061199
_cell_length_c   15.00905500
_cell_angle_alpha   89.93162036
_cell_angle_beta   89.90380517
_cell_angle_gamma   90.11851750
_symmetry_Int_Tables_number   1
_chemical_formula_structural   CaPr3(Sc3Sn4)2
_chemical_formula_sum   'Ca2 Pr6 Sc12 Sn16'
_cell_volume   943.88650786
_cell_formula_units_Z   2
loop_
 _symmetry_equiv_pos_site_id
 _symmetry_equiv_pos_as_xyz
  1  'x, y, z'
loop_
 _atom_site_type_symbol
 _atom_site_label
 _atom_site_symmetry_multiplicity
 _atom_site_fract_x
 _atom_site_fract_y
 _atom_site_fract_z
 _atom_site_occupancy
  Ca  Ca0  1  0.492013  0.324254  0.407028  1
  Ca  Ca1  1  0.507987  0.675746  0.592972  1
  Pr  Pr2  1  0.996619  0.173983  0.095638  1
  Pr  Pr3  1  0.003381  0.826017  0.904362  1
  Pr  Pr4  1  0.502413  0.673998  0.906819  1
  Pr  Pr5  1  0.003253  0.825242  0.594377  1
  Pr  Pr6  1  0.497587  0.326002  0.093181  1
  Pr  Pr7  1  0.996747  0.174758  0.405623  1
  Sc  Sc8  1  0.167360  0.496119  0.749202  1
  Sc  Sc9  1  0.832640  0.503881  0.250798  1
  Sc  Sc10  1  0.333693  0.994905  0.250452  1
  Sc  Sc11  1  0.666307  0.005095  0.749548  1
  Sc  Sc12  1  0.336043  0.162233  0.627349  1
  Sc  Sc13  1  0.663957  0.837767  0.372651  1
  Sc  Sc14  1  0.165047  0.660445  0.373174  1
  Sc  Sc15  1  0.663605  0.838808  0.127895  1
  Sc  Sc16  1  0.834953  0.339555  0.626826  1
  Sc  Sc17  1  0.336395  0.161192  0.872105  1
  Sc  Sc18  1  0.835133  0.338543  0.871942  1
  Sc  Sc19  1  0.164867  0.661457  0.128058  1
  Sn  Sn20  1  0.029542  0.130250  0.749265  1
  Sn  Sn21  1  0.970458  0.869750  0.250735  1
  Sn  Sn22  1  0.471227  0.628520  0.250113  1
  Sn  Sn23  1  0.528773  0.371480  0.749887  1
  Sn  Sn24  1  0.309677  0.855252  0.748834  1
  Sn  Sn25  1  0.690323  0.144748  0.251166  1
  Sn  Sn26  1  0.193501  0.356833  0.250048  1
  Sn  Sn27  1  0.806499  0.643167  0.749952  1
  Sn  Sn28  1  0.173767  0.458235  0.543419  1
  Sn  Sn29  1  0.826233  0.541765  0.456581  1
  Sn  Sn30  1  0.327859  0.955542  0.456265  1
  Sn  Sn31  1  0.828171  0.545242  0.043353  1
  Sn  Sn32  1  0.672141  0.044458  0.543735  1
  Sn  Sn33  1  0.171829  0.454758  0.956647  1
  Sn  Sn34  1  0.674373  0.045186  0.956785  1
  Sn  Sn35  1  0.325627  0.954814  0.043215  1
