# generated using pymatgen
data_Lu(Th3Au5)2
_symmetry_space_group_name_H-M   'P 1'
_cell_length_a   8.89843941
_cell_length_b   8.89843942
_cell_length_c   10.78254600
_cell_angle_alpha   90.00000000
_cell_angle_beta   90.00000000
_cell_angle_gamma   106.17759866
_symmetry_Int_Tables_number   1
_chemical_formula_structural   Lu(Th3Au5)2
_chemical_formula_sum   'Lu2 Th12 Au20'
_cell_volume   819.97834624
_cell_formula_units_Z   2
loop_
 _symmetry_equiv_pos_site_id
 _symmetry_equiv_pos_as_xyz
  1  'x, y, z'
loop_
 _atom_site_type_symbol
 _atom_site_label
 _atom_site_symmetry_multiplicity
 _atom_site_fract_x
 _atom_site_fract_y
 _atom_site_fract_z
 _atom_site_occupancy
  Lu  Lu0  1  0.000000  0.000000  0.000000  1
  Lu  Lu1  1  0.500000  0.500000  0.500000  1
  Th  Th2  1  0.692199  0.307801  0.000000  1
  Th  Th3  1  0.307801  0.692199  0.000000  1
  Th  Th4  1  0.807801  0.192199  0.500000  1
  Th  Th5  1  0.192199  0.807801  0.500000  1
  Th  Th6  1  0.001119  0.501119  0.250000  1
  Th  Th7  1  0.998881  0.498881  0.750000  1
  Th  Th8  1  0.498881  0.998881  0.750000  1
  Th  Th9  1  0.501119  0.001119  0.250000  1
  Th  Th10  1  0.307354  0.307354  0.194159  1
  Th  Th11  1  0.692646  0.692646  0.805841  1
  Th  Th12  1  0.192646  0.192646  0.694159  1
  Th  Th13  1  0.807354  0.807354  0.305841  1
  Au  Au14  1  0.860883  0.147380  0.204124  1
  Au  Au15  1  0.139117  0.852620  0.795876  1
  Au  Au16  1  0.639117  0.352620  0.704124  1
  Au  Au17  1  0.647380  0.360883  0.295876  1
  Au  Au18  1  0.360883  0.647380  0.295876  1
  Au  Au19  1  0.352620  0.639117  0.704124  1
  Au  Au20  1  0.852620  0.139117  0.795876  1
  Au  Au21  1  0.147380  0.860883  0.204124  1
  Au  Au22  1  0.938971  0.652169  0.002450  1
  Au  Au23  1  0.061029  0.347831  0.997550  1
  Au  Au24  1  0.561029  0.847831  0.502450  1
  Au  Au25  1  0.152169  0.438971  0.497550  1
  Au  Au26  1  0.438971  0.152169  0.497550  1
  Au  Au27  1  0.847831  0.561029  0.502450  1
  Au  Au28  1  0.347831  0.061029  0.997550  1
  Au  Au29  1  0.652169  0.938971  0.002450  1
  Au  Au30  1  0.099634  0.099634  0.399949  1
  Au  Au31  1  0.900366  0.900366  0.600051  1
  Au  Au32  1  0.400366  0.400366  0.899949  1
  Au  Au33  1  0.599634  0.599634  0.100051  1
