# generated using pymatgen
data_K2SrIO6
_symmetry_space_group_name_H-M   'P 1'
_cell_length_a   6.14922420
_cell_length_b   6.14974335
_cell_length_c   6.14537802
_cell_angle_alpha   60.01788985
_cell_angle_beta   60.02627965
_cell_angle_gamma   59.95582773
_symmetry_Int_Tables_number   1
_chemical_formula_structural   K2SrIO6
_chemical_formula_sum   'K2 Sr1 I1 O6'
_cell_volume   164.32760421
_cell_formula_units_Z   1
loop_
 _symmetry_equiv_pos_site_id
 _symmetry_equiv_pos_as_xyz
  1  'x, y, z'
loop_
 _atom_site_type_symbol
 _atom_site_label
 _atom_site_symmetry_multiplicity
 _atom_site_fract_x
 _atom_site_fract_y
 _atom_site_fract_z
 _atom_site_occupancy
  K  K0  1  0.250000  0.250000  0.250000  1
  K  K1  1  0.750000  0.750000  0.750000  1
  Sr  Sr2  1  0.500000  0.500000  0.500000  1
  I  I3  1  0.000000  0.000000  0.000000  1
  O  O4  1  0.782166  0.217834  0.217834  1
  O  O5  1  0.217834  0.782166  0.782166  1
  O  O6  1  0.217831  0.782169  0.217831  1
  O  O7  1  0.782169  0.217831  0.782169  1
  O  O8  1  0.217856  0.217856  0.782144  1
  O  O9  1  0.782144  0.782144  0.217856  1
