# generated using pymatgen
data_Y8HoTh3Ru4
_symmetry_space_group_name_H-M   'P 1'
_cell_length_a   6.37908720
_cell_length_b   7.24375216
_cell_length_c   9.57368800
_cell_angle_alpha   90.00000000
_cell_angle_beta   90.00000000
_cell_angle_gamma   90.52899289
_symmetry_Int_Tables_number   1
_chemical_formula_structural   Y8HoTh3Ru4
_chemical_formula_sum   'Y8 Ho1 Th3 Ru4'
_cell_volume   442.36716250
_cell_formula_units_Z   1
loop_
 _symmetry_equiv_pos_site_id
 _symmetry_equiv_pos_as_xyz
  1  'x, y, z'
loop_
 _atom_site_type_symbol
 _atom_site_label
 _atom_site_symmetry_multiplicity
 _atom_site_fract_x
 _atom_site_fract_y
 _atom_site_fract_z
 _atom_site_occupancy
  Y  Y0  1  0.332926  0.676574  0.063964  1
  Y  Y1  1  0.166463  0.175043  0.435138  1
  Y  Y2  1  0.669465  0.324138  0.567355  1
  Y  Y3  1  0.828572  0.824507  0.930964  1
  Y  Y4  1  0.669465  0.324138  0.932645  1
  Y  Y5  1  0.828572  0.824507  0.569036  1
  Y  Y6  1  0.332926  0.676574  0.436036  1
  Y  Y7  1  0.166463  0.175043  0.064862  1
  Ho  Ho8  1  0.359177  0.961799  0.750000  1
  Th  Th9  1  0.847212  0.549082  0.250000  1
  Th  Th10  1  0.649851  0.046846  0.250000  1
  Th  Th11  1  0.153591  0.451089  0.750000  1
  Ru  Ru12  1  0.028088  0.870320  0.250000  1
  Ru  Ru13  1  0.472676  0.368546  0.250000  1
  Ru  Ru14  1  0.967768  0.133457  0.750000  1
  Ru  Ru15  1  0.526786  0.618337  0.750000  1
