# generated using pymatgen
data_RbNaCdO2
_symmetry_space_group_name_H-M   'P 1'
_cell_length_a   7.09285899
_cell_length_b   7.50286500
_cell_length_c   7.09285488
_cell_angle_alpha   90.00007005
_cell_angle_beta   90.14819927
_cell_angle_gamma   90.00007498
_symmetry_Int_Tables_number   1
_chemical_formula_structural   RbNaCdO2
_chemical_formula_sum   'Rb4 Na4 Cd4 O8'
_cell_volume   377.45751793
_cell_formula_units_Z   4
loop_
 _symmetry_equiv_pos_site_id
 _symmetry_equiv_pos_as_xyz
  1  'x, y, z'
loop_
 _atom_site_type_symbol
 _atom_site_label
 _atom_site_symmetry_multiplicity
 _atom_site_fract_x
 _atom_site_fract_y
 _atom_site_fract_z
 _atom_site_occupancy
  Rb  Rb0  1  0.499992  0.999999  0.999992  1
  Rb  Rb1  1  0.999995  0.500000  0.499998  1
  Rb  Rb2  1  0.000005  0.250002  0.000004  1
  Rb  Rb3  1  0.000005  0.749999  0.000004  1
  Na  Na4  1  0.647970  0.250001  0.647969  1
  Na  Na5  1  0.352040  0.250000  0.352043  1
  Na  Na6  1  0.647971  0.749999  0.647969  1
  Na  Na7  1  0.352040  0.750000  0.352043  1
  Cd  Cd8  1  0.626307  0.499999  0.160474  1
  Cd  Cd9  1  0.160472  0.000000  0.626306  1
  Cd  Cd10  1  0.373685  0.500000  0.839520  1
  Cd  Cd11  1  0.839519  0.000000  0.373681  1
  O  O12  1  0.686232  0.749995  0.313773  1
  O  O13  1  0.686233  0.250006  0.313773  1
  O  O14  1  0.313775  0.249994  0.686238  1
  O  O15  1  0.313775  0.750008  0.686236  1
  O  O16  1  0.703552  0.500000  0.848781  1
  O  O17  1  0.296431  0.500000  0.151216  1
  O  O18  1  0.848782  0.000000  0.703550  1
  O  O19  1  0.151214  0.999999  0.296432  1
