# generated using pymatgen
data_PrAgRhO5
_symmetry_space_group_name_H-M   'P 1'
_cell_length_a   6.09883900
_cell_length_b   7.89235600
_cell_length_c   9.02502900
_cell_angle_alpha   90.00000000
_cell_angle_beta   90.00000000
_cell_angle_gamma   90.00000000
_symmetry_Int_Tables_number   1
_chemical_formula_structural   PrAgRhO5
_chemical_formula_sum   'Pr4 Ag4 Rh4 O20'
_cell_volume   434.41262828
_cell_formula_units_Z   4
loop_
 _symmetry_equiv_pos_site_id
 _symmetry_equiv_pos_as_xyz
  1  'x, y, z'
loop_
 _atom_site_type_symbol
 _atom_site_label
 _atom_site_symmetry_multiplicity
 _atom_site_fract_x
 _atom_site_fract_y
 _atom_site_fract_z
 _atom_site_occupancy
  Pr  Pr0  1  0.000000  0.354499  0.670005  1
  Pr  Pr1  1  0.000000  0.645501  0.329995  1
  Pr  Pr2  1  0.000000  0.854499  0.829995  1
  Pr  Pr3  1  0.000000  0.145501  0.170005  1
  Ag  Ag4  1  0.500000  0.067566  0.843862  1
  Ag  Ag5  1  0.500000  0.932434  0.156138  1
  Ag  Ag6  1  0.500000  0.567566  0.656138  1
  Ag  Ag7  1  0.500000  0.432434  0.343862  1
  Rh  Rh8  1  0.253620  0.500000  0.000000  1
  Rh  Rh9  1  0.746380  0.000000  0.500000  1
  Rh  Rh10  1  0.746380  0.500000  0.000000  1
  Rh  Rh11  1  0.253620  0.000000  0.500000  1
  O  O12  1  0.229494  0.905984  0.294742  1
  O  O13  1  0.229494  0.094016  0.705258  1
  O  O14  1  0.770506  0.405984  0.205258  1
  O  O15  1  0.770506  0.594016  0.794742  1
  O  O16  1  0.770506  0.094016  0.705258  1
  O  O17  1  0.770506  0.905984  0.294742  1
  O  O18  1  0.229494  0.594016  0.794742  1
  O  O19  1  0.229494  0.405984  0.205258  1
  O  O20  1  0.500000  0.355539  0.944751  1
  O  O21  1  0.500000  0.644461  0.055249  1
  O  O22  1  0.500000  0.855539  0.555249  1
  O  O23  1  0.500000  0.144461  0.444751  1
  O  O24  1  0.255622  0.000000  0.000000  1
  O  O25  1  0.744378  0.500000  0.500000  1
  O  O26  1  0.744378  0.000000  0.000000  1
  O  O27  1  0.255622  0.500000  0.500000  1
  O  O28  1  0.000000  0.161376  0.444064  1
  O  O29  1  0.000000  0.838624  0.555936  1
  O  O30  1  0.000000  0.661376  0.055936  1
  O  O31  1  0.000000  0.338624  0.944064  1
