# generated using pymatgen
data_CdBi6(AsO5)4
_symmetry_space_group_name_H-M   'P 1'
_cell_length_a   7.15183186
_cell_length_b   7.90644770
_cell_length_c   9.45873875
_cell_angle_alpha   105.75587626
_cell_angle_beta   95.10869797
_cell_angle_gamma   112.30261834
_symmetry_Int_Tables_number   1
_chemical_formula_structural   CdBi6(AsO5)4
_chemical_formula_sum   'Cd1 Bi6 As4 O20'
_cell_volume   465.03232096
_cell_formula_units_Z   1
loop_
 _symmetry_equiv_pos_site_id
 _symmetry_equiv_pos_as_xyz
  1  'x, y, z'
loop_
 _atom_site_type_symbol
 _atom_site_label
 _atom_site_symmetry_multiplicity
 _atom_site_fract_x
 _atom_site_fract_y
 _atom_site_fract_z
 _atom_site_occupancy
  Cd  Cd0  1  0.000000  0.000000  0.000000  1
  Bi  Bi1  1  0.344005  0.130863  0.513796  1
  Bi  Bi2  1  0.655995  0.869137  0.486204  1
  Bi  Bi3  1  0.436229  0.798462  0.084189  1
  Bi  Bi4  1  0.563771  0.201538  0.915811  1
  Bi  Bi5  1  0.807248  0.290830  0.324739  1
  Bi  Bi6  1  0.192752  0.709170  0.675261  1
  As  As7  1  0.053318  0.266778  0.762831  1
  As  As8  1  0.946682  0.733222  0.237169  1
  As  As9  1  0.340700  0.388285  0.249649  1
  As  As10  1  0.659300  0.611715  0.750351  1
  O  O11  1  0.105234  0.229295  0.267443  1
  O  O12  1  0.894766  0.770705  0.732557  1
  O  O13  1  0.155516  0.516000  0.834961  1
  O  O14  1  0.844484  0.484000  0.165039  1
  O  O15  1  0.669979  0.092287  0.101957  1
  O  O16  1  0.330021  0.907713  0.898043  1
  O  O17  1  0.547073  0.026413  0.363089  1
  O  O18  1  0.452927  0.973587  0.636911  1
  O  O19  1  0.357010  0.620498  0.301087  1
  O  O20  1  0.642990  0.379502  0.698913  1
  O  O21  1  0.242373  0.180157  0.752787  1
  O  O22  1  0.757627  0.819843  0.247213  1
  O  O23  1  0.539221  0.384724  0.365276  1
  O  O24  1  0.460779  0.615276  0.634724  1
  O  O25  1  0.070937  0.810162  0.423925  1
  O  O26  1  0.929063  0.189838  0.576075  1
  O  O27  1  0.113011  0.837866  0.132306  1
  O  O28  1  0.886989  0.162134  0.867694  1
  O  O29  1  0.336942  0.294812  0.061417  1
  O  O30  1  0.663058  0.705188  0.938583  1
