# generated using pymatgen
data_CaMgZn4(AsO4)4
_symmetry_space_group_name_H-M   'P 1'
_cell_length_a   8.90185574
_cell_length_b   5.35416761
_cell_length_c   9.14562472
_cell_angle_alpha   60.35409418
_cell_angle_beta   90.04498163
_cell_angle_gamma   90.02042697
_symmetry_Int_Tables_number   1
_chemical_formula_structural   CaMgZn4(AsO4)4
_chemical_formula_sum   'Ca1 Mg1 Zn4 As4 O16'
_cell_volume   378.83924098
_cell_formula_units_Z   1
loop_
 _symmetry_equiv_pos_site_id
 _symmetry_equiv_pos_as_xyz
  1  'x, y, z'
loop_
 _atom_site_type_symbol
 _atom_site_label
 _atom_site_symmetry_multiplicity
 _atom_site_fract_x
 _atom_site_fract_y
 _atom_site_fract_z
 _atom_site_occupancy
  Ca  Ca0  1  0.000000  0.500000  0.500000  1
  Mg  Mg1  1  0.500000  0.500000  0.000000  1
  Zn  Zn2  1  0.136184  0.455168  0.115642  1
  Zn  Zn3  1  0.632416  0.509657  0.389111  1
  Zn  Zn4  1  0.863816  0.544832  0.884358  1
  Zn  Zn5  1  0.367584  0.490343  0.610889  1
  As  As6  1  0.313565  0.844338  0.187765  1
  As  As7  1  0.791871  0.155729  0.292476  1
  As  As8  1  0.686435  0.155662  0.812235  1
  As  As9  1  0.208129  0.844271  0.707524  1
  O  O10  1  0.076481  0.689781  0.868603  1
  O  O11  1  0.570385  0.308351  0.636795  1
  O  O12  1  0.923519  0.310219  0.131397  1
  O  O13  1  0.429615  0.691649  0.363205  1
  O  O14  1  0.209970  0.202738  0.646056  1
  O  O15  1  0.695787  0.793306  0.878058  1
  O  O16  1  0.790030  0.797262  0.353944  1
  O  O17  1  0.304213  0.206694  0.121942  1
  O  O18  1  0.157454  0.797123  0.542683  1
  O  O19  1  0.626009  0.216352  0.967853  1
  O  O20  1  0.141032  0.668093  0.244591  1
  O  O21  1  0.621966  0.338691  0.233442  1
  O  O22  1  0.858968  0.331907  0.755409  1
  O  O23  1  0.378034  0.661309  0.766558  1
  O  O24  1  0.373991  0.783648  0.032147  1
  O  O25  1  0.842546  0.202877  0.457317  1
