# generated using pymatgen
data_SmEr3ReB12Ru
_symmetry_space_group_name_H-M   'P 1'
_cell_length_a   3.66824700
_cell_length_b   9.14679371
_cell_length_c   11.54935717
_cell_angle_alpha   90.18826350
_cell_angle_beta   90.00000000
_cell_angle_gamma   90.00000000
_symmetry_Int_Tables_number   1
_chemical_formula_structural   SmEr3ReB12Ru
_chemical_formula_sum   'Sm2 Er6 Re2 B24 Ru2'
_cell_volume   387.51000832
_cell_formula_units_Z   2
loop_
 _symmetry_equiv_pos_site_id
 _symmetry_equiv_pos_as_xyz
  1  'x, y, z'
loop_
 _atom_site_type_symbol
 _atom_site_label
 _atom_site_symmetry_multiplicity
 _atom_site_fract_x
 _atom_site_fract_y
 _atom_site_fract_z
 _atom_site_occupancy
  Sm  Sm0  1  0.000000  0.321173  0.412551  1
  Sm  Sm1  1  0.000000  0.678827  0.587449  1
  Er  Er2  1  0.000000  0.824637  0.083826  1
  Er  Er3  1  0.000000  0.175363  0.916174  1
  Er  Er4  1  0.000000  0.942539  0.369305  1
  Er  Er5  1  0.000000  0.057461  0.630695  1
  Er  Er6  1  0.000000  0.442607  0.128115  1
  Er  Er7  1  0.000000  0.557393  0.871885  1
  Re  Re8  1  0.000000  0.137310  0.178665  1
  Re  Re9  1  0.000000  0.862690  0.821335  1
  B  B10  1  0.500000  0.555187  0.430982  1
  B  B11  1  0.500000  0.444813  0.569018  1
  B  B12  1  0.500000  0.052816  0.066294  1
  B  B13  1  0.500000  0.947184  0.933706  1
  B  B14  1  0.500000  0.749642  0.416527  1
  B  B15  1  0.500000  0.250358  0.583473  1
  B  B16  1  0.500000  0.248716  0.080267  1
  B  B17  1  0.500000  0.751284  0.919733  1
  B  B18  1  0.500000  0.791205  0.264040  1
  B  B19  1  0.500000  0.208795  0.735960  1
  B  B20  1  0.500000  0.290950  0.232948  1
  B  B21  1  0.500000  0.709050  0.767052  1
  B  B22  1  0.500000  0.631177  0.184228  1
  B  B23  1  0.500000  0.368823  0.815772  1
  B  B24  1  0.500000  0.129643  0.313696  1
  B  B25  1  0.500000  0.870357  0.686304  1
  B  B26  1  0.500000  0.981586  0.211361  1
  B  B27  1  0.500000  0.018414  0.788639  1
  B  B28  1  0.500000  0.484272  0.286074  1
  B  B29  1  0.500000  0.515728  0.713926  1
  B  B30  1  0.500000  0.603586  0.028624  1
  B  B31  1  0.500000  0.396414  0.971376  1
  B  B32  1  0.500000  0.099694  0.472586  1
  B  B33  1  0.500000  0.900306  0.527414  1
  Ru  Ru34  1  0.000000  0.639039  0.318931  1
  Ru  Ru35  1  0.000000  0.360961  0.681069  1
