# generated using pymatgen
data_Lu8Si16OsW11
_symmetry_space_group_name_H-M   'P 1'
_cell_length_a   6.82817329
_cell_length_b   6.82817275
_cell_length_c   12.61884701
_cell_angle_alpha   89.96964807
_cell_angle_beta   90.03035166
_cell_angle_gamma   89.82606457
_symmetry_Int_Tables_number   1
_chemical_formula_structural   Lu8Si16OsW11
_chemical_formula_sum   'Lu8 Si16 Os1 W11'
_cell_volume   588.33757527
_cell_formula_units_Z   1
loop_
 _symmetry_equiv_pos_site_id
 _symmetry_equiv_pos_as_xyz
  1  'x, y, z'
loop_
 _atom_site_type_symbol
 _atom_site_label
 _atom_site_symmetry_multiplicity
 _atom_site_fract_x
 _atom_site_fract_y
 _atom_site_fract_z
 _atom_site_occupancy
  Lu  Lu0  1  0.003709  0.663424  0.030727  1
  Lu  Lu1  1  0.994399  0.337430  0.530975  1
  Lu  Lu2  1  0.337430  0.994399  0.469025  1
  Lu  Lu3  1  0.163383  0.496478  0.780061  1
  Lu  Lu4  1  0.837033  0.504070  0.281383  1
  Lu  Lu5  1  0.496478  0.163383  0.219939  1
  Lu  Lu6  1  0.504070  0.837033  0.718617  1
  Lu  Lu7  1  0.663424  0.003709  0.969273  1
  Si  Si8  1  0.032953  0.713635  0.437888  1
  Si  Si9  1  0.622635  0.300244  0.432969  1
  Si  Si10  1  0.372784  0.702222  0.931721  1
  Si  Si11  1  0.202863  0.127353  0.681559  1
  Si  Si12  1  0.300244  0.622635  0.567031  1
  Si  Si13  1  0.702222  0.372784  0.068279  1
  Si  Si14  1  0.795275  0.872733  0.182839  1
  Si  Si15  1  0.127353  0.202863  0.318441  1
  Si  Si16  1  0.965016  0.290926  0.936172  1
  Si  Si17  1  0.713635  0.032953  0.562112  1
  Si  Si18  1  0.207205  0.464830  0.185916  1
  Si  Si19  1  0.790521  0.536777  0.683931  1
  Si  Si20  1  0.464830  0.207205  0.814084  1
  Si  Si21  1  0.536777  0.790521  0.316069  1
  Si  Si22  1  0.290926  0.965016  0.063828  1
  Si  Si23  1  0.872733  0.795275  0.817161  1
  Os  Os24  1  0.668529  0.668529  0.500000  1
  W  W25  1  0.165529  0.834991  0.250421  1
  W  W26  1  0.333296  0.333296  0.000000  1
  W  W27  1  0.009494  0.832953  0.628199  1
  W  W28  1  0.997403  0.164120  0.127551  1
  W  W29  1  0.832953  0.009494  0.371801  1
  W  W30  1  0.331565  0.498237  0.376365  1
  W  W31  1  0.665404  0.500584  0.875945  1
  W  W32  1  0.498237  0.331565  0.623635  1
  W  W33  1  0.500584  0.665404  0.124055  1
  W  W34  1  0.164120  0.997403  0.872449  1
  W  W35  1  0.834991  0.165529  0.749579  1
