# generated using pymatgen
data_YTm2(Ni3As2)3
_symmetry_space_group_name_H-M   'P 1'
_cell_length_a   3.88070900
_cell_length_b   10.83114100
_cell_length_c   12.70779400
_cell_angle_alpha   90.00000000
_cell_angle_beta   90.00000000
_cell_angle_gamma   90.00000000
_symmetry_Int_Tables_number   1
_chemical_formula_structural   YTm2(Ni3As2)3
_chemical_formula_sum   'Y2 Tm4 Ni18 As12'
_cell_volume   534.14043211
_cell_formula_units_Z   2
loop_
 _symmetry_equiv_pos_site_id
 _symmetry_equiv_pos_as_xyz
  1  'x, y, z'
loop_
 _atom_site_type_symbol
 _atom_site_label
 _atom_site_symmetry_multiplicity
 _atom_site_fract_x
 _atom_site_fract_y
 _atom_site_fract_z
 _atom_site_occupancy
  Y  Y0  1  0.000000  0.500000  0.523547  1
  Y  Y1  1  0.500000  0.000000  0.476453  1
  Tm  Tm2  1  0.500000  0.816615  0.206536  1
  Tm  Tm3  1  0.500000  0.183385  0.206536  1
  Tm  Tm4  1  0.000000  0.683385  0.793464  1
  Tm  Tm5  1  0.000000  0.316615  0.793464  1
  Ni  Ni6  1  0.500000  0.500000  0.156336  1
  Ni  Ni7  1  0.000000  0.000000  0.843664  1
  Ni  Ni8  1  0.500000  0.500000  0.699960  1
  Ni  Ni9  1  0.000000  0.000000  0.300040  1
  Ni  Ni10  1  0.000000  0.500000  0.982212  1
  Ni  Ni11  1  0.500000  0.000000  0.017788  1
  Ni  Ni12  1  0.500000  0.332867  0.997548  1
  Ni  Ni13  1  0.500000  0.667133  0.997548  1
  Ni  Ni14  1  0.000000  0.167133  0.002452  1
  Ni  Ni15  1  0.000000  0.832867  0.002452  1
  Ni  Ni16  1  0.500000  0.302788  0.426120  1
  Ni  Ni17  1  0.500000  0.697212  0.426120  1
  Ni  Ni18  1  0.000000  0.197212  0.573880  1
  Ni  Ni19  1  0.000000  0.802788  0.573880  1
  Ni  Ni20  1  0.500000  0.879137  0.707846  1
  Ni  Ni21  1  0.500000  0.120863  0.707846  1
  Ni  Ni22  1  0.000000  0.620863  0.292154  1
  Ni  Ni23  1  0.000000  0.379137  0.292154  1
  As  As24  1  0.500000  0.500000  0.876053  1
  As  As25  1  0.000000  0.000000  0.123947  1
  As  As26  1  0.500000  0.500000  0.345063  1
  As  As27  1  0.000000  0.000000  0.654937  1
  As  As28  1  0.500000  0.314569  0.614199  1
  As  As29  1  0.500000  0.685431  0.614199  1
  As  As30  1  0.000000  0.185431  0.385801  1
  As  As31  1  0.000000  0.814569  0.385801  1
  As  As32  1  0.500000  0.846547  0.889941  1
  As  As33  1  0.500000  0.153453  0.889941  1
  As  As34  1  0.000000  0.653453  0.110059  1
  As  As35  1  0.000000  0.346547  0.110059  1
