# generated using pymatgen
data_Pr2Y(AlBr)2
_symmetry_space_group_name_H-M   'P 1'
_cell_length_a   9.63391957
_cell_length_b   9.63392013
_cell_length_c   11.84166200
_cell_angle_alpha   59.68451279
_cell_angle_beta   59.68451086
_cell_angle_gamma   25.09538955
_symmetry_Int_Tables_number   1
_chemical_formula_structural   Pr2Y(AlBr)2
_chemical_formula_sum   'Pr4 Y2 Al4 Br4'
_cell_volume   398.97549429
_cell_formula_units_Z   2
loop_
 _symmetry_equiv_pos_site_id
 _symmetry_equiv_pos_as_xyz
  1  'x, y, z'
loop_
 _atom_site_type_symbol
 _atom_site_label
 _atom_site_symmetry_multiplicity
 _atom_site_fract_x
 _atom_site_fract_y
 _atom_site_fract_z
 _atom_site_occupancy
  Pr  Pr0  1  0.751399  0.751399  0.810164  1
  Pr  Pr1  1  0.248601  0.248601  0.189836  1
  Pr  Pr2  1  0.536440  0.536440  0.302842  1
  Pr  Pr3  1  0.463560  0.463560  0.697158  1
  Y  Y4  1  0.836402  0.836402  0.380011  1
  Y  Y5  1  0.163598  0.163598  0.619989  1
  Al  Al6  1  0.925516  0.925516  0.530167  1
  Al  Al7  1  0.074484  0.074484  0.469833  1
  Al  Al8  1  0.333613  0.333613  0.583176  1
  Al  Al9  1  0.666387  0.666387  0.416824  1
  Br  Br10  1  0.419020  0.419020  0.177572  1
  Br  Br11  1  0.580980  0.580980  0.822428  1
  Br  Br12  1  0.857267  0.857267  0.941398  1
  Br  Br13  1  0.142733  0.142733  0.058602  1
