# generated using pymatgen
data_Ce2Dy5(HoIr2)3
_symmetry_space_group_name_H-M   'P 1'
_cell_length_a   11.01093573
_cell_length_b   10.97347400
_cell_length_c   6.33415200
_cell_angle_alpha   90.00000000
_cell_angle_beta   90.13089501
_cell_angle_gamma   90.00000000
_symmetry_Int_Tables_number   1
_chemical_formula_structural   Ce2Dy5(HoIr2)3
_chemical_formula_sum   'Ce4 Dy10 Ho6 Ir12'
_cell_volume   765.34229509
_cell_formula_units_Z   2
loop_
 _symmetry_equiv_pos_site_id
 _symmetry_equiv_pos_as_xyz
  1  'x, y, z'
loop_
 _atom_site_type_symbol
 _atom_site_label
 _atom_site_symmetry_multiplicity
 _atom_site_fract_x
 _atom_site_fract_y
 _atom_site_fract_z
 _atom_site_occupancy
  Ce  Ce0  1  0.293105  0.093143  0.384625  1
  Ce  Ce1  1  0.293105  0.906857  0.884625  1
  Ce  Ce2  1  0.706125  0.092369  0.885610  1
  Ce  Ce3  1  0.706125  0.907631  0.385610  1
  Dy  Dy4  1  0.589145  0.785842  0.882688  1
  Dy  Dy5  1  0.589145  0.214158  0.382688  1
  Dy  Dy6  1  0.410751  0.786233  0.383458  1
  Dy  Dy7  1  0.410751  0.213767  0.883458  1
  Dy  Dy8  1  0.207169  0.412562  0.620002  1
  Dy  Dy9  1  0.207169  0.587438  0.120002  1
  Dy  Dy10  1  0.793486  0.412889  0.118492  1
  Dy  Dy11  1  0.793486  0.587111  0.618492  1
  Dy  Dy12  1  0.912390  0.709448  0.113200  1
  Dy  Dy13  1  0.912390  0.290552  0.613200  1
  Ho  Ho14  1  0.087874  0.707743  0.612144  1
  Ho  Ho15  1  0.087874  0.292257  0.112144  1
  Ho  Ho16  1  0.000331  0.999371  0.490405  1
  Ho  Ho17  1  0.000331  0.000629  0.990405  1
  Ho  Ho18  1  0.499880  0.499919  0.014798  1
  Ho  Ho19  1  0.499880  0.500081  0.514798  1
  Ir  Ir20  1  0.845524  0.152317  0.238490  1
  Ir  Ir21  1  0.845524  0.847683  0.738490  1
  Ir  Ir22  1  0.154922  0.152024  0.740943  1
  Ir  Ir23  1  0.154922  0.847976  0.240943  1
  Ir  Ir24  1  0.651913  0.345967  0.759781  1
  Ir  Ir25  1  0.651913  0.654033  0.259781  1
  Ir  Ir26  1  0.347018  0.346277  0.259209  1
  Ir  Ir27  1  0.347018  0.653723  0.759209  1
  Ir  Ir28  1  0.499826  0.999851  0.125455  1
  Ir  Ir29  1  0.499826  0.000149  0.625455  1
  Ir  Ir30  1  0.000541  0.500079  0.870700  1
  Ir  Ir31  1  0.000541  0.499921  0.370700  1
