# generated using pymatgen
data_Ba17Sr3Si11Pb
_symmetry_space_group_name_H-M   'P 1'
_cell_length_a   8.42336200
_cell_length_b   8.42336200
_cell_length_c   17.01228800
_cell_angle_alpha   90.00000000
_cell_angle_beta   90.00000000
_cell_angle_gamma   90.00000000
_symmetry_Int_Tables_number   1
_chemical_formula_structural   Ba17Sr3Si11Pb
_chemical_formula_sum   'Ba17 Sr3 Si11 Pb1'
_cell_volume   1207.07333631
_cell_formula_units_Z   1
loop_
 _symmetry_equiv_pos_site_id
 _symmetry_equiv_pos_as_xyz
  1  'x, y, z'
loop_
 _atom_site_type_symbol
 _atom_site_label
 _atom_site_symmetry_multiplicity
 _atom_site_fract_x
 _atom_site_fract_y
 _atom_site_fract_z
 _atom_site_occupancy
  Ba  Ba0  1  0.316165  0.678637  0.113226  1
  Ba  Ba1  1  0.178637  0.183835  0.113226  1
  Ba  Ba2  1  0.324600  0.691610  0.391733  1
  Ba  Ba3  1  0.664211  0.699276  0.888109  1
  Ba  Ba4  1  0.191610  0.175400  0.391733  1
  Ba  Ba5  1  0.675400  0.308390  0.391733  1
  Ba  Ba6  1  0.173350  0.807693  0.606964  1
  Ba  Ba7  1  0.335789  0.300724  0.888109  1
  Ba  Ba8  1  0.199276  0.835789  0.888109  1
  Ba  Ba9  1  0.826650  0.192307  0.606964  1
  Ba  Ba10  1  0.307693  0.326650  0.606964  1
  Ba  Ba11  1  0.808390  0.824600  0.391733  1
  Ba  Ba12  1  0.800724  0.164211  0.888109  1
  Ba  Ba13  1  0.821363  0.816165  0.113226  1
  Ba  Ba14  1  0.000000  0.500000  0.768343  1
  Ba  Ba15  1  0.683835  0.321363  0.113226  1
  Ba  Ba16  1  0.692307  0.673350  0.606964  1
  Sr  Sr17  1  0.500000  0.000000  0.721626  1
  Sr  Sr18  1  0.500000  0.000000  0.237020  1
  Sr  Sr19  1  0.000000  0.500000  0.267833  1
  Si  Si20  1  0.104491  0.100820  0.747336  1
  Si  Si21  1  0.399180  0.604491  0.747336  1
  Si  Si22  1  0.603493  0.603727  0.252442  1
  Si  Si23  1  0.500000  0.000000  0.015210  1
  Si  Si24  1  0.103727  0.896507  0.252442  1
  Si  Si25  1  0.600820  0.395509  0.747336  1
  Si  Si26  1  0.895509  0.899180  0.747336  1
  Si  Si27  1  0.396507  0.396273  0.252442  1
  Si  Si28  1  0.896273  0.103493  0.252442  1
  Si  Si29  1  0.500000  0.000000  0.514541  1
  Si  Si30  1  0.000000  0.500000  0.486197  1
  Pb  Pb31  1  0.000000  0.500000  0.989995  1
