# generated using pymatgen
data_Tm7Lu3IrRu3
_symmetry_space_group_name_H-M   'P 1'
_cell_length_a   6.23390981
_cell_length_b   7.25320134
_cell_length_c   8.29723229
_cell_angle_alpha   96.91307146
_cell_angle_beta   112.10722238
_cell_angle_gamma   90.01690641
_symmetry_Int_Tables_number   1
_chemical_formula_structural   Tm7Lu3IrRu3
_chemical_formula_sum   'Tm7 Lu3 Ir1 Ru3'
_cell_volume   344.63308180
_cell_formula_units_Z   1
loop_
 _symmetry_equiv_pos_site_id
 _symmetry_equiv_pos_as_xyz
  1  'x, y, z'
loop_
 _atom_site_type_symbol
 _atom_site_label
 _atom_site_symmetry_multiplicity
 _atom_site_fract_x
 _atom_site_fract_y
 _atom_site_fract_z
 _atom_site_occupancy
  Tm  Tm0  1  0.524251  0.083947  0.814776  1
  Tm  Tm1  1  0.475489  0.918313  0.184022  1
  Tm  Tm2  1  0.710687  0.415423  0.183404  1
  Tm  Tm3  1  0.290034  0.584080  0.813623  1
  Tm  Tm4  1  0.293325  0.314651  0.436826  1
  Tm  Tm5  1  0.706070  0.683411  0.564902  1
  Tm  Tm6  1  0.857475  0.183248  0.564228  1
  Lu  Lu7  1  0.141040  0.818023  0.436494  1
  Lu  Lu8  1  0.080227  0.248790  0.998773  1
  Lu  Lu9  1  0.919595  0.750367  0.000502  1
  Ir  Ir10  1  0.321742  0.577399  0.221046  1
  Ru  Ru11  1  0.676648  0.423679  0.780955  1
  Ru  Ru12  1  0.105478  0.921994  0.780741  1
  Ru  Ru13  1  0.897938  0.076673  0.219708  1
