# generated using pymatgen
data_Nd4Cd3Ni2
_symmetry_space_group_name_H-M   'P 1'
_cell_length_a   3.77688500
_cell_length_b   7.58388062
_cell_length_c   8.31923740
_cell_angle_alpha   72.54509623
_cell_angle_beta   90.00000000
_cell_angle_gamma   90.00000000
_symmetry_Int_Tables_number   1
_chemical_formula_structural   Nd4Cd3Ni2
_chemical_formula_sum   'Nd4 Cd3 Ni2'
_cell_volume   227.31908379
_cell_formula_units_Z   1
loop_
 _symmetry_equiv_pos_site_id
 _symmetry_equiv_pos_as_xyz
  1  'x, y, z'
loop_
 _atom_site_type_symbol
 _atom_site_label
 _atom_site_symmetry_multiplicity
 _atom_site_fract_x
 _atom_site_fract_y
 _atom_site_fract_z
 _atom_site_occupancy
  Nd  Nd0  1  0.500000  0.607065  0.186325  1
  Nd  Nd1  1  0.500000  0.912801  0.720274  1
  Nd  Nd2  1  0.500000  0.087199  0.279726  1
  Nd  Nd3  1  0.500000  0.392935  0.813675  1
  Cd  Cd4  1  0.000000  0.700690  0.506238  1
  Cd  Cd5  1  0.000000  0.299310  0.493762  1
  Cd  Cd6  1  0.000000  0.000000  0.000000  1
  Ni  Ni7  1  0.000000  0.347751  0.107689  1
  Ni  Ni8  1  0.000000  0.652249  0.892311  1
