# generated using pymatgen
data_Er5Hg2Os
_symmetry_space_group_name_H-M   'P 1'
_cell_length_a   7.57125600
_cell_length_b   9.09390000
_cell_length_c   12.13388100
_cell_angle_alpha   90.00000000
_cell_angle_beta   90.00000000
_cell_angle_gamma   90.00000000
_symmetry_Int_Tables_number   1
_chemical_formula_structural   Er5Hg2Os
_chemical_formula_sum   'Er20 Hg8 Os4'
_cell_volume   835.44494667
_cell_formula_units_Z   4
loop_
 _symmetry_equiv_pos_site_id
 _symmetry_equiv_pos_as_xyz
  1  'x, y, z'
loop_
 _atom_site_type_symbol
 _atom_site_label
 _atom_site_symmetry_multiplicity
 _atom_site_fract_x
 _atom_site_fract_y
 _atom_site_fract_z
 _atom_site_occupancy
  Er  Er0  1  0.663714  0.750000  0.717091  1
  Er  Er1  1  0.336286  0.250000  0.282909  1
  Er  Er2  1  0.163714  0.250000  0.782909  1
  Er  Er3  1  0.836286  0.750000  0.217091  1
  Er  Er4  1  0.130749  0.750000  0.810836  1
  Er  Er5  1  0.869251  0.250000  0.189164  1
  Er  Er6  1  0.630749  0.250000  0.689164  1
  Er  Er7  1  0.369251  0.750000  0.310836  1
  Er  Er8  1  0.548120  0.750000  0.997153  1
  Er  Er9  1  0.451880  0.250000  0.002847  1
  Er  Er10  1  0.048120  0.250000  0.502847  1
  Er  Er11  1  0.951880  0.750000  0.497153  1
  Er  Er12  1  0.825801  0.465348  0.924277  1
  Er  Er13  1  0.174199  0.534652  0.075723  1
  Er  Er14  1  0.325801  0.534652  0.575723  1
  Er  Er15  1  0.174199  0.965348  0.075723  1
  Er  Er16  1  0.674199  0.465348  0.424277  1
  Er  Er17  1  0.825801  0.034652  0.924277  1
  Er  Er18  1  0.674199  0.034652  0.424277  1
  Er  Er19  1  0.325801  0.965348  0.575723  1
  Hg  Hg20  1  0.930255  0.005951  0.666848  1
  Hg  Hg21  1  0.069745  0.994049  0.333152  1
  Hg  Hg22  1  0.430255  0.994049  0.833152  1
  Hg  Hg23  1  0.069745  0.505951  0.333152  1
  Hg  Hg24  1  0.569745  0.005951  0.166848  1
  Hg  Hg25  1  0.930255  0.494049  0.666848  1
  Hg  Hg26  1  0.569745  0.494049  0.166848  1
  Hg  Hg27  1  0.430255  0.505951  0.833152  1
  Os  Os28  1  0.927481  0.750000  0.996081  1
  Os  Os29  1  0.072519  0.250000  0.003919  1
  Os  Os30  1  0.427481  0.250000  0.503919  1
  Os  Os31  1  0.572519  0.750000  0.496081  1
