# generated using pymatgen
data_TmCuPbS3
_symmetry_space_group_name_H-M   'P 1'
_cell_length_a   3.89492100
_cell_length_b   10.15064800
_cell_length_c   13.05712100
_cell_angle_alpha   90.00000000
_cell_angle_beta   90.00000000
_cell_angle_gamma   90.00000000
_symmetry_Int_Tables_number   1
_chemical_formula_structural   TmCuPbS3
_chemical_formula_sum   'Tm4 Cu4 Pb4 S12'
_cell_volume   516.22597102
_cell_formula_units_Z   4
loop_
 _symmetry_equiv_pos_site_id
 _symmetry_equiv_pos_as_xyz
  1  'x, y, z'
loop_
 _atom_site_type_symbol
 _atom_site_label
 _atom_site_symmetry_multiplicity
 _atom_site_fract_x
 _atom_site_fract_y
 _atom_site_fract_z
 _atom_site_occupancy
  Tm  Tm0  1  0.750000  0.006510  0.250635  1
  Tm  Tm1  1  0.250000  0.993490  0.749365  1
  Tm  Tm2  1  0.750000  0.506510  0.249365  1
  Tm  Tm3  1  0.250000  0.493490  0.750635  1
  Cu  Cu4  1  0.750000  0.743800  0.718040  1
  Cu  Cu5  1  0.250000  0.256200  0.281960  1
  Cu  Cu6  1  0.750000  0.243800  0.781960  1
  Cu  Cu7  1  0.250000  0.756200  0.218040  1
  Pb  Pb8  1  0.750000  0.755613  0.002213  1
  Pb  Pb9  1  0.250000  0.244387  0.997787  1
  Pb  Pb10  1  0.750000  0.255613  0.497787  1
  Pb  Pb11  1  0.250000  0.744387  0.502213  1
  S  S12  1  0.750000  0.256151  0.175579  1
  S  S13  1  0.250000  0.743849  0.824421  1
  S  S14  1  0.750000  0.756151  0.324421  1
  S  S15  1  0.250000  0.243849  0.675579  1
  S  S16  1  0.750000  0.058417  0.885984  1
  S  S17  1  0.250000  0.941583  0.114016  1
  S  S18  1  0.750000  0.558417  0.614016  1
  S  S19  1  0.250000  0.441583  0.385984  1
  S  S20  1  0.750000  0.428407  0.886521  1
  S  S21  1  0.250000  0.571593  0.113479  1
  S  S22  1  0.750000  0.928407  0.613479  1
  S  S23  1  0.250000  0.071593  0.386521  1
