# generated using pymatgen
data_Tb2Pr18Si15Cl
_symmetry_space_group_name_H-M   'P 1'
_cell_length_a   7.94016305
_cell_length_b   7.87218922
_cell_length_c   15.25699910
_cell_angle_alpha   89.50137354
_cell_angle_beta   89.14841118
_cell_angle_gamma   90.76907589
_symmetry_Int_Tables_number   1
_chemical_formula_structural   Tb2Pr18Si15Cl
_chemical_formula_sum   'Tb2 Pr18 Si15 Cl1'
_cell_volume   953.43206249
_cell_formula_units_Z   1
loop_
 _symmetry_equiv_pos_site_id
 _symmetry_equiv_pos_as_xyz
  1  'x, y, z'
loop_
 _atom_site_type_symbol
 _atom_site_label
 _atom_site_symmetry_multiplicity
 _atom_site_fract_x
 _atom_site_fract_y
 _atom_site_fract_z
 _atom_site_occupancy
  Tb  Tb0  1  0.313107  0.311376  0.998780  1
  Tb  Tb1  1  0.185948  0.807705  0.249500  1
  Pr  Pr2  1  0.795382  0.189818  0.753059  1
  Pr  Pr3  1  0.687861  0.687915  0.497641  1
  Pr  Pr4  1  0.380809  0.002736  0.441878  1
  Pr  Pr5  1  0.498954  0.861226  0.701316  1
  Pr  Pr6  1  0.510318  0.123257  0.196910  1
  Pr  Pr7  1  0.873752  0.483378  0.299422  1
  Pr  Pr8  1  0.124137  0.517406  0.801967  1
  Pr  Pr9  1  0.634798  0.986506  0.953289  1
  Pr  Pr10  1  0.996355  0.382161  0.545992  1
  Pr  Pr11  1  0.994897  0.624425  0.052406  1
  Pr  Pr12  1  0.141455  0.990096  0.873999  1
  Pr  Pr13  1  0.518896  0.631369  0.124779  1
  Pr  Pr14  1  0.473767  0.362124  0.631669  1
  Pr  Pr15  1  0.636742  0.520695  0.876826  1
  Pr  Pr16  1  0.365997  0.476026  0.375398  1
  Pr  Pr17  1  0.871006  0.018954  0.376902  1
  Pr  Pr18  1  0.984955  0.126606  0.123420  1
  Pr  Pr19  1  0.019403  0.874640  0.621355  1
  Si  Si20  1  0.332914  0.696105  0.949699  1
  Si  Si21  1  0.660748  0.303268  0.453513  1
  Si  Si22  1  0.700264  0.334502  0.050864  1
  Si  Si23  1  0.302852  0.665289  0.551430  1
  Si  Si24  1  0.807945  0.829381  0.203508  1
  Si  Si25  1  0.169452  0.189610  0.295233  1
  Si  Si26  1  0.845416  0.804469  0.797832  1
  Si  Si27  1  0.288514  0.924479  0.060368  1
  Si  Si28  1  0.572194  0.784582  0.307437  1
  Si  Si29  1  0.448067  0.209581  0.827126  1
  Si  Si30  1  0.790818  0.578590  0.687809  1
  Si  Si31  1  0.212455  0.425569  0.188327  1
  Si  Si32  1  0.704418  0.073837  0.561249  1
  Si  Si33  1  0.932950  0.291989  0.940966  1
  Si  Si34  1  0.078325  0.712530  0.438071  1
  Cl  Cl35  1  0.144127  0.197797  0.690064  1
