# generated using pymatgen
data_CsTl3Se2
_symmetry_space_group_name_H-M   'P 1'
_cell_length_a   4.86185600
_cell_length_b   8.84630965
_cell_length_c   11.83440106
_cell_angle_alpha   110.99758693
_cell_angle_beta   90.00000000
_cell_angle_gamma   105.94984059
_symmetry_Int_Tables_number   1
_chemical_formula_structural   CsTl3Se2
_chemical_formula_sum   'Cs2 Tl6 Se4'
_cell_volume   454.14132710
_cell_formula_units_Z   2
loop_
 _symmetry_equiv_pos_site_id
 _symmetry_equiv_pos_as_xyz
  1  'x, y, z'
loop_
 _atom_site_type_symbol
 _atom_site_label
 _atom_site_symmetry_multiplicity
 _atom_site_fract_x
 _atom_site_fract_y
 _atom_site_fract_z
 _atom_site_occupancy
  Cs  Cs0  1  0.129201  0.258402  0.031955  1
  Cs  Cs1  1  0.870799  0.741597  0.968045  1
  Tl  Tl2  1  0.388261  0.776522  0.364590  1
  Tl  Tl3  1  0.028645  0.057289  0.358744  1
  Tl  Tl4  1  0.705564  0.411129  0.391245  1
  Tl  Tl5  1  0.294436  0.588870  0.608755  1
  Tl  Tl6  1  0.971354  0.942710  0.641256  1
  Tl  Tl7  1  0.611739  0.223478  0.635410  1
  Se  Se8  1  0.530337  0.060673  0.203803  1
  Se  Se9  1  0.794355  0.588711  0.224438  1
  Se  Se10  1  0.205645  0.411290  0.775563  1
  Se  Se11  1  0.469664  0.939328  0.796198  1
