# generated using pymatgen
data_CaNb8SnSe16
_symmetry_space_group_name_H-M   'P 1'
_cell_length_a   7.02869300
_cell_length_b   7.02869265
_cell_length_c   14.74346200
_cell_angle_alpha   90.00000000
_cell_angle_beta   90.00000000
_cell_angle_gamma   120.00000636
_symmetry_Int_Tables_number   1
_chemical_formula_structural   CaNb8SnSe16
_chemical_formula_sum   'Ca1 Nb8 Sn1 Se16'
_cell_volume   630.78187557
_cell_formula_units_Z   1
loop_
 _symmetry_equiv_pos_site_id
 _symmetry_equiv_pos_as_xyz
  1  'x, y, z'
loop_
 _atom_site_type_symbol
 _atom_site_label
 _atom_site_symmetry_multiplicity
 _atom_site_fract_x
 _atom_site_fract_y
 _atom_site_fract_z
 _atom_site_occupancy
  Ca  Ca0  1  0.000000  0.000000  0.500000  1
  Nb  Nb1  1  0.000000  0.000000  0.253284  1
  Nb  Nb2  1  0.000000  0.000000  0.746716  1
  Nb  Nb3  1  0.507307  0.492693  0.252883  1
  Nb  Nb4  1  0.507307  0.014614  0.252883  1
  Nb  Nb5  1  0.985386  0.492693  0.252883  1
  Nb  Nb6  1  0.492693  0.507307  0.747117  1
  Nb  Nb7  1  0.492693  0.985386  0.747117  1
  Nb  Nb8  1  0.014614  0.507307  0.747117  1
  Sn  Sn9  1  0.000000  0.000000  0.000000  1
  Se  Se10  1  0.333333  0.666667  0.863464  1
  Se  Se11  1  0.666667  0.333333  0.136536  1
  Se  Se12  1  0.666667  0.333333  0.370299  1
  Se  Se13  1  0.333333  0.666667  0.629701  1
  Se  Se14  1  0.169561  0.830439  0.364202  1
  Se  Se15  1  0.169561  0.339122  0.364202  1
  Se  Se16  1  0.660878  0.830439  0.364202  1
  Se  Se17  1  0.830439  0.169561  0.635798  1
  Se  Se18  1  0.830439  0.660878  0.635798  1
  Se  Se19  1  0.339122  0.169561  0.635798  1
  Se  Se20  1  0.830925  0.169075  0.858284  1
  Se  Se21  1  0.830925  0.661852  0.858284  1
  Se  Se22  1  0.338148  0.169075  0.858284  1
  Se  Se23  1  0.169075  0.830925  0.141716  1
  Se  Se24  1  0.169075  0.338148  0.141716  1
  Se  Se25  1  0.661852  0.830925  0.141716  1
