# generated using pymatgen
data_Er12InCo4Cu
_symmetry_space_group_name_H-M   'P 1'
_cell_length_a   8.22094244
_cell_length_b   8.22094245
_cell_length_c   8.22094238
_cell_angle_alpha   111.02414621
_cell_angle_beta   110.91265080
_cell_angle_gamma   106.51667554
_symmetry_Int_Tables_number   1
_chemical_formula_structural   Er12InCo4Cu
_chemical_formula_sum   'Er12 In1 Co4 Cu1'
_cell_volume   426.85579373
_cell_formula_units_Z   1
loop_
 _symmetry_equiv_pos_site_id
 _symmetry_equiv_pos_as_xyz
  1  'x, y, z'
loop_
 _atom_site_type_symbol
 _atom_site_label
 _atom_site_symmetry_multiplicity
 _atom_site_fract_x
 _atom_site_fract_y
 _atom_site_fract_z
 _atom_site_occupancy
  Er  Er0  1  0.185477  0.288650  0.474126  1
  Er  Er1  1  0.814523  0.711350  0.525874  1
  Er  Er2  1  0.185477  0.711350  0.896827  1
  Er  Er3  1  0.814523  0.288650  0.103173  1
  Er  Er4  1  0.315707  0.619693  0.303987  1
  Er  Er5  1  0.684293  0.380307  0.696013  1
  Er  Er6  1  0.315707  0.011720  0.696013  1
  Er  Er7  1  0.684293  0.988280  0.303987  1
  Er  Er8  1  0.419979  0.220191  0.199787  1
  Er  Er9  1  0.580021  0.779809  0.800213  1
  Er  Er10  1  0.020404  0.220191  0.800213  1
  Er  Er11  1  0.979596  0.779809  0.199787  1
  In  In12  1  0.500000  0.500000  0.000000  1
  Co  Co13  1  0.113132  0.613132  0.500000  1
  Co  Co14  1  0.886868  0.386868  0.500000  1
  Co  Co15  1  0.375064  0.000000  0.375064  1
  Co  Co16  1  0.624936  0.000000  0.624936  1
  Cu  Cu17  1  0.000000  0.000000  0.000000  1
