# generated using pymatgen
data_Ce2Nd(ZnPt)4
_symmetry_space_group_name_H-M   'P 1'
_cell_length_a   8.35262698
_cell_length_b   8.35262731
_cell_length_c   8.35262600
_cell_angle_alpha   152.00472969
_cell_angle_beta   125.20237116
_cell_angle_gamma   62.64821221
_symmetry_Int_Tables_number   1
_chemical_formula_structural   Ce2Nd(ZnPt)4
_chemical_formula_sum   'Ce2 Nd1 Zn4 Pt4'
_cell_volume   221.63664183
_cell_formula_units_Z   1
loop_
 _symmetry_equiv_pos_site_id
 _symmetry_equiv_pos_as_xyz
  1  'x, y, z'
loop_
 _atom_site_type_symbol
 _atom_site_label
 _atom_site_symmetry_multiplicity
 _atom_site_fract_x
 _atom_site_fract_y
 _atom_site_fract_z
 _atom_site_occupancy
  Ce  Ce0  1  0.873733  0.873733  0.000000  1
  Ce  Ce1  1  0.126267  0.126267  0.000000  1
  Nd  Nd2  1  0.500000  0.000000  0.500000  1
  Zn  Zn3  1  0.476842  0.674253  0.802590  1
  Zn  Zn4  1  0.871663  0.674253  0.197410  1
  Zn  Zn5  1  0.128337  0.325747  0.802590  1
  Zn  Zn6  1  0.523158  0.325747  0.197410  1
  Pt  Pt7  1  0.277496  0.777496  0.500000  1
  Pt  Pt8  1  0.722504  0.222504  0.500000  1
  Pt  Pt9  1  0.808652  0.500000  0.308652  1
  Pt  Pt10  1  0.191348  0.500000  0.691348  1
