# generated using pymatgen
data_LaTh3(CdPd2)2
_symmetry_space_group_name_H-M   'P 1'
_cell_length_a   7.96685955
_cell_length_b   7.96685968
_cell_length_c   3.85549100
_cell_angle_alpha   90.00000000
_cell_angle_beta   90.00000000
_cell_angle_gamma   89.14118960
_symmetry_Int_Tables_number   1
_chemical_formula_structural   LaTh3(CdPd2)2
_chemical_formula_sum   'La1 Th3 Cd2 Pd4'
_cell_volume   244.68380961
_cell_formula_units_Z   1
loop_
 _symmetry_equiv_pos_site_id
 _symmetry_equiv_pos_as_xyz
  1  'x, y, z'
loop_
 _atom_site_type_symbol
 _atom_site_label
 _atom_site_symmetry_multiplicity
 _atom_site_fract_x
 _atom_site_fract_y
 _atom_site_fract_z
 _atom_site_occupancy
  La  La0  1  0.675321  0.175321  0.500000  1
  Th  Th1  1  0.326347  0.826347  0.500000  1
  Th  Th2  1  0.826073  0.673752  0.500000  1
  Th  Th3  1  0.173752  0.326073  0.500000  1
  Cd  Cd4  1  0.998898  0.999042  0.000000  1
  Cd  Cd5  1  0.499042  0.498898  0.000000  1
  Pd  Pd6  1  0.364895  0.124925  0.000000  1
  Pd  Pd7  1  0.879742  0.379742  0.000000  1
  Pd  Pd8  1  0.131003  0.631003  0.000000  1
  Pd  Pd9  1  0.624925  0.864895  0.000000  1
