# generated using pymatgen
data_Yb2SmEr(NiB4)4
_symmetry_space_group_name_H-M   'P 1'
_cell_length_a   6.83407445
_cell_length_b   6.83407318
_cell_length_c   6.83407400
_cell_angle_alpha   112.84952776
_cell_angle_beta   112.84952600
_cell_angle_gamma   102.90737014
_symmetry_Int_Tables_number   1
_chemical_formula_structural   Yb2SmEr(NiB4)4
_chemical_formula_sum   'Yb2 Sm1 Er1 Ni4 B16'
_cell_volume   243.32643426
_cell_formula_units_Z   1
loop_
 _symmetry_equiv_pos_site_id
 _symmetry_equiv_pos_as_xyz
  1  'x, y, z'
loop_
 _atom_site_type_symbol
 _atom_site_label
 _atom_site_symmetry_multiplicity
 _atom_site_fract_x
 _atom_site_fract_y
 _atom_site_fract_z
 _atom_site_occupancy
  Yb  Yb0  1  0.795343  0.795343  0.000000  1
  Yb  Yb1  1  0.204657  0.204657  0.000000  1
  Sm  Sm2  1  0.250000  0.750000  0.500000  1
  Er  Er3  1  0.750000  0.250000  0.500000  1
  Ni  Ni4  1  0.271663  0.498814  0.772850  1
  Ni  Ni5  1  0.725964  0.498814  0.227150  1
  Ni  Ni6  1  0.501186  0.728337  0.227150  1
  Ni  Ni7  1  0.501186  0.274036  0.772850  1
  B  B8  1  0.275880  0.111998  0.388317  1
  B  B9  1  0.723680  0.887562  0.611683  1
  B  B10  1  0.275880  0.887562  0.163882  1
  B  B11  1  0.723680  0.111998  0.836118  1
  B  B12  1  0.112438  0.724120  0.836118  1
  B  B13  1  0.888002  0.276320  0.163882  1
  B  B14  1  0.112438  0.276320  0.388317  1
  B  B15  1  0.888002  0.724120  0.611683  1
  B  B16  1  0.112053  0.114191  0.529822  1
  B  B17  1  0.584368  0.582231  0.470178  1
  B  B18  1  0.112053  0.582231  0.997864  1
  B  B19  1  0.584368  0.114191  0.002136  1
  B  B20  1  0.885809  0.887947  0.470178  1
  B  B21  1  0.417769  0.415632  0.529822  1
  B  B22  1  0.885809  0.415632  0.997864  1
  B  B23  1  0.417769  0.887947  0.002136  1
