# generated using pymatgen
data_Li4Ca2HoErGa8
_symmetry_space_group_name_H-M   'P 1'
_cell_length_a   4.36912600
_cell_length_b   7.04767153
_cell_length_c   10.28257372
_cell_angle_alpha   90.01000594
_cell_angle_beta   90.00000000
_cell_angle_gamma   90.00000000
_symmetry_Int_Tables_number   1
_chemical_formula_structural   Li4Ca2HoErGa8
_chemical_formula_sum   'Li4 Ca2 Ho1 Er1 Ga8'
_cell_volume   316.62270100
_cell_formula_units_Z   1
loop_
 _symmetry_equiv_pos_site_id
 _symmetry_equiv_pos_as_xyz
  1  'x, y, z'
loop_
 _atom_site_type_symbol
 _atom_site_label
 _atom_site_symmetry_multiplicity
 _atom_site_fract_x
 _atom_site_fract_y
 _atom_site_fract_z
 _atom_site_occupancy
  Li  Li0  1  0.250000  0.546538  0.096832  1
  Li  Li1  1  0.750000  0.449007  0.901272  1
  Li  Li2  1  0.750000  0.949918  0.598643  1
  Li  Li3  1  0.250000  0.046854  0.402193  1
  Ca  Ca4  1  0.750000  0.218639  0.172830  1
  Ca  Ca5  1  0.750000  0.718978  0.326879  1
  Ho  Ho6  1  0.250000  0.785350  0.828391  1
  Er  Er7  1  0.250000  0.285727  0.671957  1
  Ga  Ga8  1  0.250000  0.924878  0.136386  1
  Ga  Ga9  1  0.750000  0.075527  0.843545  1
  Ga  Ga10  1  0.750000  0.576012  0.656730  1
  Ga  Ga11  1  0.250000  0.425690  0.363833  1
  Ga  Ga12  1  0.250000  0.714742  0.543543  1
  Ga  Ga13  1  0.750000  0.284820  0.470574  1
  Ga  Ga14  1  0.750000  0.784252  0.029473  1
  Ga  Ga15  1  0.250000  0.213067  0.956916  1
