# generated using pymatgen
data_YHo3Mn16(CoP3)4
_symmetry_space_group_name_H-M   'P 1'
_cell_length_a   3.59820900
_cell_length_b   10.53380539
_cell_length_c   12.17366145
_cell_angle_alpha   90.03113159
_cell_angle_beta   90.00000000
_cell_angle_gamma   90.00000000
_symmetry_Int_Tables_number   1
_chemical_formula_structural   YHo3Mn16(CoP3)4
_chemical_formula_sum   'Y1 Ho3 Mn16 Co4 P12'
_cell_volume   461.41619311
_cell_formula_units_Z   1
loop_
 _symmetry_equiv_pos_site_id
 _symmetry_equiv_pos_as_xyz
  1  'x, y, z'
loop_
 _atom_site_type_symbol
 _atom_site_label
 _atom_site_symmetry_multiplicity
 _atom_site_fract_x
 _atom_site_fract_y
 _atom_site_fract_z
 _atom_site_occupancy
  Y  Y0  1  0.250000  0.584108  0.708074  1
  Ho  Ho1  1  0.250000  0.916038  0.208134  1
  Ho  Ho2  1  0.750000  0.084014  0.791875  1
  Ho  Ho3  1  0.750000  0.415911  0.291900  1
  Mn  Mn4  1  0.250000  0.787778  0.487781  1
  Mn  Mn5  1  0.750000  0.212272  0.512044  1
  Mn  Mn6  1  0.750000  0.287136  0.012184  1
  Mn  Mn7  1  0.250000  0.712764  0.988286  1
  Mn  Mn8  1  0.250000  0.092254  0.993001  1
  Mn  Mn9  1  0.750000  0.907853  0.006958  1
  Mn  Mn10  1  0.750000  0.592037  0.506431  1
  Mn  Mn11  1  0.250000  0.407545  0.492540  1
  Mn  Mn12  1  0.250000  0.282923  0.676993  1
  Mn  Mn13  1  0.750000  0.716555  0.323181  1
  Mn  Mn14  1  0.750000  0.783930  0.823193  1
  Mn  Mn15  1  0.250000  0.216558  0.176815  1
  Mn  Mn16  1  0.250000  0.621895  0.197026  1
  Mn  Mn17  1  0.750000  0.377855  0.803166  1
  Mn  Mn18  1  0.750000  0.121820  0.303072  1
  Mn  Mn19  1  0.250000  0.878637  0.696986  1
  Co  Co20  1  0.250000  0.035588  0.433849  1
  Co  Co21  1  0.750000  0.964818  0.565874  1
  Co  Co22  1  0.750000  0.535474  0.066334  1
  Co  Co23  1  0.250000  0.464176  0.934323  1
  P  P24  1  0.250000  0.079889  0.611829  1
  P  P25  1  0.750000  0.920256  0.388050  1
  P  P26  1  0.750000  0.579828  0.888785  1
  P  P27  1  0.250000  0.420164  0.112095  1
  P  P28  1  0.250000  0.234278  0.372321  1
  P  P29  1  0.750000  0.766418  0.627303  1
  P  P30  1  0.750000  0.734411  0.127700  1
  P  P31  1  0.250000  0.265523  0.872421  1
  P  P32  1  0.250000  0.907109  0.885902  1
  P  P33  1  0.750000  0.093027  0.114142  1
  P  P34  1  0.750000  0.406167  0.613678  1
  P  P35  1  0.250000  0.592991  0.385754  1
