# generated using pymatgen
data_LaErSiPtI2
_symmetry_space_group_name_H-M   'P 1'
_cell_length_a   4.29415800
_cell_length_b   4.29415671
_cell_length_c   11.66754200
_cell_angle_alpha   90.00000000
_cell_angle_beta   90.00000000
_cell_angle_gamma   119.99999455
_symmetry_Int_Tables_number   1
_chemical_formula_structural   LaErSiPtI2
_chemical_formula_sum   'La1 Er1 Si1 Pt1 I2'
_cell_volume   186.32277230
_cell_formula_units_Z   1
loop_
 _symmetry_equiv_pos_site_id
 _symmetry_equiv_pos_as_xyz
  1  'x, y, z'
loop_
 _atom_site_type_symbol
 _atom_site_label
 _atom_site_symmetry_multiplicity
 _atom_site_fract_x
 _atom_site_fract_y
 _atom_site_fract_z
 _atom_site_occupancy
  La  La0  1  0.000000  0.000000  0.839192  1
  Er  Er1  1  0.000000  0.000000  0.157789  1
  Si  Si2  1  0.666667  0.333333  0.997936  1
  Pt  Pt3  1  0.333333  0.666667  0.019759  1
  I  I4  1  0.333333  0.666667  0.652215  1
  I  I5  1  0.666667  0.333333  0.333107  1
