# generated using pymatgen
data_La2NiRuCl
_symmetry_space_group_name_H-M   'P 1'
_cell_length_a   4.13333800
_cell_length_b   4.13333825
_cell_length_c   16.76934300
_cell_angle_alpha   90.00000000
_cell_angle_beta   90.00000000
_cell_angle_gamma   119.99999799
_symmetry_Int_Tables_number   1
_chemical_formula_structural   La2NiRuCl
_chemical_formula_sum   'La4 Ni2 Ru2 Cl2'
_cell_volume   248.11244945
_cell_formula_units_Z   2
loop_
 _symmetry_equiv_pos_site_id
 _symmetry_equiv_pos_as_xyz
  1  'x, y, z'
loop_
 _atom_site_type_symbol
 _atom_site_label
 _atom_site_symmetry_multiplicity
 _atom_site_fract_x
 _atom_site_fract_y
 _atom_site_fract_z
 _atom_site_occupancy
  La  La0  1  0.000000  0.000000  0.113383  1
  La  La1  1  0.000000  0.000000  0.386617  1
  La  La2  1  0.000000  0.000000  0.614504  1
  La  La3  1  0.000000  0.000000  0.885496  1
  Ni  Ni4  1  0.666667  0.333332  0.500965  1
  Ni  Ni5  1  0.666667  0.333332  0.999035  1
  Ru  Ru6  1  0.333334  0.666668  0.000699  1
  Ru  Ru7  1  0.333334  0.666668  0.499301  1
  Cl  Cl8  1  0.666667  0.333332  0.250000  1
  Cl  Cl9  1  0.333334  0.666668  0.750000  1
