# generated using pymatgen
data_U2NbP4WO20
_symmetry_space_group_name_H-M   'P 1'
_cell_length_a   5.53415633
_cell_length_b   7.00020631
_cell_length_c   11.85515767
_cell_angle_alpha   89.84034219
_cell_angle_beta   90.10545138
_cell_angle_gamma   90.03216572
_symmetry_Int_Tables_number   1
_chemical_formula_structural   U2NbP4WO20
_chemical_formula_sum   'U2 Nb1 P4 W1 O20'
_cell_volume   459.26897486
_cell_formula_units_Z   1
loop_
 _symmetry_equiv_pos_site_id
 _symmetry_equiv_pos_as_xyz
  1  'x, y, z'
loop_
 _atom_site_type_symbol
 _atom_site_label
 _atom_site_symmetry_multiplicity
 _atom_site_fract_x
 _atom_site_fract_y
 _atom_site_fract_z
 _atom_site_occupancy
  U  U0  1  0.486767  0.331607  0.940509  1
  U  U1  1  0.983995  0.832783  0.559609  1
  Nb  Nb2  1  0.988986  0.677208  0.070301  1
  P  P3  1  0.477465  0.519735  0.646484  1
  P  P4  1  0.485880  0.966823  0.162400  1
  P  P5  1  0.983425  0.465579  0.338862  1
  P  P6  1  0.978459  0.020942  0.853067  1
  W  W7  1  0.488801  0.180675  0.428841  1
  O  O8  1  0.246197  0.860474  0.141145  1
  O  O9  1  0.205251  0.340739  0.363105  1
  O  O10  1  0.233108  0.622306  0.625156  1
  O  O11  1  0.999919  0.963450  0.728653  1
  O  O12  1  0.759890  0.027019  0.492883  1
  O  O13  1  0.271563  0.014002  0.495832  1
  O  O14  1  0.706325  0.842670  0.131209  1
  O  O15  1  0.990621  0.844889  0.930546  1
  O  O16  1  0.505111  0.019820  0.288294  1
  O  O17  1  0.743644  0.356300  0.362941  1
  O  O18  1  0.984150  0.523249  0.212960  1
  O  O19  1  0.187055  0.158914  0.882713  1
  O  O20  1  0.987419  0.650308  0.409218  1
  O  O21  1  0.734284  0.123559  0.870988  1
  O  O22  1  0.250701  0.530307  0.009827  1
  O  O23  1  0.684924  0.659297  0.618111  1
  O  O24  1  0.490966  0.154647  0.092296  1
  O  O25  1  0.491920  0.465530  0.772051  1
  O  O26  1  0.497776  0.341946  0.571915  1
  O  O27  1  0.764998  0.505217  0.000084  1
