# generated using pymatgen
data_Sm3Lu(B4Ru)4
_symmetry_space_group_name_H-M   'P 1'
_cell_length_a   3.58024500
_cell_length_b   5.99423098
_cell_length_c   11.58806969
_cell_angle_alpha   89.86796285
_cell_angle_beta   90.00000000
_cell_angle_gamma   90.00000000
_symmetry_Int_Tables_number   1
_chemical_formula_structural   Sm3Lu(B4Ru)4
_chemical_formula_sum   'Sm3 Lu1 B16 Ru4'
_cell_volume   248.68876523
_cell_formula_units_Z   1
loop_
 _symmetry_equiv_pos_site_id
 _symmetry_equiv_pos_as_xyz
  1  'x, y, z'
loop_
 _atom_site_type_symbol
 _atom_site_label
 _atom_site_symmetry_multiplicity
 _atom_site_fract_x
 _atom_site_fract_y
 _atom_site_fract_z
 _atom_site_occupancy
  Sm  Sm0  1  0.000000  0.628165  0.349572  1
  Sm  Sm1  1  0.000000  0.371881  0.651180  1
  Sm  Sm2  1  0.000000  0.128225  0.149648  1
  Lu  Lu3  1  0.000000  0.871604  0.849941  1
  B  B4  1  0.500000  0.786455  0.183572  1
  B  B5  1  0.500000  0.208313  0.815686  1
  B  B6  1  0.500000  0.286552  0.315361  1
  B  B7  1  0.500000  0.713524  0.687099  1
  B  B8  1  0.500000  0.863880  0.028124  1
  B  B9  1  0.500000  0.136051  0.967683  1
  B  B10  1  0.500000  0.362095  0.470024  1
  B  B11  1  0.500000  0.638031  0.531958  1
  B  B12  1  0.500000  0.888676  0.454856  1
  B  B13  1  0.500000  0.110450  0.547605  1
  B  B14  1  0.500000  0.389745  0.044341  1
  B  B15  1  0.500000  0.614747  0.951655  1
  B  B16  1  0.500000  0.975917  0.309493  1
  B  B17  1  0.500000  0.022224  0.693717  1
  B  B18  1  0.500000  0.476225  0.189393  1
  B  B19  1  0.500000  0.526731  0.809142  1
  Ru  Ru20  1  0.000000  0.640387  0.089238  1
  Ru  Ru21  1  0.000000  0.360429  0.907080  1
  Ru  Ru22  1  0.000000  0.137830  0.408967  1
  Ru  Ru23  1  0.000000  0.861863  0.594665  1
