# generated using pymatgen
data_Tb4DyEr3(ReC2)4
_symmetry_space_group_name_H-M   'P 1'
_cell_length_a   5.11524400
_cell_length_b   6.59112032
_cell_length_c   9.85312648
_cell_angle_alpha   90.03561430
_cell_angle_beta   90.00000000
_cell_angle_gamma   90.00000000
_symmetry_Int_Tables_number   1
_chemical_formula_structural   Tb4DyEr3(ReC2)4
_chemical_formula_sum   'Tb4 Dy1 Er3 Re4 C8'
_cell_volume   332.19995386
_cell_formula_units_Z   1
loop_
 _symmetry_equiv_pos_site_id
 _symmetry_equiv_pos_as_xyz
  1  'x, y, z'
loop_
 _atom_site_type_symbol
 _atom_site_label
 _atom_site_symmetry_multiplicity
 _atom_site_fract_x
 _atom_site_fract_y
 _atom_site_fract_z
 _atom_site_occupancy
  Tb  Tb0  1  0.750000  0.467461  0.784582  1
  Tb  Tb1  1  0.250000  0.032522  0.284897  1
  Tb  Tb2  1  0.750000  0.967808  0.715044  1
  Tb  Tb3  1  0.250000  0.532176  0.215468  1
  Dy  Dy4  1  0.750000  0.820972  0.056330  1
  Er  Er5  1  0.250000  0.677543  0.557090  1
  Er  Er6  1  0.750000  0.322290  0.443007  1
  Er  Er7  1  0.250000  0.177877  0.942790  1
  Re  Re8  1  0.750000  0.277861  0.134242  1
  Re  Re9  1  0.250000  0.222434  0.634047  1
  Re  Re10  1  0.750000  0.777696  0.366306  1
  Re  Re11  1  0.250000  0.722396  0.865463  1
  C  C12  1  0.750000  0.175499  0.950994  1
  C  C13  1  0.250000  0.825483  0.048492  1
  C  C14  1  0.750000  0.674312  0.548931  1
  C  C15  1  0.250000  0.325631  0.451214  1
  C  C16  1  0.750000  0.045763  0.260040  1
  C  C17  1  0.250000  0.454788  0.759523  1
  C  C18  1  0.750000  0.544705  0.241160  1
  C  C19  1  0.250000  0.954781  0.740378  1
