# generated using pymatgen
data_Tb3Pr6LuPb6
_symmetry_space_group_name_H-M   'P 1'
_cell_length_a   9.31258800
_cell_length_b   9.31258769
_cell_length_c   6.82501400
_cell_angle_alpha   90.00000000
_cell_angle_beta   90.00000000
_cell_angle_gamma   119.99999400
_symmetry_Int_Tables_number   1
_chemical_formula_structural   Tb3Pr6LuPb6
_chemical_formula_sum   'Tb3 Pr6 Lu1 Pb6'
_cell_volume   512.59571251
_cell_formula_units_Z   1
loop_
 _symmetry_equiv_pos_site_id
 _symmetry_equiv_pos_as_xyz
  1  'x, y, z'
loop_
 _atom_site_type_symbol
 _atom_site_label
 _atom_site_symmetry_multiplicity
 _atom_site_fract_x
 _atom_site_fract_y
 _atom_site_fract_z
 _atom_site_occupancy
  Tb  Tb0  1  0.666667  0.333333  0.000000  1
  Tb  Tb1  1  0.333333  0.666667  0.000000  1
  Tb  Tb2  1  0.333333  0.666667  0.500000  1
  Pr  Pr3  1  0.759746  0.759570  0.749492  1
  Pr  Pr4  1  0.240430  0.000176  0.749492  1
  Pr  Pr5  1  0.999824  0.240254  0.749492  1
  Pr  Pr6  1  0.240430  0.240254  0.250508  1
  Pr  Pr7  1  0.759746  0.000176  0.250508  1
  Pr  Pr8  1  0.999824  0.759570  0.250508  1
  Lu  Lu9  1  0.666667  0.333333  0.500000  1
  Pb  Pb10  1  0.399370  0.397776  0.748613  1
  Pb  Pb11  1  0.602224  0.001594  0.748613  1
  Pb  Pb12  1  0.998406  0.600630  0.748613  1
  Pb  Pb13  1  0.602224  0.600630  0.251387  1
  Pb  Pb14  1  0.399370  0.001594  0.251387  1
  Pb  Pb15  1  0.998406  0.397776  0.251387  1
