# generated using pymatgen
data_Hf3Zr7Sn6S
_symmetry_space_group_name_H-M   'P 1'
_cell_length_a   5.82672300
_cell_length_b   8.56369751
_cell_length_c   8.56375400
_cell_angle_alpha   119.99976709
_cell_angle_beta   90.00020690
_cell_angle_gamma   89.99962742
_symmetry_Int_Tables_number   1
_chemical_formula_structural   Hf3Zr7Sn6S
_chemical_formula_sum   'Hf3 Zr7 Sn6 S1'
_cell_volume   370.06799347
_cell_formula_units_Z   1
loop_
 _symmetry_equiv_pos_site_id
 _symmetry_equiv_pos_as_xyz
  1  'x, y, z'
loop_
 _atom_site_type_symbol
 _atom_site_label
 _atom_site_symmetry_multiplicity
 _atom_site_fract_x
 _atom_site_fract_y
 _atom_site_fract_z
 _atom_site_occupancy
  Hf  Hf0  1  0.500000  0.333336  0.666667  1
  Hf  Hf1  1  0.500000  0.666667  0.333334  1
  Hf  Hf2  1  0.999999  0.666666  0.333329  1
  Zr  Zr3  1  0.000001  0.333337  0.666668  1
  Zr  Zr4  1  0.756322  0.250308  0.000153  1
  Zr  Zr5  1  0.756310  0.749837  0.749690  1
  Zr  Zr6  1  0.756310  0.999844  0.250157  1
  Zr  Zr7  1  0.243679  0.749842  0.000151  1
  Zr  Zr8  1  0.243688  0.250315  0.250160  1
  Zr  Zr9  1  0.243688  0.999852  0.749689  1
  Sn  Sn10  1  0.750229  0.606023  0.000362  1
  Sn  Sn11  1  0.750233  0.394336  0.393975  1
  Sn  Sn12  1  0.750231  0.999633  0.605669  1
  Sn  Sn13  1  0.249776  0.394333  0.000363  1
  Sn  Sn14  1  0.249768  0.606037  0.605667  1
  Sn  Sn15  1  0.249770  0.999637  0.393969  1
  S  S16  1  0.499997  0.999998  0.999997  1
