# generated using pymatgen
data_Tb3Dy5Re2(RuC4)2
_symmetry_space_group_name_H-M   'P 1'
_cell_length_a   5.11951600
_cell_length_b   6.54754652
_cell_length_c   9.85054479
_cell_angle_alpha   89.95429318
_cell_angle_beta   90.00000000
_cell_angle_gamma   90.00000000
_symmetry_Int_Tables_number   1
_chemical_formula_structural   Tb3Dy5Re2(RuC4)2
_chemical_formula_sum   'Tb3 Dy5 Re2 Ru2 C8'
_cell_volume   330.19280759
_cell_formula_units_Z   1
loop_
 _symmetry_equiv_pos_site_id
 _symmetry_equiv_pos_as_xyz
  1  'x, y, z'
loop_
 _atom_site_type_symbol
 _atom_site_label
 _atom_site_symmetry_multiplicity
 _atom_site_fract_x
 _atom_site_fract_y
 _atom_site_fract_z
 _atom_site_occupancy
  Tb  Tb0  1  0.250000  0.031659  0.285339  1
  Tb  Tb1  1  0.750000  0.970529  0.714207  1
  Tb  Tb2  1  0.250000  0.529334  0.214239  1
  Dy  Dy3  1  0.750000  0.824374  0.054410  1
  Dy  Dy4  1  0.250000  0.675581  0.554604  1
  Dy  Dy5  1  0.750000  0.318735  0.443408  1
  Dy  Dy6  1  0.250000  0.181268  0.943232  1
  Dy  Dy7  1  0.750000  0.468272  0.784901  1
  Re  Re8  1  0.750000  0.777201  0.364428  1
  Re  Re9  1  0.250000  0.722587  0.864460  1
  Ru  Ru10  1  0.750000  0.276949  0.134896  1
  Ru  Ru11  1  0.250000  0.223187  0.635067  1
  C  C12  1  0.750000  0.177150  0.950213  1
  C  C13  1  0.250000  0.822771  0.050072  1
  C  C14  1  0.750000  0.676741  0.550286  1
  C  C15  1  0.250000  0.323968  0.450650  1
  C  C16  1  0.750000  0.042633  0.260276  1
  C  C17  1  0.250000  0.457225  0.760461  1
  C  C18  1  0.750000  0.544127  0.242421  1
  C  C19  1  0.250000  0.955708  0.742430  1
