# generated using pymatgen
data_ScTa5MnSi7Ni15
_symmetry_space_group_name_H-M   'P 1'
_cell_length_a   7.96693271
_cell_length_b   7.98253837
_cell_length_c   7.97071154
_cell_angle_alpha   59.95090859
_cell_angle_beta   60.07598223
_cell_angle_gamma   59.93519072
_symmetry_Int_Tables_number   1
_chemical_formula_structural   ScTa5MnSi7Ni15
_chemical_formula_sum   'Sc1 Ta5 Mn1 Si7 Ni15'
_cell_volume   358.33414890
_cell_formula_units_Z   1
loop_
 _symmetry_equiv_pos_site_id
 _symmetry_equiv_pos_as_xyz
  1  'x, y, z'
loop_
 _atom_site_type_symbol
 _atom_site_label
 _atom_site_symmetry_multiplicity
 _atom_site_fract_x
 _atom_site_fract_y
 _atom_site_fract_z
 _atom_site_occupancy
  Sc  Sc0  1  0.799071  0.202680  0.795570  1
  Ta  Ta1  1  0.212761  0.192243  0.798181  1
  Ta  Ta2  1  0.801596  0.793768  0.203327  1
  Ta  Ta3  1  0.801596  0.201310  0.203326  1
  Ta  Ta4  1  0.212760  0.796818  0.798181  1
  Ta  Ta5  1  0.206370  0.801342  0.190947  1
  Mn  Mn6  1  0.485230  0.838427  0.837915  1
  Si  Si7  1  0.498726  0.498359  0.504556  1
  Si  Si8  1  0.498715  0.496846  0.004122  1
  Si  Si9  1  0.003257  0.994624  0.500877  1
  Si  Si10  1  0.499507  0.002467  0.495559  1
  Si  Si11  1  0.003257  0.501241  0.500877  1
  Si  Si12  1  0.498715  0.000317  0.004122  1
  Si  Si13  1  0.002009  0.501108  0.995774  1
  Ni  Ni14  1  0.830751  0.502049  0.834450  1
  Ni  Ni15  1  0.830974  0.833484  0.502056  1
  Ni  Ni16  1  0.163088  0.496348  0.170757  1
  Ni  Ni17  1  0.163822  0.170142  0.495895  1
  Ni  Ni18  1  0.501350  0.166173  0.166303  1
  Ni  Ni19  1  0.830751  0.832751  0.834450  1
  Ni  Ni20  1  0.383317  0.383062  0.382444  1
  Ni  Ni21  1  0.149849  0.616970  0.616212  1
  Ni  Ni22  1  0.617730  0.145715  0.614250  1
  Ni  Ni23  1  0.616614  0.617209  0.148970  1
  Ni  Ni24  1  0.383317  0.851177  0.382444  1
  Ni  Ni25  1  0.376536  0.384182  0.855102  1
  Ni  Ni26  1  0.847513  0.387080  0.378328  1
  Ni  Ni27  1  0.617730  0.622304  0.614250  1
  Ni  Ni28  1  0.163088  0.169808  0.170757  1
