# generated using pymatgen
data_CePr7(CdCo)2
_symmetry_space_group_name_H-M   'P 1'
_cell_length_a   9.83344567
_cell_length_b   9.83344567
_cell_length_c   10.00240200
_cell_angle_alpha   59.42999086
_cell_angle_beta   59.42999087
_cell_angle_gamma   60.02433012
_symmetry_Int_Tables_number   1
_chemical_formula_structural   CePr7(CdCo)2
_chemical_formula_sum   'Ce2 Pr14 Cd4 Co4'
_cell_volume   678.08347540
_cell_formula_units_Z   2
loop_
 _symmetry_equiv_pos_site_id
 _symmetry_equiv_pos_as_xyz
  1  'x, y, z'
loop_
 _atom_site_type_symbol
 _atom_site_label
 _atom_site_symmetry_multiplicity
 _atom_site_fract_x
 _atom_site_fract_y
 _atom_site_fract_z
 _atom_site_occupancy
  Ce  Ce0  1  0.334300  0.334300  0.346144  1
  Ce  Ce1  1  0.334300  0.334300  0.985254  1
  Pr  Pr2  1  0.349977  0.956353  0.346835  1
  Pr  Pr3  1  0.956353  0.349977  0.346835  1
  Pr  Pr4  1  0.807290  0.190083  0.191048  1
  Pr  Pr5  1  0.190083  0.807290  0.811580  1
  Pr  Pr6  1  0.190083  0.807290  0.191048  1
  Pr  Pr7  1  0.807290  0.190083  0.811580  1
  Pr  Pr8  1  0.190792  0.190792  0.809208  1
  Pr  Pr9  1  0.808916  0.808916  0.191084  1
  Pr  Pr10  1  0.942849  0.556997  0.564439  1
  Pr  Pr11  1  0.556997  0.942849  0.935715  1
  Pr  Pr12  1  0.556997  0.942849  0.564439  1
  Pr  Pr13  1  0.942849  0.556997  0.935715  1
  Pr  Pr14  1  0.556103  0.556103  0.943897  1
  Pr  Pr15  1  0.936023  0.936023  0.563977  1
  Cd  Cd16  1  0.577381  0.577381  0.583512  1
  Cd  Cd17  1  0.577381  0.577381  0.261724  1
  Cd  Cd18  1  0.576775  0.263486  0.579869  1
  Cd  Cd19  1  0.263486  0.576775  0.579869  1
  Co  Co20  1  0.159683  0.159683  0.119806  1
  Co  Co21  1  0.159683  0.159683  0.560828  1
  Co  Co22  1  0.162876  0.561530  0.137798  1
  Co  Co23  1  0.561530  0.162876  0.137798  1
