# generated using pymatgen
data_Tb2Tm2TcRu7
_symmetry_space_group_name_H-M   'P 1'
_cell_length_a   5.18921366
_cell_length_b   5.38265839
_cell_length_c   8.98852113
_cell_angle_alpha   89.98650199
_cell_angle_beta   90.01909786
_cell_angle_gamma   121.15393978
_symmetry_Int_Tables_number   1
_chemical_formula_structural   Tb2Tm2TcRu7
_chemical_formula_sum   'Tb2 Tm2 Tc1 Ru7'
_cell_volume   214.85671818
_cell_formula_units_Z   1
loop_
 _symmetry_equiv_pos_site_id
 _symmetry_equiv_pos_as_xyz
  1  'x, y, z'
loop_
 _atom_site_type_symbol
 _atom_site_label
 _atom_site_symmetry_multiplicity
 _atom_site_fract_x
 _atom_site_fract_y
 _atom_site_fract_z
 _atom_site_occupancy
  Tb  Tb0  1  0.327363  0.664010  0.432776  1
  Tb  Tb1  1  0.656289  0.327912  0.565826  1
  Tm  Tm2  1  0.655106  0.327339  0.934730  1
  Tm  Tm3  1  0.328443  0.664480  0.066402  1
  Tc  Tc4  1  0.685713  0.842819  0.752541  1
  Ru  Ru5  1  0.979140  0.989589  0.499286  1
  Ru  Ru6  1  0.978768  0.989345  0.000878  1
  Ru  Ru7  1  0.837228  0.167958  0.247248  1
  Ru  Ru8  1  0.835230  0.667719  0.247280  1
  Ru  Ru9  1  0.355525  0.177135  0.246853  1
  Ru  Ru10  1  0.180090  0.827368  0.753120  1
  Ru  Ru11  1  0.181106  0.354324  0.753061  1
