# generated using pymatgen
data_Er6Sc4Al12Ir7
_symmetry_space_group_name_H-M   'P 1'
_cell_length_a   9.07450587
_cell_length_b   9.07450715
_cell_length_c   9.07450600
_cell_angle_alpha   59.99999689
_cell_angle_beta   59.99999225
_cell_angle_gamma   59.99999947
_symmetry_Int_Tables_number   1
_chemical_formula_structural   Er6Sc4Al12Ir7
_chemical_formula_sum   'Er6 Sc4 Al12 Ir7'
_cell_volume   528.38927028
_cell_formula_units_Z   1
loop_
 _symmetry_equiv_pos_site_id
 _symmetry_equiv_pos_as_xyz
  1  'x, y, z'
loop_
 _atom_site_type_symbol
 _atom_site_label
 _atom_site_symmetry_multiplicity
 _atom_site_fract_x
 _atom_site_fract_y
 _atom_site_fract_z
 _atom_site_occupancy
  Er  Er0  1  0.703144  0.703144  0.296856  1
  Er  Er1  1  0.296856  0.703144  0.296856  1
  Er  Er2  1  0.703144  0.296856  0.296856  1
  Er  Er3  1  0.296856  0.296856  0.703144  1
  Er  Er4  1  0.703144  0.296856  0.703144  1
  Er  Er5  1  0.296856  0.703144  0.703144  1
  Sc  Sc6  1  0.880919  0.880919  0.357242  1
  Sc  Sc7  1  0.880919  0.357242  0.880919  1
  Sc  Sc8  1  0.357242  0.880919  0.880919  1
  Sc  Sc9  1  0.880919  0.880919  0.880919  1
  Al  Al10  1  0.119867  0.119867  0.640398  1
  Al  Al11  1  0.119867  0.640398  0.119867  1
  Al  Al12  1  0.640398  0.119867  0.119867  1
  Al  Al13  1  0.119867  0.119867  0.119867  1
  Al  Al14  1  0.668787  0.668787  0.993638  1
  Al  Al15  1  0.668787  0.993638  0.668787  1
  Al  Al16  1  0.993638  0.668787  0.668787  1
  Al  Al17  1  0.668787  0.668787  0.668787  1
  Al  Al18  1  0.329407  0.329407  0.011778  1
  Al  Al19  1  0.329407  0.011778  0.329407  1
  Al  Al20  1  0.011778  0.329407  0.329407  1
  Al  Al21  1  0.329407  0.329407  0.329407  1
  Ir  Ir22  1  0.000000  0.000000  0.000000  1
  Ir  Ir23  1  0.001759  0.001759  0.498241  1
  Ir  Ir24  1  0.498241  0.001759  0.498241  1
  Ir  Ir25  1  0.001759  0.498241  0.498241  1
  Ir  Ir26  1  0.498241  0.498241  0.001759  1
  Ir  Ir27  1  0.001759  0.498241  0.001759  1
  Ir  Ir28  1  0.498241  0.001759  0.001759  1
