# generated using pymatgen
data_NbPdAu3
_symmetry_space_group_name_H-M   'P 1'
_cell_length_a   5.09014460
_cell_length_b   5.09014542
_cell_length_c   5.03511740
_cell_angle_alpha   99.05491841
_cell_angle_beta   98.90478566
_cell_angle_gamma   133.72523330
_symmetry_Int_Tables_number   1
_chemical_formula_structural   NbPdAu3
_chemical_formula_sum   'Nb1 Pd1 Au3'
_cell_volume   86.51961448
_cell_formula_units_Z   1
loop_
 _symmetry_equiv_pos_site_id
 _symmetry_equiv_pos_as_xyz
  1  'x, y, z'
loop_
 _atom_site_type_symbol
 _atom_site_label
 _atom_site_symmetry_multiplicity
 _atom_site_fract_x
 _atom_site_fract_y
 _atom_site_fract_z
 _atom_site_occupancy
  Nb  Nb0  1  0.997708  0.004538  0.002245  1
  Pd  Pd1  1  0.608509  0.789671  0.398179  1
  Au  Au2  1  0.391393  0.204412  0.595805  1
  Au  Au3  1  0.205291  0.605670  0.810960  1
  Au  Au4  1  0.797101  0.395710  0.192810  1
