# generated using pymatgen
data_Na30Sn6BiSb
_symmetry_space_group_name_H-M   'P 1'
_cell_length_a   11.38552798
_cell_length_b   11.39740214
_cell_length_c   11.37934201
_cell_angle_alpha   109.48101015
_cell_angle_beta   109.43568185
_cell_angle_gamma   109.55728561
_symmetry_Int_Tables_number   1
_chemical_formula_structural   Na30Sn6BiSb
_chemical_formula_sum   'Na30 Sn6 Bi1 Sb1'
_cell_volume   1135.87419005
_cell_formula_units_Z   1
loop_
 _symmetry_equiv_pos_site_id
 _symmetry_equiv_pos_as_xyz
  1  'x, y, z'
loop_
 _atom_site_type_symbol
 _atom_site_label
 _atom_site_symmetry_multiplicity
 _atom_site_fract_x
 _atom_site_fract_y
 _atom_site_fract_z
 _atom_site_occupancy
  Na  Na0  1  0.627220  0.374006  0.247744  1
  Na  Na1  1  0.243804  0.621847  0.371276  1
  Na  Na2  1  0.750020  0.874868  0.124989  1
  Na  Na3  1  0.124943  0.749854  0.874986  1
  Na  Na4  1  0.372313  0.251418  0.628320  1
  Na  Na5  1  0.880237  0.126500  0.752601  1
  Na  Na6  1  0.081129  0.274441  0.111827  1
  Na  Na7  1  0.694051  0.031779  0.920521  1
  Na  Na8  1  0.885363  0.470434  0.161868  1
  Na  Na9  1  0.156546  0.882609  0.468523  1
  Na  Na10  1  0.336046  0.808134  0.727129  1
  Na  Na11  1  0.727308  0.342651  0.814122  1
  Na  Na12  1  0.030378  0.915413  0.691588  1
  Na  Na13  1  0.223500  0.308615  0.838141  1
  Na  Na14  1  0.188959  0.414041  0.530926  1
  Na  Na15  1  0.972681  0.386624  0.663060  1
  Na  Na16  1  0.306580  0.836508  0.218491  1
  Na  Na17  1  0.531225  0.191163  0.410765  1
  Na  Na18  1  0.385006  0.661671  0.969648  1
  Na  Na19  1  0.109715  0.081747  0.273291  1
  Na  Na20  1  0.273853  0.111952  0.080288  1
  Na  Na21  1  0.838809  0.223848  0.308489  1
  Na  Na22  1  0.413172  0.528139  0.186940  1
  Na  Na23  1  0.663995  0.970262  0.381689  1
  Na  Na24  1  0.620311  0.778122  0.588641  1
  Na  Na25  1  0.587530  0.617355  0.780322  1
  Na  Na26  1  0.781170  0.587982  0.617670  1
  Na  Na27  1  0.809657  0.723624  0.336911  1
  Na  Na28  1  0.915459  0.692163  0.030458  1
  Na  Na29  1  0.469212  0.162967  0.888859  1
  Sn  Sn30  1  0.581673  0.497625  0.997147  1
  Sn  Sn31  1  0.001538  0.583267  0.500133  1
  Sn  Sn32  1  0.084615  0.500376  0.002846  1
  Sn  Sn33  1  0.001381  0.083077  0.499670  1
  Sn  Sn34  1  0.499486  0.002091  0.086311  1
  Sn  Sn35  1  0.913095  0.915771  0.913554  1
  Bi  Bi36  1  0.499951  0.999457  0.582074  1
  Sb  Sb37  1  0.418067  0.417596  0.418183  1
