# generated using pymatgen
data_ErTa3(PO4)6
_symmetry_space_group_name_H-M   'P 1'
_cell_length_a   8.86465776
_cell_length_b   9.13802718
_cell_length_c   8.86456500
_cell_angle_alpha   89.99694112
_cell_angle_beta   59.99967278
_cell_angle_gamma   119.01308134
_symmetry_Int_Tables_number   1
_chemical_formula_structural   ErTa3(PO4)6
_chemical_formula_sum   'Er1 Ta3 P6 O24'
_cell_volume   515.18564971
_cell_formula_units_Z   1
loop_
 _symmetry_equiv_pos_site_id
 _symmetry_equiv_pos_as_xyz
  1  'x, y, z'
loop_
 _atom_site_type_symbol
 _atom_site_label
 _atom_site_symmetry_multiplicity
 _atom_site_fract_x
 _atom_site_fract_y
 _atom_site_fract_z
 _atom_site_occupancy
  Er  Er0  1  0.722170  0.083192  0.638855  1
  Ta  Ta1  1  0.284706  0.926941  0.357636  1
  Ta  Ta2  1  0.286415  0.429502  0.856785  1
  Ta  Ta3  1  0.715435  0.573070  0.142234  1
  P  P4  1  0.786811  0.748776  0.748416  1
  P  P5  1  0.484975  0.251017  0.535570  1
  P  P6  1  0.497408  0.748848  0.464665  1
  P  P7  1  0.230582  0.251111  0.233858  1
  P  P8  1  0.786707  0.251056  0.979394  1
  P  P9  1  0.213644  0.748817  0.037860  1
  O  O10  1  0.652993  0.909385  0.476318  1
  O  O11  1  0.995732  0.707616  0.096361  1
  O  O12  1  0.220847  0.583797  0.004514  1
  O  O13  1  0.225715  0.779038  0.206492  1
  O  O14  1  0.987616  0.276899  0.950948  1
  O  O15  1  0.791087  0.416184  0.022023  1
  O  O16  1  0.789396  0.238055  0.809773  1
  O  O17  1  0.804231  0.707790  0.907813  1
  O  O18  1  0.985622  0.778925  0.567717  1
  O  O19  1  0.639084  0.238248  0.551167  1
  O  O20  1  0.779867  0.909197  0.743521  1
  O  O21  1  0.588408  0.583674  0.774716  1
  O  O22  1  0.590490  0.085017  0.150709  1
  O  O23  1  0.602868  0.416072  0.374820  1
  O  O24  1  0.227816  0.276765  0.061446  1
  O  O25  1  0.338301  0.276804  0.710667  1
  O  O26  1  0.615764  0.707748  0.287932  1
  O  O27  1  0.343914  0.084879  0.505454  1
  O  O28  1  0.385753  0.909262  0.870491  1
  O  O29  1  0.358680  0.583844  0.636864  1
  O  O30  1  0.235874  0.085094  0.258873  1
  O  O31  1  0.438404  0.416317  0.186630  1
  O  O32  1  0.346789  0.778874  0.446541  1
  O  O33  1  0.048027  0.238187  0.400805  1
