# generated using pymatgen
data_Pr6Mg(SiS7)2
_symmetry_space_group_name_H-M   'P 1'
_cell_length_a   10.31878700
_cell_length_b   10.31878839
_cell_length_c   5.74863800
_cell_angle_alpha   90.00000000
_cell_angle_beta   90.00000000
_cell_angle_gamma   119.99999873
_symmetry_Int_Tables_number   1
_chemical_formula_structural   Pr6Mg(SiS7)2
_chemical_formula_sum   'Pr6 Mg1 Si2 S14'
_cell_volume   530.09407863
_cell_formula_units_Z   1
loop_
 _symmetry_equiv_pos_site_id
 _symmetry_equiv_pos_as_xyz
  1  'x, y, z'
loop_
 _atom_site_type_symbol
 _atom_site_label
 _atom_site_symmetry_multiplicity
 _atom_site_fract_x
 _atom_site_fract_y
 _atom_site_fract_z
 _atom_site_occupancy
  Pr  Pr0  1  0.975681  0.432382  0.751826  1
  Pr  Pr1  1  0.456701  0.024319  0.751826  1
  Pr  Pr2  1  0.567618  0.543299  0.751826  1
  Pr  Pr3  1  0.690384  0.900120  0.245639  1
  Pr  Pr4  1  0.209736  0.309616  0.245639  1
  Pr  Pr5  1  0.099880  0.790264  0.245639  1
  Mg  Mg6  1  0.333333  0.666667  0.513614  1
  Si  Si7  1  0.666667  0.333333  0.165452  1
  Si  Si8  1  0.000000  0.000000  0.658364  1
  S  S9  1  0.666667  0.333333  0.531348  1
  S  S10  1  0.000000  0.000000  0.025015  1
  S  S11  1  0.087369  0.506043  0.274351  1
  S  S12  1  0.418674  0.912631  0.274351  1
  S  S13  1  0.493957  0.581326  0.274351  1
  S  S14  1  0.579243  0.829654  0.753314  1
  S  S15  1  0.250411  0.420757  0.753314  1
  S  S16  1  0.170346  0.749589  0.753314  1
  S  S17  1  0.810341  0.551927  0.021847  1
  S  S18  1  0.741587  0.189659  0.021847  1
  S  S19  1  0.448073  0.258413  0.021847  1
  S  S20  1  0.856791  0.781035  0.516437  1
  S  S21  1  0.924245  0.143209  0.516437  1
  S  S22  1  0.218965  0.075755  0.516437  1
