# generated using pymatgen
data_DyY7Sc11Si16Os
_symmetry_space_group_name_H-M   'P 1'
_cell_length_a   7.01578806
_cell_length_b   7.35496354
_cell_length_c   13.88864601
_cell_angle_alpha   90.00087156
_cell_angle_beta   89.99677003
_cell_angle_gamma   90.06939890
_symmetry_Int_Tables_number   1
_chemical_formula_structural   DyY7Sc11Si16Os
_chemical_formula_sum   'Dy1 Y7 Sc11 Si16 Os1'
_cell_volume   716.66562522
_cell_formula_units_Z   1
loop_
 _symmetry_equiv_pos_site_id
 _symmetry_equiv_pos_as_xyz
  1  'x, y, z'
loop_
 _atom_site_type_symbol
 _atom_site_label
 _atom_site_symmetry_multiplicity
 _atom_site_fract_x
 _atom_site_fract_y
 _atom_site_fract_z
 _atom_site_occupancy
  Dy  Dy0  1  0.489455  0.672217  0.598105  1
  Y  Y1  1  0.011534  0.177400  0.092954  1
  Y  Y2  1  0.993911  0.819790  0.900563  1
  Y  Y3  1  0.489505  0.672156  0.902003  1
  Y  Y4  1  0.993883  0.819768  0.599418  1
  Y  Y5  1  0.511339  0.324117  0.094742  1
  Y  Y6  1  0.011568  0.177430  0.407040  1
  Y  Y7  1  0.511311  0.324193  0.405298  1
  Sc  Sc8  1  0.841787  0.496581  0.250028  1
  Sc  Sc9  1  0.341666  0.002716  0.250028  1
  Sc  Sc10  1  0.657949  0.996367  0.749944  1
  Sc  Sc11  1  0.325936  0.176635  0.627257  1
  Sc  Sc12  1  0.671803  0.824494  0.374690  1
  Sc  Sc13  1  0.171763  0.674396  0.376902  1
  Sc  Sc14  1  0.671885  0.824531  0.125387  1
  Sc  Sc15  1  0.825680  0.331470  0.628138  1
  Sc  Sc16  1  0.325960  0.176613  0.872701  1
  Sc  Sc17  1  0.825765  0.331397  0.871808  1
  Sc  Sc18  1  0.171750  0.674414  0.123145  1
  Si  Si19  1  0.029239  0.121616  0.750007  1
  Si  Si20  1  0.971670  0.884881  0.250003  1
  Si  Si21  1  0.468351  0.616363  0.249991  1
  Si  Si22  1  0.515500  0.393228  0.749935  1
  Si  Si23  1  0.287231  0.863348  0.749907  1
  Si  Si24  1  0.716578  0.128288  0.250002  1
  Si  Si25  1  0.214983  0.372460  0.249999  1
  Si  Si26  1  0.796262  0.629286  0.749942  1
  Si  Si27  1  0.156364  0.465598  0.548965  1
  Si  Si28  1  0.842994  0.536559  0.463672  1
  Si  Si29  1  0.345620  0.964376  0.463049  1
  Si  Si30  1  0.843043  0.536512  0.036348  1
  Si  Si31  1  0.658308  0.034176  0.540077  1
  Si  Si32  1  0.156165  0.465466  0.951052  1
  Si  Si33  1  0.658361  0.034321  0.959940  1
  Si  Si34  1  0.345606  0.964492  0.036996  1
  Os  Os35  1  0.149273  0.492349  0.749965  1
