# generated using pymatgen
data_Ca2TbDyNi14
_symmetry_space_group_name_H-M   'P 1'
_cell_length_a   4.93093146
_cell_length_b   4.93093119
_cell_length_c   12.40444700
_cell_angle_alpha   78.53574038
_cell_angle_beta   78.53574348
_cell_angle_gamma   60.00000932
_symmetry_Int_Tables_number   1
_chemical_formula_structural   Ca2TbDyNi14
_chemical_formula_sum   'Ca2 Tb1 Dy1 Ni14'
_cell_volume   254.22374771
_cell_formula_units_Z   1
loop_
 _symmetry_equiv_pos_site_id
 _symmetry_equiv_pos_as_xyz
  1  'x, y, z'
loop_
 _atom_site_type_symbol
 _atom_site_label
 _atom_site_symmetry_multiplicity
 _atom_site_fract_x
 _atom_site_fract_y
 _atom_site_fract_z
 _atom_site_occupancy
  Ca  Ca0  1  0.851253  0.851253  0.446242  1
  Ca  Ca1  1  0.148751  0.148751  0.553748  1
  Tb  Tb2  1  0.948199  0.948199  0.155400  1
  Dy  Dy3  1  0.051800  0.051800  0.844603  1
  Ni  Ni4  1  0.500000  0.500000  0.499999  1
  Ni  Ni5  1  0.721510  0.721510  0.835470  1
  Ni  Ni6  1  0.278489  0.278489  0.164533  1
  Ni  Ni7  1  0.612274  0.612274  0.163178  1
  Ni  Ni8  1  0.387725  0.387725  0.836825  1
  Ni  Ni9  1  0.000001  0.500002  0.999996  1
  Ni  Ni10  1  0.500002  0.000001  0.999996  1
  Ni  Ni11  1  0.500002  0.500002  0.999996  1
  Ni  Ni12  1  0.391879  0.391879  0.326237  1
  Ni  Ni13  1  0.890007  0.391879  0.326237  1
  Ni  Ni14  1  0.391879  0.890007  0.326237  1
  Ni  Ni15  1  0.608118  0.608118  0.673768  1
  Ni  Ni16  1  0.109994  0.608118  0.673768  1
  Ni  Ni17  1  0.608118  0.109994  0.673768  1
