# generated using pymatgen
data_YFeCo4P3
_symmetry_space_group_name_H-M   'P 1'
_cell_length_a   3.66026900
_cell_length_b   10.25580600
_cell_length_c   11.78034600
_cell_angle_alpha   90.00000000
_cell_angle_beta   90.00000000
_cell_angle_gamma   90.00000000
_symmetry_Int_Tables_number   1
_chemical_formula_structural   YFeCo4P3
_chemical_formula_sum   'Y4 Fe4 Co16 P12'
_cell_volume   442.22251183
_cell_formula_units_Z   4
loop_
 _symmetry_equiv_pos_site_id
 _symmetry_equiv_pos_as_xyz
  1  'x, y, z'
loop_
 _atom_site_type_symbol
 _atom_site_label
 _atom_site_symmetry_multiplicity
 _atom_site_fract_x
 _atom_site_fract_y
 _atom_site_fract_z
 _atom_site_occupancy
  Y  Y0  1  0.250000  0.918390  0.203165  1
  Y  Y1  1  0.750000  0.081610  0.796835  1
  Y  Y2  1  0.750000  0.418390  0.296835  1
  Y  Y3  1  0.250000  0.581610  0.703165  1
  Fe  Fe4  1  0.250000  0.790066  0.487633  1
  Fe  Fe5  1  0.750000  0.209934  0.512367  1
  Fe  Fe6  1  0.750000  0.290066  0.012367  1
  Fe  Fe7  1  0.250000  0.709934  0.987633  1
  Co  Co8  1  0.250000  0.094153  0.987584  1
  Co  Co9  1  0.750000  0.905847  0.012416  1
  Co  Co10  1  0.750000  0.594153  0.512416  1
  Co  Co11  1  0.250000  0.405847  0.487584  1
  Co  Co12  1  0.250000  0.278689  0.676408  1
  Co  Co13  1  0.750000  0.721311  0.323592  1
  Co  Co14  1  0.750000  0.778689  0.823592  1
  Co  Co15  1  0.250000  0.221311  0.176408  1
  Co  Co16  1  0.250000  0.617807  0.198179  1
  Co  Co17  1  0.750000  0.382193  0.801821  1
  Co  Co18  1  0.750000  0.117807  0.301821  1
  Co  Co19  1  0.250000  0.882193  0.698179  1
  Co  Co20  1  0.250000  0.033172  0.433072  1
  Co  Co21  1  0.750000  0.966828  0.566928  1
  Co  Co22  1  0.750000  0.533172  0.066928  1
  Co  Co23  1  0.250000  0.466828  0.933072  1
  P  P24  1  0.250000  0.081101  0.612812  1
  P  P25  1  0.750000  0.918899  0.387188  1
  P  P26  1  0.750000  0.581101  0.887188  1
  P  P27  1  0.250000  0.418899  0.112812  1
  P  P28  1  0.250000  0.229970  0.368349  1
  P  P29  1  0.750000  0.770030  0.631651  1
  P  P30  1  0.750000  0.729970  0.131651  1
  P  P31  1  0.250000  0.270030  0.868349  1
  P  P32  1  0.250000  0.897624  0.892470  1
  P  P33  1  0.750000  0.102376  0.107530  1
  P  P34  1  0.750000  0.397624  0.607530  1
  P  P35  1  0.250000  0.602376  0.392470  1
