# generated using pymatgen
data_Y3HfIn2Ir3
_symmetry_space_group_name_H-M   'P 1'
_cell_length_a   7.45294330
_cell_length_b   7.24248168
_cell_length_c   4.17475000
_cell_angle_alpha   90.00000000
_cell_angle_beta   90.00000000
_cell_angle_gamma   119.07017130
_symmetry_Int_Tables_number   1
_chemical_formula_structural   Y3HfIn2Ir3
_chemical_formula_sum   'Y3 Hf1 In2 Ir3'
_cell_volume   196.95621858
_cell_formula_units_Z   1
loop_
 _symmetry_equiv_pos_site_id
 _symmetry_equiv_pos_as_xyz
  1  'x, y, z'
loop_
 _atom_site_type_symbol
 _atom_site_label
 _atom_site_symmetry_multiplicity
 _atom_site_fract_x
 _atom_site_fract_y
 _atom_site_fract_z
 _atom_site_occupancy
  Y  Y0  1  0.584041  0.587962  0.000000  1
  Y  Y1  1  0.415959  0.003921  0.000000  1
  Y  Y2  1  0.000000  0.394751  0.000000  1
  Hf  Hf3  1  0.000000  0.752753  0.500000  1
  In  In4  1  0.255016  0.253666  0.500000  1
  In  In5  1  0.744984  0.998650  0.500000  1
  Ir  Ir6  1  0.000000  0.977945  0.000000  1
  Ir  Ir7  1  0.682680  0.356516  0.500000  1
  Ir  Ir8  1  0.317320  0.673837  0.500000  1
