# generated using pymatgen
data_Tm2Co6Si3Ge
_symmetry_space_group_name_H-M   'P 1'
_cell_length_a   6.27295586
_cell_length_b   6.26410720
_cell_length_c   6.27295706
_cell_angle_alpha   130.72247244
_cell_angle_beta   112.65870037
_cell_angle_gamma   87.89286007
_symmetry_Int_Tables_number   1
_chemical_formula_structural   Tm2Co6Si3Ge
_chemical_formula_sum   'Tm2 Co6 Si3 Ge1'
_cell_volume   164.07946261
_cell_formula_units_Z   1
loop_
 _symmetry_equiv_pos_site_id
 _symmetry_equiv_pos_as_xyz
  1  'x, y, z'
loop_
 _atom_site_type_symbol
 _atom_site_label
 _atom_site_symmetry_multiplicity
 _atom_site_fract_x
 _atom_site_fract_y
 _atom_site_fract_z
 _atom_site_occupancy
  Tm  Tm0  1  0.251589  0.533934  0.282344  1
  Tm  Tm1  1  0.748370  0.470382  0.722011  1
  Co  Co2  1  0.992064  0.999627  0.488261  1
  Co  Co3  1  0.511366  0.999627  0.007563  1
  Co  Co4  1  0.719329  0.001506  0.722510  1
  Co  Co5  1  0.229730  0.496132  0.727545  1
  Co  Co6  1  0.278996  0.001506  0.282177  1
  Co  Co7  1  0.768587  0.496132  0.266402  1
  Si  Si8  1  0.922591  0.134546  0.211954  1
  Si  Si9  1  0.578514  0.786324  0.207809  1
  Si  Si10  1  0.414751  0.205924  0.791174  1
  Ge  Ge11  1  0.084112  0.874361  0.790249  1
