# generated using pymatgen
data_Tb4CeSm3(ReB6)4
_symmetry_space_group_name_H-M   'P 1'
_cell_length_a   3.73146300
_cell_length_b   9.23787345
_cell_length_c   11.65294282
_cell_angle_alpha   89.93583533
_cell_angle_beta   90.00000000
_cell_angle_gamma   90.00000000
_symmetry_Int_Tables_number   1
_chemical_formula_structural   Tb4CeSm3(ReB6)4
_chemical_formula_sum   'Tb4 Ce1 Sm3 Re4 B24'
_cell_volume   401.68581127
_cell_formula_units_Z   1
loop_
 _symmetry_equiv_pos_site_id
 _symmetry_equiv_pos_as_xyz
  1  'x, y, z'
loop_
 _atom_site_type_symbol
 _atom_site_label
 _atom_site_symmetry_multiplicity
 _atom_site_fract_x
 _atom_site_fract_y
 _atom_site_fract_z
 _atom_site_occupancy
  Tb  Tb0  1  0.000000  0.942800  0.369491  1
  Tb  Tb1  1  0.000000  0.057086  0.629985  1
  Tb  Tb2  1  0.000000  0.443061  0.130382  1
  Tb  Tb3  1  0.000000  0.557368  0.869649  1
  Ce  Ce4  1  0.000000  0.176168  0.914037  1
  Sm  Sm5  1  0.000000  0.323727  0.413834  1
  Sm  Sm6  1  0.000000  0.676594  0.585803  1
  Sm  Sm7  1  0.000000  0.823025  0.086501  1
  Re  Re8  1  0.000000  0.638596  0.320350  1
  Re  Re9  1  0.000000  0.360249  0.680916  1
  Re  Re10  1  0.000000  0.138476  0.178060  1
  Re  Re11  1  0.000000  0.862905  0.821116  1
  B  B12  1  0.500000  0.553862  0.431862  1
  B  B13  1  0.500000  0.445786  0.568385  1
  B  B14  1  0.500000  0.054995  0.067804  1
  B  B15  1  0.500000  0.946833  0.931333  1
  B  B16  1  0.500000  0.748837  0.417163  1
  B  B17  1  0.500000  0.251310  0.582852  1
  B  B18  1  0.500000  0.248525  0.082238  1
  B  B19  1  0.500000  0.751347  0.917039  1
  B  B20  1  0.500000  0.791182  0.266077  1
  B  B21  1  0.500000  0.208869  0.734423  1
  B  B22  1  0.500000  0.290835  0.233740  1
  B  B23  1  0.500000  0.709205  0.766376  1
  B  B24  1  0.500000  0.630728  0.186630  1
  B  B25  1  0.500000  0.368377  0.813927  1
  B  B26  1  0.500000  0.130425  0.313312  1
  B  B27  1  0.500000  0.869261  0.686453  1
  B  B28  1  0.500000  0.984028  0.212637  1
  B  B29  1  0.500000  0.016184  0.787706  1
  B  B30  1  0.500000  0.483948  0.287609  1
  B  B31  1  0.500000  0.515672  0.712536  1
  B  B32  1  0.500000  0.600201  0.028030  1
  B  B33  1  0.500000  0.399683  0.972029  1
  B  B34  1  0.500000  0.098681  0.472229  1
  B  B35  1  0.500000  0.901171  0.527485  1
