# generated using pymatgen
data_Yb2SmHoPdPt3O14
_symmetry_space_group_name_H-M   'P 1'
_cell_length_a   7.29007072
_cell_length_b   7.28451303
_cell_length_c   7.27906000
_cell_angle_alpha   59.97522533
_cell_angle_beta   59.99447626
_cell_angle_gamma   60.02520902
_symmetry_Int_Tables_number   1
_chemical_formula_structural   Yb2SmHoPdPt3O14
_chemical_formula_sum   'Yb2 Sm1 Ho1 Pd1 Pt3 O14'
_cell_volume   273.32269498
_cell_formula_units_Z   1
loop_
 _symmetry_equiv_pos_site_id
 _symmetry_equiv_pos_as_xyz
  1  'x, y, z'
loop_
 _atom_site_type_symbol
 _atom_site_label
 _atom_site_symmetry_multiplicity
 _atom_site_fract_x
 _atom_site_fract_y
 _atom_site_fract_z
 _atom_site_occupancy
  Yb  Yb0  1  0.625000  0.625000  0.625000  1
  Yb  Yb1  1  0.625000  0.125000  0.625000  1
  Sm  Sm2  1  0.125000  0.625000  0.625000  1
  Ho  Ho3  1  0.625000  0.625000  0.125000  1
  Pd  Pd4  1  0.125000  0.125000  0.125000  1
  Pt  Pt5  1  0.625000  0.125000  0.125000  1
  Pt  Pt6  1  0.125000  0.625000  0.125000  1
  Pt  Pt7  1  0.125000  0.125000  0.625000  1
  O  O8  1  0.039898  0.459592  0.458199  1
  O  O9  1  0.790938  0.790233  0.203927  1
  O  O10  1  0.788422  0.215968  0.204589  1
  O  O11  1  0.457757  0.041054  0.456736  1
  O  O12  1  0.746796  0.746815  0.758163  1
  O  O13  1  0.039400  0.040007  0.461654  1
  O  O14  1  0.033683  0.462613  0.043278  1
  O  O15  1  0.792243  0.208946  0.793264  1
  O  O16  1  0.216317  0.787387  0.206722  1
  O  O17  1  0.210600  0.209993  0.788346  1
  O  O18  1  0.503204  0.503185  0.491837  1
  O  O19  1  0.461578  0.034032  0.045411  1
  O  O20  1  0.459062  0.459767  0.046073  1
  O  O21  1  0.210102  0.790408  0.791801  1
