# generated using pymatgen
data_Ca10Cd2Pd3Rh
_symmetry_space_group_name_H-M   'P 1'
_cell_length_a   9.21219781
_cell_length_b   9.21219752
_cell_length_c   9.22708500
_cell_angle_alpha   129.33081600
_cell_angle_beta   129.33081450
_cell_angle_gamma   74.35701390
_symmetry_Int_Tables_number   1
_chemical_formula_structural   Ca10Cd2Pd3Rh
_chemical_formula_sum   'Ca10 Cd2 Pd3 Rh1'
_cell_volume   456.94714676
_cell_formula_units_Z   1
loop_
 _symmetry_equiv_pos_site_id
 _symmetry_equiv_pos_as_xyz
  1  'x, y, z'
loop_
 _atom_site_type_symbol
 _atom_site_label
 _atom_site_symmetry_multiplicity
 _atom_site_fract_x
 _atom_site_fract_y
 _atom_site_fract_z
 _atom_site_occupancy
  Ca  Ca0  1  0.534035  0.028773  0.828344  1
  Ca  Ca1  1  0.205690  0.700429  0.171656  1
  Ca  Ca2  1  0.032560  0.199879  0.500000  1
  Ca  Ca3  1  0.695319  0.540249  0.500000  1
  Ca  Ca4  1  0.471227  0.965965  0.171656  1
  Ca  Ca5  1  0.799571  0.294310  0.828344  1
  Ca  Ca6  1  0.959751  0.804681  0.500000  1
  Ca  Ca7  1  0.300121  0.467440  0.500000  1
  Ca  Ca8  1  0.501308  0.503409  0.004717  1
  Ca  Ca9  1  0.996591  0.998692  0.995283  1
  Cd  Cd10  1  0.251719  0.248281  0.000000  1
  Cd  Cd11  1  0.751719  0.748281  0.000000  1
  Pd  Pd12  1  0.371583  0.128417  0.500000  1
  Pd  Pd13  1  0.127430  0.627798  0.755228  1
  Pd  Pd14  1  0.872202  0.372570  0.244772  1
  Rh  Rh15  1  0.629174  0.870826  0.500000  1
