# generated using pymatgen
data_Ho2Er2Ga4Ir3Pd
_symmetry_space_group_name_H-M   'P 1'
_cell_length_a   4.32413500
_cell_length_b   6.82304176
_cell_length_c   7.78973712
_cell_angle_alpha   90.15045022
_cell_angle_beta   90.00000000
_cell_angle_gamma   90.00000000
_symmetry_Int_Tables_number   1
_chemical_formula_structural   Ho2Er2Ga4Ir3Pd
_chemical_formula_sum   'Ho2 Er2 Ga4 Ir3 Pd1'
_cell_volume   229.82569303
_cell_formula_units_Z   1
loop_
 _symmetry_equiv_pos_site_id
 _symmetry_equiv_pos_as_xyz
  1  'x, y, z'
loop_
 _atom_site_type_symbol
 _atom_site_label
 _atom_site_symmetry_multiplicity
 _atom_site_fract_x
 _atom_site_fract_y
 _atom_site_fract_z
 _atom_site_occupancy
  Ho  Ho0  1  0.750000  0.021469  0.683392  1
  Ho  Ho1  1  0.750000  0.531971  0.811766  1
  Er  Er2  1  0.250000  0.976581  0.312306  1
  Er  Er3  1  0.250000  0.479208  0.193798  1
  Ga  Ga4  1  0.250000  0.346704  0.566227  1
  Ga  Ga5  1  0.250000  0.839697  0.932283  1
  Ga  Ga6  1  0.750000  0.654796  0.430964  1
  Ga  Ga7  1  0.750000  0.153701  0.068622  1
  Ir  Ir8  1  0.250000  0.733264  0.612484  1
  Ir  Ir9  1  0.750000  0.766475  0.112112  1
  Ir  Ir10  1  0.750000  0.265757  0.387698  1
  Pd  Pd11  1  0.250000  0.230379  0.888348  1
