# generated using pymatgen
data_NiPtBr18
_symmetry_space_group_name_H-M   'P 1'
_cell_length_a   9.08980178
_cell_length_b   9.08980195
_cell_length_c   9.08980207
_cell_angle_alpha   92.52897373
_cell_angle_beta   92.52896750
_cell_angle_gamma   92.52897954
_symmetry_Int_Tables_number   1
_chemical_formula_structural   NiPtBr18
_chemical_formula_sum   'Ni1 Pt1 Br18'
_cell_volume   748.77901745
_cell_formula_units_Z   1
loop_
 _symmetry_equiv_pos_site_id
 _symmetry_equiv_pos_as_xyz
  1  'x, y, z'
loop_
 _atom_site_type_symbol
 _atom_site_label
 _atom_site_symmetry_multiplicity
 _atom_site_fract_x
 _atom_site_fract_y
 _atom_site_fract_z
 _atom_site_occupancy
  Ni  Ni0  1  0.000000  0.000000  0.000000  1
  Pt  Pt1  1  0.500000  0.500000  0.500000  1
  Br  Br2  1  0.724560  0.977362  0.029691  1
  Br  Br3  1  0.748728  0.128891  0.615323  1
  Br  Br4  1  0.029691  0.724560  0.977362  1
  Br  Br5  1  0.251272  0.871109  0.384677  1
  Br  Br6  1  0.128891  0.615323  0.748728  1
  Br  Br7  1  0.022638  0.970309  0.275440  1
  Br  Br8  1  0.615323  0.748728  0.128891  1
  Br  Br9  1  0.970309  0.275440  0.022638  1
  Br  Br10  1  0.871109  0.384677  0.251272  1
  Br  Br11  1  0.384677  0.251272  0.871109  1
  Br  Br12  1  0.977362  0.029691  0.724560  1
  Br  Br13  1  0.275440  0.022638  0.970309  1
  Br  Br14  1  0.775673  0.531190  0.490567  1
  Br  Br15  1  0.509433  0.224327  0.468810  1
  Br  Br16  1  0.468810  0.509433  0.224327  1
  Br  Br17  1  0.490567  0.775673  0.531190  1
  Br  Br18  1  0.531190  0.490567  0.775673  1
  Br  Br19  1  0.224327  0.468810  0.509433  1
