# generated using pymatgen
data_Tb3Sc(P3Ir4)2
_symmetry_space_group_name_H-M   'P 1'
_cell_length_a   3.99412800
_cell_length_b   11.27455100
_cell_length_c   12.90807300
_cell_angle_alpha   90.00000000
_cell_angle_beta   90.00000000
_cell_angle_gamma   90.00000000
_symmetry_Int_Tables_number   1
_chemical_formula_structural   Tb3Sc(P3Ir4)2
_chemical_formula_sum   'Tb6 Sc2 P12 Ir16'
_cell_volume   581.27634123
_cell_formula_units_Z   2
loop_
 _symmetry_equiv_pos_site_id
 _symmetry_equiv_pos_as_xyz
  1  'x, y, z'
loop_
 _atom_site_type_symbol
 _atom_site_label
 _atom_site_symmetry_multiplicity
 _atom_site_fract_x
 _atom_site_fract_y
 _atom_site_fract_z
 _atom_site_occupancy
  Tb  Tb0  1  0.000000  0.500000  0.520533  1
  Tb  Tb1  1  0.500000  0.000000  0.479467  1
  Tb  Tb2  1  0.500000  0.819732  0.203117  1
  Tb  Tb3  1  0.500000  0.180268  0.203117  1
  Tb  Tb4  1  0.000000  0.680268  0.796883  1
  Tb  Tb5  1  0.000000  0.319732  0.796883  1
  Sc  Sc6  1  0.500000  0.500000  0.157539  1
  Sc  Sc7  1  0.000000  0.000000  0.842461  1
  P  P8  1  0.500000  0.500000  0.879601  1
  P  P9  1  0.000000  0.000000  0.120399  1
  P  P10  1  0.500000  0.500000  0.357615  1
  P  P11  1  0.000000  0.000000  0.642385  1
  P  P12  1  0.500000  0.312631  0.617235  1
  P  P13  1  0.500000  0.687369  0.617235  1
  P  P14  1  0.000000  0.187369  0.382765  1
  P  P15  1  0.000000  0.812631  0.382765  1
  P  P16  1  0.500000  0.843428  0.888892  1
  P  P17  1  0.500000  0.156572  0.888892  1
  P  P18  1  0.000000  0.656572  0.111108  1
  P  P19  1  0.000000  0.343428  0.111108  1
  Ir  Ir20  1  0.500000  0.500000  0.700714  1
  Ir  Ir21  1  0.000000  0.000000  0.299286  1
  Ir  Ir22  1  0.000000  0.500000  0.987130  1
  Ir  Ir23  1  0.500000  0.000000  0.012870  1
  Ir  Ir24  1  0.500000  0.330660  0.985837  1
  Ir  Ir25  1  0.500000  0.669340  0.985837  1
  Ir  Ir26  1  0.000000  0.169340  0.014163  1
  Ir  Ir27  1  0.000000  0.830660  0.014163  1
  Ir  Ir28  1  0.500000  0.290081  0.430860  1
  Ir  Ir29  1  0.500000  0.709919  0.430860  1
  Ir  Ir30  1  0.000000  0.209919  0.569140  1
  Ir  Ir31  1  0.000000  0.790081  0.569140  1
  Ir  Ir32  1  0.500000  0.872912  0.709165  1
  Ir  Ir33  1  0.500000  0.127088  0.709165  1
  Ir  Ir34  1  0.000000  0.627088  0.290835  1
  Ir  Ir35  1  0.000000  0.372912  0.290835  1
