# generated using pymatgen
data_GaTeBr7
_symmetry_space_group_name_H-M   'P 1'
_cell_length_a   7.30385000
_cell_length_b   9.44344868
_cell_length_c   21.87364647
_cell_angle_alpha   93.65357728
_cell_angle_beta   94.83092227
_cell_angle_gamma   96.70462990
_symmetry_Int_Tables_number   1
_chemical_formula_structural   GaTeBr7
_chemical_formula_sum   'Ga4 Te4 Br28'
_cell_volume   1488.93217493
_cell_formula_units_Z   4
loop_
 _symmetry_equiv_pos_site_id
 _symmetry_equiv_pos_as_xyz
  1  'x, y, z'
loop_
 _atom_site_type_symbol
 _atom_site_label
 _atom_site_symmetry_multiplicity
 _atom_site_fract_x
 _atom_site_fract_y
 _atom_site_fract_z
 _atom_site_occupancy
  Ga  Ga0  1  0.306102  0.105113  0.399566  1
  Ga  Ga1  1  0.722067  0.340194  0.880313  1
  Ga  Ga2  1  0.693898  0.894887  0.600434  1
  Ga  Ga3  1  0.277933  0.659806  0.119687  1
  Te  Te4  1  0.720245  0.296935  0.106736  1
  Te  Te5  1  0.244304  0.251591  0.616871  1
  Te  Te6  1  0.279755  0.703065  0.893264  1
  Te  Te7  1  0.755696  0.748409  0.383129  1
  Br  Br8  1  0.559897  0.380548  0.653369  1
  Br  Br9  1  0.584538  0.827989  0.942400  1
  Br  Br10  1  0.310205  0.860230  0.188301  1
  Br  Br11  1  0.135927  0.218932  0.721812  1
  Br  Br12  1  0.881629  0.075353  0.115353  1
  Br  Br13  1  0.575993  0.600187  0.095186  1
  Br  Br14  1  0.364015  0.693271  0.784150  1
  Br  Br15  1  0.892236  0.292561  0.973713  1
  Br  Br16  1  0.859782  0.811075  0.682697  1
  Br  Br17  1  0.153493  0.899658  0.440675  1
  Br  Br18  1  0.424007  0.399813  0.904814  1
  Br  Br19  1  0.114822  0.462178  0.163632  1
  Br  Br20  1  0.904550  0.523338  0.399901  1
  Br  Br21  1  0.630980  0.708430  0.518912  1
  Br  Br22  1  0.846507  0.100342  0.559325  1
  Br  Br23  1  0.601072  0.052788  0.369539  1
  Br  Br24  1  0.118371  0.924647  0.884647  1
  Br  Br25  1  0.415462  0.172011  0.057600  1
  Br  Br26  1  0.689795  0.139770  0.811699  1
  Br  Br27  1  0.140218  0.188925  0.317303  1
  Br  Br28  1  0.095450  0.476662  0.600099  1
  Br  Br29  1  0.864073  0.781068  0.278188  1
  Br  Br30  1  0.107764  0.707439  0.026287  1
  Br  Br31  1  0.635985  0.306729  0.215850  1
  Br  Br32  1  0.885178  0.537822  0.836368  1
  Br  Br33  1  0.440103  0.619452  0.346631  1
  Br  Br34  1  0.398928  0.947212  0.630461  1
  Br  Br35  1  0.369020  0.291570  0.481088  1
