# generated using pymatgen
data_Nd5Dy2Y(Si3Rh)4
_symmetry_space_group_name_H-M   'P 1'
_cell_length_a   8.24859426
_cell_length_b   8.24859431
_cell_length_c   8.18897500
_cell_angle_alpha   90.00000000
_cell_angle_beta   90.00000000
_cell_angle_gamma   120.06344064
_symmetry_Int_Tables_number   1
_chemical_formula_structural   Nd5Dy2Y(Si3Rh)4
_chemical_formula_sum   'Nd5 Dy2 Y1 Si12 Rh4'
_cell_volume   482.21651084
_cell_formula_units_Z   1
loop_
 _symmetry_equiv_pos_site_id
 _symmetry_equiv_pos_as_xyz
  1  'x, y, z'
loop_
 _atom_site_type_symbol
 _atom_site_label
 _atom_site_symmetry_multiplicity
 _atom_site_fract_x
 _atom_site_fract_y
 _atom_site_fract_z
 _atom_site_occupancy
  Nd  Nd0  1  0.000051  0.999949  0.250000  1
  Nd  Nd1  1  0.999998  0.000002  0.750000  1
  Nd  Nd2  1  0.504413  0.495587  0.250000  1
  Nd  Nd3  1  0.504393  0.008875  0.250000  1
  Nd  Nd4  1  0.991125  0.495607  0.250000  1
  Dy  Dy5  1  0.492848  0.985721  0.750000  1
  Dy  Dy6  1  0.014279  0.507152  0.750000  1
  Y  Y7  1  0.492735  0.507265  0.750000  1
  Si  Si8  1  0.166704  0.833296  0.506073  1
  Si  Si9  1  0.166630  0.333418  0.505929  1
  Si  Si10  1  0.666582  0.833370  0.505929  1
  Si  Si11  1  0.831776  0.168224  0.503410  1
  Si  Si12  1  0.831869  0.663571  0.503214  1
  Si  Si13  1  0.336429  0.168131  0.503214  1
  Si  Si14  1  0.831776  0.168224  0.996590  1
  Si  Si15  1  0.831869  0.663571  0.996786  1
  Si  Si16  1  0.336429  0.168131  0.996786  1
  Si  Si17  1  0.166704  0.833296  0.993927  1
  Si  Si18  1  0.166630  0.333418  0.994071  1
  Si  Si19  1  0.666582  0.833370  0.994071  1
  Rh  Rh20  1  0.333119  0.666881  0.490844  1
  Rh  Rh21  1  0.666970  0.333030  0.542380  1
  Rh  Rh22  1  0.666970  0.333030  0.957620  1
  Rh  Rh23  1  0.333119  0.666881  0.009156  1
