# generated using pymatgen
data_Dy3Y4Ho13Pt16
_symmetry_space_group_name_H-M   'P 1'
_cell_length_a   7.46929101
_cell_length_b   7.55148610
_cell_length_c   14.75210901
_cell_angle_alpha   90.00109995
_cell_angle_beta   89.99847239
_cell_angle_gamma   89.99326444
_symmetry_Int_Tables_number   1
_chemical_formula_structural   Dy3Y4Ho13Pt16
_chemical_formula_sum   'Dy3 Y4 Ho13 Pt16'
_cell_volume   832.08159718
_cell_formula_units_Z   1
loop_
 _symmetry_equiv_pos_site_id
 _symmetry_equiv_pos_as_xyz
  1  'x, y, z'
loop_
 _atom_site_type_symbol
 _atom_site_label
 _atom_site_symmetry_multiplicity
 _atom_site_fract_x
 _atom_site_fract_y
 _atom_site_fract_z
 _atom_site_occupancy
  Dy  Dy0  1  0.497773  0.680091  0.093114  1
  Dy  Dy1  1  0.502265  0.319874  0.593078  1
  Dy  Dy2  1  0.002221  0.180104  0.906922  1
  Y  Y3  1  0.001708  0.179608  0.592866  1
  Y  Y4  1  0.501795  0.320202  0.907041  1
  Y  Y5  1  0.498200  0.679891  0.407061  1
  Y  Y6  1  0.998249  0.820156  0.092953  1
  Ho  Ho7  1  0.681193  0.988327  0.250100  1
  Ho  Ho8  1  0.181085  0.511725  0.250046  1
  Ho  Ho9  1  0.818876  0.488328  0.749964  1
  Ho  Ho10  1  0.318887  0.011636  0.750033  1
  Ho  Ho11  1  0.656304  0.832488  0.622201  1
  Ho  Ho12  1  0.156278  0.667547  0.877780  1
  Ho  Ho13  1  0.843753  0.332431  0.377770  1
  Ho  Ho14  1  0.343690  0.167549  0.122260  1
  Ho  Ho15  1  0.343499  0.167451  0.377827  1
  Ho  Ho16  1  0.843686  0.332397  0.122252  1
  Ho  Ho17  1  0.156169  0.667698  0.622133  1
  Ho  Ho18  1  0.656328  0.832391  0.877812  1
  Ho  Ho19  1  0.997505  0.819682  0.406834  1
  Pt  Pt20  1  0.816782  0.642595  0.250680  1
  Pt  Pt21  1  0.316306  0.857674  0.249852  1
  Pt  Pt22  1  0.683519  0.142330  0.749600  1
  Pt  Pt23  1  0.183533  0.357683  0.750246  1
  Pt  Pt24  1  0.546864  0.386221  0.249882  1
  Pt  Pt25  1  0.046680  0.113661  0.250356  1
  Pt  Pt26  1  0.953229  0.886110  0.750139  1
  Pt  Pt27  1  0.453223  0.613883  0.749764  1
  Pt  Pt28  1  0.816755  0.533184  0.541792  1
  Pt  Pt29  1  0.316679  0.967067  0.958084  1
  Pt  Pt30  1  0.684005  0.032460  0.457946  1
  Pt  Pt31  1  0.183270  0.467104  0.041953  1
  Pt  Pt32  1  0.182376  0.467887  0.457815  1
  Pt  Pt33  1  0.682616  0.032730  0.042000  1
  Pt  Pt34  1  0.317344  0.967158  0.541807  1
  Pt  Pt35  1  0.817356  0.532678  0.958034  1
