# generated using pymatgen
data_Ta4Si2Os3Ru7
_symmetry_space_group_name_H-M   'P 1'
_cell_length_a   4.15355400
_cell_length_b   5.41968800
_cell_length_c   10.49364000
_cell_angle_alpha   89.99654085
_cell_angle_beta   89.99974479
_cell_angle_gamma   89.99875551
_symmetry_Int_Tables_number   1
_chemical_formula_structural   Ta4Si2Os3Ru7
_chemical_formula_sum   'Ta4 Si2 Os3 Ru7'
_cell_volume   236.22198110
_cell_formula_units_Z   1
loop_
 _symmetry_equiv_pos_site_id
 _symmetry_equiv_pos_as_xyz
  1  'x, y, z'
loop_
 _atom_site_type_symbol
 _atom_site_label
 _atom_site_symmetry_multiplicity
 _atom_site_fract_x
 _atom_site_fract_y
 _atom_site_fract_z
 _atom_site_occupancy
  Ta  Ta0  1  0.500002  0.839409  0.360986  1
  Ta  Ta1  1  0.500000  0.160804  0.639086  1
  Ta  Ta2  1  0.500002  0.339224  0.138949  1
  Ta  Ta3  1  0.499996  0.660974  0.860278  1
  Si  Si4  1  0.999999  0.500652  0.500511  1
  Si  Si5  1  0.000000  0.000565  0.999893  1
  Os  Os6  1  0.000000  0.597549  0.259349  1
  Os  Os7  1  0.000000  0.400287  0.740481  1
  Os  Os8  1  0.000000  0.097899  0.240840  1
  Ru  Ru9  1  0.999995  0.501003  0.999085  1
  Ru  Ru10  1  0.000002  0.000783  0.500482  1
  Ru  Ru11  1  0.999997  0.900538  0.760599  1
  Ru  Ru12  1  0.500008  0.825764  0.106349  1
  Ru  Ru13  1  0.500000  0.174938  0.893242  1
  Ru  Ru14  1  0.500000  0.325749  0.393524  1
  Ru  Ru15  1  0.499999  0.673860  0.606346  1
