# generated using pymatgen
data_Pu3PaB16Mo3W
_symmetry_space_group_name_H-M   'P 1'
_cell_length_a   3.65071100
_cell_length_b   6.02292012
_cell_length_c   11.66089403
_cell_angle_alpha   89.91419533
_cell_angle_beta   90.00000000
_cell_angle_gamma   90.00000000
_symmetry_Int_Tables_number   1
_chemical_formula_structural   Pu3PaB16Mo3W
_chemical_formula_sum   'Pu3 Pa1 B16 Mo3 W1'
_cell_volume   256.39875950
_cell_formula_units_Z   1
loop_
 _symmetry_equiv_pos_site_id
 _symmetry_equiv_pos_as_xyz
  1  'x, y, z'
loop_
 _atom_site_type_symbol
 _atom_site_label
 _atom_site_symmetry_multiplicity
 _atom_site_fract_x
 _atom_site_fract_y
 _atom_site_fract_z
 _atom_site_occupancy
  Pu  Pu0  1  0.000000  0.374355  0.650793  1
  Pu  Pu1  1  0.000000  0.124937  0.150322  1
  Pu  Pu2  1  0.000000  0.874639  0.849289  1
  Pa  Pa3  1  0.000000  0.625017  0.349516  1
  B  B4  1  0.500000  0.787133  0.187269  1
  B  B5  1  0.500000  0.212852  0.813505  1
  B  B6  1  0.500000  0.288970  0.313390  1
  B  B7  1  0.500000  0.713699  0.687339  1
  B  B8  1  0.500000  0.866628  0.031900  1
  B  B9  1  0.500000  0.133816  0.967709  1
  B  B10  1  0.500000  0.366872  0.467484  1
  B  B11  1  0.500000  0.633860  0.531731  1
  B  B12  1  0.500000  0.886048  0.453323  1
  B  B13  1  0.500000  0.115920  0.547562  1
  B  B14  1  0.500000  0.383923  0.046585  1
  B  B15  1  0.500000  0.615528  0.952494  1
  B  B16  1  0.500000  0.971147  0.307461  1
  B  B17  1  0.500000  0.025910  0.693097  1
  B  B18  1  0.500000  0.474158  0.193109  1
  B  B19  1  0.500000  0.525587  0.807017  1
  Mo  Mo20  1  0.000000  0.368311  0.913209  1
  Mo  Mo21  1  0.000000  0.131924  0.412985  1
  Mo  Mo22  1  0.000000  0.867139  0.586575  1
  W  W23  1  0.000000  0.631627  0.086335  1
