# generated using pymatgen
data_Er4Al18(NiRh)3
_symmetry_space_group_name_H-M   'P 1'
_cell_length_a   7.50178534
_cell_length_b   7.50177953
_cell_length_c   9.30886702
_cell_angle_alpha   89.89795756
_cell_angle_beta   89.89799673
_cell_angle_gamma   119.82774679
_symmetry_Int_Tables_number   1
_chemical_formula_structural   Er4Al18(NiRh)3
_chemical_formula_sum   'Er4 Al18 Ni3 Rh3'
_cell_volume   454.46961724
_cell_formula_units_Z   1
loop_
 _symmetry_equiv_pos_site_id
 _symmetry_equiv_pos_as_xyz
  1  'x, y, z'
loop_
 _atom_site_type_symbol
 _atom_site_label
 _atom_site_symmetry_multiplicity
 _atom_site_fract_x
 _atom_site_fract_y
 _atom_site_fract_z
 _atom_site_occupancy
  Er  Er0  1  0.994783  0.668961  0.249913  1
  Er  Er1  1  0.007071  0.332760  0.750220  1
  Er  Er2  1  0.667239  0.992929  0.249780  1
  Er  Er3  1  0.331039  0.005216  0.750087  1
  Al  Al4  1  0.120323  0.120115  0.249625  1
  Al  Al5  1  0.879885  0.879677  0.750375  1
  Al  Al6  1  0.994414  0.331467  0.074260  1
  Al  Al7  1  0.998581  0.666911  0.925894  1
  Al  Al8  1  0.000230  0.667652  0.574533  1
  Al  Al9  1  0.332348  0.999770  0.425467  1
  Al  Al10  1  0.998718  0.331168  0.425363  1
  Al  Al11  1  0.668832  0.001282  0.574637  1
  Al  Al12  1  0.668533  0.005586  0.925740  1
  Al  Al13  1  0.333089  0.001419  0.074106  1
  Al  Al14  1  0.330034  0.329464  0.550877  1
  Al  Al15  1  0.670536  0.669966  0.449123  1
  Al  Al16  1  0.669858  0.669020  0.050858  1
  Al  Al17  1  0.330980  0.330142  0.949142  1
  Al  Al18  1  0.338878  0.545967  0.249752  1
  Al  Al19  1  0.661782  0.449659  0.752794  1
  Al  Al20  1  0.550341  0.338218  0.247206  1
  Al  Al21  1  0.454033  0.661122  0.750248  1
  Ni  Ni22  1  0.671305  0.328694  0.000000  1
  Ni  Ni23  1  0.999469  0.000531  0.000000  1
  Ni  Ni24  1  0.000249  0.999753  0.500000  1
  Rh  Rh25  1  0.327233  0.672767  0.000000  1
  Rh  Rh26  1  0.328102  0.671899  0.500000  1
  Rh  Rh27  1  0.672116  0.327885  0.500000  1
