# generated using pymatgen
data_LaTm3(Si5Pt3)2
_symmetry_space_group_name_H-M   'P 1'
_cell_length_a   8.17274823
_cell_length_b   8.18319145
_cell_length_c   8.18319154
_cell_angle_alpha   136.37665144
_cell_angle_beta   104.58195032
_cell_angle_gamma   91.41521427
_symmetry_Int_Tables_number   1
_chemical_formula_structural   LaTm3(Si5Pt3)2
_chemical_formula_sum   'La1 Tm3 Si10 Pt6'
_cell_volume   347.42233394
_cell_formula_units_Z   1
loop_
 _symmetry_equiv_pos_site_id
 _symmetry_equiv_pos_as_xyz
  1  'x, y, z'
loop_
 _atom_site_type_symbol
 _atom_site_label
 _atom_site_symmetry_multiplicity
 _atom_site_fract_x
 _atom_site_fract_y
 _atom_site_fract_z
 _atom_site_occupancy
  La  La0  1  0.897889  0.129479  0.768409  1
  Tm  Tm1  1  0.642802  0.370110  0.272692  1
  Tm  Tm2  1  0.357944  0.629825  0.728119  1
  Tm  Tm3  1  0.098814  0.870462  0.228353  1
  Si  Si4  1  0.273399  0.521506  0.250379  1
  Si  Si5  1  0.728504  0.478963  0.749860  1
  Si  Si6  1  0.728504  0.978644  0.249541  1
  Si  Si7  1  0.273399  0.023020  0.751893  1
  Si  Si8  1  0.461208  0.111476  0.349731  1
  Si  Si9  1  0.533985  0.884088  0.649897  1
  Si  Si10  1  0.762914  0.611421  0.151493  1
  Si  Si11  1  0.239313  0.390890  0.848425  1
  Si  Si12  1  0.000141  0.248042  0.248883  1
  Si  Si13  1  0.000141  0.751258  0.752100  1
  Pt  Pt14  1  0.253187  0.138006  0.115180  1
  Pt  Pt15  1  0.746011  0.859577  0.886435  1
  Pt  Pt16  1  0.026751  0.637975  0.388776  1
  Pt  Pt17  1  0.978073  0.366146  0.611927  1
  Pt  Pt18  1  0.498510  0.249929  0.749329  1
  Pt  Pt19  1  0.498510  0.749182  0.248581  1
