# generated using pymatgen
data_K3Rb(AlBr4)4
_symmetry_space_group_name_H-M   'P 1'
_cell_length_a   7.54597273
_cell_length_b   8.10425638
_cell_length_c   15.30850600
_cell_angle_alpha   85.62151776
_cell_angle_beta   89.74330614
_cell_angle_gamma   90.03766093
_symmetry_Int_Tables_number   1
_chemical_formula_structural   K3Rb(AlBr4)4
_chemical_formula_sum   'K3 Rb1 Al4 Br16'
_cell_volume   933.44189860
_cell_formula_units_Z   1
loop_
 _symmetry_equiv_pos_site_id
 _symmetry_equiv_pos_as_xyz
  1  'x, y, z'
loop_
 _atom_site_type_symbol
 _atom_site_label
 _atom_site_symmetry_multiplicity
 _atom_site_fract_x
 _atom_site_fract_y
 _atom_site_fract_z
 _atom_site_occupancy
  K  K0  1  0.503854  0.255898  0.639519  1
  K  K1  1  0.003831  0.744214  0.860028  1
  K  K2  1  0.496325  0.743878  0.360867  1
  Rb  Rb3  1  0.993964  0.256628  0.140639  1
  Al  Al4  1  0.358972  0.246674  0.361701  1
  Al  Al5  1  0.854456  0.752558  0.138996  1
  Al  Al6  1  0.643014  0.753423  0.639138  1
  Al  Al7  1  0.143746  0.247261  0.860042  1
  Br  Br8  1  0.870009  0.144875  0.908561  1
  Br  Br9  1  0.369107  0.855617  0.591772  1
  Br  Br10  1  0.130170  0.849791  0.091019  1
  Br  Br11  1  0.632625  0.143975  0.409054  1
  Br  Br12  1  0.396339  0.407110  0.230132  1
  Br  Br13  1  0.889192  0.598141  0.272648  1
  Br  Br14  1  0.609529  0.594016  0.771330  1
  Br  Br15  1  0.109457  0.405323  0.727473  1
  Br  Br16  1  0.654033  0.964162  0.160111  1
  Br  Br17  1  0.163616  0.030613  0.341624  1
  Br  Br18  1  0.339213  0.030756  0.839868  1
  Br  Br19  1  0.838949  0.968909  0.659598  1
  Br  Br20  1  0.245006  0.415078  0.465023  1
  Br  Br21  1  0.741327  0.587848  0.034387  1
  Br  Br22  1  0.754716  0.584856  0.535327  1
  Br  Br23  1  0.258550  0.418393  0.961146  1
