# generated using pymatgen
data_Dy7Lu(ZrGa5)4
_symmetry_space_group_name_H-M   'P 1'
_cell_length_a   5.92392301
_cell_length_b   9.42664803
_cell_length_c   11.44990380
_cell_angle_alpha   90.04858501
_cell_angle_beta   89.93643430
_cell_angle_gamma   89.97805001
_symmetry_Int_Tables_number   1
_chemical_formula_structural   Dy7Lu(ZrGa5)4
_chemical_formula_sum   'Dy7 Lu1 Zr4 Ga20'
_cell_volume   639.39329802
_cell_formula_units_Z   1
loop_
 _symmetry_equiv_pos_site_id
 _symmetry_equiv_pos_as_xyz
  1  'x, y, z'
loop_
 _atom_site_type_symbol
 _atom_site_label
 _atom_site_symmetry_multiplicity
 _atom_site_fract_x
 _atom_site_fract_y
 _atom_site_fract_z
 _atom_site_occupancy
  Dy  Dy0  1  0.884332  0.500700  0.352456  1
  Dy  Dy1  1  0.615190  0.998614  0.852173  1
  Dy  Dy2  1  0.115121  0.000769  0.648102  1
  Dy  Dy3  1  0.385034  0.499142  0.146721  1
  Dy  Dy4  1  0.114836  0.499201  0.648156  1
  Dy  Dy5  1  0.385092  0.000948  0.147301  1
  Dy  Dy6  1  0.884587  0.999622  0.352366  1
  Lu  Lu7  1  0.614514  0.501198  0.852521  1
  Zr  Zr8  1  0.858474  0.749652  0.074013  1
  Zr  Zr9  1  0.641285  0.750066  0.574710  1
  Zr  Zr10  1  0.142882  0.249873  0.925307  1
  Zr  Zr11  1  0.358783  0.250203  0.425741  1
  Ga  Ga12  1  0.875926  0.053946  0.088845  1
  Ga  Ga13  1  0.624031  0.446823  0.590231  1
  Ga  Ga14  1  0.125040  0.552992  0.910477  1
  Ga  Ga15  1  0.375654  0.946447  0.411069  1
  Ga  Ga16  1  0.124111  0.945651  0.911069  1
  Ga  Ga17  1  0.375634  0.553615  0.410997  1
  Ga  Ga18  1  0.876049  0.446418  0.088433  1
  Ga  Ga19  1  0.624059  0.053833  0.588983  1
  Ga  Ga20  1  0.152136  0.749959  0.258312  1
  Ga  Ga21  1  0.347975  0.748704  0.758907  1
  Ga  Ga22  1  0.846078  0.251364  0.742776  1
  Ga  Ga23  1  0.652350  0.250137  0.241103  1
  Ga  Ga24  1  0.397412  0.749632  0.997360  1
  Ga  Ga25  1  0.103331  0.750103  0.497807  1
  Ga  Ga26  1  0.604908  0.251454  0.000341  1
  Ga  Ga27  1  0.896476  0.250313  0.502733  1
  Ga  Ga28  1  0.609445  0.749989  0.294522  1
  Ga  Ga29  1  0.888833  0.748244  0.795149  1
  Ga  Ga30  1  0.390850  0.250284  0.705710  1
  Ga  Ga31  1  0.109571  0.250104  0.205609  1
