# generated using pymatgen
data_CsRb3(Lu3Se5)4
_symmetry_space_group_name_H-M   'P 1'
_cell_length_a   4.06275900
_cell_length_b   12.15323654
_cell_length_c   21.74243206
_cell_angle_alpha   90.19087848
_cell_angle_beta   90.00000000
_cell_angle_gamma   90.00000000
_symmetry_Int_Tables_number   1
_chemical_formula_structural   CsRb3(Lu3Se5)4
_chemical_formula_sum   'Cs1 Rb3 Lu12 Se20'
_cell_volume   1073.54121735
_cell_formula_units_Z   1
loop_
 _symmetry_equiv_pos_site_id
 _symmetry_equiv_pos_as_xyz
  1  'x, y, z'
loop_
 _atom_site_type_symbol
 _atom_site_label
 _atom_site_symmetry_multiplicity
 _atom_site_fract_x
 _atom_site_fract_y
 _atom_site_fract_z
 _atom_site_occupancy
  Cs  Cs0  1  0.250000  0.644620  0.590650  1
  Rb  Rb1  1  0.250000  0.850297  0.094161  1
  Rb  Rb2  1  0.750000  0.149549  0.905923  1
  Rb  Rb3  1  0.750000  0.350075  0.405624  1
  Lu  Lu4  1  0.750000  0.799898  0.826957  1
  Lu  Lu5  1  0.250000  0.200626  0.173485  1
  Lu  Lu6  1  0.250000  0.297721  0.674434  1
  Lu  Lu7  1  0.750000  0.700769  0.325828  1
  Lu  Lu8  1  0.250000  0.957394  0.698881  1
  Lu  Lu9  1  0.750000  0.043495  0.301457  1
  Lu  Lu10  1  0.750000  0.455907  0.802362  1
  Lu  Lu11  1  0.250000  0.543388  0.198185  1
  Lu  Lu12  1  0.750000  0.390716  0.053741  1
  Lu  Lu13  1  0.250000  0.609318  0.946419  1
  Lu  Lu14  1  0.250000  0.892293  0.445768  1
  Lu  Lu15  1  0.750000  0.109848  0.553663  1
  Se  Se16  1  0.250000  0.948339  0.569292  1
  Se  Se17  1  0.750000  0.053805  0.430498  1
  Se  Se18  1  0.750000  0.447237  0.930964  1
  Se  Se19  1  0.250000  0.552869  0.069409  1
  Se  Se20  1  0.750000  0.767482  0.954653  1
  Se  Se21  1  0.250000  0.232629  0.045756  1
  Se  Se22  1  0.250000  0.268035  0.546062  1
  Se  Se23  1  0.750000  0.734555  0.452874  1
  Se  Se24  1  0.250000  0.954459  0.827537  1
  Se  Se25  1  0.750000  0.046162  0.172953  1
  Se  Se26  1  0.750000  0.450942  0.674529  1
  Se  Se27  1  0.250000  0.546218  0.326754  1
  Se  Se28  1  0.750000  0.126791  0.684805  1
  Se  Se29  1  0.250000  0.873408  0.314918  1
  Se  Se30  1  0.250000  0.627060  0.815479  1
  Se  Se31  1  0.750000  0.373020  0.184680  1
  Se  Se32  1  0.750000  0.696279  0.197564  1
  Se  Se33  1  0.250000  0.303058  0.802899  1
  Se  Se34  1  0.250000  0.196417  0.302136  1
  Se  Se35  1  0.750000  0.805322  0.698697  1
