# generated using pymatgen
data_LaPt4Pb
_symmetry_space_group_name_H-M   'P 1'
_cell_length_a   5.52442938
_cell_length_b   5.52442967
_cell_length_c   5.52443000
_cell_angle_alpha   59.99999800
_cell_angle_beta   59.99999626
_cell_angle_gamma   60.00000270
_symmetry_Int_Tables_number   1
_chemical_formula_structural   LaPt4Pb
_chemical_formula_sum   'La1 Pt4 Pb1'
_cell_volume   119.21951255
_cell_formula_units_Z   1
loop_
 _symmetry_equiv_pos_site_id
 _symmetry_equiv_pos_as_xyz
  1  'x, y, z'
loop_
 _atom_site_type_symbol
 _atom_site_label
 _atom_site_symmetry_multiplicity
 _atom_site_fract_x
 _atom_site_fract_y
 _atom_site_fract_z
 _atom_site_occupancy
  La  La0  1  0.000000  0.000000  0.000000  1
  Pt  Pt1  1  0.624729  0.624729  0.125815  1
  Pt  Pt2  1  0.624729  0.125815  0.624729  1
  Pt  Pt3  1  0.125815  0.624729  0.624729  1
  Pt  Pt4  1  0.624729  0.624729  0.624729  1
  Pb  Pb5  1  0.250000  0.250000  0.250000  1
