# generated using pymatgen
data_Tb3Dy3(Ho2Si3)2
_symmetry_space_group_name_H-M   'P 1'
_cell_length_a   8.45282417
_cell_length_b   8.44687633
_cell_length_c   6.35537000
_cell_angle_alpha   90.00000000
_cell_angle_beta   90.00000000
_cell_angle_gamma   120.00038563
_symmetry_Int_Tables_number   1
_chemical_formula_structural   Tb3Dy3(Ho2Si3)2
_chemical_formula_sum   'Tb3 Dy3 Ho4 Si6'
_cell_volume   392.97756266
_cell_formula_units_Z   1
loop_
 _symmetry_equiv_pos_site_id
 _symmetry_equiv_pos_as_xyz
  1  'x, y, z'
loop_
 _atom_site_type_symbol
 _atom_site_label
 _atom_site_symmetry_multiplicity
 _atom_site_fract_x
 _atom_site_fract_y
 _atom_site_fract_z
 _atom_site_occupancy
  Tb  Tb0  1  0.000106  0.756711  0.750000  1
  Tb  Tb1  1  0.000026  0.243349  0.250000  1
  Tb  Tb2  1  0.756451  0.756539  0.250000  1
  Dy  Dy3  1  0.756346  0.000025  0.750000  1
  Dy  Dy4  1  0.243540  0.243457  0.750000  1
  Dy  Dy5  1  0.243728  0.000113  0.250000  1
  Ho  Ho6  1  0.333413  0.666743  0.500036  1
  Ho  Ho7  1  0.666498  0.333168  0.999963  1
  Ho  Ho8  1  0.666498  0.333168  0.500037  1
  Ho  Ho9  1  0.333413  0.666743  0.999964  1
  Si  Si10  1  0.394878  0.000206  0.750000  1
  Si  Si11  1  0.394658  0.394484  0.250000  1
  Si  Si12  1  0.000204  0.605562  0.250000  1
  Si  Si13  1  0.000029  0.394347  0.750000  1
  Si  Si14  1  0.605174  0.605348  0.750000  1
  Si  Si15  1  0.605038  0.000037  0.250000  1
