# generated using pymatgen
data_Ce5Sn3As
_symmetry_space_group_name_H-M   'P 1'
_cell_length_a   9.51653200
_cell_length_b   9.51653296
_cell_length_c   6.54745300
_cell_angle_alpha   90.00000000
_cell_angle_beta   90.00000000
_cell_angle_gamma   120.00000361
_symmetry_Int_Tables_number   1
_chemical_formula_structural   Ce5Sn3As
_chemical_formula_sum   'Ce10 Sn6 As2'
_cell_volume   513.52367878
_cell_formula_units_Z   2
loop_
 _symmetry_equiv_pos_site_id
 _symmetry_equiv_pos_as_xyz
  1  'x, y, z'
loop_
 _atom_site_type_symbol
 _atom_site_label
 _atom_site_symmetry_multiplicity
 _atom_site_fract_x
 _atom_site_fract_y
 _atom_site_fract_z
 _atom_site_occupancy
  Ce  Ce0  1  0.666667  0.333333  0.000000  1
  Ce  Ce1  1  0.333333  0.666667  0.000000  1
  Ce  Ce2  1  0.333333  0.666667  0.500000  1
  Ce  Ce3  1  0.666667  0.333333  0.500000  1
  Ce  Ce4  1  0.742958  0.742958  0.750000  1
  Ce  Ce5  1  0.257042  0.000000  0.750000  1
  Ce  Ce6  1  0.000000  0.257042  0.750000  1
  Ce  Ce7  1  0.257042  0.257042  0.250000  1
  Ce  Ce8  1  0.742958  0.000000  0.250000  1
  Ce  Ce9  1  0.000000  0.742958  0.250000  1
  Sn  Sn10  1  0.388675  0.388675  0.750000  1
  Sn  Sn11  1  0.611325  0.000000  0.750000  1
  Sn  Sn12  1  0.000000  0.611325  0.750000  1
  Sn  Sn13  1  0.611325  0.611325  0.250000  1
  Sn  Sn14  1  0.388675  0.000000  0.250000  1
  Sn  Sn15  1  0.000000  0.388675  0.250000  1
  As  As16  1  0.000000  0.000000  0.000000  1
  As  As17  1  0.000000  0.000000  0.500000  1
