# generated using pymatgen
data_LaAl2SnAu3
_symmetry_space_group_name_H-M   'P 1'
_cell_length_a   4.49193300
_cell_length_b   7.52691700
_cell_length_c   8.79890000
_cell_angle_alpha   90.00000000
_cell_angle_beta   90.00000000
_cell_angle_gamma   90.00000000
_symmetry_Int_Tables_number   1
_chemical_formula_structural   LaAl2SnAu3
_chemical_formula_sum   'La2 Al4 Sn2 Au6'
_cell_volume   297.49438893
_cell_formula_units_Z   2
loop_
 _symmetry_equiv_pos_site_id
 _symmetry_equiv_pos_as_xyz
  1  'x, y, z'
loop_
 _atom_site_type_symbol
 _atom_site_label
 _atom_site_symmetry_multiplicity
 _atom_site_fract_x
 _atom_site_fract_y
 _atom_site_fract_z
 _atom_site_occupancy
  La  La0  1  0.500000  0.000000  0.742085  1
  La  La1  1  0.000000  0.500000  0.257915  1
  Al  Al2  1  0.000000  0.307276  0.899345  1
  Al  Al3  1  0.500000  0.192724  0.100655  1
  Al  Al4  1  0.000000  0.692724  0.899345  1
  Al  Al5  1  0.500000  0.807276  0.100655  1
  Sn  Sn6  1  0.000000  0.000000  0.372071  1
  Sn  Sn7  1  0.500000  0.500000  0.627929  1
  Au  Au8  1  0.000000  0.738113  0.613018  1
  Au  Au9  1  0.500000  0.761887  0.386982  1
  Au  Au10  1  0.500000  0.500000  0.955626  1
  Au  Au11  1  0.000000  0.000000  0.044374  1
  Au  Au12  1  0.500000  0.238113  0.386982  1
  Au  Au13  1  0.000000  0.261887  0.613018  1
