# generated using pymatgen
data_Tl3CrCl6
_symmetry_space_group_name_H-M   'P 1'
_cell_length_a   7.42281320
_cell_length_b   7.42281354
_cell_length_c   7.42281400
_cell_angle_alpha   63.02257226
_cell_angle_beta   63.02257095
_cell_angle_gamma   63.02257131
_symmetry_Int_Tables_number   1
_chemical_formula_structural   Tl3CrCl6
_chemical_formula_sum   'Tl3 Cr1 Cl6'
_cell_volume   308.59727966
_cell_formula_units_Z   1
loop_
 _symmetry_equiv_pos_site_id
 _symmetry_equiv_pos_as_xyz
  1  'x, y, z'
loop_
 _atom_site_type_symbol
 _atom_site_label
 _atom_site_symmetry_multiplicity
 _atom_site_fract_x
 _atom_site_fract_y
 _atom_site_fract_z
 _atom_site_occupancy
  Tl  Tl0  1  0.230786  0.230786  0.230786  1
  Tl  Tl1  1  0.500000  0.500000  0.500000  1
  Tl  Tl2  1  0.769214  0.769214  0.769214  1
  Cr  Cr3  1  0.000000  0.000000  0.000000  1
  Cl  Cl4  1  0.806460  0.300647  0.124269  1
  Cl  Cl5  1  0.699352  0.875731  0.193540  1
  Cl  Cl6  1  0.124269  0.806460  0.300647  1
  Cl  Cl7  1  0.875731  0.193540  0.699352  1
  Cl  Cl8  1  0.300647  0.124269  0.806460  1
  Cl  Cl9  1  0.193540  0.699353  0.875731  1
