# generated using pymatgen
data_Re5Tc(Se4F)2
_symmetry_space_group_name_H-M   'P 1'
_cell_length_a   6.70658400
_cell_length_b   6.72273330
_cell_length_c   8.90720526
_cell_angle_alpha   104.03292962
_cell_angle_beta   110.76420781
_cell_angle_gamma   86.17704137
_symmetry_Int_Tables_number   1
_chemical_formula_structural   Re5Tc(Se4F)2
_chemical_formula_sum   'Re5 Tc1 Se8 F2'
_cell_volume   364.22176342
_cell_formula_units_Z   1
loop_
 _symmetry_equiv_pos_site_id
 _symmetry_equiv_pos_as_xyz
  1  'x, y, z'
loop_
 _atom_site_type_symbol
 _atom_site_label
 _atom_site_symmetry_multiplicity
 _atom_site_fract_x
 _atom_site_fract_y
 _atom_site_fract_z
 _atom_site_occupancy
  Re  Re0  1  0.105861  0.246615  0.536598  1
  Re  Re1  1  0.158379  0.630300  0.720470  1
  Re  Re2  1  0.840896  0.369374  0.279653  1
  Re  Re3  1  0.227078  0.537844  0.433443  1
  Re  Re4  1  0.893182  0.753673  0.463498  1
  Tc  Tc5  1  0.771329  0.461816  0.566893  1
  Se  Se6  1  0.170432  0.170433  0.263698  1
  Se  Se7  1  0.830526  0.828890  0.735736  1
  Se  Se8  1  0.477609  0.409084  0.694683  1
  Se  Se9  1  0.286289  0.901725  0.613482  1
  Se  Se10  1  0.715437  0.098838  0.387260  1
  Se  Se11  1  0.522473  0.590913  0.306083  1
  Se  Se12  1  0.960220  0.658169  0.190988  1
  Se  Se13  1  0.039305  0.342141  0.807835  1
  F  F14  1  0.675802  0.234202  0.050459  1
  F  F15  1  0.325182  0.765984  0.949220  1
