# generated using pymatgen
data_NdCoSiPd
_symmetry_space_group_name_H-M   'P 1'
_cell_length_a   9.39243784
_cell_length_b   9.39243853
_cell_length_c   3.99537000
_cell_angle_alpha   90.00000000
_cell_angle_beta   90.00000000
_cell_angle_gamma   155.96935947
_symmetry_Int_Tables_number   1
_chemical_formula_structural   NdCoSiPd
_chemical_formula_sum   'Nd2 Co2 Si2 Pd2'
_cell_volume   143.53184401
_cell_formula_units_Z   2
loop_
 _symmetry_equiv_pos_site_id
 _symmetry_equiv_pos_as_xyz
  1  'x, y, z'
loop_
 _atom_site_type_symbol
 _atom_site_label
 _atom_site_symmetry_multiplicity
 _atom_site_fract_x
 _atom_site_fract_y
 _atom_site_fract_z
 _atom_site_occupancy
  Nd  Nd0  1  0.610559  0.389441  0.250000  1
  Nd  Nd1  1  0.389392  0.610608  0.750000  1
  Co  Co2  1  0.249620  0.750380  0.250000  1
  Co  Co3  1  0.750470  0.249530  0.750000  1
  Si  Si4  1  0.813846  0.186154  0.250000  1
  Si  Si5  1  0.186201  0.813799  0.750000  1
  Pd  Pd6  1  0.949872  0.050128  0.250000  1
  Pd  Pd7  1  0.050040  0.949960  0.750000  1
