# generated using pymatgen
data_Y5Ho15(Cd3Os)2
_symmetry_space_group_name_H-M   'P 1'
_cell_length_a   9.57889202
_cell_length_b   9.57889210
_cell_length_c   9.84265600
_cell_angle_alpha   90.00000000
_cell_angle_beta   90.00000000
_cell_angle_gamma   119.99346690
_symmetry_Int_Tables_number   1
_chemical_formula_structural   Y5Ho15(Cd3Os)2
_chemical_formula_sum   'Y5 Ho15 Cd6 Os2'
_cell_volume   782.17167368
_cell_formula_units_Z   1
loop_
 _symmetry_equiv_pos_site_id
 _symmetry_equiv_pos_as_xyz
  1  'x, y, z'
loop_
 _atom_site_type_symbol
 _atom_site_label
 _atom_site_symmetry_multiplicity
 _atom_site_fract_x
 _atom_site_fract_y
 _atom_site_fract_z
 _atom_site_occupancy
  Y  Y0  1  0.540091  0.080295  0.250000  1
  Y  Y1  1  0.919705  0.459909  0.250000  1
  Y  Y2  1  0.459961  0.540039  0.750000  1
  Y  Y3  1  0.459924  0.919893  0.750000  1
  Y  Y4  1  0.080107  0.540076  0.750000  1
  Ho  Ho5  1  0.000029  0.999971  0.500048  1
  Ho  Ho6  1  0.000029  0.999971  0.999952  1
  Ho  Ho7  1  0.209725  0.790275  0.440237  1
  Ho  Ho8  1  0.209898  0.419447  0.440156  1
  Ho  Ho9  1  0.580553  0.790102  0.440156  1
  Ho  Ho10  1  0.790259  0.209741  0.559818  1
  Ho  Ho11  1  0.790120  0.580459  0.559702  1
  Ho  Ho12  1  0.419541  0.209880  0.559702  1
  Ho  Ho13  1  0.790259  0.209741  0.940182  1
  Ho  Ho14  1  0.790120  0.580459  0.940298  1
  Ho  Ho15  1  0.419541  0.209880  0.940298  1
  Ho  Ho16  1  0.209725  0.790275  0.059763  1
  Ho  Ho17  1  0.209898  0.419447  0.059844  1
  Ho  Ho18  1  0.580553  0.790102  0.059844  1
  Ho  Ho19  1  0.539920  0.460080  0.250000  1
  Cd  Cd20  1  0.885580  0.114420  0.250000  1
  Cd  Cd21  1  0.885367  0.770969  0.250000  1
  Cd  Cd22  1  0.229031  0.114633  0.250000  1
  Cd  Cd23  1  0.114433  0.885567  0.750000  1
  Cd  Cd24  1  0.114419  0.228862  0.750000  1
  Cd  Cd25  1  0.771138  0.885581  0.750000  1
  Os  Os26  1  0.333413  0.666587  0.250000  1
  Os  Os27  1  0.666659  0.333341  0.750000  1
