# generated using pymatgen
data_YPaBRh6
_symmetry_space_group_name_H-M   'P 1'
_cell_length_a   5.83826852
_cell_length_b   5.83826817
_cell_length_c   5.83826800
_cell_angle_alpha   60.00000097
_cell_angle_beta   60.00000293
_cell_angle_gamma   59.99999999
_symmetry_Int_Tables_number   1
_chemical_formula_structural   YPaBRh6
_chemical_formula_sum   'Y1 Pa1 B1 Rh6'
_cell_volume   140.71394767
_cell_formula_units_Z   1
loop_
 _symmetry_equiv_pos_site_id
 _symmetry_equiv_pos_as_xyz
  1  'x, y, z'
loop_
 _atom_site_type_symbol
 _atom_site_label
 _atom_site_symmetry_multiplicity
 _atom_site_fract_x
 _atom_site_fract_y
 _atom_site_fract_z
 _atom_site_occupancy
  Y  Y0  1  0.750000  0.750000  0.750000  1
  Pa  Pa1  1  0.250000  0.250000  0.250000  1
  B  B2  1  0.000000  0.000000  0.000000  1
  Rh  Rh3  1  0.744096  0.255905  0.255905  1
  Rh  Rh4  1  0.255905  0.744096  0.255905  1
  Rh  Rh5  1  0.744095  0.744095  0.255906  1
  Rh  Rh6  1  0.255906  0.744095  0.744095  1
  Rh  Rh7  1  0.255905  0.255905  0.744096  1
  Rh  Rh8  1  0.744095  0.255906  0.744095  1
