# generated using pymatgen
data_La3Pr7C4I15
_symmetry_space_group_name_H-M   'P 1'
_cell_length_a   9.87208001
_cell_length_b   10.77599375
_cell_length_c   11.90079627
_cell_angle_alpha   93.73803187
_cell_angle_beta   114.37982456
_cell_angle_gamma   109.28986212
_symmetry_Int_Tables_number   1
_chemical_formula_structural   La3Pr7C4I15
_chemical_formula_sum   'La3 Pr7 C4 I15'
_cell_volume   1058.05825811
_cell_formula_units_Z   1
loop_
 _symmetry_equiv_pos_site_id
 _symmetry_equiv_pos_as_xyz
  1  'x, y, z'
loop_
 _atom_site_type_symbol
 _atom_site_label
 _atom_site_symmetry_multiplicity
 _atom_site_fract_x
 _atom_site_fract_y
 _atom_site_fract_z
 _atom_site_occupancy
  La  La0  1  0.706459  0.568858  0.045376  1
  La  La1  1  0.293184  0.432136  0.955425  1
  La  La2  1  0.658168  0.252862  0.834290  1
  Pr  Pr3  1  0.597213  0.542351  0.342039  1
  Pr  Pr4  1  0.345247  0.747120  0.165543  1
  Pr  Pr5  1  0.777095  0.884452  0.258445  1
  Pr  Pr6  1  0.527348  0.185520  0.101809  1
  Pr  Pr7  1  0.223168  0.115537  0.742333  1
  Pr  Pr8  1  0.401757  0.458072  0.657739  1
  Pr  Pr9  1  0.471358  0.814478  0.898018  1
  C  C10  1  0.482784  0.300454  0.937202  1
  C  C11  1  0.517968  0.699441  0.062469  1
  C  C12  1  0.453636  0.361983  0.834507  1
  C  C13  1  0.546954  0.637741  0.164938  1
  I  I14  1  0.207522  0.906566  0.937644  1
  I  I15  1  0.105201  0.188412  0.468632  1
  I  I16  1  0.152262  0.556837  0.702566  1
  I  I17  1  0.403310  0.967470  0.646527  1
  I  I18  1  0.711337  0.734111  0.819865  1
  I  I19  1  0.288038  0.265934  0.180139  1
  I  I20  1  0.847005  0.443059  0.297369  1
  I  I21  1  0.894994  0.811575  0.531937  1
  I  I22  1  0.359108  0.630335  0.412076  1
  I  I23  1  0.054369  0.834685  0.221362  1
  I  I24  1  0.792165  0.092438  0.063853  1
  I  I25  1  0.640279  0.370594  0.586274  1
  I  I26  1  0.944865  0.164711  0.778307  1
  I  I27  1  0.594470  0.030232  0.352106  1
  I  I28  1  0.002737  0.502034  0.001210  1
