# generated using pymatgen
data_Hf6SnSbRh
_symmetry_space_group_name_H-M   'P 1'
_cell_length_a   7.92502200
_cell_length_b   7.92502131
_cell_length_c   3.53424600
_cell_angle_alpha   90.00000000
_cell_angle_beta   90.00000000
_cell_angle_gamma   120.00001124
_symmetry_Int_Tables_number   1
_chemical_formula_structural   Hf6SnSbRh
_chemical_formula_sum   'Hf6 Sn1 Sb1 Rh1'
_cell_volume   192.23314565
_cell_formula_units_Z   1
loop_
 _symmetry_equiv_pos_site_id
 _symmetry_equiv_pos_as_xyz
  1  'x, y, z'
loop_
 _atom_site_type_symbol
 _atom_site_label
 _atom_site_symmetry_multiplicity
 _atom_site_fract_x
 _atom_site_fract_y
 _atom_site_fract_z
 _atom_site_occupancy
  Hf  Hf0  1  0.251548  0.998998  0.500000  1
  Hf  Hf1  1  0.001002  0.252550  0.500000  1
  Hf  Hf2  1  0.747450  0.748452  0.500000  1
  Hf  Hf3  1  0.604861  0.004354  0.000000  1
  Hf  Hf4  1  0.995646  0.600507  0.000000  1
  Hf  Hf5  1  0.399493  0.395139  0.000000  1
  Sn  Sn6  1  0.333333  0.666667  0.500000  1
  Sb  Sb7  1  0.666667  0.333333  0.500000  1
  Rh  Rh8  1  0.000000  0.000000  0.000000  1
