# generated using pymatgen
data_Rb3NaMnCl6
_symmetry_space_group_name_H-M   'P 1'
_cell_length_a   8.73054167
_cell_length_b   8.73054261
_cell_length_c   8.73054137
_cell_angle_alpha   93.48045818
_cell_angle_beta   93.48045828
_cell_angle_gamma   93.48046774
_symmetry_Int_Tables_number   1
_chemical_formula_structural   Rb3NaMnCl6
_chemical_formula_sum   'Rb6 Na2 Mn2 Cl12'
_cell_volume   661.62373442
_cell_formula_units_Z   2
loop_
 _symmetry_equiv_pos_site_id
 _symmetry_equiv_pos_as_xyz
  1  'x, y, z'
loop_
 _atom_site_type_symbol
 _atom_site_label
 _atom_site_symmetry_multiplicity
 _atom_site_fract_x
 _atom_site_fract_y
 _atom_site_fract_z
 _atom_site_occupancy
  Rb  Rb0  1  0.374561  0.750000  0.125439  1
  Rb  Rb1  1  0.125439  0.374561  0.750000  1
  Rb  Rb2  1  0.750000  0.125439  0.374561  1
  Rb  Rb3  1  0.625439  0.250000  0.874561  1
  Rb  Rb4  1  0.874561  0.625439  0.250000  1
  Rb  Rb5  1  0.250000  0.874561  0.625439  1
  Na  Na6  1  0.250000  0.250000  0.250000  1
  Na  Na7  1  0.750000  0.750000  0.750000  1
  Mn  Mn8  1  0.500000  0.500000  0.500000  1
  Mn  Mn9  1  0.000000  0.000000  0.000000  1
  Cl  Cl10  1  0.417004  0.218159  0.539330  1
  Cl  Cl11  1  0.539330  0.417004  0.218159  1
  Cl  Cl12  1  0.218159  0.539330  0.417004  1
  Cl  Cl13  1  0.082996  0.960670  0.281841  1
  Cl  Cl14  1  0.281841  0.082996  0.960670  1
  Cl  Cl15  1  0.960670  0.281841  0.082996  1
  Cl  Cl16  1  0.039330  0.718159  0.917004  1
  Cl  Cl17  1  0.718159  0.917004  0.039330  1
  Cl  Cl18  1  0.917004  0.039330  0.718159  1
  Cl  Cl19  1  0.781841  0.460670  0.582996  1
  Cl  Cl20  1  0.460670  0.582996  0.781841  1
  Cl  Cl21  1  0.582996  0.781841  0.460670  1
