# generated using pymatgen
data_Pr7Nd(Sc3Pt4)4
_symmetry_space_group_name_H-M   'P 1'
_cell_length_a   7.62129306
_cell_length_b   7.55426718
_cell_length_c   13.74501138
_cell_angle_alpha   90.02362609
_cell_angle_beta   90.01326430
_cell_angle_gamma   89.99328557
_symmetry_Int_Tables_number   1
_chemical_formula_structural   Pr7Nd(Sc3Pt4)4
_chemical_formula_sum   'Pr7 Nd1 Sc12 Pt16'
_cell_volume   791.34535029
_cell_formula_units_Z   1
loop_
 _symmetry_equiv_pos_site_id
 _symmetry_equiv_pos_as_xyz
  1  'x, y, z'
loop_
 _atom_site_type_symbol
 _atom_site_label
 _atom_site_symmetry_multiplicity
 _atom_site_fract_x
 _atom_site_fract_y
 _atom_site_fract_z
 _atom_site_occupancy
  Pr  Pr0  1  0.511256  0.329067  0.402170  1
  Pr  Pr1  1  0.488819  0.670719  0.902163  1
  Pr  Pr2  1  0.488682  0.670801  0.597847  1
  Pr  Pr3  1  0.988720  0.829639  0.597623  1
  Pr  Pr4  1  0.988804  0.829158  0.902210  1
  Pr  Pr5  1  0.511192  0.329219  0.098016  1
  Pr  Pr6  1  0.011104  0.170764  0.097919  1
  Nd  Nd7  1  0.011531  0.171186  0.401622  1
  Sc  Sc8  1  0.330683  0.165186  0.624046  1
  Sc  Sc9  1  0.669514  0.835136  0.375966  1
  Sc  Sc10  1  0.661726  0.005709  0.749865  1
  Sc  Sc11  1  0.169132  0.665291  0.375842  1
  Sc  Sc12  1  0.830857  0.335022  0.875741  1
  Sc  Sc13  1  0.831155  0.334573  0.623893  1
  Sc  Sc14  1  0.838381  0.505629  0.250189  1
  Sc  Sc15  1  0.337971  0.994304  0.250143  1
  Sc  Sc16  1  0.330872  0.165048  0.875755  1
  Sc  Sc17  1  0.169079  0.665175  0.124451  1
  Sc  Sc18  1  0.669147  0.834936  0.124389  1
  Sc  Sc19  1  0.161649  0.494291  0.749831  1
  Pt  Pt20  1  0.295232  0.868264  0.749961  1
  Pt  Pt21  1  0.465129  0.639273  0.250091  1
  Pt  Pt22  1  0.034603  0.139426  0.750067  1
  Pt  Pt23  1  0.534619  0.360506  0.749942  1
  Pt  Pt24  1  0.163341  0.453738  0.546307  1
  Pt  Pt25  1  0.965847  0.861024  0.250374  1
  Pt  Pt26  1  0.705254  0.132045  0.250282  1
  Pt  Pt27  1  0.836562  0.545529  0.046751  1
  Pt  Pt28  1  0.336487  0.954352  0.046695  1
  Pt  Pt29  1  0.163502  0.454494  0.953365  1
  Pt  Pt30  1  0.663485  0.045544  0.546337  1
  Pt  Pt31  1  0.335547  0.955300  0.453336  1
  Pt  Pt32  1  0.836811  0.544536  0.453095  1
  Pt  Pt33  1  0.795226  0.631724  0.749912  1
  Pt  Pt34  1  0.204561  0.367798  0.250401  1
  Pt  Pt35  1  0.663519  0.045594  0.953405  1
