# generated using pymatgen
data_Na4La4Al11Ga5Se32
_symmetry_space_group_name_H-M   'P 1'
_cell_length_a   12.46411358
_cell_length_b   12.46359308
_cell_length_c   12.55594962
_cell_angle_alpha   105.19916043
_cell_angle_beta   105.20789440
_cell_angle_gamma   118.09394331
_symmetry_Int_Tables_number   1
_chemical_formula_structural   Na4La4Al11Ga5Se32
_chemical_formula_sum   'Na4 La4 Al11 Ga5 Se32'
_cell_volume   1480.24151382
_cell_formula_units_Z   1
loop_
 _symmetry_equiv_pos_site_id
 _symmetry_equiv_pos_as_xyz
  1  'x, y, z'
loop_
 _atom_site_type_symbol
 _atom_site_label
 _atom_site_symmetry_multiplicity
 _atom_site_fract_x
 _atom_site_fract_y
 _atom_site_fract_z
 _atom_site_occupancy
  Na  Na0  1  0.872112  0.622046  0.243825  1
  Na  Na1  1  0.127958  0.377963  0.756067  1
  Na  Na2  1  0.378045  0.128094  0.256049  1
  Na  Na3  1  0.621820  0.871893  0.743943  1
  La  La4  1  0.125607  0.875644  0.750743  1
  La  La5  1  0.874494  0.124787  0.249537  1
  La  La6  1  0.625162  0.375004  0.750015  1
  La  La7  1  0.374919  0.625105  0.250507  1
  Al  Al8  1  0.869781  0.389286  0.504399  1
  Al  Al9  1  0.135173  0.114773  0.504231  1
  Al  Al10  1  0.636161  0.027395  0.499301  1
  Al  Al11  1  0.611341  0.131056  0.995697  1
  Al  Al12  1  0.363586  0.973201  0.500684  1
  Al  Al13  1  0.884287  0.864617  0.995748  1
  Al  Al14  1  0.472872  0.363387  0.999263  1
  Al  Al15  1  0.527956  0.636683  0.000746  1
  Al  Al16  1  0.972601  0.363980  0.000751  1
  Al  Al17  1  0.130262  0.610777  0.495702  1
  Al  Al18  1  0.026470  0.635879  0.999189  1
  Ga  Ga19  1  0.115568  0.135767  0.004113  1
  Ga  Ga20  1  0.360232  0.470385  0.498970  1
  Ga  Ga21  1  0.388652  0.868394  0.004225  1
  Ga  Ga22  1  0.864483  0.885338  0.495902  1
  Ga  Ga23  1  0.639623  0.529400  0.501057  1
  Se  Se24  1  0.847093  0.183353  0.502065  1
  Se  Se25  1  0.919413  0.922113  0.328657  1
  Se  Se26  1  0.910148  0.413714  0.828816  1
  Se  Se27  1  0.912000  0.408459  0.329854  1
  Se  Se28  1  0.581606  0.584652  0.171282  1
  Se  Se29  1  0.659934  0.343223  0.504045  1
  Se  Se30  1  0.680928  0.844508  0.997903  1
  Se  Se31  1  0.089512  0.586314  0.171170  1
  Se  Se32  1  0.344532  0.158960  0.504533  1
  Se  Se33  1  0.409735  0.913449  0.828843  1
  Se  Se34  1  0.087982  0.591442  0.670115  1
  Se  Se35  1  0.848794  0.681202  0.496952  1
  Se  Se36  1  0.344057  0.656771  0.003580  1
  Se  Se37  1  0.654456  0.340057  0.995586  1
  Se  Se38  1  0.586081  0.582705  0.672940  1
  Se  Se39  1  0.592909  0.090113  0.170897  1
  Se  Se40  1  0.320811  0.155085  0.002261  1
  Se  Se41  1  0.653526  0.840607  0.496444  1
  Se  Se42  1  0.152828  0.816529  0.498013  1
  Se  Se43  1  0.151603  0.316973  0.502906  1
  Se  Se44  1  0.077738  0.080607  0.171101  1
  Se  Se45  1  0.084686  0.080845  0.671507  1
  Se  Se46  1  0.816890  0.153306  0.997889  1
  Se  Se47  1  0.159454  0.346780  0.003702  1
  Se  Se48  1  0.340197  0.656774  0.495984  1
  Se  Se49  1  0.414017  0.417310  0.327188  1
  Se  Se50  1  0.919105  0.915367  0.828730  1
  Se  Se51  1  0.585871  0.089503  0.671130  1
  Se  Se52  1  0.181472  0.847196  0.002227  1
  Se  Se53  1  0.418567  0.415113  0.828624  1
  Se  Se54  1  0.841103  0.655478  0.995445  1
  Se  Se55  1  0.413785  0.910641  0.328949  1
