# generated using pymatgen
data_Dy2Co3B8Os5
_symmetry_space_group_name_H-M   'P 1'
_cell_length_a   3.97165263
_cell_length_b   7.33940780
_cell_length_c   7.27028494
_cell_angle_alpha   89.04496254
_cell_angle_beta   89.98332043
_cell_angle_gamma   89.77781051
_symmetry_Int_Tables_number   1
_chemical_formula_structural   Dy2Co3B8Os5
_chemical_formula_sum   'Dy2 Co3 B8 Os5'
_cell_volume   211.89470111
_cell_formula_units_Z   1
loop_
 _symmetry_equiv_pos_site_id
 _symmetry_equiv_pos_as_xyz
  1  'x, y, z'
loop_
 _atom_site_type_symbol
 _atom_site_label
 _atom_site_symmetry_multiplicity
 _atom_site_fract_x
 _atom_site_fract_y
 _atom_site_fract_z
 _atom_site_occupancy
  Dy  Dy0  1  0.328575  0.248522  0.250819  1
  Dy  Dy1  1  0.855828  0.757134  0.749994  1
  Co  Co2  1  0.127655  0.363347  0.622636  1
  Co  Co3  1  0.123701  0.118930  0.863174  1
  Co  Co4  1  0.624282  0.126577  0.623631  1
  B  B5  1  0.348047  0.923945  0.020445  1
  B  B6  1  0.347806  0.572152  0.476579  1
  B  B7  1  0.851015  0.527440  0.082049  1
  B  B8  1  0.847773  0.979346  0.423966  1
  B  B9  1  0.628144  0.089307  0.935123  1
  B  B10  1  0.629617  0.404459  0.563592  1
  B  B11  1  0.126945  0.446584  0.913528  1
  B  B12  1  0.129368  0.065595  0.589466  1
  Os  Os13  1  0.623838  0.368879  0.868612  1
  Os  Os14  1  0.851588  0.593835  0.364517  1
  Os  Os15  1  0.852234  0.909305  0.142940  1
  Os  Os16  1  0.352009  0.858695  0.410703  1
  Os  Os17  1  0.351577  0.645948  0.098228  1
