# generated using pymatgen
data_Dy12In2SiOs3
_symmetry_space_group_name_H-M   'P 1'
_cell_length_a   8.51303533
_cell_length_b   8.51303628
_cell_length_c   8.51303604
_cell_angle_alpha   112.86621608
_cell_angle_beta   111.92944712
_cell_angle_gamma   103.76585195
_symmetry_Int_Tables_number   1
_chemical_formula_structural   Dy12In2SiOs3
_chemical_formula_sum   'Dy12 In2 Si1 Os3'
_cell_volume   471.41259559
_cell_formula_units_Z   1
loop_
 _symmetry_equiv_pos_site_id
 _symmetry_equiv_pos_as_xyz
  1  'x, y, z'
loop_
 _atom_site_type_symbol
 _atom_site_label
 _atom_site_symmetry_multiplicity
 _atom_site_fract_x
 _atom_site_fract_y
 _atom_site_fract_z
 _atom_site_occupancy
  Dy  Dy0  1  0.445333  0.241574  0.203760  1
  Dy  Dy1  1  0.551714  0.758239  0.793474  1
  Dy  Dy2  1  0.037813  0.241574  0.796240  1
  Dy  Dy3  1  0.964765  0.758239  0.206526  1
  Dy  Dy4  1  0.185303  0.284668  0.463169  1
  Dy  Dy5  1  0.821500  0.722135  0.536831  1
  Dy  Dy6  1  0.185303  0.722135  0.900635  1
  Dy  Dy7  1  0.821500  0.284668  0.099365  1
  Dy  Dy8  1  0.331017  0.644433  0.313416  1
  Dy  Dy9  1  0.662015  0.350813  0.688798  1
  Dy  Dy10  1  0.331017  0.017602  0.686584  1
  Dy  Dy11  1  0.662015  0.973216  0.311202  1
  In  In12  1  0.501092  0.501092  0.000000  1
  In  In13  1  0.997439  0.997439  0.000000  1
  Si  Si14  1  0.878091  0.378091  0.500000  1
  Os  Os15  1  0.334367  0.003562  0.330805  1
  Os  Os16  1  0.672757  0.003562  0.669195  1
  Os  Os17  1  0.116958  0.616958  0.500000  1
