# generated using pymatgen
data_K4IO6
_symmetry_space_group_name_H-M   'P 1'
_cell_length_a   7.19173300
_cell_length_b   7.19173311
_cell_length_c   7.19173300
_cell_angle_alpha   88.86300969
_cell_angle_beta   88.86300170
_cell_angle_gamma   88.86301639
_symmetry_Int_Tables_number   1
_chemical_formula_structural   K4IO6
_chemical_formula_sum   'K8 I2 O12'
_cell_volume   371.74695384
_cell_formula_units_Z   2
loop_
 _symmetry_equiv_pos_site_id
 _symmetry_equiv_pos_as_xyz
  1  'x, y, z'
loop_
 _atom_site_type_symbol
 _atom_site_label
 _atom_site_symmetry_multiplicity
 _atom_site_fract_x
 _atom_site_fract_y
 _atom_site_fract_z
 _atom_site_occupancy
  K  K0  1  0.250000  0.250000  0.250000  1
  K  K1  1  0.750000  0.750000  0.750000  1
  K  K2  1  0.750000  0.092336  0.407664  1
  K  K3  1  0.407664  0.750000  0.092336  1
  K  K4  1  0.092336  0.407664  0.750000  1
  K  K5  1  0.250000  0.907664  0.592336  1
  K  K6  1  0.592336  0.250000  0.907664  1
  K  K7  1  0.907664  0.592336  0.250000  1
  I  I8  1  0.000000  0.000000  0.000000  1
  I  I9  1  0.500000  0.500000  0.500000  1
  O  O10  1  0.567830  0.748890  0.440470  1
  O  O11  1  0.440470  0.567830  0.748890  1
  O  O12  1  0.748890  0.440470  0.567830  1
  O  O13  1  0.932170  0.059530  0.751110  1
  O  O14  1  0.751110  0.932170  0.059530  1
  O  O15  1  0.059530  0.751110  0.932170  1
  O  O16  1  0.432170  0.251110  0.559530  1
  O  O17  1  0.559530  0.432170  0.251110  1
  O  O18  1  0.251110  0.559530  0.432170  1
  O  O19  1  0.067830  0.940470  0.248890  1
  O  O20  1  0.940470  0.248890  0.067830  1
  O  O21  1  0.248890  0.067830  0.940470  1
