# generated using pymatgen
data_Hf2Mn4Nb2SiP3
_symmetry_space_group_name_H-M   'P 1'
_cell_length_a   3.56588200
_cell_length_b   6.35482803
_cell_length_c   7.42588704
_cell_angle_alpha   89.98869902
_cell_angle_beta   90.00000000
_cell_angle_gamma   90.00000000
_symmetry_Int_Tables_number   1
_chemical_formula_structural   Hf2Mn4Nb2SiP3
_chemical_formula_sum   'Hf2 Mn4 Nb2 Si1 P3'
_cell_volume   168.27480661
_cell_formula_units_Z   1
loop_
 _symmetry_equiv_pos_site_id
 _symmetry_equiv_pos_as_xyz
  1  'x, y, z'
loop_
 _atom_site_type_symbol
 _atom_site_label
 _atom_site_symmetry_multiplicity
 _atom_site_fract_x
 _atom_site_fract_y
 _atom_site_fract_z
 _atom_site_occupancy
  Hf  Hf0  1  0.750000  0.030433  0.673343  1
  Hf  Hf1  1  0.750000  0.530542  0.825784  1
  Mn  Mn2  1  0.250000  0.362785  0.559055  1
  Mn  Mn3  1  0.250000  0.865580  0.936650  1
  Mn  Mn4  1  0.750000  0.635372  0.441841  1
  Mn  Mn5  1  0.750000  0.141306  0.061199  1
  Nb  Nb6  1  0.250000  0.970540  0.327483  1
  Nb  Nb7  1  0.250000  0.463888  0.175092  1
  Si  Si8  1  0.750000  0.767318  0.130963  1
  P  P9  1  0.250000  0.732283  0.626702  1
  P  P10  1  0.250000  0.232389  0.872175  1
  P  P11  1  0.750000  0.267566  0.369712  1
