# generated using pymatgen
data_Nd17Tm3Sn16
_symmetry_space_group_name_H-M   'P 1'
_cell_length_a   8.23884939
_cell_length_b   8.40025640
_cell_length_c   15.93650900
_cell_angle_alpha   90.00000000
_cell_angle_beta   90.00000000
_cell_angle_gamma   89.96461628
_symmetry_Int_Tables_number   1
_chemical_formula_structural   Nd17Tm3Sn16
_chemical_formula_sum   'Nd17 Tm3 Sn16'
_cell_volume   1102.94083365
_cell_formula_units_Z   1
loop_
 _symmetry_equiv_pos_site_id
 _symmetry_equiv_pos_as_xyz
  1  'x, y, z'
loop_
 _atom_site_type_symbol
 _atom_site_label
 _atom_site_symmetry_multiplicity
 _atom_site_fract_x
 _atom_site_fract_y
 _atom_site_fract_z
 _atom_site_occupancy
  Nd  Nd0  1  0.017800  0.180966  0.401453  1
  Nd  Nd1  1  0.367415  0.837720  0.120823  1
  Nd  Nd2  1  0.133317  0.336865  0.620586  1
  Nd  Nd3  1  0.481340  0.681680  0.901987  1
  Nd  Nd4  1  0.867131  0.662228  0.121909  1
  Nd  Nd5  1  0.133317  0.336865  0.879414  1
  Nd  Nd6  1  0.481340  0.681680  0.598013  1
  Nd  Nd7  1  0.631801  0.162310  0.620146  1
  Nd  Nd8  1  0.803397  0.498091  0.750000  1
  Nd  Nd9  1  0.867131  0.662228  0.378091  1
  Nd  Nd10  1  0.017800  0.180966  0.098547  1
  Nd  Nd11  1  0.982417  0.819831  0.901880  1
  Nd  Nd12  1  0.631801  0.162310  0.879854  1
  Nd  Nd13  1  0.518191  0.319139  0.099076  1
  Nd  Nd14  1  0.367415  0.837720  0.379177  1
  Nd  Nd15  1  0.982417  0.819831  0.598120  1
  Nd  Nd16  1  0.518191  0.319139  0.400924  1
  Tm  Tm17  1  0.199166  0.502201  0.250000  1
  Tm  Tm18  1  0.699430  0.997994  0.250000  1
  Tm  Tm19  1  0.301003  0.002760  0.750000  1
  Sn  Sn20  1  0.792047  0.463526  0.541505  1
  Sn  Sn21  1  0.708119  0.964895  0.455540  1
  Sn  Sn22  1  0.674289  0.858091  0.750000  1
  Sn  Sn23  1  0.207723  0.534522  0.455525  1
  Sn  Sn24  1  0.292125  0.034860  0.955984  1
  Sn  Sn25  1  0.824809  0.351994  0.250000  1
  Sn  Sn26  1  0.792047  0.463526  0.958495  1
  Sn  Sn27  1  0.563461  0.616771  0.250000  1
  Sn  Sn28  1  0.207723  0.534522  0.044475  1
  Sn  Sn29  1  0.431685  0.382131  0.750000  1
  Sn  Sn30  1  0.178318  0.648506  0.750000  1
  Sn  Sn31  1  0.937114  0.114066  0.750000  1
  Sn  Sn32  1  0.292125  0.034860  0.544016  1
  Sn  Sn33  1  0.708119  0.964895  0.044460  1
  Sn  Sn34  1  0.324325  0.146904  0.250000  1
  Sn  Sn35  1  0.064155  0.883408  0.250000  1
