# generated using pymatgen
data_Yb2Sc2VSi7Pt9
_symmetry_space_group_name_H-M   'P 1'
_cell_length_a   10.01710884
_cell_length_b   10.02077967
_cell_length_c   3.92647800
_cell_angle_alpha   90.00000000
_cell_angle_beta   90.00000000
_cell_angle_gamma   119.84458951
_symmetry_Int_Tables_number   1
_chemical_formula_structural   Yb2Sc2VSi7Pt9
_chemical_formula_sum   'Yb2 Sc2 V1 Si7 Pt9'
_cell_volume   341.86582766
_cell_formula_units_Z   1
loop_
 _symmetry_equiv_pos_site_id
 _symmetry_equiv_pos_as_xyz
  1  'x, y, z'
loop_
 _atom_site_type_symbol
 _atom_site_label
 _atom_site_symmetry_multiplicity
 _atom_site_fract_x
 _atom_site_fract_y
 _atom_site_fract_z
 _atom_site_occupancy
  Yb  Yb0  1  0.000206  0.998692  0.000000  1
  Yb  Yb1  1  0.330415  0.664973  0.500000  1
  Sc  Sc2  1  0.564978  0.107988  0.500000  1
  Sc  Sc3  1  0.544279  0.437123  0.500000  1
  V  V4  1  0.890898  0.457722  0.500000  1
  Si  Si5  1  0.245378  0.200076  0.500000  1
  Si  Si6  1  0.802668  0.047506  0.500000  1
  Si  Si7  1  0.952046  0.740962  0.500000  1
  Si  Si8  1  0.552244  0.645950  0.000000  1
  Si  Si9  1  0.354208  0.908410  0.000000  1
  Si  Si10  1  0.084086  0.447164  0.000000  1
  Si  Si11  1  0.678488  0.338740  0.000000  1
  Pt  Pt12  1  0.219288  0.938488  0.500000  1
  Pt  Pt13  1  0.059371  0.284249  0.500000  1
  Pt  Pt14  1  0.719268  0.778202  0.500000  1
  Pt  Pt15  1  0.308906  0.408848  0.000000  1
  Pt  Pt16  1  0.591150  0.903305  0.000000  1
  Pt  Pt17  1  0.095321  0.689542  0.000000  1
  Pt  Pt18  1  0.393016  0.176091  0.000000  1
  Pt  Pt19  1  0.828511  0.214057  0.000000  1
  Pt  Pt20  1  0.785273  0.611915  0.000000  1
