# generated using pymatgen
data_Y3Th(Ga3Rh)6
_symmetry_space_group_name_H-M   'P 1'
_cell_length_a   7.60989678
_cell_length_b   7.61797561
_cell_length_c   9.53356800
_cell_angle_alpha   90.00000000
_cell_angle_beta   90.00000000
_cell_angle_gamma   119.76629062
_symmetry_Int_Tables_number   1
_chemical_formula_structural   Y3Th(Ga3Rh)6
_chemical_formula_sum   'Y3 Th1 Ga18 Rh6'
_cell_volume   479.75819577
_cell_formula_units_Z   1
loop_
 _symmetry_equiv_pos_site_id
 _symmetry_equiv_pos_as_xyz
  1  'x, y, z'
loop_
 _atom_site_type_symbol
 _atom_site_label
 _atom_site_symmetry_multiplicity
 _atom_site_fract_x
 _atom_site_fract_y
 _atom_site_fract_z
 _atom_site_occupancy
  Y  Y0  1  0.001902  0.332298  0.750000  1
  Y  Y1  1  0.668580  0.997976  0.250000  1
  Y  Y2  1  0.331979  0.001659  0.750000  1
  Th  Th3  1  0.997817  0.667985  0.250000  1
  Ga  Ga4  1  0.332053  0.331971  0.564543  1
  Ga  Ga5  1  0.663353  0.668063  0.439743  1
  Ga  Ga6  1  0.663353  0.668063  0.060257  1
  Ga  Ga7  1  0.332053  0.331971  0.935457  1
  Ga  Ga8  1  0.342143  0.545944  0.250000  1
  Ga  Ga9  1  0.659640  0.452040  0.750000  1
  Ga  Ga10  1  0.542232  0.336743  0.250000  1
  Ga  Ga11  1  0.452871  0.660643  0.750000  1
  Ga  Ga12  1  0.999997  0.328993  0.076926  1
  Ga  Ga13  1  0.999234  0.665410  0.915677  1
  Ga  Ga14  1  0.999234  0.665410  0.584323  1
  Ga  Ga15  1  0.339463  0.005105  0.422805  1
  Ga  Ga16  1  0.999997  0.328993  0.423074  1
  Ga  Ga17  1  0.665585  0.000014  0.579991  1
  Ga  Ga18  1  0.665585  0.000014  0.920009  1
  Ga  Ga19  1  0.339463  0.005105  0.077195  1
  Ga  Ga20  1  0.125649  0.127850  0.250000  1
  Ga  Ga21  1  0.877830  0.878803  0.750000  1
  Rh  Rh22  1  0.000592  0.997883  0.000804  1
  Rh  Rh23  1  0.000592  0.997883  0.499196  1
  Rh  Rh24  1  0.673265  0.331041  0.000672  1
  Rh  Rh25  1  0.326136  0.670551  0.000809  1
  Rh  Rh26  1  0.326136  0.670551  0.499191  1
  Rh  Rh27  1  0.673265  0.331041  0.499328  1
