# generated using pymatgen
data_Li6Tm5LuAu6
_symmetry_space_group_name_H-M   'P 1'
_cell_length_a   7.33326900
_cell_length_b   7.33337190
_cell_length_c   7.92229300
_cell_angle_alpha   90.00000000
_cell_angle_beta   90.00000000
_cell_angle_gamma   119.94548829
_symmetry_Int_Tables_number   1
_chemical_formula_structural   Li6Tm5LuAu6
_chemical_formula_sum   'Li6 Tm5 Lu1 Au6'
_cell_volume   369.16553803
_cell_formula_units_Z   1
loop_
 _symmetry_equiv_pos_site_id
 _symmetry_equiv_pos_as_xyz
  1  'x, y, z'
loop_
 _atom_site_type_symbol
 _atom_site_label
 _atom_site_symmetry_multiplicity
 _atom_site_fract_x
 _atom_site_fract_y
 _atom_site_fract_z
 _atom_site_occupancy
  Li  Li0  1  0.755725  0.755857  0.001522  1
  Li  Li1  1  0.244152  0.000227  0.999899  1
  Li  Li2  1  0.000468  0.244211  0.999906  1
  Li  Li3  1  0.755734  0.755863  0.498485  1
  Li  Li4  1  0.244137  0.000227  0.500106  1
  Li  Li5  1  0.000462  0.244180  0.500102  1
  Tm  Tm6  1  0.590698  0.997419  0.749994  1
  Tm  Tm7  1  0.002466  0.593200  0.750002  1
  Tm  Tm8  1  0.406724  0.409226  0.749996  1
  Tm  Tm9  1  0.997595  0.591209  0.250006  1
  Tm  Tm10  1  0.593791  0.002849  0.249995  1
  Lu  Lu11  1  0.407242  0.404982  0.249990  1
  Au  Au12  1  0.999434  0.999307  0.750005  1
  Au  Au13  1  0.001857  0.001821  0.249988  1
  Au  Au14  1  0.666178  0.333646  0.998663  1
  Au  Au15  1  0.666157  0.333628  0.501321  1
  Au  Au16  1  0.333579  0.666084  0.497300  1
  Au  Au17  1  0.333604  0.666063  0.002719  1
