# generated using pymatgen
data_Mn17Cr3Fe(WC3)2
_symmetry_space_group_name_H-M   'P 1'
_cell_length_a   7.42100061
_cell_length_b   7.42100088
_cell_length_c   7.42100085
_cell_angle_alpha   60.00886608
_cell_angle_beta   60.00886691
_cell_angle_gamma   60.00886387
_symmetry_Int_Tables_number   1
_chemical_formula_structural   Mn17Cr3Fe(WC3)2
_chemical_formula_sum   'Mn17 Cr3 Fe1 W2 C6'
_cell_volume   289.04117639
_cell_formula_units_Z   1
loop_
 _symmetry_equiv_pos_site_id
 _symmetry_equiv_pos_as_xyz
  1  'x, y, z'
loop_
 _atom_site_type_symbol
 _atom_site_label
 _atom_site_symmetry_multiplicity
 _atom_site_fract_x
 _atom_site_fract_y
 _atom_site_fract_z
 _atom_site_occupancy
  Mn  Mn0  1  0.615544  0.615544  0.152592  1
  Mn  Mn1  1  0.615544  0.152591  0.615544  1
  Mn  Mn2  1  0.152592  0.615544  0.615544  1
  Mn  Mn3  1  0.615514  0.615514  0.615514  1
  Mn  Mn4  1  0.383224  0.383224  0.848370  1
  Mn  Mn5  1  0.383224  0.848370  0.383224  1
  Mn  Mn6  1  0.848370  0.383224  0.383224  1
  Mn  Mn7  1  0.384015  0.384015  0.384015  1
  Mn  Mn8  1  0.000578  0.000578  0.333312  1
  Mn  Mn9  1  0.667936  0.998278  0.333508  1
  Mn  Mn10  1  0.998278  0.667936  0.333508  1
  Mn  Mn11  1  0.667936  0.333508  0.998278  1
  Mn  Mn12  1  0.000578  0.333312  0.000578  1
  Mn  Mn13  1  0.998278  0.333508  0.667936  1
  Mn  Mn14  1  0.333508  0.667936  0.998278  1
  Mn  Mn15  1  0.333508  0.998278  0.667936  1
  Mn  Mn16  1  0.333312  0.000578  0.000578  1
  Cr  Cr17  1  0.000611  0.000611  0.667181  1
  Cr  Cr18  1  0.000611  0.667181  0.000611  1
  Cr  Cr19  1  0.667181  0.000611  0.000611  1
  Fe  Fe20  1  0.001625  0.001625  0.001625  1
  W  W21  1  0.749451  0.749451  0.749451  1
  W  W22  1  0.249765  0.249765  0.249765  1
  C  C23  1  0.721914  0.721914  0.280582  1
  C  C24  1  0.274824  0.724758  0.274824  1
  C  C25  1  0.724758  0.274824  0.274824  1
  C  C26  1  0.274824  0.274824  0.724758  1
  C  C27  1  0.721914  0.280582  0.721914  1
  C  C28  1  0.280582  0.721914  0.721914  1
