# generated using pymatgen
data_Ho6Lu4In8RuPt3
_symmetry_space_group_name_H-M   'P 1'
_cell_length_a   3.61339700
_cell_length_b   8.07212500
_cell_length_c   18.07735743
_cell_angle_alpha   90.02785490
_cell_angle_beta   90.00000000
_cell_angle_gamma   90.00000000
_symmetry_Int_Tables_number   1
_chemical_formula_structural   Ho6Lu4In8RuPt3
_chemical_formula_sum   'Ho6 Lu4 In8 Ru1 Pt3'
_cell_volume   527.27654368
_cell_formula_units_Z   1
loop_
 _symmetry_equiv_pos_site_id
 _symmetry_equiv_pos_as_xyz
  1  'x, y, z'
loop_
 _atom_site_type_symbol
 _atom_site_label
 _atom_site_symmetry_multiplicity
 _atom_site_fract_x
 _atom_site_fract_y
 _atom_site_fract_z
 _atom_site_occupancy
  Ho  Ho0  1  0.000000  0.233121  0.222587  1
  Ho  Ho1  1  0.000000  0.757626  0.779114  1
  Ho  Ho2  1  0.000000  0.257259  0.721184  1
  Ho  Ho3  1  0.000000  0.750665  0.278843  1
  Ho  Ho4  1  0.000000  0.999568  0.000460  1
  Ho  Ho5  1  0.000000  0.500606  0.499262  1
  Lu  Lu6  1  0.000000  0.115581  0.411619  1
  Lu  Lu7  1  0.000000  0.884315  0.585770  1
  Lu  Lu8  1  0.000000  0.384085  0.914259  1
  Lu  Lu9  1  0.000000  0.617874  0.087383  1
  In  In10  1  0.500000  0.421679  0.351175  1
  In  In11  1  0.500000  0.576986  0.647597  1
  In  In12  1  0.500000  0.077280  0.852350  1
  In  In13  1  0.500000  0.928481  0.149472  1
  In  In14  1  0.500000  0.295053  0.065132  1
  In  In15  1  0.500000  0.705417  0.935176  1
  In  In16  1  0.500000  0.206442  0.565546  1
  In  In17  1  0.500000  0.796770  0.432235  1
  Ru  Ru18  1  0.500000  0.019781  0.305303  1
  Pt  Pt19  1  0.500000  0.975408  0.694813  1
  Pt  Pt20  1  0.500000  0.476044  0.805593  1
  Pt  Pt21  1  0.500000  0.519958  0.195128  1
