# generated using pymatgen
data_Hf18Re7OsPtW
_symmetry_space_group_name_H-M   'P 1'
_cell_length_a   8.67860500
_cell_length_b   8.67860627
_cell_length_c   8.54267600
_cell_angle_alpha   90.00000000
_cell_angle_beta   90.00000000
_cell_angle_gamma   120.00000659
_symmetry_Int_Tables_number   1
_chemical_formula_structural   Hf18Re7OsPtW
_chemical_formula_sum   'Hf18 Re7 Os1 Pt1 W1'
_cell_volume   557.21711320
_cell_formula_units_Z   1
loop_
 _symmetry_equiv_pos_site_id
 _symmetry_equiv_pos_as_xyz
  1  'x, y, z'
loop_
 _atom_site_type_symbol
 _atom_site_label
 _atom_site_symmetry_multiplicity
 _atom_site_fract_x
 _atom_site_fract_y
 _atom_site_fract_z
 _atom_site_occupancy
  Hf  Hf0  1  0.197947  0.802053  0.446800  1
  Hf  Hf1  1  0.197947  0.395897  0.446800  1
  Hf  Hf2  1  0.604103  0.802053  0.446800  1
  Hf  Hf3  1  0.804709  0.195291  0.552068  1
  Hf  Hf4  1  0.804709  0.609419  0.552068  1
  Hf  Hf5  1  0.390581  0.195291  0.552068  1
  Hf  Hf6  1  0.806647  0.193353  0.947414  1
  Hf  Hf7  1  0.806647  0.613294  0.947414  1
  Hf  Hf8  1  0.386706  0.193353  0.947414  1
  Hf  Hf9  1  0.196879  0.803121  0.053894  1
  Hf  Hf10  1  0.196879  0.393760  0.053894  1
  Hf  Hf11  1  0.606240  0.803121  0.053894  1
  Hf  Hf12  1  0.540772  0.459228  0.249091  1
  Hf  Hf13  1  0.540772  0.081541  0.249091  1
  Hf  Hf14  1  0.918459  0.459228  0.249091  1
  Hf  Hf15  1  0.458790  0.541210  0.750991  1
  Hf  Hf16  1  0.458790  0.917580  0.750991  1
  Hf  Hf17  1  0.082420  0.541210  0.750991  1
  Re  Re18  1  0.889469  0.110531  0.250657  1
  Re  Re19  1  0.889469  0.778936  0.250657  1
  Re  Re20  1  0.221064  0.110531  0.250657  1
  Re  Re21  1  0.110694  0.889306  0.748991  1
  Re  Re22  1  0.110694  0.221390  0.748991  1
  Re  Re23  1  0.778610  0.889306  0.748991  1
  Re  Re24  1  0.000000  0.000000  0.999925  1
  Os  Os25  1  0.333333  0.666667  0.249332  1
  Pt  Pt26  1  0.666667  0.333333  0.751606  1
  W  W27  1  0.000000  0.000000  0.499422  1
