# generated using pymatgen
data_Zr2InB2IrRu4
_symmetry_space_group_name_H-M   'P 1'
_cell_length_a   9.57598143
_cell_length_b   9.58616644
_cell_length_c   3.12759100
_cell_angle_alpha   90.00000000
_cell_angle_beta   90.00000000
_cell_angle_gamma   90.11025511
_symmetry_Int_Tables_number   1
_chemical_formula_structural   Zr2InB2IrRu4
_chemical_formula_sum   'Zr4 In2 B4 Ir2 Ru8'
_cell_volume   287.10278874
_cell_formula_units_Z   2
loop_
 _symmetry_equiv_pos_site_id
 _symmetry_equiv_pos_as_xyz
  1  'x, y, z'
loop_
 _atom_site_type_symbol
 _atom_site_label
 _atom_site_symmetry_multiplicity
 _atom_site_fract_x
 _atom_site_fract_y
 _atom_site_fract_z
 _atom_site_occupancy
  Zr  Zr0  1  0.675582  0.178157  0.000000  1
  Zr  Zr1  1  0.324418  0.821843  0.000000  1
  Zr  Zr2  1  0.174670  0.328013  0.000000  1
  Zr  Zr3  1  0.825330  0.671987  0.000000  1
  In  In4  1  0.000000  0.000000  0.000000  1
  In  In5  1  0.500000  0.500000  0.000000  1
  B  B6  1  0.121505  0.622593  0.000000  1
  B  B7  1  0.878495  0.377407  0.000000  1
  B  B8  1  0.620026  0.876787  0.000000  1
  B  B9  1  0.379974  0.123213  0.000000  1
  Ir  Ir10  1  0.225235  0.071731  0.500000  1
  Ir  Ir11  1  0.774765  0.928269  0.500000  1
  Ru  Ru12  1  0.070342  0.777130  0.500000  1
  Ru  Ru13  1  0.722743  0.427774  0.500000  1
  Ru  Ru14  1  0.929658  0.222870  0.500000  1
  Ru  Ru15  1  0.277257  0.572226  0.500000  1
  Ru  Ru16  1  0.569959  0.723110  0.500000  1
  Ru  Ru17  1  0.430041  0.276890  0.500000  1
  Ru  Ru18  1  0.500000  0.000000  0.500000  1
  Ru  Ru19  1  0.000000  0.500000  0.500000  1
