# generated using pymatgen
data_Yb6Si2Ni20P11
_symmetry_space_group_name_H-M   'P 1'
_cell_length_a   12.76391300
_cell_length_b   12.82876321
_cell_length_c   3.73454000
_cell_angle_alpha   90.00000000
_cell_angle_beta   90.00000000
_cell_angle_gamma   119.78518215
_symmetry_Int_Tables_number   1
_chemical_formula_structural   Yb6Si2Ni20P11
_chemical_formula_sum   'Yb6 Si2 Ni20 P11'
_cell_volume   530.72849026
_cell_formula_units_Z   1
loop_
 _symmetry_equiv_pos_site_id
 _symmetry_equiv_pos_as_xyz
  1  'x, y, z'
loop_
 _atom_site_type_symbol
 _atom_site_label
 _atom_site_symmetry_multiplicity
 _atom_site_fract_x
 _atom_site_fract_y
 _atom_site_fract_z
 _atom_site_occupancy
  Yb  Yb0  1  0.282441  0.471274  0.000000  1
  Yb  Yb1  1  0.187885  0.717146  0.000000  1
  Yb  Yb2  1  0.530655  0.812412  0.000000  1
  Yb  Yb3  1  0.472919  0.190643  0.500000  1
  Yb  Yb4  1  0.812273  0.281101  0.500000  1
  Yb  Yb5  1  0.717835  0.531052  0.500000  1
  Si  Si6  1  0.001676  0.000467  0.000000  1
  Si  Si7  1  0.274747  0.048097  0.000000  1
  Ni  Ni8  1  0.758313  0.078782  0.000000  1
  Ni  Ni9  1  0.108762  0.201051  0.000000  1
  Ni  Ni10  1  0.322467  0.247976  0.000000  1
  Ni  Ni11  1  0.667473  0.332912  0.000000  1
  Ni  Ni12  1  0.021658  0.438701  0.000000  1
  Ni  Ni13  1  0.560554  0.582739  0.000000  1
  Ni  Ni14  1  0.918443  0.675851  0.000000  1
  Ni  Ni15  1  0.087243  0.885702  0.000000  1
  Ni  Ni16  1  0.799402  0.907364  0.000000  1
  Ni  Ni17  1  0.417523  0.978149  0.000000  1
  Ni  Ni18  1  0.583916  0.020578  0.500000  1
  Ni  Ni19  1  0.158211  0.075632  0.500000  1
  Ni  Ni20  1  0.929858  0.078379  0.500000  1
  Ni  Ni21  1  0.070022  0.317579  0.500000  1
  Ni  Ni22  1  0.437081  0.417327  0.500000  1
  Ni  Ni23  1  0.977600  0.562863  0.500000  1
  Ni  Ni24  1  0.332917  0.666569  0.500000  1
  Ni  Ni25  1  0.682290  0.752586  0.500000  1
  Ni  Ni26  1  0.920437  0.848102  0.500000  1
  Ni  Ni27  1  0.245962  0.925784  0.500000  1
  P  P28  1  0.616026  0.136995  0.000000  1
  P  P29  1  0.953740  0.233653  0.000000  1
  P  P30  1  0.522020  0.384679  0.000000  1
  P  P31  1  0.862355  0.477599  0.000000  1
  P  P32  1  0.765952  0.719841  0.000000  1
  P  P33  1  0.233249  0.278753  0.500000  1
  P  P34  1  0.135481  0.521462  0.500000  1
  P  P35  1  0.478527  0.615123  0.500000  1
  P  P36  1  0.042527  0.764996  0.500000  1
  P  P37  1  0.385295  0.863672  0.500000  1
  P  P38  1  0.724273  0.956423  0.500000  1
