# generated using pymatgen
data_Tb3CoMoP6Ir7
_symmetry_space_group_name_H-M   'P 1'
_cell_length_a   3.93930200
_cell_length_b   11.11972600
_cell_length_c   12.80353200
_cell_angle_alpha   90.00000000
_cell_angle_beta   90.00000000
_cell_angle_gamma   90.00000000
_symmetry_Int_Tables_number   1
_chemical_formula_structural   Tb3CoMoP6Ir7
_chemical_formula_sum   'Tb6 Co2 Mo2 P12 Ir14'
_cell_volume   560.84538913
_cell_formula_units_Z   2
loop_
 _symmetry_equiv_pos_site_id
 _symmetry_equiv_pos_as_xyz
  1  'x, y, z'
loop_
 _atom_site_type_symbol
 _atom_site_label
 _atom_site_symmetry_multiplicity
 _atom_site_fract_x
 _atom_site_fract_y
 _atom_site_fract_z
 _atom_site_occupancy
  Tb  Tb0  1  0.000000  0.500000  0.521826  1
  Tb  Tb1  1  0.500000  0.000000  0.478174  1
  Tb  Tb2  1  0.500000  0.817643  0.201146  1
  Tb  Tb3  1  0.500000  0.182357  0.201146  1
  Tb  Tb4  1  0.000000  0.682357  0.798854  1
  Tb  Tb5  1  0.000000  0.317643  0.798854  1
  Co  Co6  1  0.000000  0.500000  0.994567  1
  Co  Co7  1  0.500000  0.000000  0.005433  1
  Mo  Mo8  1  0.500000  0.500000  0.157498  1
  Mo  Mo9  1  0.000000  0.000000  0.842502  1
  P  P10  1  0.500000  0.500000  0.879439  1
  P  P11  1  0.000000  0.000000  0.120561  1
  P  P12  1  0.500000  0.500000  0.345719  1
  P  P13  1  0.000000  0.000000  0.654281  1
  P  P14  1  0.500000  0.314674  0.618946  1
  P  P15  1  0.500000  0.685326  0.618946  1
  P  P16  1  0.000000  0.185326  0.381054  1
  P  P17  1  0.000000  0.814674  0.381054  1
  P  P18  1  0.500000  0.849834  0.892401  1
  P  P19  1  0.500000  0.150166  0.892401  1
  P  P20  1  0.000000  0.650166  0.107599  1
  P  P21  1  0.000000  0.349834  0.107599  1
  Ir  Ir22  1  0.500000  0.500000  0.700842  1
  Ir  Ir23  1  0.000000  0.000000  0.299158  1
  Ir  Ir24  1  0.500000  0.334707  0.986619  1
  Ir  Ir25  1  0.500000  0.665293  0.986619  1
  Ir  Ir26  1  0.000000  0.165293  0.013381  1
  Ir  Ir27  1  0.000000  0.834707  0.013381  1
  Ir  Ir28  1  0.500000  0.296186  0.430987  1
  Ir  Ir29  1  0.500000  0.703814  0.430987  1
  Ir  Ir30  1  0.000000  0.203814  0.569013  1
  Ir  Ir31  1  0.000000  0.796186  0.569013  1
  Ir  Ir32  1  0.500000  0.872749  0.713121  1
  Ir  Ir33  1  0.500000  0.127251  0.713121  1
  Ir  Ir34  1  0.000000  0.627251  0.286879  1
  Ir  Ir35  1  0.000000  0.372749  0.286879  1
