# generated using pymatgen
data_Cs4CrSi2O7
_symmetry_space_group_name_H-M   'P 1'
_cell_length_a   6.68268756
_cell_length_b   7.74546470
_cell_length_c   7.67655183
_cell_angle_alpha   114.59191227
_cell_angle_beta   101.19017044
_cell_angle_gamma   110.93739180
_symmetry_Int_Tables_number   1
_chemical_formula_structural   Cs4CrSi2O7
_chemical_formula_sum   'Cs4 Cr1 Si2 O7'
_cell_volume   308.73745301
_cell_formula_units_Z   1
loop_
 _symmetry_equiv_pos_site_id
 _symmetry_equiv_pos_as_xyz
  1  'x, y, z'
loop_
 _atom_site_type_symbol
 _atom_site_label
 _atom_site_symmetry_multiplicity
 _atom_site_fract_x
 _atom_site_fract_y
 _atom_site_fract_z
 _atom_site_occupancy
  Cs  Cs0  1  0.530930  0.458061  0.236514  1
  Cs  Cs1  1  0.752731  0.081558  0.361295  1
  Cs  Cs2  1  0.247269  0.918442  0.638706  1
  Cs  Cs3  1  0.469070  0.541939  0.763486  1
  Cr  Cr4  1  0.000000  0.500000  0.000000  1
  Si  Si5  1  0.126938  0.920026  0.139086  1
  Si  Si6  1  0.873063  0.079974  0.860915  1
  O  O7  1  0.000000  0.000000  0.000000  1
  O  O8  1  0.224555  0.764014  0.999788  1
  O  O9  1  0.916469  0.735820  0.154929  1
  O  O10  1  0.322843  0.133815  0.362402  1
  O  O11  1  0.677157  0.866185  0.637597  1
  O  O12  1  0.083531  0.264180  0.845071  1
  O  O13  1  0.775444  0.235986  0.000213  1
