# generated using pymatgen
data_HoFe2NiP2
_symmetry_space_group_name_H-M   'P 1'
_cell_length_a   3.72781900
_cell_length_b   10.57837700
_cell_length_c   12.09961100
_cell_angle_alpha   90.00000000
_cell_angle_beta   90.00000000
_cell_angle_gamma   90.00000000
_symmetry_Int_Tables_number   1
_chemical_formula_structural   HoFe2NiP2
_chemical_formula_sum   'Ho6 Fe12 Ni6 P12'
_cell_volume   477.13938478
_cell_formula_units_Z   6
loop_
 _symmetry_equiv_pos_site_id
 _symmetry_equiv_pos_as_xyz
  1  'x, y, z'
loop_
 _atom_site_type_symbol
 _atom_site_label
 _atom_site_symmetry_multiplicity
 _atom_site_fract_x
 _atom_site_fract_y
 _atom_site_fract_z
 _atom_site_occupancy
  Ho  Ho0  1  0.000000  0.500000  0.521606  1
  Ho  Ho1  1  0.500000  0.000000  0.478394  1
  Ho  Ho2  1  0.500000  0.819341  0.204148  1
  Ho  Ho3  1  0.500000  0.180659  0.204148  1
  Ho  Ho4  1  0.000000  0.680659  0.795852  1
  Ho  Ho5  1  0.000000  0.319341  0.795852  1
  Fe  Fe6  1  0.500000  0.500000  0.155411  1
  Fe  Fe7  1  0.000000  0.000000  0.844589  1
  Fe  Fe8  1  0.000000  0.500000  0.989013  1
  Fe  Fe9  1  0.500000  0.000000  0.010987  1
  Fe  Fe10  1  0.500000  0.333156  0.997015  1
  Fe  Fe11  1  0.500000  0.666844  0.997015  1
  Fe  Fe12  1  0.000000  0.166844  0.002985  1
  Fe  Fe13  1  0.000000  0.833156  0.002985  1
  Fe  Fe14  1  0.500000  0.297554  0.427311  1
  Fe  Fe15  1  0.500000  0.702446  0.427311  1
  Fe  Fe16  1  0.000000  0.202446  0.572689  1
  Fe  Fe17  1  0.000000  0.797554  0.572689  1
  Ni  Ni18  1  0.500000  0.500000  0.703321  1
  Ni  Ni19  1  0.000000  0.000000  0.296679  1
  Ni  Ni20  1  0.500000  0.878612  0.711808  1
  Ni  Ni21  1  0.500000  0.121388  0.711808  1
  Ni  Ni22  1  0.000000  0.621388  0.288192  1
  Ni  Ni23  1  0.000000  0.378612  0.288192  1
  P  P24  1  0.500000  0.500000  0.887744  1
  P  P25  1  0.000000  0.000000  0.112256  1
  P  P26  1  0.500000  0.500000  0.346445  1
  P  P27  1  0.000000  0.000000  0.653555  1
  P  P28  1  0.500000  0.309754  0.611661  1
  P  P29  1  0.500000  0.690246  0.611661  1
  P  P30  1  0.000000  0.190246  0.388339  1
  P  P31  1  0.000000  0.809754  0.388339  1
  P  P32  1  0.500000  0.842865  0.897370  1
  P  P33  1  0.500000  0.157135  0.897370  1
  P  P34  1  0.000000  0.657135  0.102630  1
  P  P35  1  0.000000  0.342865  0.102630  1
