# generated using pymatgen
data_InGa(BrO3)6
_symmetry_space_group_name_H-M   'P 1'
_cell_length_a   9.20898300
_cell_length_b   9.20898169
_cell_length_c   5.80272000
_cell_angle_alpha   90.00000000
_cell_angle_beta   90.00000000
_cell_angle_gamma   119.99999488
_symmetry_Int_Tables_number   1
_chemical_formula_structural   InGa(BrO3)6
_chemical_formula_sum   'In1 Ga1 Br6 O18'
_cell_volume   426.17262532
_cell_formula_units_Z   1
loop_
 _symmetry_equiv_pos_site_id
 _symmetry_equiv_pos_as_xyz
  1  'x, y, z'
loop_
 _atom_site_type_symbol
 _atom_site_label
 _atom_site_symmetry_multiplicity
 _atom_site_fract_x
 _atom_site_fract_y
 _atom_site_fract_z
 _atom_site_occupancy
  In  In0  1  0.666667  0.333333  0.687240  1
  Ga  Ga1  1  0.333333  0.666667  0.195405  1
  Br  Br2  1  0.670344  0.012683  0.355820  1
  Br  Br3  1  0.317572  0.970067  0.870668  1
  Br  Br4  1  0.029933  0.347505  0.870668  1
  Br  Br5  1  0.342340  0.329656  0.355820  1
  Br  Br6  1  0.987317  0.657660  0.355820  1
  Br  Br7  1  0.652495  0.682428  0.870668  1
  O  O8  1  0.774078  0.838069  0.040090  1
  O  O9  1  0.951655  0.773061  0.535162  1
  O  O10  1  0.821406  0.048345  0.535162  1
  O  O11  1  0.161931  0.936008  0.040090  1
  O  O12  1  0.063992  0.225922  0.040090  1
  O  O13  1  0.226939  0.178594  0.535162  1
  O  O14  1  0.713045  0.536440  0.927887  1
  O  O15  1  0.196197  0.721113  0.409646  1
  O  O16  1  0.543209  0.434930  0.472830  1
  O  O17  1  0.127247  0.547784  0.992814  1
  O  O18  1  0.420537  0.872753  0.992814  1
  O  O19  1  0.565070  0.108279  0.472830  1
  O  O20  1  0.891721  0.456791  0.472830  1
  O  O21  1  0.452216  0.579463  0.992814  1
  O  O22  1  0.278887  0.475084  0.409646  1
  O  O23  1  0.823394  0.286955  0.927887  1
  O  O24  1  0.463560  0.176606  0.927887  1
  O  O25  1  0.524916  0.803803  0.409646  1
