# generated using pymatgen
data_SrPrHg2(Ir2O7)2
_symmetry_space_group_name_H-M   'P 1'
_cell_length_a   7.54145812
_cell_length_b   7.36481799
_cell_length_c   7.36481704
_cell_angle_alpha   59.15271004
_cell_angle_beta   59.32941150
_cell_angle_gamma   59.32940206
_symmetry_Int_Tables_number   1
_chemical_formula_structural   SrPrHg2(Ir2O7)2
_chemical_formula_sum   'Sr1 Pr1 Hg2 Ir4 O14'
_cell_volume   284.43676238
_cell_formula_units_Z   1
loop_
 _symmetry_equiv_pos_site_id
 _symmetry_equiv_pos_as_xyz
  1  'x, y, z'
loop_
 _atom_site_type_symbol
 _atom_site_label
 _atom_site_symmetry_multiplicity
 _atom_site_fract_x
 _atom_site_fract_y
 _atom_site_fract_z
 _atom_site_occupancy
  Sr  Sr0  1  0.125000  0.125000  0.125000  1
  Pr  Pr1  1  0.625000  0.125000  0.125000  1
  Hg  Hg2  1  0.125000  0.125000  0.625000  1
  Hg  Hg3  1  0.125000  0.625000  0.125000  1
  Ir  Ir4  1  0.625000  0.625000  0.625000  1
  Ir  Ir5  1  0.125000  0.625000  0.625000  1
  Ir  Ir6  1  0.625000  0.125000  0.625000  1
  Ir  Ir7  1  0.625000  0.625000  0.125000  1
  O  O8  1  0.941697  0.557968  0.557968  1
  O  O9  1  0.308122  0.304182  0.693810  1
  O  O10  1  0.941878  0.556190  0.945818  1
  O  O11  1  0.700166  0.293970  0.293970  1
  O  O12  1  0.557986  0.546262  0.949019  1
  O  O13  1  0.557986  0.949019  0.546262  1
  O  O14  1  0.549834  0.956030  0.956030  1
  O  O15  1  0.239935  0.266988  0.266988  1
  O  O16  1  0.308303  0.692032  0.692032  1
  O  O17  1  0.692014  0.300981  0.703738  1
  O  O18  1  0.010065  0.983012  0.983012  1
  O  O19  1  0.941878  0.945818  0.556190  1
  O  O20  1  0.308122  0.693810  0.304182  1
  O  O21  1  0.692014  0.703738  0.300981  1
