# generated using pymatgen
data_ErCdCuPt3
_symmetry_space_group_name_H-M   'P 1'
_cell_length_a   5.44491550
_cell_length_b   5.44491580
_cell_length_c   5.17177523
_cell_angle_alpha   58.23700337
_cell_angle_beta   58.23700347
_cell_angle_gamma   59.99999628
_symmetry_Int_Tables_number   1
_chemical_formula_structural   ErCdCuPt3
_chemical_formula_sum   'Er1 Cd1 Cu1 Pt3'
_cell_volume   105.43983293
_cell_formula_units_Z   1
loop_
 _symmetry_equiv_pos_site_id
 _symmetry_equiv_pos_as_xyz
  1  'x, y, z'
loop_
 _atom_site_type_symbol
 _atom_site_label
 _atom_site_symmetry_multiplicity
 _atom_site_fract_x
 _atom_site_fract_y
 _atom_site_fract_z
 _atom_site_occupancy
  Er  Er0  1  0.750788  0.750788  0.747636  1
  Cd  Cd1  1  0.001695  0.001695  0.994916  1
  Cu  Cu2  1  0.374295  0.374295  0.877115  1
  Pt  Pt3  1  0.373681  0.875859  0.376777  1
  Pt  Pt4  1  0.373681  0.373681  0.376777  1
  Pt  Pt5  1  0.875859  0.373681  0.376777  1
