# generated using pymatgen
data_Ni8RuS8
_symmetry_space_group_name_H-M   'P 1'
_cell_length_a   7.07084800
_cell_length_b   7.07084782
_cell_length_c   7.07084900
_cell_angle_alpha   59.99999918
_cell_angle_beta   60.00000002
_cell_angle_gamma   59.99999917
_symmetry_Int_Tables_number   1
_chemical_formula_structural   Ni8RuS8
_chemical_formula_sum   'Ni8 Ru1 S8'
_cell_volume   249.97671238
_cell_formula_units_Z   1
loop_
 _symmetry_equiv_pos_site_id
 _symmetry_equiv_pos_as_xyz
  1  'x, y, z'
loop_
 _atom_site_type_symbol
 _atom_site_label
 _atom_site_symmetry_multiplicity
 _atom_site_fract_x
 _atom_site_fract_y
 _atom_site_fract_z
 _atom_site_occupancy
  Ni  Ni0  1  0.621098  0.126301  0.126301  1
  Ni  Ni1  1  0.126301  0.621098  0.126301  1
  Ni  Ni2  1  0.126301  0.126301  0.621098  1
  Ni  Ni3  1  0.126301  0.126301  0.126301  1
  Ni  Ni4  1  0.378902  0.873699  0.873699  1
  Ni  Ni5  1  0.873699  0.378902  0.873699  1
  Ni  Ni6  1  0.873699  0.873699  0.378902  1
  Ni  Ni7  1  0.873699  0.873699  0.873699  1
  Ru  Ru8  1  0.500000  0.500000  0.500000  1
  S  S9  1  0.250000  0.250000  0.250000  1
  S  S10  1  0.750000  0.750000  0.750000  1
  S  S11  1  0.739383  0.260617  0.260617  1
  S  S12  1  0.739383  0.260617  0.739383  1
  S  S13  1  0.739383  0.739383  0.260617  1
  S  S14  1  0.260617  0.739383  0.739383  1
  S  S15  1  0.260617  0.739383  0.260617  1
  S  S16  1  0.260617  0.260617  0.739383  1
