# generated using pymatgen
data_Dy6Tm2Sc11Si16Tc
_symmetry_space_group_name_H-M   'P 1'
_cell_length_a   7.01619525
_cell_length_b   7.34690467
_cell_length_c   13.87674454
_cell_angle_alpha   89.93487868
_cell_angle_beta   90.02396903
_cell_angle_gamma   90.17615719
_symmetry_Int_Tables_number   1
_chemical_formula_structural   Dy6Tm2Sc11Si16Tc
_chemical_formula_sum   'Dy6 Tm2 Sc11 Si16 Tc1'
_cell_volume   715.30505403
_cell_formula_units_Z   1
loop_
 _symmetry_equiv_pos_site_id
 _symmetry_equiv_pos_as_xyz
  1  'x, y, z'
loop_
 _atom_site_type_symbol
 _atom_site_label
 _atom_site_symmetry_multiplicity
 _atom_site_fract_x
 _atom_site_fract_y
 _atom_site_fract_z
 _atom_site_occupancy
  Dy  Dy0  1  0.012108  0.178061  0.093418  1
  Dy  Dy1  1  0.992814  0.818416  0.900630  1
  Dy  Dy2  1  0.487960  0.672615  0.902712  1
  Dy  Dy3  1  0.992628  0.818379  0.598836  1
  Dy  Dy4  1  0.511366  0.323453  0.094864  1
  Dy  Dy5  1  0.012232  0.178112  0.406952  1
  Tm  Tm6  1  0.511619  0.322973  0.404826  1
  Tm  Tm7  1  0.487624  0.673093  0.597673  1
  Sc  Sc8  1  0.841542  0.496384  0.250164  1
  Sc  Sc9  1  0.342389  0.003743  0.250284  1
  Sc  Sc10  1  0.656589  0.994793  0.749813  1
  Sc  Sc11  1  0.326482  0.178646  0.627632  1
  Sc  Sc12  1  0.671949  0.823818  0.374650  1
  Sc  Sc13  1  0.172910  0.673707  0.377025  1
  Sc  Sc14  1  0.672183  0.824334  0.125793  1
  Sc  Sc15  1  0.827165  0.331231  0.628424  1
  Sc  Sc16  1  0.326092  0.178291  0.872026  1
  Sc  Sc17  1  0.827526  0.331084  0.871087  1
  Sc  Sc18  1  0.172613  0.674137  0.123504  1
  Si  Si19  1  0.028569  0.118699  0.749718  1
  Si  Si20  1  0.972812  0.885824  0.250176  1
  Si  Si21  1  0.469124  0.614612  0.250394  1
  Si  Si22  1  0.518322  0.396028  0.749507  1
  Si  Si23  1  0.285812  0.860889  0.749363  1
  Si  Si24  1  0.716768  0.130095  0.250577  1
  Si  Si25  1  0.215779  0.371072  0.250603  1
  Si  Si26  1  0.792591  0.629475  0.749505  1
  Si  Si27  1  0.157340  0.466448  0.547927  1
  Si  Si28  1  0.840773  0.535120  0.463255  1
  Si  Si29  1  0.346514  0.965027  0.463256  1
  Si  Si30  1  0.842805  0.536130  0.036640  1
  Si  Si31  1  0.657141  0.034575  0.540012  1
  Si  Si32  1  0.155653  0.465461  0.952398  1
  Si  Si33  1  0.657675  0.034853  0.959969  1
  Si  Si34  1  0.345749  0.964850  0.036780  1
  Tc  Tc35  1  0.150778  0.495571  0.749606  1
