# generated using pymatgen
data_Ho10GaBi3Pt2
_symmetry_space_group_name_H-M   'P 1'
_cell_length_a   7.99501400
_cell_length_b   8.99497591
_cell_length_c   12.32003300
_cell_angle_alpha   90.00000000
_cell_angle_beta   90.00000000
_cell_angle_gamma   90.07597844
_symmetry_Int_Tables_number   1
_chemical_formula_structural   Ho10GaBi3Pt2
_chemical_formula_sum   'Ho20 Ga2 Bi6 Pt4'
_cell_volume   885.99388069
_cell_formula_units_Z   2
loop_
 _symmetry_equiv_pos_site_id
 _symmetry_equiv_pos_as_xyz
  1  'x, y, z'
loop_
 _atom_site_type_symbol
 _atom_site_label
 _atom_site_symmetry_multiplicity
 _atom_site_fract_x
 _atom_site_fract_y
 _atom_site_fract_z
 _atom_site_occupancy
  Ho  Ho0  1  0.158864  0.739327  0.212963  1
  Ho  Ho1  1  0.341136  0.760673  0.712963  1
  Ho  Ho2  1  0.827812  0.239227  0.788212  1
  Ho  Ho3  1  0.672188  0.260773  0.288212  1
  Ho  Ho4  1  0.458402  0.761396  0.994598  1
  Ho  Ho5  1  0.041598  0.738604  0.494598  1
  Ho  Ho6  1  0.547297  0.237714  0.993255  1
  Ho  Ho7  1  0.952703  0.262286  0.493255  1
  Ho  Ho8  1  0.639779  0.740755  0.302957  1
  Ho  Ho9  1  0.860221  0.759245  0.802957  1
  Ho  Ho10  1  0.381027  0.239354  0.703615  1
  Ho  Ho11  1  0.118973  0.260646  0.203615  1
  Ho  Ho12  1  0.824776  0.541147  0.075075  1
  Ho  Ho13  1  0.675224  0.958853  0.575075  1
  Ho  Ho14  1  0.184548  0.042563  0.932257  1
  Ho  Ho15  1  0.315452  0.457437  0.432257  1
  Ho  Ho16  1  0.178299  0.457087  0.933368  1
  Ho  Ho17  1  0.321701  0.042913  0.433368  1
  Ho  Ho18  1  0.819001  0.956401  0.063608  1
  Ho  Ho19  1  0.680999  0.543599  0.563608  1
  Ga  Ga20  1  0.934350  0.507135  0.328623  1
  Ga  Ga21  1  0.565650  0.992865  0.828623  1
  Bi  Bi22  1  0.068186  0.010230  0.667578  1
  Bi  Bi23  1  0.431814  0.489770  0.167578  1
  Bi  Bi24  1  0.070507  0.490114  0.676463  1
  Bi  Bi25  1  0.429493  0.009886  0.176463  1
  Bi  Bi26  1  0.931299  0.990101  0.328044  1
  Bi  Bi27  1  0.568701  0.509899  0.828044  1
  Pt  Pt28  1  0.428307  0.749248  0.488518  1
  Pt  Pt29  1  0.071693  0.750752  0.988518  1
  Pt  Pt30  1  0.573417  0.250354  0.510869  1
  Pt  Pt31  1  0.926583  0.249646  0.010869  1
