# generated using pymatgen
data_Tb2Dy4BCCl6
_symmetry_space_group_name_H-M   'P 1'
_cell_length_a   9.33884959
_cell_length_b   9.33884529
_cell_length_c   9.41262803
_cell_angle_alpha   109.47439169
_cell_angle_beta   109.47457275
_cell_angle_gamma   109.14496631
_symmetry_Int_Tables_number   1
_chemical_formula_structural   Tb2Dy4BCCl6
_chemical_formula_sum   'Tb4 Dy8 B2 C2 Cl12'
_cell_volume   634.41567237
_cell_formula_units_Z   2
loop_
 _symmetry_equiv_pos_site_id
 _symmetry_equiv_pos_as_xyz
  1  'x, y, z'
loop_
 _atom_site_type_symbol
 _atom_site_label
 _atom_site_symmetry_multiplicity
 _atom_site_fract_x
 _atom_site_fract_y
 _atom_site_fract_z
 _atom_site_occupancy
  Tb  Tb0  1  0.481360  0.231359  0.462719  1
  Tb  Tb1  1  0.014055  0.485945  0.750000  1
  Tb  Tb2  1  0.268641  0.018640  0.037282  1
  Tb  Tb3  1  0.235946  0.264055  0.750000  1
  Dy  Dy4  1  0.466932  0.479068  0.235735  1
  Dy  Dy5  1  0.743332  0.231196  0.264265  1
  Dy  Dy6  1  0.744341  0.014885  0.478985  1
  Dy  Dy7  1  0.234644  0.464100  0.478985  1
  Dy  Dy8  1  0.268804  0.756670  0.235737  1
  Dy  Dy9  1  0.035900  0.265355  0.021014  1
  Dy  Dy10  1  0.020933  0.033068  0.264263  1
  Dy  Dy11  1  0.485114  0.755659  0.021016  1
  B  B12  1  0.998945  0.248945  0.497891  1
  B  B13  1  0.251054  0.501054  0.002109  1
  C  C14  1  0.249187  0.250813  0.249999  1
  C  C15  1  0.500813  0.999188  0.250001  1
  Cl  Cl16  1  0.252724  0.758625  0.746327  1
  Cl  Cl17  1  0.512299  0.506399  0.753673  1
  Cl  Cl18  1  0.988430  0.746446  0.995364  1
  Cl  Cl19  1  0.741373  0.247275  0.753673  1
  Cl  Cl20  1  0.993601  0.987700  0.746326  1
  Cl  Cl21  1  0.251081  0.993064  0.504635  1
  Cl  Cl22  1  0.753555  0.511573  0.504635  1
  Cl  Cl23  1  0.506937  0.248920  0.995367  1
  Cl  Cl24  1  0.755007  0.744991  0.250000  1
  Cl  Cl25  1  0.744439  0.994440  0.988882  1
  Cl  Cl26  1  0.994993  0.505008  0.250001  1
  Cl  Cl27  1  0.505560  0.755558  0.511118  1
