# generated using pymatgen
data_Dy4Ho8Co4CuBi
_symmetry_space_group_name_H-M   'P 1'
_cell_length_a   8.36084052
_cell_length_b   8.36077712
_cell_length_c   8.36084144
_cell_angle_alpha   111.22190661
_cell_angle_beta   109.82061852
_cell_angle_gamma   107.39439528
_symmetry_Int_Tables_number   1
_chemical_formula_structural   Dy4Ho8Co4CuBi
_chemical_formula_sum   'Dy4 Ho8 Co4 Cu1 Bi1'
_cell_volume   449.39606287
_cell_formula_units_Z   1
loop_
 _symmetry_equiv_pos_site_id
 _symmetry_equiv_pos_as_xyz
  1  'x, y, z'
loop_
 _atom_site_type_symbol
 _atom_site_label
 _atom_site_symmetry_multiplicity
 _atom_site_fract_x
 _atom_site_fract_y
 _atom_site_fract_z
 _atom_site_occupancy
  Dy  Dy0  1  0.816784  0.710319  0.527102  1
  Dy  Dy1  1  0.183216  0.289681  0.472898  1
  Dy  Dy2  1  0.183218  0.710319  0.893535  1
  Dy  Dy3  1  0.816782  0.289681  0.106465  1
  Ho  Ho4  1  0.686836  0.377357  0.690522  1
  Ho  Ho5  1  0.313164  0.622643  0.309478  1
  Ho  Ho6  1  0.686834  0.996312  0.309478  1
  Ho  Ho7  1  0.313166  0.003688  0.690522  1
  Ho  Ho8  1  0.588437  0.789650  0.798785  1
  Ho  Ho9  1  0.411563  0.210350  0.201215  1
  Ho  Ho10  1  0.990865  0.789650  0.201213  1
  Ho  Ho11  1  0.009135  0.210350  0.798787  1
  Co  Co12  1  0.622611  0.000000  0.622611  1
  Co  Co13  1  0.377389  0.000000  0.377389  1
  Co  Co14  1  0.112435  0.612434  0.499999  1
  Co  Co15  1  0.887565  0.387566  0.500001  1
  Cu  Cu16  1  0.000000  0.000000  0.000000  1
  Bi  Bi17  1  0.500000  0.500000  0.000000  1
