# generated using pymatgen
data_La12Os(PdI4)3
_symmetry_space_group_name_H-M   'P 1'
_cell_length_a   11.14753722
_cell_length_b   11.00204706
_cell_length_c   11.00204685
_cell_angle_alpha   109.20179526
_cell_angle_beta   109.73933448
_cell_angle_gamma   109.73931551
_symmetry_Int_Tables_number   1
_chemical_formula_structural   La12Os(PdI4)3
_chemical_formula_sum   'La12 Os1 Pd3 I12'
_cell_volume   1035.27640270
_cell_formula_units_Z   1
loop_
 _symmetry_equiv_pos_site_id
 _symmetry_equiv_pos_as_xyz
  1  'x, y, z'
loop_
 _atom_site_type_symbol
 _atom_site_label
 _atom_site_symmetry_multiplicity
 _atom_site_fract_x
 _atom_site_fract_y
 _atom_site_fract_z
 _atom_site_occupancy
  La  La0  1  0.460616  0.486803  0.224988  1
  La  La1  1  0.750000  0.232519  0.267481  1
  La  La2  1  0.750000  0.018484  0.481516  1
  La  La3  1  0.231516  0.463031  0.481516  1
  La  La4  1  0.264370  0.738185  0.224988  1
  La  La5  1  0.039384  0.275012  0.013197  1
  La  La6  1  0.017481  0.034963  0.267481  1
  La  La7  1  0.473815  0.738185  0.013197  1
  La  La8  1  0.482519  0.232519  0.465037  1
  La  La9  1  0.026185  0.486803  0.761815  1
  La  La10  1  0.268484  0.018484  0.036969  1
  La  La11  1  0.235630  0.275012  0.761815  1
  Os  Os12  1  0.250000  0.500000  0.000000  1
  Pd  Pd13  1  0.250000  0.248972  0.251028  1
  Pd  Pd14  1  0.501028  0.002056  0.251028  1
  Pd  Pd15  1  0.998972  0.248972  0.497944  1
  I  I16  1  0.250000  0.759977  0.740023  1
  I  I17  1  0.519522  0.509408  0.758793  1
  I  I18  1  0.980478  0.741207  0.990592  1
  I  I19  1  0.739270  0.249385  0.758793  1
  I  I20  1  0.990023  0.980048  0.740023  1
  I  I21  1  0.250000  0.991541  0.508459  1
  I  I22  1  0.758459  0.516917  0.508459  1
  I  I23  1  0.510114  0.249385  0.990592  1
  I  I24  1  0.760730  0.741207  0.250615  1
  I  I25  1  0.741541  0.991541  0.983083  1
  I  I26  1  0.989886  0.509408  0.250615  1
  I  I27  1  0.509977  0.759977  0.519952  1
