# generated using pymatgen
data_La2NdAlPt3Au2
_symmetry_space_group_name_H-M   'P 1'
_cell_length_a   7.73707917
_cell_length_b   7.47504009
_cell_length_c   3.99518300
_cell_angle_alpha   90.00000000
_cell_angle_beta   90.00000000
_cell_angle_gamma   119.02204018
_symmetry_Int_Tables_number   1
_chemical_formula_structural   La2NdAlPt3Au2
_chemical_formula_sum   'La2 Nd1 Al1 Pt3 Au2'
_cell_volume   202.04767476
_cell_formula_units_Z   1
loop_
 _symmetry_equiv_pos_site_id
 _symmetry_equiv_pos_as_xyz
  1  'x, y, z'
loop_
 _atom_site_type_symbol
 _atom_site_label
 _atom_site_symmetry_multiplicity
 _atom_site_fract_x
 _atom_site_fract_y
 _atom_site_fract_z
 _atom_site_occupancy
  La  La0  1  0.592064  0.988296  0.500000  1
  La  La1  1  0.998675  0.616045  0.500000  1
  Nd  Nd2  1  0.406748  0.395353  0.500000  1
  Al  Al3  1  0.004150  0.252456  0.000000  1
  Pt  Pt4  1  0.698559  0.325449  0.000000  1
  Pt  Pt5  1  0.304082  0.632572  0.000000  1
  Pt  Pt6  1  0.999821  0.046552  0.500000  1
  Au  Au7  1  0.732807  0.736074  0.000000  1
  Au  Au8  1  0.263092  0.007204  0.000000  1
