# generated using pymatgen
data_Ho4HfIr2Rh
_symmetry_space_group_name_H-M   'P 1'
_cell_length_a   10.79120600
_cell_length_b   10.79120600
_cell_length_c   6.23698200
_cell_angle_alpha   90.00000000
_cell_angle_beta   90.00000000
_cell_angle_gamma   90.00000000
_symmetry_Int_Tables_number   1
_chemical_formula_structural   Ho4HfIr2Rh
_chemical_formula_sum   'Ho16 Hf4 Ir8 Rh4'
_cell_volume   726.29734559
_cell_formula_units_Z   4
loop_
 _symmetry_equiv_pos_site_id
 _symmetry_equiv_pos_as_xyz
  1  'x, y, z'
loop_
 _atom_site_type_symbol
 _atom_site_label
 _atom_site_symmetry_multiplicity
 _atom_site_fract_x
 _atom_site_fract_y
 _atom_site_fract_z
 _atom_site_occupancy
  Ho  Ho0  1  0.288612  0.086467  0.375296  1
  Ho  Ho1  1  0.288612  0.913533  0.875296  1
  Ho  Ho2  1  0.711388  0.086467  0.875296  1
  Ho  Ho3  1  0.711388  0.913533  0.375296  1
  Ho  Ho4  1  0.586467  0.788612  0.875296  1
  Ho  Ho5  1  0.586467  0.211388  0.375296  1
  Ho  Ho6  1  0.413533  0.788612  0.375296  1
  Ho  Ho7  1  0.413533  0.211388  0.875296  1
  Ho  Ho8  1  0.211388  0.413533  0.624704  1
  Ho  Ho9  1  0.211388  0.586467  0.124704  1
  Ho  Ho10  1  0.788612  0.413533  0.124704  1
  Ho  Ho11  1  0.788612  0.586467  0.624704  1
  Ho  Ho12  1  0.913533  0.711388  0.124704  1
  Ho  Ho13  1  0.913533  0.288612  0.624704  1
  Ho  Ho14  1  0.086467  0.711388  0.624704  1
  Ho  Ho15  1  0.086467  0.288612  0.124704  1
  Hf  Hf16  1  0.000000  0.000000  0.500000  1
  Hf  Hf17  1  0.000000  0.000000  0.000000  1
  Hf  Hf18  1  0.500000  0.500000  0.000000  1
  Hf  Hf19  1  0.500000  0.500000  0.500000  1
  Ir  Ir20  1  0.856015  0.143985  0.250000  1
  Ir  Ir21  1  0.856015  0.856015  0.750000  1
  Ir  Ir22  1  0.143985  0.143985  0.750000  1
  Ir  Ir23  1  0.143985  0.856015  0.250000  1
  Ir  Ir24  1  0.643985  0.356015  0.750000  1
  Ir  Ir25  1  0.643985  0.643985  0.250000  1
  Ir  Ir26  1  0.356015  0.356015  0.250000  1
  Ir  Ir27  1  0.356015  0.643985  0.750000  1
  Rh  Rh28  1  0.500000  0.000000  0.122481  1
  Rh  Rh29  1  0.500000  0.000000  0.622481  1
  Rh  Rh30  1  0.000000  0.500000  0.877519  1
  Rh  Rh31  1  0.000000  0.500000  0.377519  1
