# generated using pymatgen
data_Tb3Nd16HoPb16
_symmetry_space_group_name_H-M   'P 1'
_cell_length_a   8.37726513
_cell_length_b   16.17885503
_cell_length_c   8.48691805
_cell_angle_alpha   90.00009290
_cell_angle_beta   90.00281404
_cell_angle_gamma   89.99301322
_symmetry_Int_Tables_number   1
_chemical_formula_structural   Tb3Nd16HoPb16
_chemical_formula_sum   'Tb3 Nd16 Ho1 Pb16'
_cell_volume   1150.27067760
_cell_formula_units_Z   1
loop_
 _symmetry_equiv_pos_site_id
 _symmetry_equiv_pos_as_xyz
  1  'x, y, z'
loop_
 _atom_site_type_symbol
 _atom_site_label
 _atom_site_symmetry_multiplicity
 _atom_site_fract_x
 _atom_site_fract_y
 _atom_site_fract_z
 _atom_site_occupancy
  Tb  Tb0  1  0.790553  0.749990  0.497329  1
  Tb  Tb1  1  0.290657  0.749989  0.002716  1
  Tb  Tb2  1  0.209366  0.250012  0.502616  1
  Nd  Nd3  1  0.622381  0.619315  0.159073  1
  Nd  Nd4  1  0.122394  0.880574  0.340948  1
  Nd  Nd5  1  0.377839  0.119549  0.841123  1
  Nd  Nd6  1  0.877423  0.380498  0.659185  1
  Nd  Nd7  1  0.377846  0.380470  0.841129  1
  Nd  Nd8  1  0.877413  0.119517  0.659186  1
  Nd  Nd9  1  0.622387  0.880670  0.159078  1
  Nd  Nd10  1  0.122386  0.619413  0.340950  1
  Nd  Nd11  1  0.467137  0.600705  0.677530  1
  Nd  Nd12  1  0.967150  0.899374  0.822476  1
  Nd  Nd13  1  0.532963  0.100707  0.322218  1
  Nd  Nd14  1  0.032741  0.399270  0.177361  1
  Nd  Nd15  1  0.532963  0.399308  0.322217  1
  Nd  Nd16  1  0.032736  0.100743  0.177364  1
  Nd  Nd17  1  0.467143  0.899280  0.677524  1
  Nd  Nd18  1  0.967146  0.600609  0.822472  1
  Ho  Ho19  1  0.709644  0.250006  0.997085  1
  Pb  Pb20  1  0.718687  0.455259  0.968192  1
  Pb  Pb21  1  0.218598  0.044420  0.532000  1
  Pb  Pb22  1  0.281337  0.955642  0.032002  1
  Pb  Pb23  1  0.781373  0.544334  0.468053  1
  Pb  Pb24  1  0.281352  0.544350  0.031993  1
  Pb  Pb25  1  0.781356  0.955661  0.468047  1
  Pb  Pb26  1  0.718691  0.044742  0.968189  1
  Pb  Pb27  1  0.218590  0.455574  0.531998  1
  Pb  Pb28  1  0.427633  0.750002  0.374353  1
  Pb  Pb29  1  0.927550  0.750001  0.125544  1
  Pb  Pb30  1  0.572505  0.250002  0.625946  1
  Pb  Pb31  1  0.071678  0.250003  0.874924  1
  Pb  Pb32  1  0.655813  0.750004  0.847951  1
  Pb  Pb33  1  0.155903  0.750003  0.652132  1
  Pb  Pb34  1  0.344575  0.250002  0.152075  1
  Pb  Pb35  1  0.844091  0.250003  0.347018  1
