# generated using pymatgen
data_Yb7Eu5(DySn2)8
_symmetry_space_group_name_H-M   'P 1'
_cell_length_a   7.85572900
_cell_length_b   8.45652311
_cell_length_c   16.08231200
_cell_angle_alpha   90.00845562
_cell_angle_beta   90.00087522
_cell_angle_gamma   90.00379406
_symmetry_Int_Tables_number   1
_chemical_formula_structural   Yb7Eu5(DySn2)8
_chemical_formula_sum   'Yb7 Eu5 Dy8 Sn16'
_cell_volume   1068.38261090
_cell_formula_units_Z   1
loop_
 _symmetry_equiv_pos_site_id
 _symmetry_equiv_pos_as_xyz
  1  'x, y, z'
loop_
 _atom_site_type_symbol
 _atom_site_label
 _atom_site_symmetry_multiplicity
 _atom_site_fract_x
 _atom_site_fract_y
 _atom_site_fract_z
 _atom_site_occupancy
  Yb  Yb0  1  0.993483  0.187219  0.092933  1
  Yb  Yb1  1  0.505528  0.686705  0.906650  1
  Yb  Yb2  1  0.005525  0.813270  0.593802  1
  Yb  Yb3  1  0.837444  0.510072  0.751167  1
  Yb  Yb4  1  0.337698  0.989375  0.750064  1
  Yb  Yb5  1  0.163527  0.489955  0.249573  1
  Yb  Yb6  1  0.662908  0.010674  0.249168  1
  Eu  Eu7  1  0.505118  0.682064  0.593859  1
  Eu  Eu8  1  0.005674  0.815841  0.907297  1
  Eu  Eu9  1  0.494493  0.314559  0.093564  1
  Eu  Eu10  1  0.994429  0.183514  0.407059  1
  Eu  Eu11  1  0.494078  0.317016  0.406174  1
  Dy  Dy12  1  0.673797  0.166957  0.622251  1
  Dy  Dy13  1  0.173325  0.332419  0.877987  1
  Dy  Dy14  1  0.326387  0.832234  0.121940  1
  Dy  Dy15  1  0.827257  0.668010  0.377461  1
  Dy  Dy16  1  0.325846  0.833381  0.377293  1
  Dy  Dy17  1  0.826285  0.666705  0.121686  1
  Dy  Dy18  1  0.674037  0.165835  0.877624  1
  Dy  Dy19  1  0.173657  0.333654  0.622906  1
  Sn  Sn20  1  0.667596  0.961514  0.459764  1
  Sn  Sn21  1  0.170016  0.535803  0.040562  1
  Sn  Sn22  1  0.332482  0.038286  0.960375  1
  Sn  Sn23  1  0.831756  0.463123  0.540918  1
  Sn  Sn24  1  0.328541  0.036037  0.541119  1
  Sn  Sn25  1  0.827545  0.462196  0.959643  1
  Sn  Sn26  1  0.670629  0.965047  0.041518  1
  Sn  Sn27  1  0.168743  0.539976  0.459584  1
  Sn  Sn28  1  0.471852  0.374433  0.750233  1
  Sn  Sn29  1  0.973808  0.125182  0.750127  1
  Sn  Sn30  1  0.529245  0.625520  0.249558  1
  Sn  Sn31  1  0.026956  0.874078  0.249405  1
  Sn  Sn32  1  0.718620  0.872465  0.749920  1
  Sn  Sn33  1  0.218475  0.626112  0.750675  1
  Sn  Sn34  1  0.280443  0.126712  0.247875  1
  Sn  Sn35  1  0.782795  0.374054  0.248262  1
