# generated using pymatgen
data_Zr6SiSe2
_symmetry_space_group_name_H-M   'P 1'
_cell_length_a   3.70304700
_cell_length_b   12.67329600
_cell_length_c   15.69464600
_cell_angle_alpha   90.00000000
_cell_angle_beta   90.00000000
_cell_angle_gamma   90.00000000
_symmetry_Int_Tables_number   1
_chemical_formula_structural   Zr6SiSe2
_chemical_formula_sum   'Zr24 Si4 Se8'
_cell_volume   736.54676630
_cell_formula_units_Z   4
loop_
 _symmetry_equiv_pos_site_id
 _symmetry_equiv_pos_as_xyz
  1  'x, y, z'
loop_
 _atom_site_type_symbol
 _atom_site_label
 _atom_site_symmetry_multiplicity
 _atom_site_fract_x
 _atom_site_fract_y
 _atom_site_fract_z
 _atom_site_occupancy
  Zr  Zr0  1  0.000000  0.030576  0.108324  1
  Zr  Zr1  1  0.000000  0.969424  0.891676  1
  Zr  Zr2  1  0.500000  0.469424  0.608324  1
  Zr  Zr3  1  0.500000  0.530576  0.391676  1
  Zr  Zr4  1  0.000000  0.408535  0.242663  1
  Zr  Zr5  1  0.000000  0.591465  0.757337  1
  Zr  Zr6  1  0.500000  0.091465  0.742663  1
  Zr  Zr7  1  0.500000  0.908535  0.257337  1
  Zr  Zr8  1  0.000000  0.085696  0.576442  1
  Zr  Zr9  1  0.000000  0.914304  0.423558  1
  Zr  Zr10  1  0.500000  0.414304  0.076442  1
  Zr  Zr11  1  0.500000  0.585696  0.923558  1
  Zr  Zr12  1  0.000000  0.344750  0.482014  1
  Zr  Zr13  1  0.000000  0.655250  0.517986  1
  Zr  Zr14  1  0.500000  0.155250  0.982014  1
  Zr  Zr15  1  0.500000  0.844750  0.017986  1
  Zr  Zr16  1  0.000000  0.693489  0.294902  1
  Zr  Zr17  1  0.000000  0.306511  0.705098  1
  Zr  Zr18  1  0.500000  0.806511  0.794902  1
  Zr  Zr19  1  0.500000  0.193489  0.205098  1
  Zr  Zr20  1  0.000000  0.619499  0.077592  1
  Zr  Zr21  1  0.000000  0.380501  0.922408  1
  Zr  Zr22  1  0.500000  0.880501  0.577592  1
  Zr  Zr23  1  0.500000  0.119499  0.422408  1
  Si  Si24  1  0.000000  0.256920  0.087680  1
  Si  Si25  1  0.000000  0.743080  0.912320  1
  Si  Si26  1  0.500000  0.243080  0.587680  1
  Si  Si27  1  0.500000  0.756920  0.412320  1
  Se  Se28  1  0.000000  0.067358  0.291742  1
  Se  Se29  1  0.000000  0.932642  0.708258  1
  Se  Se30  1  0.500000  0.432642  0.791742  1
  Se  Se31  1  0.500000  0.567358  0.208258  1
  Se  Se32  1  0.000000  0.814528  0.150027  1
  Se  Se33  1  0.000000  0.185472  0.849973  1
  Se  Se34  1  0.500000  0.685472  0.650027  1
  Se  Se35  1  0.500000  0.314528  0.349973  1
