# generated using pymatgen
data_Sc4ZnSi6Ir5Rh
_symmetry_space_group_name_H-M   'P 1'
_cell_length_a   6.97645746
_cell_length_b   6.98323527
_cell_length_c   6.98323614
_cell_angle_alpha   109.72499212
_cell_angle_beta   109.53391841
_cell_angle_gamma   109.19431350
_symmetry_Int_Tables_number   1
_chemical_formula_structural   Sc4ZnSi6Ir5Rh
_chemical_formula_sum   'Sc4 Zn1 Si6 Ir5 Rh1'
_cell_volume   261.76228529
_cell_formula_units_Z   1
loop_
 _symmetry_equiv_pos_site_id
 _symmetry_equiv_pos_as_xyz
  1  'x, y, z'
loop_
 _atom_site_type_symbol
 _atom_site_label
 _atom_site_symmetry_multiplicity
 _atom_site_fract_x
 _atom_site_fract_y
 _atom_site_fract_z
 _atom_site_occupancy
  Sc  Sc0  1  0.003382  0.997131  0.500319  1
  Sc  Sc1  1  0.003382  0.503063  0.006251  1
  Sc  Sc2  1  0.496466  0.996234  0.993148  1
  Sc  Sc3  1  0.496466  0.503318  0.500232  1
  Zn  Zn4  1  0.750085  0.250442  0.499643  1
  Si  Si5  1  0.679129  0.679529  0.999601  1
  Si  Si6  1  0.303750  0.991522  0.312228  1
  Si  Si7  1  0.007978  0.320968  0.312331  1
  Si  Si8  1  0.321032  0.321006  0.000026  1
  Si  Si9  1  0.679620  0.991670  0.687951  1
  Si  Si10  1  0.007978  0.695647  0.687012  1
  Ir  Ir11  1  0.509114  0.253524  0.745754  1
  Ir  Ir12  1  0.235833  0.491570  0.744263  1
  Ir  Ir13  1  0.249403  0.749838  0.499564  1
  Ir  Ir14  1  0.509114  0.763360  0.255590  1
  Ir  Ir15  1  0.000192  0.000017  0.000174  1
  Rh  Rh16  1  0.747073  0.491160  0.255913  1
