# generated using pymatgen
data_CeHfZrF11
_symmetry_space_group_name_H-M   'P 1'
_cell_length_a   8.53674666
_cell_length_b   8.53674608
_cell_length_c   8.52843616
_cell_angle_alpha   125.18136667
_cell_angle_beta   106.73334511
_cell_angle_gamma   97.86023164
_symmetry_Int_Tables_number   1
_chemical_formula_structural   CeHfZrF11
_chemical_formula_sum   'Ce2 Hf2 Zr2 F22'
_cell_volume   448.64005480
_cell_formula_units_Z   2
loop_
 _symmetry_equiv_pos_site_id
 _symmetry_equiv_pos_as_xyz
  1  'x, y, z'
loop_
 _atom_site_type_symbol
 _atom_site_label
 _atom_site_symmetry_multiplicity
 _atom_site_fract_x
 _atom_site_fract_y
 _atom_site_fract_z
 _atom_site_occupancy
  Ce  Ce0  1  0.749342  0.249342  0.500000  1
  Ce  Ce1  1  0.250658  0.750658  0.500000  1
  Hf  Hf2  1  0.180077  0.866197  0.046275  1
  Hf  Hf3  1  0.819923  0.133803  0.953725  1
  Zr  Zr4  1  0.681483  0.633620  0.315103  1
  Zr  Zr5  1  0.318517  0.366380  0.684897  1
  F  F6  1  0.705497  0.893669  0.340812  1
  F  F7  1  0.294503  0.106331  0.659188  1
  F  F8  1  0.552857  0.364684  0.659188  1
  F  F9  1  0.949854  0.609318  0.814427  1
  F  F10  1  0.447143  0.635316  0.340812  1
  F  F11  1  0.050146  0.390682  0.185573  1
  F  F12  1  0.794892  0.135428  0.185573  1
  F  F13  1  0.205108  0.864572  0.814427  1
  F  F14  1  0.500000  0.500000  0.000000  1
  F  F15  1  0.000000  0.000000  0.000000  1
  F  F16  1  0.781180  0.872633  0.653813  1
  F  F17  1  0.218820  0.127367  0.346187  1
  F  F18  1  0.279270  0.631709  0.910980  1
  F  F19  1  0.720730  0.368291  0.089020  1
  F  F20  1  0.951624  0.739040  0.417619  1
  F  F21  1  0.048376  0.260960  0.582381  1
  F  F22  1  0.321420  0.534005  0.582381  1
  F  F23  1  0.178828  0.763400  0.210832  1
  F  F24  1  0.678580  0.465995  0.417619  1
  F  F25  1  0.821172  0.236600  0.789168  1
  F  F26  1  0.552568  0.967996  0.789168  1
  F  F27  1  0.447432  0.032004  0.210832  1
