# generated using pymatgen
data_ErGeSbO6
_symmetry_space_group_name_H-M   'P 1'
_cell_length_a   5.12547665
_cell_length_b   5.12550998
_cell_length_c   4.88331100
_cell_angle_alpha   90.02207955
_cell_angle_beta   90.02248202
_cell_angle_gamma   119.96786460
_symmetry_Int_Tables_number   1
_chemical_formula_structural   ErGeSbO6
_chemical_formula_sum   'Er1 Ge1 Sb1 O6'
_cell_volume   111.13651367
_cell_formula_units_Z   1
loop_
 _symmetry_equiv_pos_site_id
 _symmetry_equiv_pos_as_xyz
  1  'x, y, z'
loop_
 _atom_site_type_symbol
 _atom_site_label
 _atom_site_symmetry_multiplicity
 _atom_site_fract_x
 _atom_site_fract_y
 _atom_site_fract_z
 _atom_site_occupancy
  Er  Er0  1  0.517488  0.482501  0.500024  1
  Ge  Ge1  1  0.850709  0.149301  0.000001  1
  Sb  Sb2  1  0.184174  0.815835  0.000001  1
  O  O3  1  0.151188  0.127997  0.221215  1
  O  O4  1  0.529275  0.849712  0.221760  1
  O  O5  1  0.872926  0.471344  0.221678  1
  O  O6  1  0.528660  0.127082  0.778322  1
  O  O7  1  0.150290  0.470725  0.778239  1
  O  O8  1  0.872004  0.848813  0.778788  1
