# generated using pymatgen
data_SrZrSi7Ir12
_symmetry_space_group_name_H-M   'P 1'
_cell_length_a   9.78069800
_cell_length_b   9.78069769
_cell_length_c   3.88459800
_cell_angle_alpha   90.00000000
_cell_angle_beta   90.00000000
_cell_angle_gamma   120.00000195
_symmetry_Int_Tables_number   1
_chemical_formula_structural   SrZrSi7Ir12
_chemical_formula_sum   'Sr1 Zr1 Si7 Ir12'
_cell_volume   321.82248969
_cell_formula_units_Z   1
loop_
 _symmetry_equiv_pos_site_id
 _symmetry_equiv_pos_as_xyz
  1  'x, y, z'
loop_
 _atom_site_type_symbol
 _atom_site_label
 _atom_site_symmetry_multiplicity
 _atom_site_fract_x
 _atom_site_fract_y
 _atom_site_fract_z
 _atom_site_occupancy
  Sr  Sr0  1  0.666667  0.333333  0.250512  1
  Zr  Zr1  1  0.333333  0.666667  0.750845  1
  Si  Si2  1  0.000000  0.000000  0.510322  1
  Si  Si3  1  0.293286  0.887295  0.247831  1
  Si  Si4  1  0.594008  0.706714  0.247831  1
  Si  Si5  1  0.112705  0.405992  0.247831  1
  Si  Si6  1  0.712921  0.116549  0.750912  1
  Si  Si7  1  0.403628  0.287079  0.750912  1
  Si  Si8  1  0.883451  0.596372  0.750912  1
  Ir  Ir9  1  0.261423  0.117825  0.252789  1
  Ir  Ir10  1  0.856404  0.738577  0.252789  1
  Ir  Ir11  1  0.882175  0.143596  0.252789  1
  Ir  Ir12  1  0.738600  0.884594  0.745067  1
  Ir  Ir13  1  0.145993  0.261400  0.745067  1
  Ir  Ir14  1  0.115406  0.854007  0.745067  1
  Ir  Ir15  1  0.072921  0.625839  0.248705  1
  Ir  Ir16  1  0.552919  0.927079  0.248705  1
  Ir  Ir17  1  0.374161  0.447081  0.248705  1
  Ir  Ir18  1  0.948296  0.388147  0.750803  1
  Ir  Ir19  1  0.439850  0.051704  0.750803  1
  Ir  Ir20  1  0.611853  0.560150  0.750803  1
