# generated using pymatgen
data_Sc3Ti(GeRh5)2
_symmetry_space_group_name_H-M   'P 1'
_cell_length_a   4.07458500
_cell_length_b   5.48684789
_cell_length_c   10.77813366
_cell_angle_alpha   90.15323087
_cell_angle_beta   90.00000000
_cell_angle_gamma   90.00000000
_symmetry_Int_Tables_number   1
_chemical_formula_structural   Sc3Ti(GeRh5)2
_chemical_formula_sum   'Sc3 Ti1 Ge2 Rh10'
_cell_volume   240.96186438
_cell_formula_units_Z   1
loop_
 _symmetry_equiv_pos_site_id
 _symmetry_equiv_pos_as_xyz
  1  'x, y, z'
loop_
 _atom_site_type_symbol
 _atom_site_label
 _atom_site_symmetry_multiplicity
 _atom_site_fract_x
 _atom_site_fract_y
 _atom_site_fract_z
 _atom_site_occupancy
  Sc  Sc0  1  0.500000  0.321079  0.140302  1
  Sc  Sc1  1  0.500000  0.676803  0.860917  1
  Sc  Sc2  1  0.500000  0.821725  0.360326  1
  Ti  Ti3  1  0.500000  0.171505  0.642243  1
  Ge  Ge4  1  0.000000  0.001728  0.999148  1
  Ge  Ge5  1  0.000000  0.502723  0.500659  1
  Rh  Rh6  1  0.000000  0.011410  0.505474  1
  Rh  Rh7  1  0.000000  0.498682  0.998330  1
  Rh  Rh8  1  0.000000  0.069183  0.247772  1
  Rh  Rh9  1  0.000000  0.930835  0.751036  1
  Rh  Rh10  1  0.000000  0.568467  0.255171  1
  Rh  Rh11  1  0.000000  0.421427  0.739455  1
  Rh  Rh12  1  0.500000  0.315669  0.398681  1
  Rh  Rh13  1  0.500000  0.688791  0.607830  1
  Rh  Rh14  1  0.500000  0.816759  0.106813  1
  Rh  Rh15  1  0.500000  0.183215  0.885845  1
