# generated using pymatgen
data_Tm7Lu9(Ga3Os)2
_symmetry_space_group_name_H-M   'P 1'
_cell_length_a   9.84141618
_cell_length_b   9.84141639
_cell_length_c   6.93896016
_cell_angle_alpha   90.02113792
_cell_angle_beta   89.97886010
_cell_angle_gamma   119.99434749
_symmetry_Int_Tables_number   1
_chemical_formula_structural   Tm7Lu9(Ga3Os)2
_chemical_formula_sum   'Tm7 Lu9 Ga6 Os2'
_cell_volume   582.05620757
_cell_formula_units_Z   1
loop_
 _symmetry_equiv_pos_site_id
 _symmetry_equiv_pos_as_xyz
  1  'x, y, z'
loop_
 _atom_site_type_symbol
 _atom_site_label
 _atom_site_symmetry_multiplicity
 _atom_site_fract_x
 _atom_site_fract_y
 _atom_site_fract_z
 _atom_site_occupancy
  Tm  Tm0  1  0.933953  0.466984  0.793852  1
  Tm  Tm1  1  0.533016  0.066047  0.793852  1
  Tm  Tm2  1  0.466974  0.933824  0.293852  1
  Tm  Tm3  1  0.066176  0.533026  0.293852  1
  Tm  Tm4  1  0.533008  0.466992  0.793901  1
  Tm  Tm5  1  0.000002  0.999998  0.264466  1
  Tm  Tm6  1  0.999987  0.000013  0.764518  1
  Lu  Lu7  1  0.171743  0.828257  0.990408  1
  Lu  Lu8  1  0.343656  0.171965  0.490200  1
  Lu  Lu9  1  0.828035  0.656344  0.490200  1
  Lu  Lu10  1  0.171988  0.343774  0.990520  1
  Lu  Lu11  1  0.656226  0.828012  0.990520  1
  Lu  Lu12  1  0.828222  0.171778  0.490381  1
  Lu  Lu13  1  0.333444  0.666556  0.658805  1
  Lu  Lu14  1  0.666575  0.333425  0.159003  1
  Lu  Lu15  1  0.466756  0.533244  0.293840  1
  Ga  Ga16  1  0.163925  0.836075  0.543683  1
  Ga  Ga17  1  0.327867  0.163949  0.043718  1
  Ga  Ga18  1  0.836051  0.672133  0.043718  1
  Ga  Ga19  1  0.164060  0.327945  0.543622  1
  Ga  Ga20  1  0.672055  0.835940  0.543622  1
  Ga  Ga21  1  0.836094  0.163906  0.043751  1
  Os  Os22  1  0.333519  0.666481  0.055019  1
  Os  Os23  1  0.666669  0.333331  0.554702  1
