# generated using pymatgen
data_Gd2IrRu3
_symmetry_space_group_name_H-M   'P 1'
_cell_length_a   5.25526500
_cell_length_b   5.25526411
_cell_length_c   8.96650600
_cell_angle_alpha   90.00000000
_cell_angle_beta   90.00000000
_cell_angle_gamma   120.00174922
_symmetry_Int_Tables_number   1
_chemical_formula_structural   Gd2IrRu3
_chemical_formula_sum   'Gd4 Ir2 Ru6'
_cell_volume   214.45461041
_cell_formula_units_Z   2
loop_
 _symmetry_equiv_pos_site_id
 _symmetry_equiv_pos_as_xyz
  1  'x, y, z'
loop_
 _atom_site_type_symbol
 _atom_site_label
 _atom_site_symmetry_multiplicity
 _atom_site_fract_x
 _atom_site_fract_y
 _atom_site_fract_z
 _atom_site_occupancy
  Gd  Gd0  1  0.666627  0.333373  0.569357  1
  Gd  Gd1  1  0.333373  0.666627  0.430643  1
  Gd  Gd2  1  0.333373  0.666627  0.069357  1
  Gd  Gd3  1  0.666627  0.333373  0.930643  1
  Ir  Ir4  1  0.000000  0.000000  0.500000  1
  Ir  Ir5  1  0.000000  0.000000  0.000000  1
  Ru  Ru6  1  0.170305  0.340555  0.750000  1
  Ru  Ru7  1  0.170282  0.829718  0.750000  1
  Ru  Ru8  1  0.659445  0.829695  0.750000  1
  Ru  Ru9  1  0.829695  0.659445  0.250000  1
  Ru  Ru10  1  0.829718  0.170282  0.250000  1
  Ru  Ru11  1  0.340555  0.170305  0.250000  1
