# generated using pymatgen
data_La4YIrRu
_symmetry_space_group_name_H-M   'P 1'
_cell_length_a   6.64858272
_cell_length_b   7.32256435
_cell_length_c   9.17773921
_cell_angle_alpha   95.14070589
_cell_angle_beta   111.23613799
_cell_angle_gamma   90.00000776
_symmetry_Int_Tables_number   1
_chemical_formula_structural   La4YIrRu
_chemical_formula_sum   'La8 Y2 Ir2 Ru2'
_cell_volume   414.54573089
_cell_formula_units_Z   2
loop_
 _symmetry_equiv_pos_site_id
 _symmetry_equiv_pos_as_xyz
  1  'x, y, z'
loop_
 _atom_site_type_symbol
 _atom_site_label
 _atom_site_symmetry_multiplicity
 _atom_site_fract_x
 _atom_site_fract_y
 _atom_site_fract_z
 _atom_site_occupancy
  La  La0  1  0.992752  0.912194  0.181108  1
  La  La1  1  0.811643  0.587806  0.818892  1
  La  La2  1  0.017059  0.092244  0.816468  1
  La  La3  1  0.200592  0.407756  0.183532  1
  La  La4  1  0.636150  0.817285  0.419377  1
  La  La5  1  0.216773  0.682715  0.580623  1
  La  La6  1  0.358368  0.186494  0.574805  1
  La  La7  1  0.783563  0.313506  0.425195  1
  Y  Y8  1  0.436454  0.750000  0.000000  1
  Y  Y9  1  0.569620  0.250000  0.000000  1
  Ir  Ir10  1  0.812492  0.575448  0.215191  1
  Ir  Ir11  1  0.597300  0.924552  0.784809  1
  Ru  Ru12  1  0.173242  0.422571  0.779251  1
  Ru  Ru13  1  0.393992  0.077429  0.220749  1
