# generated using pymatgen
data_Tb9DyIr5Au
_symmetry_space_group_name_H-M   'P 1'
_cell_length_a   11.08429409
_cell_length_b   11.03524700
_cell_length_c   6.36020600
_cell_angle_alpha   90.00000000
_cell_angle_beta   89.88948725
_cell_angle_gamma   90.00000000
_symmetry_Int_Tables_number   1
_chemical_formula_structural   Tb9DyIr5Au
_chemical_formula_sum   'Tb18 Dy2 Ir10 Au2'
_cell_volume   777.96574112
_cell_formula_units_Z   2
loop_
 _symmetry_equiv_pos_site_id
 _symmetry_equiv_pos_as_xyz
  1  'x, y, z'
loop_
 _atom_site_type_symbol
 _atom_site_label
 _atom_site_symmetry_multiplicity
 _atom_site_fract_x
 _atom_site_fract_y
 _atom_site_fract_z
 _atom_site_occupancy
  Tb  Tb0  1  0.291927  0.088931  0.373771  1
  Tb  Tb1  1  0.291927  0.911069  0.873771  1
  Tb  Tb2  1  0.698373  0.092360  0.866663  1
  Tb  Tb3  1  0.698373  0.907640  0.366663  1
  Tb  Tb4  1  0.578726  0.789614  0.878698  1
  Tb  Tb5  1  0.578726  0.210386  0.378698  1
  Tb  Tb6  1  0.408103  0.790887  0.378233  1
  Tb  Tb7  1  0.408103  0.209113  0.878233  1
  Tb  Tb8  1  0.209768  0.410956  0.620235  1
  Tb  Tb9  1  0.209768  0.589044  0.120235  1
  Tb  Tb10  1  0.789229  0.419178  0.121774  1
  Tb  Tb11  1  0.789229  0.580822  0.621774  1
  Tb  Tb12  1  0.916705  0.705204  0.137803  1
  Tb  Tb13  1  0.916705  0.294796  0.637803  1
  Tb  Tb14  1  0.096332  0.702709  0.622681  1
  Tb  Tb15  1  0.096332  0.297291  0.122681  1
  Tb  Tb16  1  0.009220  0.997550  0.499864  1
  Tb  Tb17  1  0.009220  0.002450  0.999864  1
  Dy  Dy18  1  0.499534  0.498866  0.000325  1
  Dy  Dy19  1  0.499534  0.501134  0.500325  1
  Ir  Ir20  1  0.154209  0.154044  0.750535  1
  Ir  Ir21  1  0.154209  0.845956  0.250535  1
  Ir  Ir22  1  0.655450  0.346702  0.748047  1
  Ir  Ir23  1  0.655450  0.653298  0.248047  1
  Ir  Ir24  1  0.347792  0.346357  0.251544  1
  Ir  Ir25  1  0.347792  0.653643  0.751544  1
  Ir  Ir26  1  0.499895  0.999661  0.121592  1
  Ir  Ir27  1  0.499895  0.000339  0.621592  1
  Ir  Ir28  1  0.999515  0.501144  0.878308  1
  Ir  Ir29  1  0.999515  0.498856  0.378308  1
  Au  Au30  1  0.845223  0.155191  0.249926  1
  Au  Au31  1  0.845223  0.844809  0.749926  1
