# generated using pymatgen
data_ThMn2(Sb6Os)2
_symmetry_space_group_name_H-M   'P 1'
_cell_length_a   8.08354580
_cell_length_b   8.10792606
_cell_length_c   8.08354559
_cell_angle_alpha   109.52295099
_cell_angle_beta   109.20837620
_cell_angle_gamma   109.55996789
_symmetry_Int_Tables_number   1
_chemical_formula_structural   ThMn2(Sb6Os)2
_chemical_formula_sum   'Th1 Mn2 Sb12 Os2'
_cell_volume   408.45302082
_cell_formula_units_Z   1
loop_
 _symmetry_equiv_pos_site_id
 _symmetry_equiv_pos_as_xyz
  1  'x, y, z'
loop_
 _atom_site_type_symbol
 _atom_site_label
 _atom_site_symmetry_multiplicity
 _atom_site_fract_x
 _atom_site_fract_y
 _atom_site_fract_z
 _atom_site_occupancy
  Th  Th0  1  0.000000  0.000000  0.000000  1
  Mn  Mn1  1  0.000000  0.500000  0.000000  1
  Mn  Mn2  1  0.500000  0.500000  0.500000  1
  Sb  Sb3  1  0.338885  0.182175  0.843289  1
  Sb  Sb4  1  0.661115  0.817825  0.156711  1
  Sb  Sb5  1  0.666569  0.506108  0.839537  1
  Sb  Sb6  1  0.333431  0.493892  0.160463  1
  Sb  Sb7  1  0.177314  0.837993  0.331891  1
  Sb  Sb8  1  0.822686  0.162007  0.668109  1
  Sb  Sb9  1  0.506103  0.837993  0.660679  1
  Sb  Sb10  1  0.493897  0.162007  0.339321  1
  Sb  Sb11  1  0.845525  0.338990  0.176773  1
  Sb  Sb12  1  0.154475  0.661010  0.823227  1
  Sb  Sb13  1  0.837783  0.661010  0.506535  1
  Sb  Sb14  1  0.162217  0.338990  0.493465  1
  Os  Os15  1  0.000000  0.000000  0.500000  1
  Os  Os16  1  0.500000  0.000000  0.000000  1
