# generated using pymatgen
data_Cs2YbPu3O12
_symmetry_space_group_name_H-M   'P 1'
_cell_length_a   7.49096489
_cell_length_b   8.01094052
_cell_length_c   10.75597600
_cell_angle_alpha   89.90988950
_cell_angle_beta   85.20658397
_cell_angle_gamma   89.49783760
_symmetry_Int_Tables_number   1
_chemical_formula_structural   Cs2YbPu3O12
_chemical_formula_sum   'Cs4 Yb2 Pu6 O24'
_cell_volume   643.18015704
_cell_formula_units_Z   2
loop_
 _symmetry_equiv_pos_site_id
 _symmetry_equiv_pos_as_xyz
  1  'x, y, z'
loop_
 _atom_site_type_symbol
 _atom_site_label
 _atom_site_symmetry_multiplicity
 _atom_site_fract_x
 _atom_site_fract_y
 _atom_site_fract_z
 _atom_site_occupancy
  Cs  Cs0  1  0.506781  0.745073  0.612818  1
  Cs  Cs1  1  0.493219  0.254927  0.387182  1
  Cs  Cs2  1  0.999810  0.255201  0.140514  1
  Cs  Cs3  1  0.000190  0.744799  0.859486  1
  Yb  Yb4  1  0.712381  0.238404  0.759287  1
  Yb  Yb5  1  0.287619  0.761596  0.240713  1
  Pu  Pu6  1  0.799023  0.746098  0.220378  1
  Pu  Pu7  1  0.200977  0.253902  0.779622  1
  Pu  Pu8  1  0.000000  0.500000  0.500000  1
  Pu  Pu9  1  0.000000  0.000000  0.500000  1
  Pu  Pu10  1  0.500000  0.000000  0.000000  1
  Pu  Pu11  1  0.500000  0.500000  0.000000  1
  O  O12  1  0.030339  0.726714  0.142401  1
  O  O13  1  0.969661  0.273286  0.857599  1
  O  O14  1  0.570470  0.763524  0.303716  1
  O  O15  1  0.429530  0.236476  0.696284  1
  O  O16  1  0.788825  0.428185  0.589168  1
  O  O17  1  0.211175  0.571815  0.410832  1
  O  O18  1  0.771765  0.061253  0.571553  1
  O  O19  1  0.228235  0.938747  0.428447  1
  O  O20  1  0.627963  0.964214  0.844906  1
  O  O21  1  0.372037  0.035786  0.155094  1
  O  O22  1  0.627964  0.523807  0.844148  1
  O  O23  1  0.372036  0.476193  0.155852  1
  O  O24  1  0.593337  0.240365  0.978296  1
  O  O25  1  0.406663  0.759635  0.021704  1
  O  O26  1  0.280517  0.446152  0.912759  1
  O  O27  1  0.719483  0.553848  0.087241  1
  O  O28  1  0.260352  0.072688  0.902591  1
  O  O29  1  0.739648  0.927312  0.097409  1
  O  O30  1  0.097538  0.053813  0.665290  1
  O  O31  1  0.902462  0.946187  0.334710  1
  O  O32  1  0.954089  0.739114  0.563647  1
  O  O33  1  0.045911  0.260886  0.436353  1
  O  O34  1  0.145694  0.444664  0.663718  1
  O  O35  1  0.854306  0.555336  0.336282  1
