# generated using pymatgen
data_Ni2MoW2N
_symmetry_space_group_name_H-M   'P 1'
_cell_length_a   6.67158484
_cell_length_b   6.68268768
_cell_length_c   6.67983627
_cell_angle_alpha   90.01134738
_cell_angle_beta   90.03019148
_cell_angle_gamma   90.04965548
_symmetry_Int_Tables_number   1
_chemical_formula_structural   Ni2MoW2N
_chemical_formula_sum   'Ni8 Mo4 W8 N4'
_cell_volume   297.81444790
_cell_formula_units_Z   4
loop_
 _symmetry_equiv_pos_site_id
 _symmetry_equiv_pos_as_xyz
  1  'x, y, z'
loop_
 _atom_site_type_symbol
 _atom_site_label
 _atom_site_symmetry_multiplicity
 _atom_site_fract_x
 _atom_site_fract_y
 _atom_site_fract_z
 _atom_site_occupancy
  Ni  Ni0  1  0.934933  0.565528  0.434810  1
  Ni  Ni1  1  0.185163  0.815442  0.316745  1
  Ni  Ni2  1  0.434286  0.934170  0.566412  1
  Ni  Ni3  1  0.683747  0.682582  0.682879  1
  Ni  Ni4  1  0.814961  0.316925  0.183707  1
  Ni  Ni5  1  0.315438  0.184725  0.815671  1
  Ni  Ni6  1  0.565549  0.432646  0.933670  1
  Ni  Ni7  1  0.066415  0.067570  0.065776  1
  Mo  Mo8  1  0.875519  0.702704  0.048877  1
  Mo  Mo9  1  0.374461  0.797898  0.950966  1
  Mo  Mo10  1  0.124344  0.201630  0.451373  1
  Mo  Mo11  1  0.801179  0.952089  0.374558  1
  W  W12  1  0.199286  0.451759  0.125720  1
  W  W13  1  0.050238  0.875143  0.700578  1
  W  W14  1  0.448353  0.123785  0.201179  1
  W  W15  1  0.300790  0.549028  0.624402  1
  W  W16  1  0.949033  0.374952  0.800223  1
  W  W17  1  0.551803  0.626349  0.298749  1
  W  W18  1  0.698695  0.047803  0.875574  1
  W  W19  1  0.625465  0.298157  0.548624  1
  N  N20  1  0.874505  0.123856  0.627168  1
  N  N21  1  0.624708  0.875706  0.125211  1
  N  N22  1  0.124681  0.623868  0.873569  1
  N  N23  1  0.376446  0.375685  0.373556  1
