# generated using pymatgen
data_Tb5CeTcOs
_symmetry_space_group_name_H-M   'P 1'
_cell_length_a   6.40612300
_cell_length_b   7.30069200
_cell_length_c   9.36318700
_cell_angle_alpha   90.00000000
_cell_angle_beta   90.00000000
_cell_angle_gamma   90.00000000
_symmetry_Int_Tables_number   1
_chemical_formula_structural   Tb5CeTcOs
_chemical_formula_sum   'Tb10 Ce2 Tc2 Os2'
_cell_volume   437.90811879
_cell_formula_units_Z   2
loop_
 _symmetry_equiv_pos_site_id
 _symmetry_equiv_pos_as_xyz
  1  'x, y, z'
loop_
 _atom_site_type_symbol
 _atom_site_label
 _atom_site_symmetry_multiplicity
 _atom_site_fract_x
 _atom_site_fract_y
 _atom_site_fract_z
 _atom_site_occupancy
  Tb  Tb0  1  0.335873  0.677993  0.060574  1
  Tb  Tb1  1  0.164127  0.177993  0.439426  1
  Tb  Tb2  1  0.673189  0.323762  0.567896  1
  Tb  Tb3  1  0.826811  0.823762  0.932104  1
  Tb  Tb4  1  0.673189  0.323762  0.932104  1
  Tb  Tb5  1  0.826811  0.823762  0.567896  1
  Tb  Tb6  1  0.335873  0.677993  0.439426  1
  Tb  Tb7  1  0.164127  0.177993  0.060574  1
  Tb  Tb8  1  0.134719  0.461444  0.750000  1
  Tb  Tb9  1  0.365281  0.961444  0.750000  1
  Ce  Ce10  1  0.870246  0.559925  0.250000  1
  Ce  Ce11  1  0.629754  0.059925  0.250000  1
  Tc  Tc12  1  0.001739  0.860241  0.250000  1
  Tc  Tc13  1  0.498261  0.360241  0.250000  1
  Os  Os14  1  0.960067  0.114877  0.750000  1
  Os  Os15  1  0.539933  0.614877  0.750000  1
