# generated using pymatgen
data_La2Sm4FeI10
_symmetry_space_group_name_H-M   'P 1'
_cell_length_a   7.97842534
_cell_length_b   10.03806400
_cell_length_c   9.82761586
_cell_angle_alpha   107.03364289
_cell_angle_beta   95.95473610
_cell_angle_gamma   105.88104503
_symmetry_Int_Tables_number   1
_chemical_formula_structural   La2Sm4FeI10
_chemical_formula_sum   'La2 Sm4 Fe1 I10'
_cell_volume   709.20369038
_cell_formula_units_Z   1
loop_
 _symmetry_equiv_pos_site_id
 _symmetry_equiv_pos_as_xyz
  1  'x, y, z'
loop_
 _atom_site_type_symbol
 _atom_site_label
 _atom_site_symmetry_multiplicity
 _atom_site_fract_x
 _atom_site_fract_y
 _atom_site_fract_z
 _atom_site_occupancy
  La  La0  1  0.391585  0.960063  0.717683  1
  La  La1  1  0.608415  0.039937  0.282317  1
  Sm  Sm2  1  0.470597  0.288987  0.588378  1
  Sm  Sm3  1  0.529403  0.711013  0.411622  1
  Sm  Sm4  1  0.853580  0.129516  0.671130  1
  Sm  Sm5  1  0.146420  0.870484  0.328870  1
  Fe  Fe6  1  0.500000  0.000000  0.500000  1
  I  I7  1  0.416566  0.627691  0.678612  1
  I  I8  1  0.583434  0.372309  0.321388  1
  I  I9  1  0.285105  0.262342  0.848439  1
  I  I10  1  0.714895  0.737658  0.151561  1
  I  I11  1  0.852911  0.451221  0.769711  1
  I  I12  1  0.147089  0.548779  0.230289  1
  I  I13  1  0.049862  0.180080  0.410509  1
  I  I14  1  0.236391  0.912407  0.042018  1
  I  I15  1  0.763609  0.087593  0.957982  1
  I  I16  1  0.950138  0.819920  0.589491  1
