# generated using pymatgen
data_Zr6Al7(ZnPd)8
_symmetry_space_group_name_H-M   'P 1'
_cell_length_a   8.73335500
_cell_length_b   8.73335582
_cell_length_c   8.73335500
_cell_angle_alpha   59.99999934
_cell_angle_beta   59.99999621
_cell_angle_gamma   59.99999623
_symmetry_Int_Tables_number   1
_chemical_formula_structural   Zr6Al7(ZnPd)8
_chemical_formula_sum   'Zr6 Al7 Zn8 Pd8'
_cell_volume   471.00808093
_cell_formula_units_Z   1
loop_
 _symmetry_equiv_pos_site_id
 _symmetry_equiv_pos_as_xyz
  1  'x, y, z'
loop_
 _atom_site_type_symbol
 _atom_site_label
 _atom_site_symmetry_multiplicity
 _atom_site_fract_x
 _atom_site_fract_y
 _atom_site_fract_z
 _atom_site_occupancy
  Zr  Zr0  1  0.705717  0.705717  0.294283  1
  Zr  Zr1  1  0.294283  0.705717  0.294283  1
  Zr  Zr2  1  0.705717  0.294283  0.294283  1
  Zr  Zr3  1  0.294283  0.294283  0.705717  1
  Zr  Zr4  1  0.705717  0.294283  0.705717  1
  Zr  Zr5  1  0.294283  0.705717  0.705717  1
  Al  Al6  1  0.000000  0.000000  0.000000  1
  Al  Al7  1  0.000000  0.000000  0.500000  1
  Al  Al8  1  0.500000  0.000000  0.500000  1
  Al  Al9  1  0.000000  0.500000  0.500000  1
  Al  Al10  1  0.500000  0.500000  0.000000  1
  Al  Al11  1  0.000000  0.500000  0.000000  1
  Al  Al12  1  0.500000  0.000000  0.000000  1
  Zn  Zn13  1  0.666095  0.666095  0.001714  1
  Zn  Zn14  1  0.666095  0.001714  0.666095  1
  Zn  Zn15  1  0.001714  0.666095  0.666095  1
  Zn  Zn16  1  0.666095  0.666095  0.666095  1
  Zn  Zn17  1  0.333905  0.333905  0.998286  1
  Zn  Zn18  1  0.333905  0.998286  0.333905  1
  Zn  Zn19  1  0.998286  0.333905  0.333905  1
  Zn  Zn20  1  0.333905  0.333905  0.333905  1
  Pd  Pd21  1  0.879326  0.879326  0.362025  1
  Pd  Pd22  1  0.879326  0.362025  0.879326  1
  Pd  Pd23  1  0.362025  0.879326  0.879326  1
  Pd  Pd24  1  0.879326  0.879326  0.879326  1
  Pd  Pd25  1  0.120674  0.120674  0.637975  1
  Pd  Pd26  1  0.120674  0.637975  0.120674  1
  Pd  Pd27  1  0.637975  0.120674  0.120674  1
  Pd  Pd28  1  0.120674  0.120674  0.120674  1
