# generated using pymatgen
data_Be2Nb6SiP
_symmetry_space_group_name_H-M   'P 1'
_cell_length_a   6.61815140
_cell_length_b   6.61471803
_cell_length_c   3.41641800
_cell_angle_alpha   90.00000000
_cell_angle_beta   90.00000000
_cell_angle_gamma   90.12000272
_symmetry_Int_Tables_number   1
_chemical_formula_structural   Be2Nb6SiP
_chemical_formula_sum   'Be2 Nb6 Si1 P1'
_cell_volume   149.56090433
_cell_formula_units_Z   1
loop_
 _symmetry_equiv_pos_site_id
 _symmetry_equiv_pos_as_xyz
  1  'x, y, z'
loop_
 _atom_site_type_symbol
 _atom_site_label
 _atom_site_symmetry_multiplicity
 _atom_site_fract_x
 _atom_site_fract_y
 _atom_site_fract_z
 _atom_site_occupancy
  Be  Be0  1  0.618702  0.878904  0.000000  1
  Be  Be1  1  0.120815  0.622027  0.000000  1
  Nb  Nb2  1  0.996765  0.995038  0.000000  1
  Nb  Nb3  1  0.496591  0.504700  0.000000  1
  Nb  Nb4  1  0.674347  0.171808  0.500000  1
  Nb  Nb5  1  0.181715  0.323630  0.500000  1
  Nb  Nb6  1  0.822115  0.683986  0.500000  1
  Nb  Nb7  1  0.323617  0.821157  0.500000  1
  Si  Si8  1  0.882382  0.386893  0.000000  1
  P  P9  1  0.382951  0.111856  0.000000  1
