# generated using pymatgen
data_Gd4Er(In2Rh)2
_symmetry_space_group_name_H-M   'P 1'
_cell_length_a   3.55739300
_cell_length_b   7.97195300
_cell_length_c   18.16476600
_cell_angle_alpha   90.00000000
_cell_angle_beta   90.00000000
_cell_angle_gamma   90.00000000
_symmetry_Int_Tables_number   1
_chemical_formula_structural   Gd4Er(In2Rh)2
_chemical_formula_sum   'Gd8 Er2 In8 Rh4'
_cell_volume   515.14131630
_cell_formula_units_Z   2
loop_
 _symmetry_equiv_pos_site_id
 _symmetry_equiv_pos_as_xyz
  1  'x, y, z'
loop_
 _atom_site_type_symbol
 _atom_site_label
 _atom_site_symmetry_multiplicity
 _atom_site_fract_x
 _atom_site_fract_y
 _atom_site_fract_z
 _atom_site_occupancy
  Gd  Gd0  1  0.000000  0.118274  0.415096  1
  Gd  Gd1  1  0.000000  0.881726  0.584904  1
  Gd  Gd2  1  0.000000  0.381726  0.915096  1
  Gd  Gd3  1  0.000000  0.618274  0.084904  1
  Gd  Gd4  1  0.000000  0.244645  0.221044  1
  Gd  Gd5  1  0.000000  0.755355  0.778956  1
  Gd  Gd6  1  0.000000  0.255355  0.721044  1
  Gd  Gd7  1  0.000000  0.744645  0.278956  1
  Er  Er8  1  0.000000  0.000000  0.000000  1
  Er  Er9  1  0.000000  0.500000  0.500000  1
  In  In10  1  0.500000  0.430800  0.351542  1
  In  In11  1  0.500000  0.569200  0.648458  1
  In  In12  1  0.500000  0.069200  0.851542  1
  In  In13  1  0.500000  0.930800  0.148458  1
  In  In14  1  0.500000  0.288675  0.067787  1
  In  In15  1  0.500000  0.711325  0.932213  1
  In  In16  1  0.500000  0.211325  0.567787  1
  In  In17  1  0.500000  0.788675  0.432213  1
  Rh  Rh18  1  0.500000  0.023237  0.304730  1
  Rh  Rh19  1  0.500000  0.976763  0.695270  1
  Rh  Rh20  1  0.500000  0.476763  0.804730  1
  Rh  Rh21  1  0.500000  0.523237  0.195270  1
