# generated using pymatgen
data_Ho12Th4Cd3HgIr3Rh
_symmetry_space_group_name_H-M   'P 1'
_cell_length_a   9.71372261
_cell_length_b   9.71372254
_cell_length_c   9.71372200
_cell_angle_alpha   60.14585302
_cell_angle_beta   60.14585326
_cell_angle_gamma   60.14585031
_symmetry_Int_Tables_number   1
_chemical_formula_structural   Ho12Th4Cd3HgIr3Rh
_chemical_formula_sum   'Ho12 Th4 Cd3 Hg1 Ir3 Rh1'
_cell_volume   650.24124394
_cell_formula_units_Z   1
loop_
 _symmetry_equiv_pos_site_id
 _symmetry_equiv_pos_as_xyz
  1  'x, y, z'
loop_
 _atom_site_type_symbol
 _atom_site_label
 _atom_site_symmetry_multiplicity
 _atom_site_fract_x
 _atom_site_fract_y
 _atom_site_fract_z
 _atom_site_occupancy
  Ho  Ho0  1  0.062164  0.437874  0.437874  1
  Ho  Ho1  1  0.437339  0.063110  0.063110  1
  Ho  Ho2  1  0.437874  0.062164  0.437874  1
  Ho  Ho3  1  0.063110  0.437339  0.063110  1
  Ho  Ho4  1  0.437874  0.437874  0.062164  1
  Ho  Ho5  1  0.063110  0.063110  0.437339  1
  Ho  Ho6  1  0.185735  0.815431  0.815431  1
  Ho  Ho7  1  0.815975  0.185791  0.185791  1
  Ho  Ho8  1  0.815431  0.185735  0.815431  1
  Ho  Ho9  1  0.185791  0.815975  0.185791  1
  Ho  Ho10  1  0.815431  0.815431  0.185735  1
  Ho  Ho11  1  0.185791  0.185791  0.815975  1
  Th  Th12  1  0.598634  0.598634  0.598634  1
  Th  Th13  1  0.601921  0.601921  0.196221  1
  Th  Th14  1  0.601921  0.196221  0.601921  1
  Th  Th15  1  0.196221  0.601921  0.601921  1
  Cd  Cd16  1  0.831072  0.831072  0.500542  1
  Cd  Cd17  1  0.831072  0.500542  0.831072  1
  Cd  Cd18  1  0.500542  0.831072  0.831072  1
  Hg  Hg19  1  0.836007  0.836007  0.836007  1
  Ir  Ir20  1  0.391655  0.391655  0.819999  1
  Ir  Ir21  1  0.391655  0.819999  0.391655  1
  Ir  Ir22  1  0.819999  0.391655  0.391655  1
  Rh  Rh23  1  0.393674  0.393674  0.393674  1
