# generated using pymatgen
data_Er10Ir3Ru
_symmetry_space_group_name_H-M   'P 1'
_cell_length_a   6.40729616
_cell_length_b   7.19822924
_cell_length_c   8.40721619
_cell_angle_alpha   96.59407285
_cell_angle_beta   112.07963098
_cell_angle_gamma   90.03209624
_symmetry_Int_Tables_number   1
_chemical_formula_structural   Er10Ir3Ru
_chemical_formula_sum   'Er10 Ir3 Ru1'
_cell_volume   356.53414853
_cell_formula_units_Z   1
loop_
 _symmetry_equiv_pos_site_id
 _symmetry_equiv_pos_as_xyz
  1  'x, y, z'
loop_
 _atom_site_type_symbol
 _atom_site_label
 _atom_site_symmetry_multiplicity
 _atom_site_fract_x
 _atom_site_fract_y
 _atom_site_fract_z
 _atom_site_occupancy
  Er  Er0  1  0.791643  0.582727  0.814696  1
  Er  Er1  1  0.974691  0.917590  0.183720  1
  Er  Er2  1  0.208720  0.417231  0.182468  1
  Er  Er3  1  0.025810  0.084219  0.815473  1
  Er  Er4  1  0.210059  0.682166  0.561972  1
  Er  Er5  1  0.649575  0.816638  0.439141  1
  Er  Er6  1  0.789607  0.316017  0.439920  1
  Er  Er7  1  0.348889  0.184027  0.561332  1
  Er  Er8  1  0.425436  0.748877  0.999175  1
  Er  Er9  1  0.574350  0.249924  0.000126  1
  Ir  Ir10  1  0.605848  0.925633  0.779584  1
  Ir  Ir11  1  0.825024  0.575345  0.220459  1
  Ir  Ir12  1  0.395526  0.074036  0.220124  1
  Ru  Ru13  1  0.174821  0.425570  0.781808  1
