# generated using pymatgen
data_BaMgInGa2
_symmetry_space_group_name_H-M   'P 1'
_cell_length_a   6.86441195
_cell_length_b   6.86441198
_cell_length_c   6.86441104
_cell_angle_alpha   140.17434676
_cell_angle_beta   140.17434054
_cell_angle_gamma   57.58867235
_symmetry_Int_Tables_number   1
_chemical_formula_structural   BaMgInGa2
_chemical_formula_sum   'Ba1 Mg1 In1 Ga2'
_cell_volume   131.52661029
_cell_formula_units_Z   1
loop_
 _symmetry_equiv_pos_site_id
 _symmetry_equiv_pos_as_xyz
  1  'x, y, z'
loop_
 _atom_site_type_symbol
 _atom_site_label
 _atom_site_symmetry_multiplicity
 _atom_site_fract_x
 _atom_site_fract_y
 _atom_site_fract_z
 _atom_site_occupancy
  Ba  Ba0  1  0.000000  0.000000  0.000000  1
  Mg  Mg1  1  0.750000  0.250000  0.500000  1
  In  In2  1  0.250000  0.750000  0.500000  1
  Ga  Ga3  1  0.389999  0.389999  0.000000  1
  Ga  Ga4  1  0.610001  0.610001  0.000000  1
