# generated using pymatgen
data_Tb16Cd4IrPd2Rh
_symmetry_space_group_name_H-M   'P 1'
_cell_length_a   9.72471737
_cell_length_b   9.71090097
_cell_length_c   9.69698600
_cell_angle_alpha   60.04738940
_cell_angle_beta   60.09428665
_cell_angle_gamma   60.27230104
_symmetry_Int_Tables_number   1
_chemical_formula_structural   Tb16Cd4IrPd2Rh
_chemical_formula_sum   'Tb16 Cd4 Ir1 Pd2 Rh1'
_cell_volume   649.54615124
_cell_formula_units_Z   1
loop_
 _symmetry_equiv_pos_site_id
 _symmetry_equiv_pos_as_xyz
  1  'x, y, z'
loop_
 _atom_site_type_symbol
 _atom_site_label
 _atom_site_symmetry_multiplicity
 _atom_site_fract_x
 _atom_site_fract_y
 _atom_site_fract_z
 _atom_site_occupancy
  Tb  Tb0  1  0.601677  0.601754  0.595034  1
  Tb  Tb1  1  0.601677  0.601754  0.201535  1
  Tb  Tb2  1  0.609062  0.190567  0.600186  1
  Tb  Tb3  1  0.190072  0.609375  0.600277  1
  Tb  Tb4  1  0.055716  0.440324  0.440189  1
  Tb  Tb5  1  0.440591  0.055720  0.063739  1
  Tb  Tb6  1  0.440591  0.055720  0.439950  1
  Tb  Tb7  1  0.055716  0.440324  0.063771  1
  Tb  Tb8  1  0.441917  0.441029  0.058527  1
  Tb  Tb9  1  0.061220  0.061552  0.438614  1
  Tb  Tb10  1  0.186831  0.815842  0.813240  1
  Tb  Tb11  1  0.815745  0.187528  0.185274  1
  Tb  Tb12  1  0.815745  0.187528  0.811454  1
  Tb  Tb13  1  0.186831  0.815842  0.184086  1
  Tb  Tb14  1  0.815710  0.813892  0.185199  1
  Tb  Tb15  1  0.186671  0.186982  0.813173  1
  Cd  Cd16  1  0.831042  0.830827  0.833009  1
  Cd  Cd17  1  0.831042  0.830827  0.505123  1
  Cd  Cd18  1  0.830009  0.505743  0.832124  1
  Cd  Cd19  1  0.505550  0.829802  0.832324  1
  Ir  Ir20  1  0.821426  0.390788  0.393893  1
  Pd  Pd21  1  0.392054  0.392561  0.396844  1
  Pd  Pd22  1  0.392054  0.392561  0.818542  1
  Rh  Rh23  1  0.391054  0.821161  0.393893  1
