# generated using pymatgen
data_Ce2Zn3Ag4
_symmetry_space_group_name_H-M   'P 1'
_cell_length_a   5.38998800
_cell_length_b   5.38998773
_cell_length_c   14.29830100
_cell_angle_alpha   90.00000000
_cell_angle_beta   90.00000000
_cell_angle_gamma   119.39005382
_symmetry_Int_Tables_number   1
_chemical_formula_structural   Ce2Zn3Ag4
_chemical_formula_sum   'Ce4 Zn6 Ag8'
_cell_volume   361.93220882
_cell_formula_units_Z   2
loop_
 _symmetry_equiv_pos_site_id
 _symmetry_equiv_pos_as_xyz
  1  'x, y, z'
loop_
 _atom_site_type_symbol
 _atom_site_label
 _atom_site_symmetry_multiplicity
 _atom_site_fract_x
 _atom_site_fract_y
 _atom_site_fract_z
 _atom_site_occupancy
  Ce  Ce0  1  0.821280  0.821280  0.118987  1
  Ce  Ce1  1  0.178720  0.178720  0.881013  1
  Ce  Ce2  1  0.821280  0.821280  0.381013  1
  Ce  Ce3  1  0.178720  0.178720  0.618987  1
  Zn  Zn4  1  0.169847  0.674188  0.750000  1
  Zn  Zn5  1  0.674188  0.169847  0.750000  1
  Zn  Zn6  1  0.675353  0.675353  0.750000  1
  Zn  Zn7  1  0.325812  0.830153  0.250000  1
  Zn  Zn8  1  0.830153  0.325812  0.250000  1
  Zn  Zn9  1  0.324647  0.324647  0.250000  1
  Ag  Ag10  1  0.161701  0.488455  0.078640  1
  Ag  Ag11  1  0.511545  0.838299  0.921360  1
  Ag  Ag12  1  0.488455  0.161701  0.078640  1
  Ag  Ag13  1  0.838299  0.511545  0.578640  1
  Ag  Ag14  1  0.488455  0.161701  0.421360  1
  Ag  Ag15  1  0.838299  0.511545  0.921360  1
  Ag  Ag16  1  0.511545  0.838299  0.578640  1
  Ag  Ag17  1  0.161701  0.488455  0.421360  1
