# generated using pymatgen
data_Yb2(Hf2Bi3)3
_symmetry_space_group_name_H-M   'P 1'
_cell_length_a   10.95378100
_cell_length_b   10.95378100
_cell_length_c   7.94726200
_cell_angle_alpha   90.00000000
_cell_angle_beta   90.00000000
_cell_angle_gamma   90.00000000
_symmetry_Int_Tables_number   1
_chemical_formula_structural   Yb2(Hf2Bi3)3
_chemical_formula_sum   'Yb4 Hf12 Bi18'
_cell_volume   953.55475986
_cell_formula_units_Z   2
loop_
 _symmetry_equiv_pos_site_id
 _symmetry_equiv_pos_as_xyz
  1  'x, y, z'
loop_
 _atom_site_type_symbol
 _atom_site_label
 _atom_site_symmetry_multiplicity
 _atom_site_fract_x
 _atom_site_fract_y
 _atom_site_fract_z
 _atom_site_occupancy
  Yb  Yb0  1  0.750000  0.750000  0.930495  1
  Yb  Yb1  1  0.250000  0.250000  0.069505  1
  Yb  Yb2  1  0.750000  0.750000  0.418995  1
  Yb  Yb3  1  0.250000  0.250000  0.581005  1
  Hf  Hf4  1  0.000000  0.500000  0.000000  1
  Hf  Hf5  1  0.500000  0.000000  0.000000  1
  Hf  Hf6  1  0.500000  0.500000  0.000000  1
  Hf  Hf7  1  0.000000  0.000000  0.000000  1
  Hf  Hf8  1  0.896397  0.250000  0.159854  1
  Hf  Hf9  1  0.603603  0.250000  0.159854  1
  Hf  Hf10  1  0.103603  0.750000  0.840148  1
  Hf  Hf11  1  0.396397  0.750000  0.840148  1
  Hf  Hf12  1  0.750000  0.103603  0.840148  1
  Hf  Hf13  1  0.750000  0.396397  0.840148  1
  Hf  Hf14  1  0.250000  0.896397  0.159854  1
  Hf  Hf15  1  0.250000  0.603603  0.159854  1
  Bi  Bi16  1  0.421234  0.078766  0.344567  1
  Bi  Bi17  1  0.078766  0.421234  0.344567  1
  Bi  Bi18  1  0.578766  0.578766  0.655433  1
  Bi  Bi19  1  0.921234  0.921234  0.655433  1
  Bi  Bi20  1  0.921234  0.578766  0.655433  1
  Bi  Bi21  1  0.578766  0.921234  0.655433  1
  Bi  Bi22  1  0.421234  0.421234  0.344567  1
  Bi  Bi23  1  0.078766  0.078766  0.344567  1
  Bi  Bi24  1  0.250000  0.750000  0.499999  1
  Bi  Bi25  1  0.750000  0.250000  0.499999  1
  Bi  Bi26  1  0.500076  0.250000  0.815548  1
  Bi  Bi27  1  0.999923  0.250000  0.815548  1
  Bi  Bi28  1  0.499923  0.750000  0.184451  1
  Bi  Bi29  1  0.000077  0.750000  0.184451  1
  Bi  Bi30  1  0.750000  0.499923  0.184451  1
  Bi  Bi31  1  0.750000  0.000077  0.184451  1
  Bi  Bi32  1  0.250000  0.500076  0.815548  1
  Bi  Bi33  1  0.250000  0.999923  0.815548  1
