# generated using pymatgen
data_Li4PrTh2Si3Ge
_symmetry_space_group_name_H-M   'P 1'
_cell_length_a   4.40859380
_cell_length_b   6.81264553
_cell_length_c   8.32446801
_cell_angle_alpha   114.15421123
_cell_angle_beta   105.35491943
_cell_angle_gamma   90.00000002
_symmetry_Int_Tables_number   1
_chemical_formula_structural   Li4PrTh2Si3Ge
_chemical_formula_sum   'Li4 Pr1 Th2 Si3 Ge1'
_cell_volume   218.31116152
_cell_formula_units_Z   1
loop_
 _symmetry_equiv_pos_site_id
 _symmetry_equiv_pos_as_xyz
  1  'x, y, z'
loop_
 _atom_site_type_symbol
 _atom_site_label
 _atom_site_symmetry_multiplicity
 _atom_site_fract_x
 _atom_site_fract_y
 _atom_site_fract_z
 _atom_site_occupancy
  Li  Li0  1  0.670543  0.984317  0.341085  1
  Li  Li1  1  0.330312  0.018933  0.660626  1
  Li  Li2  1  0.330312  0.641692  0.660626  1
  Li  Li3  1  0.670543  0.356769  0.341085  1
  Pr  Pr4  1  0.870796  0.370796  0.741592  1
  Th  Th5  1  0.998777  0.998777  0.997553  1
  Th  Th6  1  0.128889  0.628889  0.257777  1
  Si  Si7  1  0.502443  0.684513  0.004887  1
  Si  Si8  1  0.502443  0.320374  0.004887  1
  Si  Si9  1  0.784120  0.784120  0.568238  1
  Ge  Ge10  1  0.210822  0.210822  0.421645  1
