# generated using pymatgen
data_Er10In5Hg3Pt4
_symmetry_space_group_name_H-M   'P 1'
_cell_length_a   3.59355300
_cell_length_b   8.03253124
_cell_length_c   18.21921984
_cell_angle_alpha   89.89214531
_cell_angle_beta   90.00000000
_cell_angle_gamma   90.00000000
_symmetry_Int_Tables_number   1
_chemical_formula_structural   Er10In5Hg3Pt4
_chemical_formula_sum   'Er10 In5 Hg3 Pt4'
_cell_volume   525.90280208
_cell_formula_units_Z   1
loop_
 _symmetry_equiv_pos_site_id
 _symmetry_equiv_pos_as_xyz
  1  'x, y, z'
loop_
 _atom_site_type_symbol
 _atom_site_label
 _atom_site_symmetry_multiplicity
 _atom_site_fract_x
 _atom_site_fract_y
 _atom_site_fract_z
 _atom_site_occupancy
  Er  Er0  1  0.000000  0.503720  0.497626  1
  Er  Er1  1  0.000000  0.999507  0.000158  1
  Er  Er2  1  0.000000  0.745472  0.283374  1
  Er  Er3  1  0.000000  0.255924  0.720266  1
  Er  Er4  1  0.000000  0.755539  0.782790  1
  Er  Er5  1  0.000000  0.245042  0.216413  1
  Er  Er6  1  0.000000  0.609958  0.084938  1
  Er  Er7  1  0.000000  0.391451  0.916249  1
  Er  Er8  1  0.000000  0.883271  0.584858  1
  Er  Er9  1  0.000000  0.109174  0.414542  1
  In  In10  1  0.500000  0.210206  0.566928  1
  In  In11  1  0.500000  0.576013  0.648812  1
  In  In12  1  0.500000  0.420151  0.350902  1
  In  In13  1  0.500000  0.921083  0.148278  1
  In  In14  1  0.500000  0.079185  0.852100  1
  Hg  Hg15  1  0.500000  0.714385  0.933897  1
  Hg  Hg16  1  0.500000  0.286922  0.065339  1
  Hg  Hg17  1  0.500000  0.787711  0.433608  1
  Pt  Pt18  1  0.500000  0.531286  0.197720  1
  Pt  Pt19  1  0.500000  0.470432  0.802996  1
  Pt  Pt20  1  0.500000  0.971403  0.696522  1
  Pt  Pt21  1  0.500000  0.032166  0.301686  1
