# generated using pymatgen
data_Dy3Er7InPb5
_symmetry_space_group_name_H-M   'P 1'
_cell_length_a   8.99988503
_cell_length_b   8.99988444
_cell_length_c   6.62540200
_cell_angle_alpha   90.00000000
_cell_angle_beta   90.00000000
_cell_angle_gamma   120.05634627
_symmetry_Int_Tables_number   1
_chemical_formula_structural   Dy3Er7InPb5
_chemical_formula_sum   'Dy3 Er7 In1 Pb5'
_cell_volume   464.48307717
_cell_formula_units_Z   1
loop_
 _symmetry_equiv_pos_site_id
 _symmetry_equiv_pos_as_xyz
  1  'x, y, z'
loop_
 _atom_site_type_symbol
 _atom_site_label
 _atom_site_symmetry_multiplicity
 _atom_site_fract_x
 _atom_site_fract_y
 _atom_site_fract_z
 _atom_site_occupancy
  Dy  Dy0  1  0.238181  0.238181  0.250000  1
  Dy  Dy1  1  0.762025  0.999595  0.250000  1
  Dy  Dy2  1  0.999595  0.762025  0.250000  1
  Er  Er3  1  0.663938  0.333643  0.998070  1
  Er  Er4  1  0.333643  0.663938  0.998070  1
  Er  Er5  1  0.333643  0.663938  0.501930  1
  Er  Er6  1  0.663938  0.333643  0.501930  1
  Er  Er7  1  0.760469  0.760469  0.750000  1
  Er  Er8  1  0.239038  0.004764  0.750000  1
  Er  Er9  1  0.004764  0.239038  0.750000  1
  In  In10  1  0.395931  0.395931  0.750000  1
  Pb  Pb11  1  0.606700  0.000341  0.750000  1
  Pb  Pb12  1  0.000341  0.606700  0.750000  1
  Pb  Pb13  1  0.604728  0.604728  0.250000  1
  Pb  Pb14  1  0.394301  0.998764  0.250000  1
  Pb  Pb15  1  0.998764  0.394301  0.250000  1
