# generated using pymatgen
data_Dy4NbTc5Ge8
_symmetry_space_group_name_H-M   'P 1'
_cell_length_a   6.99928448
_cell_length_b   7.02935215
_cell_length_c   6.92731900
_cell_angle_alpha   70.14394970
_cell_angle_beta   90.47198255
_cell_angle_gamma   89.31693000
_symmetry_Int_Tables_number   1
_chemical_formula_structural   Dy4NbTc5Ge8
_chemical_formula_sum   'Dy4 Nb1 Tc5 Ge8'
_cell_volume   320.51444283
_cell_formula_units_Z   1
loop_
 _symmetry_equiv_pos_site_id
 _symmetry_equiv_pos_as_xyz
  1  'x, y, z'
loop_
 _atom_site_type_symbol
 _atom_site_label
 _atom_site_symmetry_multiplicity
 _atom_site_fract_x
 _atom_site_fract_y
 _atom_site_fract_z
 _atom_site_occupancy
  Dy  Dy0  1  0.674359  0.447592  0.191439  1
  Dy  Dy1  1  0.169457  0.060649  0.812126  1
  Dy  Dy2  1  0.325641  0.552408  0.808561  1
  Dy  Dy3  1  0.830543  0.939351  0.187874  1
  Nb  Nb4  1  0.500000  0.000000  0.500000  1
  Tc  Tc5  1  0.000000  0.500000  0.500000  1
  Tc  Tc6  1  0.146034  0.234769  0.229190  1
  Tc  Tc7  1  0.642121  0.233735  0.731348  1
  Tc  Tc8  1  0.853966  0.765231  0.770810  1
  Tc  Tc9  1  0.357879  0.766265  0.268652  1
  Ge  Ge10  1  0.458045  0.148907  0.085138  1
  Ge  Ge11  1  0.933686  0.374163  0.889757  1
  Ge  Ge12  1  0.541955  0.851093  0.914862  1
  Ge  Ge13  1  0.066314  0.625837  0.110243  1
  Ge  Ge14  1  0.868555  0.135621  0.496874  1
  Ge  Ge15  1  0.346165  0.379272  0.470226  1
  Ge  Ge16  1  0.131445  0.864379  0.503126  1
  Ge  Ge17  1  0.653835  0.620728  0.529774  1
