# generated using pymatgen
data_HoTmMn4(FeP)6
_symmetry_space_group_name_H-M   'P 1'
_cell_length_a   3.63525900
_cell_length_b   10.23797800
_cell_length_c   12.09005800
_cell_angle_alpha   90.00000000
_cell_angle_beta   90.00000000
_cell_angle_gamma   90.00000000
_symmetry_Int_Tables_number   1
_chemical_formula_structural   HoTmMn4(FeP)6
_chemical_formula_sum   'Ho2 Tm2 Mn8 Fe12 P12'
_cell_volume   449.96417177
_cell_formula_units_Z   2
loop_
 _symmetry_equiv_pos_site_id
 _symmetry_equiv_pos_as_xyz
  1  'x, y, z'
loop_
 _atom_site_type_symbol
 _atom_site_label
 _atom_site_symmetry_multiplicity
 _atom_site_fract_x
 _atom_site_fract_y
 _atom_site_fract_z
 _atom_site_occupancy
  Ho  Ho0  1  0.750000  0.419495  0.289474  1
  Ho  Ho1  1  0.750000  0.080505  0.789474  1
  Tm  Tm2  1  0.250000  0.580271  0.710575  1
  Tm  Tm3  1  0.250000  0.919729  0.210575  1
  Mn  Mn4  1  0.250000  0.705954  0.992305  1
  Mn  Mn5  1  0.250000  0.794046  0.492305  1
  Mn  Mn6  1  0.750000  0.294077  0.007849  1
  Mn  Mn7  1  0.750000  0.205923  0.507849  1
  Mn  Mn8  1  0.250000  0.408388  0.490584  1
  Mn  Mn9  1  0.250000  0.091612  0.990584  1
  Mn  Mn10  1  0.750000  0.591758  0.510214  1
  Mn  Mn11  1  0.750000  0.908242  0.010214  1
  Fe  Fe12  1  0.250000  0.219904  0.171607  1
  Fe  Fe13  1  0.250000  0.280096  0.671607  1
  Fe  Fe14  1  0.750000  0.779423  0.828246  1
  Fe  Fe15  1  0.750000  0.720577  0.328246  1
  Fe  Fe16  1  0.250000  0.876585  0.695877  1
  Fe  Fe17  1  0.250000  0.623415  0.195877  1
  Fe  Fe18  1  0.750000  0.122517  0.303791  1
  Fe  Fe19  1  0.750000  0.377483  0.803791  1
  Fe  Fe20  1  0.250000  0.462884  0.935589  1
  Fe  Fe21  1  0.250000  0.037116  0.435589  1
  Fe  Fe22  1  0.750000  0.537691  0.063983  1
  Fe  Fe23  1  0.750000  0.962309  0.563983  1
  P  P24  1  0.250000  0.423241  0.112998  1
  P  P25  1  0.250000  0.076759  0.612998  1
  P  P26  1  0.750000  0.576715  0.886315  1
  P  P27  1  0.750000  0.923285  0.386315  1
  P  P28  1  0.250000  0.268842  0.860894  1
  P  P29  1  0.250000  0.231158  0.360894  1
  P  P30  1  0.750000  0.732131  0.139272  1
  P  P31  1  0.750000  0.767869  0.639272  1
  P  P32  1  0.250000  0.602882  0.381323  1
  P  P33  1  0.250000  0.897118  0.881323  1
  P  P34  1  0.750000  0.397907  0.619105  1
  P  P35  1  0.750000  0.102093  0.119105  1
