# generated using pymatgen
data_Pr7Nd3B2Br15
_symmetry_space_group_name_H-M   'P 1'
_cell_length_a   9.46403273
_cell_length_b   10.27453389
_cell_length_c   11.11557052
_cell_angle_alpha   90.99948081
_cell_angle_beta   114.57788538
_cell_angle_gamma   110.90803762
_symmetry_Int_Tables_number   1
_chemical_formula_structural   Pr7Nd3B2Br15
_chemical_formula_sum   'Pr7 Nd3 B2 Br15'
_cell_volume   900.53635763
_cell_formula_units_Z   1
loop_
 _symmetry_equiv_pos_site_id
 _symmetry_equiv_pos_as_xyz
  1  'x, y, z'
loop_
 _atom_site_type_symbol
 _atom_site_label
 _atom_site_symmetry_multiplicity
 _atom_site_fract_x
 _atom_site_fract_y
 _atom_site_fract_z
 _atom_site_occupancy
  Pr  Pr0  1  0.802879  0.411134  0.277284  1
  Pr  Pr1  1  0.197166  0.589121  0.722542  1
  Pr  Pr2  1  0.675855  0.745706  0.820187  1
  Pr  Pr3  1  0.323991  0.254425  0.179748  1
  Pr  Pr4  1  0.525881  0.703702  0.096693  1
  Pr  Pr5  1  0.474069  0.296379  0.903058  1
  Pr  Pr6  1  0.586952  0.038743  0.326412  1
  Nd  Nd7  1  0.413567  0.960632  0.674940  1
  Nd  Nd8  1  0.724975  0.075304  0.048400  1
  Nd  Nd9  1  0.274975  0.924654  0.951300  1
  B  B10  1  0.466670  0.819724  0.875435  1
  B  B11  1  0.533160  0.180983  0.123822  1
  Br  Br12  1  0.000012  0.000014  0.999979  1
  Br  Br13  1  0.636490  0.883288  0.584737  1
  Br  Br14  1  0.362447  0.116775  0.416221  1
  Br  Br15  1  0.883409  0.298874  0.528018  1
  Br  Br16  1  0.117912  0.702381  0.472773  1
  Br  Br17  1  0.288871  0.762563  0.178851  1
  Br  Br18  1  0.709606  0.236063  0.820162  1
  Br  Br19  1  0.054585  0.341874  0.226090  1
  Br  Br20  1  0.164568  0.056175  0.703374  1
  Br  Br21  1  0.836593  0.943303  0.296179  1
  Br  Br22  1  0.230535  0.409958  0.943665  1
  Br  Br23  1  0.769455  0.590028  0.056279  1
  Br  Br24  1  0.408225  0.463420  0.659720  1
  Br  Br25  1  0.591777  0.536640  0.340257  1
  Br  Br26  1  0.945377  0.658137  0.773874  1
