# generated using pymatgen
data_NdHo5Al24Os7Pd
_symmetry_space_group_name_H-M   'P 1'
_cell_length_a   8.82350964
_cell_length_b   8.81347328
_cell_length_c   9.60500845
_cell_angle_alpha   89.74932487
_cell_angle_beta   90.24332546
_cell_angle_gamma   119.58448306
_symmetry_Int_Tables_number   1
_chemical_formula_structural   NdHo5Al24Os7Pd
_chemical_formula_sum   'Nd1 Ho5 Al24 Os7 Pd1'
_cell_volume   649.55308382
_cell_formula_units_Z   1
loop_
 _symmetry_equiv_pos_site_id
 _symmetry_equiv_pos_as_xyz
  1  'x, y, z'
loop_
 _atom_site_type_symbol
 _atom_site_label
 _atom_site_symmetry_multiplicity
 _atom_site_fract_x
 _atom_site_fract_y
 _atom_site_fract_z
 _atom_site_occupancy
  Nd  Nd0  1  0.187057  0.381595  0.250535  1
  Ho  Ho1  1  0.811395  0.612213  0.747704  1
  Ho  Ho2  1  0.611682  0.811019  0.252107  1
  Ho  Ho3  1  0.388298  0.190028  0.747902  1
  Ho  Ho4  1  0.195832  0.805940  0.251204  1
  Ho  Ho5  1  0.805314  0.195309  0.748718  1
  Al  Al6  1  0.330952  0.670408  0.022780  1
  Al  Al7  1  0.668977  0.331339  0.973635  1
  Al  Al8  1  0.667048  0.333265  0.522765  1
  Al  Al9  1  0.333450  0.667398  0.480117  1
  Al  Al10  1  0.165624  0.327739  0.577241  1
  Al  Al11  1  0.835181  0.673141  0.426290  1
  Al  Al12  1  0.672962  0.834709  0.575039  1
  Al  Al13  1  0.841916  0.675714  0.076323  1
  Al  Al14  1  0.328873  0.164462  0.427137  1
  Al  Al15  1  0.157584  0.324785  0.920002  1
  Al  Al16  1  0.164414  0.835707  0.573925  1
  Al  Al17  1  0.325579  0.157130  0.075677  1
  Al  Al18  1  0.833918  0.163948  0.427260  1
  Al  Al19  1  0.675426  0.841885  0.922427  1
  Al  Al20  1  0.833561  0.164021  0.072550  1
  Al  Al21  1  0.164327  0.835879  0.925849  1
  Al  Al22  1  0.561564  0.124112  0.249396  1
  Al  Al23  1  0.439123  0.876396  0.750664  1
  Al  Al24  1  0.874085  0.439286  0.249332  1
  Al  Al25  1  0.124518  0.561990  0.750588  1
  Al  Al26  1  0.564576  0.439008  0.252968  1
  Al  Al27  1  0.439029  0.562445  0.748255  1
  Al  Al28  1  0.995717  0.995082  0.250378  1
  Al  Al29  1  0.001197  0.999218  0.749940  1
  Os  Os30  1  0.500322  0.000682  0.999541  1
  Os  Os31  1  0.998771  0.501033  0.998400  1
  Os  Os32  1  0.500446  0.000247  0.500463  1
  Os  Os33  1  0.999141  0.500908  0.501551  1
  Os  Os34  1  0.501553  0.500671  0.501348  1
  Os  Os35  1  0.999895  0.000357  0.999703  1
  Os  Os36  1  0.000265  0.000503  0.500520  1
  Pd  Pd37  1  0.500426  0.500428  0.999769  1
