# generated using pymatgen
data_DyHo3Fe12(P3Ru2)4
_symmetry_space_group_name_H-M   'P 1'
_cell_length_a   3.74972700
_cell_length_b   10.44682606
_cell_length_c   11.97870610
_cell_angle_alpha   90.01361028
_cell_angle_beta   90.00000000
_cell_angle_gamma   90.00000000
_symmetry_Int_Tables_number   1
_chemical_formula_structural   DyHo3Fe12(P3Ru2)4
_chemical_formula_sum   'Dy1 Ho3 Fe12 P12 Ru8'
_cell_volume   469.23879521
_cell_formula_units_Z   1
loop_
 _symmetry_equiv_pos_site_id
 _symmetry_equiv_pos_as_xyz
  1  'x, y, z'
loop_
 _atom_site_type_symbol
 _atom_site_label
 _atom_site_symmetry_multiplicity
 _atom_site_fract_x
 _atom_site_fract_y
 _atom_site_fract_z
 _atom_site_occupancy
  Dy  Dy0  1  0.750000  0.082761  0.790587  1
  Ho  Ho1  1  0.250000  0.583117  0.709596  1
  Ho  Ho2  1  0.250000  0.917168  0.209575  1
  Ho  Ho3  1  0.750000  0.416701  0.290244  1
  Fe  Fe4  1  0.250000  0.224579  0.175227  1
  Fe  Fe5  1  0.250000  0.276416  0.675641  1
  Fe  Fe6  1  0.750000  0.775976  0.824670  1
  Fe  Fe7  1  0.750000  0.723944  0.324471  1
  Fe  Fe8  1  0.250000  0.880146  0.698821  1
  Fe  Fe9  1  0.250000  0.619469  0.199203  1
  Fe  Fe10  1  0.750000  0.119341  0.301068  1
  Fe  Fe11  1  0.750000  0.380548  0.800809  1
  Fe  Fe12  1  0.250000  0.462155  0.934304  1
  Fe  Fe13  1  0.250000  0.037753  0.434535  1
  Fe  Fe14  1  0.750000  0.537804  0.065599  1
  Fe  Fe15  1  0.750000  0.962066  0.565220  1
  P  P16  1  0.250000  0.425208  0.113203  1
  P  P17  1  0.250000  0.074994  0.612834  1
  P  P18  1  0.750000  0.575174  0.886984  1
  P  P19  1  0.750000  0.925136  0.386643  1
  P  P20  1  0.250000  0.272884  0.861589  1
  P  P21  1  0.250000  0.227105  0.360851  1
  P  P22  1  0.750000  0.727435  0.138975  1
  P  P23  1  0.750000  0.772525  0.638644  1
  P  P24  1  0.250000  0.605708  0.385059  1
  P  P25  1  0.250000  0.893861  0.885507  1
  P  P26  1  0.750000  0.394227  0.614523  1
  P  P27  1  0.750000  0.106021  0.115052  1
  Ru  Ru28  1  0.250000  0.702457  0.984720  1
  Ru  Ru29  1  0.250000  0.797381  0.484471  1
  Ru  Ru30  1  0.750000  0.297749  0.015521  1
  Ru  Ru31  1  0.750000  0.202470  0.515467  1
  Ru  Ru32  1  0.250000  0.402963  0.485147  1
  Ru  Ru33  1  0.250000  0.096938  0.985943  1
  Ru  Ru34  1  0.750000  0.596815  0.514551  1
  Ru  Ru35  1  0.750000  0.903007  0.014743  1
