# generated using pymatgen
data_Sm5NbCo16(P6W)2
_symmetry_space_group_name_H-M   'P 1'
_cell_length_a   12.18680705
_cell_length_b   12.18680826
_cell_length_c   3.73640700
_cell_angle_alpha   90.00000000
_cell_angle_beta   90.00000000
_cell_angle_gamma   119.98976021
_symmetry_Int_Tables_number   1
_chemical_formula_structural   Sm5NbCo16(P6W)2
_chemical_formula_sum   'Sm5 Nb1 Co16 P12 W2'
_cell_volume   480.62850522
_cell_formula_units_Z   1
loop_
 _symmetry_equiv_pos_site_id
 _symmetry_equiv_pos_as_xyz
  1  'x, y, z'
loop_
 _atom_site_type_symbol
 _atom_site_label
 _atom_site_symmetry_multiplicity
 _atom_site_fract_x
 _atom_site_fract_y
 _atom_site_fract_z
 _atom_site_occupancy
  Sm  Sm0  1  0.814204  0.000292  0.500000  1
  Sm  Sm1  1  0.000292  0.814204  0.500000  1
  Sm  Sm2  1  0.183678  0.183678  0.500000  1
  Sm  Sm3  1  0.332787  0.666718  0.000000  1
  Sm  Sm4  1  0.666718  0.332787  0.000000  1
  Nb  Nb5  1  0.557299  0.557299  0.000000  1
  Co  Co6  1  0.281848  0.999733  0.500000  1
  Co  Co7  1  0.999733  0.281848  0.500000  1
  Co  Co8  1  0.720128  0.720128  0.500000  1
  Co  Co9  1  0.624197  0.803071  0.000000  1
  Co  Co10  1  0.200515  0.823817  0.000000  1
  Co  Co11  1  0.175248  0.374906  0.000000  1
  Co  Co12  1  0.374906  0.175248  0.000000  1
  Co  Co13  1  0.803071  0.624197  0.000000  1
  Co  Co14  1  0.823817  0.200515  0.000000  1
  Co  Co15  1  0.517392  0.875794  0.500000  1
  Co  Co16  1  0.126026  0.643542  0.500000  1
  Co  Co17  1  0.353199  0.480369  0.500000  1
  Co  Co18  1  0.480369  0.353199  0.500000  1
  Co  Co19  1  0.875794  0.517392  0.500000  1
  Co  Co20  1  0.643542  0.126026  0.500000  1
  Co  Co21  1  0.999724  0.999724  0.000000  1
  P  P22  1  0.179353  0.999134  0.000000  1
  P  P23  1  0.999134  0.179353  0.000000  1
  P  P24  1  0.820065  0.820065  0.000000  1
  P  P25  1  0.522268  0.690341  0.500000  1
  P  P26  1  0.313267  0.835388  0.500000  1
  P  P27  1  0.163762  0.477566  0.500000  1
  P  P28  1  0.477566  0.163762  0.500000  1
  P  P29  1  0.690341  0.522268  0.500000  1
  P  P30  1  0.835388  0.313267  0.500000  1
  P  P31  1  0.638345  0.001807  0.000000  1
  P  P32  1  0.001807  0.638345  0.000000  1
  P  P33  1  0.358305  0.358305  0.000000  1
  W  W34  1  0.445430  0.000481  0.000000  1
  W  W35  1  0.000481  0.445430  0.000000  1
