# generated using pymatgen
data_NdLu(CuP)3
_symmetry_space_group_name_H-M   'P 1'
_cell_length_a   3.91412800
_cell_length_b   10.71186300
_cell_length_c   12.84262700
_cell_angle_alpha   90.00000000
_cell_angle_beta   90.00000000
_cell_angle_gamma   90.00000000
_symmetry_Int_Tables_number   1
_chemical_formula_structural   NdLu(CuP)3
_chemical_formula_sum   'Nd4 Lu4 Cu12 P12'
_cell_volume   538.46056505
_cell_formula_units_Z   4
loop_
 _symmetry_equiv_pos_site_id
 _symmetry_equiv_pos_as_xyz
  1  'x, y, z'
loop_
 _atom_site_type_symbol
 _atom_site_label
 _atom_site_symmetry_multiplicity
 _atom_site_fract_x
 _atom_site_fract_y
 _atom_site_fract_z
 _atom_site_occupancy
  Nd  Nd0  1  0.250000  0.930595  0.793753  1
  Nd  Nd1  1  0.750000  0.430595  0.706247  1
  Nd  Nd2  1  0.250000  0.569405  0.293753  1
  Nd  Nd3  1  0.750000  0.069405  0.206247  1
  Lu  Lu4  1  0.250000  0.843912  0.502551  1
  Lu  Lu5  1  0.750000  0.343912  0.997449  1
  Lu  Lu6  1  0.250000  0.656088  0.002551  1
  Lu  Lu7  1  0.750000  0.156088  0.497449  1
  Cu  Cu8  1  0.250000  0.397816  0.512025  1
  Cu  Cu9  1  0.750000  0.897816  0.987975  1
  Cu  Cu10  1  0.250000  0.102184  0.012025  1
  Cu  Cu11  1  0.750000  0.602184  0.487975  1
  Cu  Cu12  1  0.250000  0.271155  0.332805  1
  Cu  Cu13  1  0.750000  0.771155  0.167195  1
  Cu  Cu14  1  0.250000  0.228845  0.832805  1
  Cu  Cu15  1  0.750000  0.728845  0.667195  1
  Cu  Cu16  1  0.250000  0.860717  0.281396  1
  Cu  Cu17  1  0.750000  0.360717  0.218604  1
  Cu  Cu18  1  0.250000  0.639283  0.781396  1
  Cu  Cu19  1  0.750000  0.139283  0.718604  1
  P  P20  1  0.250000  0.233993  0.641491  1
  P  P21  1  0.750000  0.733993  0.858509  1
  P  P22  1  0.250000  0.266007  0.141491  1
  P  P23  1  0.750000  0.766007  0.358509  1
  P  P24  1  0.250000  0.608001  0.597631  1
  P  P25  1  0.750000  0.108001  0.902369  1
  P  P26  1  0.250000  0.891999  0.097631  1
  P  P27  1  0.750000  0.391999  0.402369  1
  P  P28  1  0.250000  0.057732  0.374893  1
  P  P29  1  0.750000  0.557732  0.125107  1
  P  P30  1  0.250000  0.442268  0.874893  1
  P  P31  1  0.750000  0.942268  0.625107  1
