# generated using pymatgen
data_La2InAgRh
_symmetry_space_group_name_H-M   'P 1'
_cell_length_a   3.84195800
_cell_length_b   7.99936012
_cell_length_c   7.99936000
_cell_angle_alpha   89.09669399
_cell_angle_beta   90.00000000
_cell_angle_gamma   90.00000000
_symmetry_Int_Tables_number   1
_chemical_formula_structural   La2InAgRh
_chemical_formula_sum   'La4 In2 Ag2 Rh2'
_cell_volume   245.81542312
_cell_formula_units_Z   2
loop_
 _symmetry_equiv_pos_site_id
 _symmetry_equiv_pos_as_xyz
  1  'x, y, z'
loop_
 _atom_site_type_symbol
 _atom_site_label
 _atom_site_symmetry_multiplicity
 _atom_site_fract_x
 _atom_site_fract_y
 _atom_site_fract_z
 _atom_site_occupancy
  La  La0  1  0.500000  0.161381  0.661381  1
  La  La1  1  0.500000  0.838619  0.338619  1
  La  La2  1  0.500000  0.306543  0.193457  1
  La  La3  1  0.500000  0.693457  0.806543  1
  In  In4  1  0.000000  0.500000  0.500000  1
  In  In5  1  0.000000  0.000000  0.000000  1
  Ag  Ag6  1  0.000000  0.623888  0.123888  1
  Ag  Ag7  1  0.000000  0.376112  0.876112  1
  Rh  Rh8  1  0.000000  0.871583  0.628417  1
  Rh  Rh9  1  0.000000  0.128417  0.371583  1
