# generated using pymatgen
data_Ac2Ga7Pd
_symmetry_space_group_name_H-M   'P 1'
_cell_length_a   4.51478400
_cell_length_b   4.51478400
_cell_length_c   10.64206300
_cell_angle_alpha   90.00000000
_cell_angle_beta   90.00000000
_cell_angle_gamma   90.00000000
_symmetry_Int_Tables_number   1
_chemical_formula_structural   Ac2Ga7Pd
_chemical_formula_sum   'Ac2 Ga7 Pd1'
_cell_volume   216.92009208
_cell_formula_units_Z   1
loop_
 _symmetry_equiv_pos_site_id
 _symmetry_equiv_pos_as_xyz
  1  'x, y, z'
loop_
 _atom_site_type_symbol
 _atom_site_label
 _atom_site_symmetry_multiplicity
 _atom_site_fract_x
 _atom_site_fract_y
 _atom_site_fract_z
 _atom_site_occupancy
  Ac  Ac0  1  0.000000  0.000000  0.998843  1
  Ac  Ac1  1  0.500000  0.500000  0.488255  1
  Ga  Ga2  1  0.000000  0.500000  0.244343  1
  Ga  Ga3  1  0.500000  0.000000  0.750204  1
  Ga  Ga4  1  0.500000  0.000000  0.244343  1
  Ga  Ga5  1  0.000000  0.500000  0.750204  1
  Ga  Ga6  1  0.000000  0.000000  0.621925  1
  Ga  Ga7  1  0.000000  0.000000  0.379543  1
  Ga  Ga8  1  0.500000  0.500000  0.892617  1
  Pd  Pd9  1  0.500000  0.500000  0.129721  1
