# generated using pymatgen
data_Nd4Ga4CuRh3
_symmetry_space_group_name_H-M   'P 1'
_cell_length_a   4.47036000
_cell_length_b   7.07649278
_cell_length_c   7.76645495
_cell_angle_alpha   90.07364502
_cell_angle_beta   90.00000000
_cell_angle_gamma   90.00000000
_symmetry_Int_Tables_number   1
_chemical_formula_structural   Nd4Ga4CuRh3
_chemical_formula_sum   'Nd4 Ga4 Cu1 Rh3'
_cell_volume   245.68748506
_cell_formula_units_Z   1
loop_
 _symmetry_equiv_pos_site_id
 _symmetry_equiv_pos_as_xyz
  1  'x, y, z'
loop_
 _atom_site_type_symbol
 _atom_site_label
 _atom_site_symmetry_multiplicity
 _atom_site_fract_x
 _atom_site_fract_y
 _atom_site_fract_z
 _atom_site_occupancy
  Nd  Nd0  1  0.250000  0.024647  0.688323  1
  Nd  Nd1  1  0.250000  0.531343  0.812235  1
  Nd  Nd2  1  0.750000  0.975707  0.306892  1
  Nd  Nd3  1  0.750000  0.478715  0.196214  1
  Ga  Ga4  1  0.250000  0.163222  0.070776  1
  Ga  Ga5  1  0.250000  0.661350  0.426310  1
  Ga  Ga6  1  0.750000  0.832271  0.925946  1
  Ga  Ga7  1  0.750000  0.339871  0.574028  1
  Cu  Cu8  1  0.750000  0.209010  0.896391  1
  Rh  Rh9  1  0.250000  0.280815  0.397717  1
  Rh  Rh10  1  0.250000  0.783359  0.102359  1
  Rh  Rh11  1  0.750000  0.719690  0.602810  1
