# generated using pymatgen
data_Sr4InSiIr4
_symmetry_space_group_name_H-M   'P 1'
_cell_length_a   5.93437459
_cell_length_b   5.93437383
_cell_length_c   7.84499701
_cell_angle_alpha   80.15428969
_cell_angle_beta   80.15429082
_cell_angle_gamma   62.48037386
_symmetry_Int_Tables_number   1
_chemical_formula_structural   Sr4InSiIr4
_chemical_formula_sum   'Sr4 In1 Si1 Ir4'
_cell_volume   240.06574132
_cell_formula_units_Z   1
loop_
 _symmetry_equiv_pos_site_id
 _symmetry_equiv_pos_as_xyz
  1  'x, y, z'
loop_
 _atom_site_type_symbol
 _atom_site_label
 _atom_site_symmetry_multiplicity
 _atom_site_fract_x
 _atom_site_fract_y
 _atom_site_fract_z
 _atom_site_occupancy
  Sr  Sr0  1  0.993224  0.720233  0.140031  1
  Sr  Sr1  1  0.279767  0.006776  0.359969  1
  Sr  Sr2  1  0.013114  0.281903  0.860311  1
  Sr  Sr3  1  0.718097  0.986886  0.639689  1
  In  In4  1  0.405683  0.594317  0.750000  1
  Si  Si5  1  0.564018  0.435982  0.250000  1
  Ir  Ir6  1  0.504355  0.784335  0.012413  1
  Ir  Ir7  1  0.215665  0.495645  0.487587  1
  Ir  Ir8  1  0.520112  0.214032  0.031133  1
  Ir  Ir9  1  0.785968  0.479888  0.468867  1
