# generated using pymatgen
data_Sc6Ti3Co8Si20Ru
_symmetry_space_group_name_H-M   'P 1'
_cell_length_a   11.86987377
_cell_length_b   11.86987377
_cell_length_c   3.88102700
_cell_angle_alpha   90.00000000
_cell_angle_beta   90.00000000
_cell_angle_gamma   90.07828415
_symmetry_Int_Tables_number   1
_chemical_formula_structural   Sc6Ti3Co8Si20Ru
_chemical_formula_sum   'Sc6 Ti3 Co8 Si20 Ru1'
_cell_volume   546.81253249
_cell_formula_units_Z   1
loop_
 _symmetry_equiv_pos_site_id
 _symmetry_equiv_pos_as_xyz
  1  'x, y, z'
loop_
 _atom_site_type_symbol
 _atom_site_label
 _atom_site_symmetry_multiplicity
 _atom_site_fract_x
 _atom_site_fract_y
 _atom_site_fract_z
 _atom_site_occupancy
  Sc  Sc0  1  0.997827  0.999334  0.000000  1
  Sc  Sc1  1  0.499334  0.497827  0.000000  1
  Sc  Sc2  1  0.886697  0.386697  0.500000  1
  Sc  Sc3  1  0.385363  0.115176  0.500000  1
  Sc  Sc4  1  0.615176  0.885363  0.500000  1
  Sc  Sc5  1  0.112560  0.612560  0.500000  1
  Ti  Ti6  1  0.174897  0.327554  0.500000  1
  Ti  Ti7  1  0.827554  0.674897  0.500000  1
  Ti  Ti8  1  0.325834  0.825834  0.500000  1
  Co  Co9  1  0.518503  0.250375  0.000000  1
  Co  Co10  1  0.252937  0.476001  0.000000  1
  Co  Co11  1  0.746267  0.516264  0.000000  1
  Co  Co12  1  0.477356  0.746893  0.000000  1
  Co  Co13  1  0.976001  0.752937  0.000000  1
  Co  Co14  1  0.016264  0.246267  0.000000  1
  Co  Co15  1  0.750375  0.018503  0.000000  1
  Co  Co16  1  0.246893  0.977356  0.000000  1
  Si  Si17  1  0.573588  0.073588  0.000000  1
  Si  Si18  1  0.068525  0.429629  0.000000  1
  Si  Si19  1  0.929629  0.568525  0.000000  1
  Si  Si20  1  0.433014  0.933014  0.000000  1
  Si  Si21  1  0.192479  0.159942  0.000000  1
  Si  Si22  1  0.159633  0.803852  0.000000  1
  Si  Si23  1  0.834105  0.191124  0.000000  1
  Si  Si24  1  0.802680  0.837948  0.000000  1
  Si  Si25  1  0.303852  0.659633  0.000000  1
  Si  Si26  1  0.691124  0.334105  0.000000  1
  Si  Si27  1  0.659942  0.692479  0.000000  1
  Si  Si28  1  0.337948  0.302680  0.000000  1
  Si  Si29  1  0.019496  0.161707  0.500000  1
  Si  Si30  1  0.162402  0.992091  0.500000  1
  Si  Si31  1  0.833134  0.025612  0.500000  1
  Si  Si32  1  0.996625  0.834034  0.500000  1
  Si  Si33  1  0.492091  0.662402  0.500000  1
  Si  Si34  1  0.525612  0.333134  0.500000  1
  Si  Si35  1  0.661707  0.519496  0.500000  1
  Si  Si36  1  0.334034  0.496625  0.500000  1
  Ru  Ru37  1  0.678541  0.178541  0.500000  1
