# generated using pymatgen
data_SmAl10IrOs
_symmetry_space_group_name_H-M   'P 1'
_cell_length_a   6.85768100
_cell_length_b   6.88655850
_cell_length_c   9.20782300
_cell_angle_alpha   90.00000000
_cell_angle_beta   90.00000000
_cell_angle_gamma   97.08200107
_symmetry_Int_Tables_number   1
_chemical_formula_structural   SmAl10IrOs
_chemical_formula_sum   'Sm2 Al20 Ir2 Os2'
_cell_volume   431.52943368
_cell_formula_units_Z   2
loop_
 _symmetry_equiv_pos_site_id
 _symmetry_equiv_pos_as_xyz
  1  'x, y, z'
loop_
 _atom_site_type_symbol
 _atom_site_label
 _atom_site_symmetry_multiplicity
 _atom_site_fract_x
 _atom_site_fract_y
 _atom_site_fract_z
 _atom_site_occupancy
  Sm  Sm0  1  0.869367  0.125321  0.750000  1
  Sm  Sm1  1  0.130633  0.874679  0.250000  1
  Al  Al2  1  0.620446  0.375212  0.550505  1
  Al  Al3  1  0.379554  0.624788  0.449495  1
  Al  Al4  1  0.379554  0.624788  0.050505  1
  Al  Al5  1  0.620446  0.375212  0.949495  1
  Al  Al6  1  0.223883  0.221792  0.498733  1
  Al  Al7  1  0.776117  0.778208  0.501267  1
  Al  Al8  1  0.776117  0.778208  0.998733  1
  Al  Al9  1  0.223883  0.221792  0.001267  1
  Al  Al10  1  0.842070  0.156773  0.102693  1
  Al  Al11  1  0.157930  0.843227  0.897307  1
  Al  Al12  1  0.157930  0.843227  0.602693  1
  Al  Al13  1  0.842070  0.156773  0.397307  1
  Al  Al14  1  0.855068  0.588194  0.750000  1
  Al  Al15  1  0.144932  0.411806  0.250000  1
  Al  Al16  1  0.410491  0.143022  0.750000  1
  Al  Al17  1  0.589509  0.856978  0.250000  1
  Al  Al18  1  0.224597  0.482202  0.750000  1
  Al  Al19  1  0.775403  0.517798  0.250000  1
  Al  Al20  1  0.517048  0.779685  0.750000  1
  Al  Al21  1  0.482952  0.220315  0.250000  1
  Ir  Ir22  1  0.000000  0.500000  0.500000  1
  Ir  Ir23  1  0.000000  0.500000  0.000000  1
  Os  Os24  1  0.500000  0.000000  0.000000  1
  Os  Os25  1  0.500000  0.000000  0.500000  1
