# generated using pymatgen
data_Ho16Er4Ir5Pd7
_symmetry_space_group_name_H-M   'P 1'
_cell_length_a   11.05397899
_cell_length_b   11.05397899
_cell_length_c   6.32081659
_cell_angle_alpha   90.03498370
_cell_angle_beta   90.03498370
_cell_angle_gamma   90.11405778
_symmetry_Int_Tables_number   1
_chemical_formula_structural   Ho16Er4Ir5Pd7
_chemical_formula_sum   'Ho16 Er4 Ir5 Pd7'
_cell_volume   772.34161443
_cell_formula_units_Z   1
loop_
 _symmetry_equiv_pos_site_id
 _symmetry_equiv_pos_as_xyz
  1  'x, y, z'
loop_
 _atom_site_type_symbol
 _atom_site_label
 _atom_site_symmetry_multiplicity
 _atom_site_fract_x
 _atom_site_fract_y
 _atom_site_fract_z
 _atom_site_occupancy
  Ho  Ho0  1  0.296624  0.085447  0.371980  1
  Ho  Ho1  1  0.296925  0.907222  0.872963  1
  Ho  Ho2  1  0.703062  0.085938  0.872231  1
  Ho  Ho3  1  0.702887  0.913024  0.371402  1
  Ho  Ho4  1  0.581183  0.793451  0.870921  1
  Ho  Ho5  1  0.586556  0.204696  0.373639  1
  Ho  Ho6  1  0.411096  0.792443  0.380136  1
  Ho  Ho7  1  0.413003  0.202649  0.872910  1
  Ho  Ho8  1  0.206549  0.418817  0.629079  1
  Ho  Ho9  1  0.207557  0.588904  0.119864  1
  Ho  Ho10  1  0.795304  0.413444  0.126361  1
  Ho  Ho11  1  0.797351  0.586997  0.627090  1
  Ho  Ho12  1  0.914553  0.703376  0.128020  1
  Ho  Ho13  1  0.914062  0.296938  0.627769  1
  Ho  Ho14  1  0.092778  0.703075  0.627037  1
  Ho  Ho15  1  0.086976  0.297113  0.128598  1
  Er  Er16  1  0.999811  0.000053  0.500300  1
  Er  Er17  1  0.999947  0.000189  0.999700  1
  Er  Er18  1  0.497277  0.501710  0.998981  1
  Er  Er19  1  0.498290  0.502723  0.501019  1
  Ir  Ir20  1  0.347696  0.652304  0.750000  1
  Ir  Ir21  1  0.500344  0.000754  0.122662  1
  Ir  Ir22  1  0.500228  0.001261  0.620619  1
  Ir  Ir23  1  0.998739  0.499772  0.879381  1
  Ir  Ir24  1  0.999246  0.499656  0.377338  1
  Pd  Pd25  1  0.846261  0.153739  0.250000  1
  Pd  Pd26  1  0.846104  0.846393  0.750273  1
  Pd  Pd27  1  0.153607  0.153896  0.749727  1
  Pd  Pd28  1  0.152735  0.847265  0.250000  1
  Pd  Pd29  1  0.653190  0.346810  0.750000  1
  Pd  Pd30  1  0.654458  0.654399  0.250188  1
  Pd  Pd31  1  0.345601  0.345542  0.249812  1
