# generated using pymatgen
data_Nd5(Tl2Ir)2
_symmetry_space_group_name_H-M   'P 1'
_cell_length_a   3.81337900
_cell_length_b   8.15764000
_cell_length_c   18.42778000
_cell_angle_alpha   90.00000000
_cell_angle_beta   90.00000000
_cell_angle_gamma   90.00000000
_symmetry_Int_Tables_number   1
_chemical_formula_structural   Nd5(Tl2Ir)2
_chemical_formula_sum   'Nd10 Tl8 Ir4'
_cell_volume   573.25456945
_cell_formula_units_Z   2
loop_
 _symmetry_equiv_pos_site_id
 _symmetry_equiv_pos_as_xyz
  1  'x, y, z'
loop_
 _atom_site_type_symbol
 _atom_site_label
 _atom_site_symmetry_multiplicity
 _atom_site_fract_x
 _atom_site_fract_y
 _atom_site_fract_z
 _atom_site_occupancy
  Nd  Nd0  1  0.000000  0.111966  0.410244  1
  Nd  Nd1  1  0.000000  0.888034  0.589756  1
  Nd  Nd2  1  0.000000  0.388034  0.910244  1
  Nd  Nd3  1  0.000000  0.611966  0.089756  1
  Nd  Nd4  1  0.000000  0.240133  0.219298  1
  Nd  Nd5  1  0.000000  0.759867  0.780702  1
  Nd  Nd6  1  0.000000  0.259867  0.719298  1
  Nd  Nd7  1  0.000000  0.740133  0.280702  1
  Nd  Nd8  1  0.000000  0.000000  0.000000  1
  Nd  Nd9  1  0.000000  0.500000  0.500000  1
  Tl  Tl10  1  0.500000  0.424220  0.351853  1
  Tl  Tl11  1  0.500000  0.575780  0.648147  1
  Tl  Tl12  1  0.500000  0.075780  0.851853  1
  Tl  Tl13  1  0.500000  0.924220  0.148147  1
  Tl  Tl14  1  0.500000  0.290435  0.065747  1
  Tl  Tl15  1  0.500000  0.709565  0.934253  1
  Tl  Tl16  1  0.500000  0.209565  0.565747  1
  Tl  Tl17  1  0.500000  0.790435  0.434253  1
  Ir  Ir18  1  0.500000  0.014832  0.303143  1
  Ir  Ir19  1  0.500000  0.985168  0.696857  1
  Ir  Ir20  1  0.500000  0.485168  0.803143  1
  Ir  Ir21  1  0.500000  0.514832  0.196857  1
