# generated using pymatgen
data_TbPa3Pt4
_symmetry_space_group_name_H-M   'P 1'
_cell_length_a   4.36722200
_cell_length_b   5.70729875
_cell_length_c   7.25391187
_cell_angle_alpha   89.41371897
_cell_angle_beta   90.00000000
_cell_angle_gamma   90.00000000
_symmetry_Int_Tables_number   1
_chemical_formula_structural   TbPa3Pt4
_chemical_formula_sum   'Tb1 Pa3 Pt4'
_cell_volume   180.79458295
_cell_formula_units_Z   1
loop_
 _symmetry_equiv_pos_site_id
 _symmetry_equiv_pos_as_xyz
  1  'x, y, z'
loop_
 _atom_site_type_symbol
 _atom_site_label
 _atom_site_symmetry_multiplicity
 _atom_site_fract_x
 _atom_site_fract_y
 _atom_site_fract_z
 _atom_site_occupancy
  Tb  Tb0  1  0.750000  0.849016  0.818811  1
  Pa  Pa1  1  0.250000  0.351318  0.684307  1
  Pa  Pa2  1  0.250000  0.144933  0.177280  1
  Pa  Pa3  1  0.750000  0.654432  0.320467  1
  Pt  Pt4  1  0.250000  0.835812  0.542999  1
  Pt  Pt5  1  0.250000  0.654703  0.057470  1
  Pt  Pt6  1  0.750000  0.177993  0.446291  1
  Pt  Pt7  1  0.750000  0.331792  0.952375  1
