# generated using pymatgen
data_Tm9Sc(SiSb)4
_symmetry_space_group_name_H-M   'P 1'
_cell_length_a   8.37918794
_cell_length_b   8.37918776
_cell_length_c   7.71835001
_cell_angle_alpha   89.99790541
_cell_angle_beta   89.99790850
_cell_angle_gamma   125.35930438
_symmetry_Int_Tables_number   1
_chemical_formula_structural   Tm9Sc(SiSb)4
_chemical_formula_sum   'Tm9 Sc1 Si4 Sb4'
_cell_volume   441.94993570
_cell_formula_units_Z   1
loop_
 _symmetry_equiv_pos_site_id
 _symmetry_equiv_pos_as_xyz
  1  'x, y, z'
loop_
 _atom_site_type_symbol
 _atom_site_label
 _atom_site_symmetry_multiplicity
 _atom_site_fract_x
 _atom_site_fract_y
 _atom_site_fract_z
 _atom_site_occupancy
  Tm  Tm0  1  0.539591  0.789547  0.166503  1
  Tm  Tm1  1  0.291926  0.041713  0.335907  1
  Tm  Tm2  1  0.210453  0.460409  0.833497  1
  Tm  Tm3  1  0.958287  0.708074  0.664093  1
  Tm  Tm4  1  0.708074  0.958287  0.664093  1
  Tm  Tm5  1  0.460409  0.210453  0.833497  1
  Tm  Tm6  1  0.789547  0.539591  0.166503  1
  Tm  Tm7  1  0.041713  0.291926  0.335907  1
  Tm  Tm8  1  0.000000  0.000000  0.000000  1
  Sc  Sc9  1  0.500000  0.500000  0.500000  1
  Si  Si10  1  0.632496  0.632496  0.866154  1
  Si  Si11  1  0.134824  0.134824  0.631297  1
  Si  Si12  1  0.865176  0.865176  0.368703  1
  Si  Si13  1  0.367504  0.367504  0.133846  1
  Sb  Sb14  1  0.295750  0.704250  0.500000  1
  Sb  Sb15  1  0.206172  0.793828  0.000000  1
  Sb  Sb16  1  0.704250  0.295750  0.500000  1
  Sb  Sb17  1  0.793828  0.206172  0.000000  1
