# generated using pymatgen
data_Nd3Th(Si5Pt3)2
_symmetry_space_group_name_H-M   'P 1'
_cell_length_a   8.27055679
_cell_length_b   8.27911595
_cell_length_c   8.27911533
_cell_angle_alpha   136.57594641
_cell_angle_beta   105.42282684
_cell_angle_gamma   90.46163161
_symmetry_Int_Tables_number   1
_chemical_formula_structural   Nd3Th(Si5Pt3)2
_chemical_formula_sum   'Nd3 Th1 Si10 Pt6'
_cell_volume   357.91102883
_cell_formula_units_Z   1
loop_
 _symmetry_equiv_pos_site_id
 _symmetry_equiv_pos_as_xyz
  1  'x, y, z'
loop_
 _atom_site_type_symbol
 _atom_site_label
 _atom_site_symmetry_multiplicity
 _atom_site_fract_x
 _atom_site_fract_y
 _atom_site_fract_z
 _atom_site_occupancy
  Nd  Nd0  1  0.639104  0.370414  0.268690  1
  Nd  Nd1  1  0.360754  0.629103  0.731650  1
  Nd  Nd2  1  0.102439  0.871365  0.231074  1
  Th  Th3  1  0.898652  0.129722  0.768930  1
  Si  Si4  1  0.272522  0.521645  0.249811  1
  Si  Si5  1  0.727290  0.478799  0.749959  1
  Si  Si6  1  0.727290  0.977332  0.248490  1
  Si  Si7  1  0.272522  0.022709  0.750877  1
  Si  Si8  1  0.463750  0.113792  0.349957  1
  Si  Si9  1  0.534945  0.885369  0.649577  1
  Si  Si10  1  0.762102  0.613206  0.148895  1
  Si  Si11  1  0.237156  0.386166  0.850990  1
  Si  Si12  1  0.000321  0.251176  0.251568  1
  Si  Si13  1  0.000321  0.748753  0.749145  1
  Pt  Pt14  1  0.245782  0.136197  0.109585  1
  Pt  Pt15  1  0.754224  0.863908  0.890316  1
  Pt  Pt16  1  0.026457  0.637034  0.389422  1
  Pt  Pt17  1  0.972720  0.362877  0.609842  1
  Pt  Pt18  1  0.500827  0.248272  0.748665  1
  Pt  Pt19  1  0.500827  0.752163  0.252555  1
