# generated using pymatgen
data_Er5Hf3(B6Os)4
_symmetry_space_group_name_H-M   'P 1'
_cell_length_a   3.56778500
_cell_length_b   9.01672302
_cell_length_c   11.38594454
_cell_angle_alpha   89.97894497
_cell_angle_beta   90.00000000
_cell_angle_gamma   90.00000000
_symmetry_Int_Tables_number   1
_chemical_formula_structural   Er5Hf3(B6Os)4
_chemical_formula_sum   'Er5 Hf3 B24 Os4'
_cell_volume   366.28272695
_cell_formula_units_Z   1
loop_
 _symmetry_equiv_pos_site_id
 _symmetry_equiv_pos_as_xyz
  1  'x, y, z'
loop_
 _atom_site_type_symbol
 _atom_site_label
 _atom_site_symmetry_multiplicity
 _atom_site_fract_x
 _atom_site_fract_y
 _atom_site_fract_z
 _atom_site_occupancy
  Er  Er0  1  0.000000  0.321086  0.414363  1
  Er  Er1  1  0.000000  0.678858  0.587514  1
  Er  Er2  1  0.000000  0.820859  0.085801  1
  Er  Er3  1  0.000000  0.179063  0.912880  1
  Er  Er4  1  0.000000  0.944367  0.374151  1
  Hf  Hf5  1  0.000000  0.056152  0.626492  1
  Hf  Hf6  1  0.000000  0.444684  0.124195  1
  Hf  Hf7  1  0.000000  0.555884  0.875156  1
  B  B8  1  0.500000  0.552547  0.433578  1
  B  B9  1  0.500000  0.445227  0.566483  1
  B  B10  1  0.500000  0.055032  0.065470  1
  B  B11  1  0.500000  0.945579  0.934058  1
  B  B12  1  0.500000  0.748547  0.418932  1
  B  B13  1  0.500000  0.248260  0.581388  1
  B  B14  1  0.500000  0.252995  0.079745  1
  B  B15  1  0.500000  0.747950  0.919715  1
  B  B16  1  0.500000  0.792066  0.263808  1
  B  B17  1  0.500000  0.205528  0.736601  1
  B  B18  1  0.500000  0.294939  0.234684  1
  B  B19  1  0.500000  0.705371  0.764363  1
  B  B20  1  0.500000  0.628948  0.182495  1
  B  B21  1  0.500000  0.370320  0.817343  1
  B  B22  1  0.500000  0.132524  0.315537  1
  B  B23  1  0.500000  0.870078  0.683427  1
  B  B24  1  0.500000  0.983552  0.211836  1
  B  B25  1  0.500000  0.018479  0.786814  1
  B  B26  1  0.500000  0.480574  0.286052  1
  B  B27  1  0.500000  0.519107  0.713585  1
  B  B28  1  0.500000  0.601397  0.027136  1
  B  B29  1  0.500000  0.398890  0.972027  1
  B  B30  1  0.500000  0.104967  0.474812  1
  B  B31  1  0.500000  0.897298  0.531030  1
  Os  Os32  1  0.000000  0.636353  0.317678  1
  Os  Os33  1  0.000000  0.360345  0.681954  1
  Os  Os34  1  0.000000  0.143288  0.178475  1
  Os  Os35  1  0.000000  0.858886  0.820424  1
