# generated using pymatgen
data_Y3Al8(SiOs)4
_symmetry_space_group_name_H-M   'P 1'
_cell_length_a   8.68495257
_cell_length_b   8.69204577
_cell_length_c   9.46396117
_cell_angle_alpha   90.02159442
_cell_angle_beta   89.98529522
_cell_angle_gamma   120.04025457
_symmetry_Int_Tables_number   1
_chemical_formula_structural   Y3Al8(SiOs)4
_chemical_formula_sum   'Y6 Al16 Si8 Os8'
_cell_volume   618.46723783
_cell_formula_units_Z   2
loop_
 _symmetry_equiv_pos_site_id
 _symmetry_equiv_pos_as_xyz
  1  'x, y, z'
loop_
 _atom_site_type_symbol
 _atom_site_label
 _atom_site_symmetry_multiplicity
 _atom_site_fract_x
 _atom_site_fract_y
 _atom_site_fract_z
 _atom_site_occupancy
  Y  Y0  1  0.192459  0.386473  0.252826  1
  Y  Y1  1  0.806345  0.612170  0.749590  1
  Y  Y2  1  0.611255  0.806707  0.249635  1
  Y  Y3  1  0.385240  0.191376  0.748428  1
  Y  Y4  1  0.194731  0.805080  0.249501  1
  Y  Y5  1  0.806241  0.192084  0.748084  1
  Al  Al6  1  0.834661  0.671845  0.422002  1
  Al  Al7  1  0.671902  0.835212  0.577084  1
  Al  Al8  1  0.834042  0.670981  0.078889  1
  Al  Al9  1  0.331714  0.165036  0.419949  1
  Al  Al10  1  0.164558  0.329807  0.926120  1
  Al  Al11  1  0.163169  0.834903  0.576367  1
  Al  Al12  1  0.330023  0.165903  0.078392  1
  Al  Al13  1  0.832422  0.163531  0.419314  1
  Al  Al14  1  0.670987  0.834715  0.922649  1
  Al  Al15  1  0.835110  0.164267  0.078935  1
  Al  Al16  1  0.163657  0.834056  0.923473  1
  Al  Al17  1  0.127776  0.566279  0.749995  1
  Al  Al18  1  0.564927  0.435242  0.250519  1
  Al  Al19  1  0.437919  0.567106  0.750209  1
  Al  Al20  1  0.998992  0.998444  0.251250  1
  Al  Al21  1  0.997761  0.996201  0.751219  1
  Si  Si22  1  0.333046  0.663988  0.039641  1
  Si  Si23  1  0.665858  0.334361  0.960214  1
  Si  Si24  1  0.665873  0.334837  0.540828  1
  Si  Si25  1  0.334868  0.668151  0.460203  1
  Si  Si26  1  0.165789  0.332204  0.573548  1
  Si  Si27  1  0.564281  0.124327  0.249397  1
  Si  Si28  1  0.437176  0.874069  0.749410  1
  Si  Si29  1  0.874927  0.434559  0.250565  1
  Os  Os30  1  0.500896  0.000991  0.000312  1
  Os  Os31  1  0.997905  0.498711  0.005882  1
  Os  Os32  1  0.500681  0.000829  0.498535  1
  Os  Os33  1  0.500460  0.499462  0.999699  1
  Os  Os34  1  0.001687  0.496714  0.494506  1
  Os  Os35  1  0.494305  0.497318  0.500506  1
  Os  Os36  1  0.000706  0.000851  0.000030  1
  Os  Os37  1  0.005649  0.011209  0.502296  1
