# generated using pymatgen
data_Cd4Te3MoO16
_symmetry_space_group_name_H-M   'P 1'
_cell_length_a   7.86684702
_cell_length_b   7.86684733
_cell_length_c   5.24139064
_cell_angle_alpha   87.47669461
_cell_angle_beta   87.47669570
_cell_angle_gamma   99.14603755
_symmetry_Int_Tables_number   1
_chemical_formula_structural   Cd4Te3MoO16
_chemical_formula_sum   'Cd4 Te3 Mo1 O16'
_cell_volume   319.51255746
_cell_formula_units_Z   1
loop_
 _symmetry_equiv_pos_site_id
 _symmetry_equiv_pos_as_xyz
  1  'x, y, z'
loop_
 _atom_site_type_symbol
 _atom_site_label
 _atom_site_symmetry_multiplicity
 _atom_site_fract_x
 _atom_site_fract_y
 _atom_site_fract_z
 _atom_site_occupancy
  Cd  Cd0  1  0.584267  0.897218  0.493197  1
  Cd  Cd1  1  0.102782  0.415733  0.506803  1
  Cd  Cd2  1  0.411841  0.083438  0.001207  1
  Cd  Cd3  1  0.916562  0.588159  0.998793  1
  Te  Te4  1  0.422197  0.577803  0.000000  1
  Te  Te5  1  0.918978  0.081022  0.000000  1
  Te  Te6  1  0.076231  0.923769  0.500000  1
  Mo  Mo7  1  0.587122  0.412878  0.500000  1
  O  O8  1  0.439531  0.805271  0.858293  1
  O  O9  1  0.935527  0.306724  0.857272  1
  O  O10  1  0.693276  0.064473  0.142728  1
  O  O11  1  0.194729  0.560469  0.141707  1
  O  O12  1  0.557247  0.194378  0.626873  1
  O  O13  1  0.054843  0.696621  0.634238  1
  O  O14  1  0.303379  0.945157  0.365762  1
  O  O15  1  0.805622  0.442753  0.373127  1
  O  O16  1  0.147888  0.057885  0.807191  1
  O  O17  1  0.650072  0.551271  0.802506  1
  O  O18  1  0.448729  0.349928  0.197494  1
  O  O19  1  0.942115  0.852112  0.192809  1
  O  O20  1  0.847850  0.947787  0.693515  1
  O  O21  1  0.352515  0.445512  0.704015  1
  O  O22  1  0.554488  0.647485  0.295985  1
  O  O23  1  0.052213  0.152150  0.306485  1
