# generated using pymatgen
data_Cs5U2S4Br9
_symmetry_space_group_name_H-M   'P 1'
_cell_length_a   7.85345438
_cell_length_b   11.26679484
_cell_length_c   11.26679450
_cell_angle_alpha   104.99768507
_cell_angle_beta   110.39695531
_cell_angle_gamma   110.39695322
_symmetry_Int_Tables_number   1
_chemical_formula_structural   Cs5U2S4Br9
_chemical_formula_sum   'Cs5 U2 S4 Br9'
_cell_volume   789.54174093
_cell_formula_units_Z   1
loop_
 _symmetry_equiv_pos_site_id
 _symmetry_equiv_pos_as_xyz
  1  'x, y, z'
loop_
 _atom_site_type_symbol
 _atom_site_label
 _atom_site_symmetry_multiplicity
 _atom_site_fract_x
 _atom_site_fract_y
 _atom_site_fract_z
 _atom_site_occupancy
  Cs  Cs0  1  0.773369  0.430828  0.115909  1
  Cs  Cs1  1  0.773369  0.115909  0.430828  1
  Cs  Cs2  1  0.500000  0.499999  0.499999  1
  Cs  Cs3  1  0.226630  0.884090  0.569171  1
  Cs  Cs4  1  0.226630  0.569171  0.884090  1
  U  U5  1  0.000000  0.895805  0.104194  1
  U  U6  1  0.000000  0.104194  0.895805  1
  S  S7  1  0.321343  0.091958  0.091958  1
  S  S8  1  0.862574  0.091958  0.091958  1
  S  S9  1  0.137426  0.908042  0.908042  1
  S  S10  1  0.678657  0.908042  0.908042  1
  Br  Br11  1  0.257268  0.392274  0.122261  1
  Br  Br12  1  0.252085  0.782010  0.217989  1
  Br  Br13  1  0.747914  0.782010  0.217989  1
  Br  Br14  1  0.257268  0.122261  0.392274  1
  Br  Br15  1  0.000000  0.499999  0.499999  1
  Br  Br16  1  0.742733  0.877740  0.607727  1
  Br  Br17  1  0.252085  0.217989  0.782010  1
  Br  Br18  1  0.747914  0.217989  0.782010  1
  Br  Br19  1  0.742733  0.607727  0.877740  1
