# generated using pymatgen
data_Tm3Pa9Ga20
_symmetry_space_group_name_H-M   'P 1'
_cell_length_a   6.05466020
_cell_length_b   9.51146700
_cell_length_c   11.64285320
_cell_angle_alpha   90.00000000
_cell_angle_beta   89.97474425
_cell_angle_gamma   90.00000000
_symmetry_Int_Tables_number   1
_chemical_formula_structural   Tm3Pa9Ga20
_chemical_formula_sum   'Tm3 Pa9 Ga20'
_cell_volume   670.49672266
_cell_formula_units_Z   1
loop_
 _symmetry_equiv_pos_site_id
 _symmetry_equiv_pos_as_xyz
  1  'x, y, z'
loop_
 _atom_site_type_symbol
 _atom_site_label
 _atom_site_symmetry_multiplicity
 _atom_site_fract_x
 _atom_site_fract_y
 _atom_site_fract_z
 _atom_site_occupancy
  Tm  Tm0  1  0.644852  0.750000  0.570648  1
  Tm  Tm1  1  0.141802  0.250000  0.926907  1
  Tm  Tm2  1  0.361518  0.250000  0.429897  1
  Pa  Pa3  1  0.844832  0.750000  0.071584  1
  Pa  Pa4  1  0.880598  0.501906  0.351418  1
  Pa  Pa5  1  0.620830  0.995022  0.853172  1
  Pa  Pa6  1  0.121783  0.003183  0.647943  1
  Pa  Pa7  1  0.383256  0.499715  0.147380  1
  Pa  Pa8  1  0.121783  0.496817  0.647943  1
  Pa  Pa9  1  0.383256  0.000285  0.147380  1
  Pa  Pa10  1  0.880598  0.998094  0.351418  1
  Pa  Pa11  1  0.620830  0.504978  0.853172  1
  Ga  Ga12  1  0.872637  0.055785  0.090283  1
  Ga  Ga13  1  0.630446  0.448572  0.591760  1
  Ga  Ga14  1  0.125745  0.550979  0.908421  1
  Ga  Ga15  1  0.371933  0.949560  0.411069  1
  Ga  Ga16  1  0.125745  0.949021  0.908421  1
  Ga  Ga17  1  0.371933  0.550440  0.411069  1
  Ga  Ga18  1  0.872637  0.444215  0.090283  1
  Ga  Ga19  1  0.630446  0.051428  0.591760  1
  Ga  Ga20  1  0.152331  0.750000  0.263710  1
  Ga  Ga21  1  0.346289  0.750000  0.761200  1
  Ga  Ga22  1  0.845708  0.250000  0.736386  1
  Ga  Ga23  1  0.654790  0.250000  0.235117  1
  Ga  Ga24  1  0.376379  0.750000  0.993860  1
  Ga  Ga25  1  0.111386  0.750000  0.495172  1
  Ga  Ga26  1  0.605277  0.250000  0.003551  1
  Ga  Ga27  1  0.892740  0.250000  0.504830  1
  Ga  Ga28  1  0.596390  0.750000  0.296361  1
  Ga  Ga29  1  0.904439  0.750000  0.789579  1
  Ga  Ga30  1  0.404227  0.250000  0.708802  1
  Ga  Ga31  1  0.102585  0.250000  0.209501  1
