# generated using pymatgen
data_NaSc3Si2(B2Rh5)2
_symmetry_space_group_name_H-M   'P 1'
_cell_length_a   9.35141081
_cell_length_b   9.35141081
_cell_length_c   3.00728500
_cell_angle_alpha   90.00000000
_cell_angle_beta   90.00000000
_cell_angle_gamma   90.16594282
_symmetry_Int_Tables_number   1
_chemical_formula_structural   NaSc3Si2(B2Rh5)2
_chemical_formula_sum   'Na1 Sc3 Si2 B4 Rh10'
_cell_volume   262.98261428
_cell_formula_units_Z   1
loop_
 _symmetry_equiv_pos_site_id
 _symmetry_equiv_pos_as_xyz
  1  'x, y, z'
loop_
 _atom_site_type_symbol
 _atom_site_label
 _atom_site_symmetry_multiplicity
 _atom_site_fract_x
 _atom_site_fract_y
 _atom_site_fract_z
 _atom_site_occupancy
  Na  Na0  1  0.675964  0.175963  0.000000  1
  Sc  Sc1  1  0.173891  0.324535  0.000000  1
  Sc  Sc2  1  0.824535  0.673892  0.000000  1
  Sc  Sc3  1  0.326683  0.826683  0.000000  1
  Si  Si4  1  0.997711  0.000619  0.000000  1
  Si  Si5  1  0.500619  0.497711  0.000000  1
  B  B6  1  0.375366  0.124894  0.000000  1
  B  B7  1  0.874762  0.374764  0.000000  1
  B  B8  1  0.124854  0.624853  0.000000  1
  B  B9  1  0.624893  0.875364  0.000000  1
  Rh  Rh10  1  0.497290  0.997290  0.500000  1
  Rh  Rh11  1  0.210891  0.067752  0.500000  1
  Rh  Rh12  1  0.937860  0.214261  0.500000  1
  Rh  Rh13  1  0.421388  0.289495  0.500000  1
  Rh  Rh14  1  0.714260  0.437860  0.500000  1
  Rh  Rh15  1  0.001339  0.501339  0.500000  1
  Rh  Rh16  1  0.288374  0.572070  0.500000  1
  Rh  Rh17  1  0.567751  0.710890  0.500000  1
  Rh  Rh18  1  0.072071  0.788373  0.500000  1
  Rh  Rh19  1  0.789494  0.921388  0.500000  1
