# generated using pymatgen
data_Yb3CeAl8
_symmetry_space_group_name_H-M   'P 1'
_cell_length_a   9.70612618
_cell_length_b   9.70628134
_cell_length_c   9.70628223
_cell_angle_alpha   33.87126563
_cell_angle_beta   33.87049882
_cell_angle_gamma   33.87049409
_symmetry_Int_Tables_number   1
_chemical_formula_structural   Yb3CeAl8
_chemical_formula_sum   'Yb3 Ce1 Al8'
_cell_volume   253.12254388
_cell_formula_units_Z   1
loop_
 _symmetry_equiv_pos_site_id
 _symmetry_equiv_pos_as_xyz
  1  'x, y, z'
loop_
 _atom_site_type_symbol
 _atom_site_label
 _atom_site_symmetry_multiplicity
 _atom_site_fract_x
 _atom_site_fract_y
 _atom_site_fract_z
 _atom_site_occupancy
  Yb  Yb0  1  0.374785  0.374791  0.374791  1
  Yb  Yb1  1  0.000205  0.000207  0.000207  1
  Yb  Yb2  1  0.499603  0.499600  0.499600  1
  Ce  Ce3  1  0.875838  0.875834  0.875834  1
  Al  Al4  1  0.437081  0.935604  0.437065  1
  Al  Al5  1  0.936854  0.440719  0.936861  1
  Al  Al6  1  0.437081  0.437065  0.935604  1
  Al  Al7  1  0.936854  0.936861  0.440719  1
  Al  Al8  1  0.187298  0.187313  0.187313  1
  Al  Al9  1  0.688082  0.688076  0.688076  1
  Al  Al10  1  0.935603  0.437073  0.437073  1
  Al  Al11  1  0.440714  0.936857  0.936857  1
