# generated using pymatgen
data_TbEr11OsRh3
_symmetry_space_group_name_H-M   'P 1'
_cell_length_a   6.31224509
_cell_length_b   7.21351159
_cell_length_c   9.13118400
_cell_angle_alpha   90.00000000
_cell_angle_beta   90.00000000
_cell_angle_gamma   90.08373866
_symmetry_Int_Tables_number   1
_chemical_formula_structural   TbEr11OsRh3
_chemical_formula_sum   'Tb1 Er11 Os1 Rh3'
_cell_volume   415.77389447
_cell_formula_units_Z   1
loop_
 _symmetry_equiv_pos_site_id
 _symmetry_equiv_pos_as_xyz
  1  'x, y, z'
loop_
 _atom_site_type_symbol
 _atom_site_label
 _atom_site_symmetry_multiplicity
 _atom_site_fract_x
 _atom_site_fract_y
 _atom_site_fract_z
 _atom_site_occupancy
  Tb  Tb0  1  0.872501  0.535722  0.250000  1
  Er  Er1  1  0.333321  0.677379  0.058592  1
  Er  Er2  1  0.171128  0.177976  0.437308  1
  Er  Er3  1  0.671158  0.323720  0.564169  1
  Er  Er4  1  0.825193  0.820375  0.935348  1
  Er  Er5  1  0.671158  0.323720  0.935831  1
  Er  Er6  1  0.825193  0.820375  0.564652  1
  Er  Er7  1  0.333321  0.677379  0.441408  1
  Er  Er8  1  0.171128  0.177976  0.062692  1
  Er  Er9  1  0.629793  0.034633  0.250000  1
  Er  Er10  1  0.128565  0.465569  0.750000  1
  Er  Er11  1  0.371539  0.965145  0.750000  1
  Os  Os12  1  0.539170  0.615645  0.750000  1
  Rh  Rh13  1  0.046525  0.885807  0.250000  1
  Rh  Rh14  1  0.453917  0.383061  0.250000  1
  Rh  Rh15  1  0.956392  0.115514  0.750000  1
