# generated using pymatgen
data_Y7ErSc2(In2Rh)4
_symmetry_space_group_name_H-M   'P 1'
_cell_length_a   3.62048000
_cell_length_b   7.98134285
_cell_length_c   18.15039101
_cell_angle_alpha   90.26715767
_cell_angle_beta   90.00000000
_cell_angle_gamma   90.00000000
_symmetry_Int_Tables_number   1
_chemical_formula_structural   Y7ErSc2(In2Rh)4
_chemical_formula_sum   'Y7 Er1 Sc2 In8 Rh4'
_cell_volume   524.47329993
_cell_formula_units_Z   1
loop_
 _symmetry_equiv_pos_site_id
 _symmetry_equiv_pos_as_xyz
  1  'x, y, z'
loop_
 _atom_site_type_symbol
 _atom_site_label
 _atom_site_symmetry_multiplicity
 _atom_site_fract_x
 _atom_site_fract_y
 _atom_site_fract_z
 _atom_site_occupancy
  Y  Y0  1  0.000000  0.999920  0.000273  1
  Y  Y1  1  0.000000  0.499071  0.499554  1
  Y  Y2  1  0.000000  0.753811  0.785647  1
  Y  Y3  1  0.000000  0.246560  0.214323  1
  Y  Y4  1  0.000000  0.250598  0.722857  1
  Y  Y5  1  0.000000  0.748584  0.277497  1
  Y  Y6  1  0.000000  0.879544  0.588911  1
  Er  Er7  1  0.000000  0.119844  0.409499  1
  Sc  Sc8  1  0.000000  0.381878  0.909819  1
  Sc  Sc9  1  0.000000  0.618329  0.090153  1
  In  In10  1  0.500000  0.795685  0.431291  1
  In  In11  1  0.500000  0.205487  0.568333  1
  In  In12  1  0.500000  0.311777  0.059261  1
  In  In13  1  0.500000  0.689056  0.940688  1
  In  In14  1  0.500000  0.919748  0.147868  1
  In  In15  1  0.500000  0.080134  0.852736  1
  In  In16  1  0.500000  0.428018  0.345455  1
  In  In17  1  0.500000  0.570656  0.654628  1
  Rh  Rh18  1  0.500000  0.970876  0.697980  1
  Rh  Rh19  1  0.500000  0.030233  0.303202  1
  Rh  Rh20  1  0.500000  0.468912  0.811733  1
  Rh  Rh21  1  0.500000  0.531277  0.188292  1
