# generated using pymatgen
data_Lu5SnB4Ir9Ru
_symmetry_space_group_name_H-M   'P 1'
_cell_length_a   9.74740824
_cell_length_b   9.75311652
_cell_length_c   3.16802500
_cell_angle_alpha   90.00000000
_cell_angle_beta   90.00000000
_cell_angle_gamma   90.37925737
_symmetry_Int_Tables_number   1
_chemical_formula_structural   Lu5SnB4Ir9Ru
_chemical_formula_sum   'Lu5 Sn1 B4 Ir9 Ru1'
_cell_volume   301.16996184
_cell_formula_units_Z   1
loop_
 _symmetry_equiv_pos_site_id
 _symmetry_equiv_pos_as_xyz
  1  'x, y, z'
loop_
 _atom_site_type_symbol
 _atom_site_label
 _atom_site_symmetry_multiplicity
 _atom_site_fract_x
 _atom_site_fract_y
 _atom_site_fract_z
 _atom_site_occupancy
  Lu  Lu0  1  0.173860  0.674460  0.000000  1
  Lu  Lu1  1  0.322585  0.176664  0.000000  1
  Lu  Lu2  1  0.826140  0.325540  0.000000  1
  Lu  Lu3  1  0.500000  0.500000  0.000000  1
  Lu  Lu4  1  0.677415  0.823336  0.000000  1
  Sn  Sn5  1  0.000000  0.000000  0.000000  1
  B  B6  1  0.379219  0.880160  0.000000  1
  B  B7  1  0.117950  0.381260  0.000000  1
  B  B8  1  0.882050  0.618740  0.000000  1
  B  B9  1  0.620781  0.119840  0.000000  1
  Ir  Ir10  1  0.224658  0.931306  0.500000  1
  Ir  Ir11  1  0.931380  0.776223  0.500000  1
  Ir  Ir12  1  0.427277  0.728558  0.500000  1
  Ir  Ir13  1  0.572723  0.271442  0.500000  1
  Ir  Ir14  1  0.728140  0.572423  0.500000  1
  Ir  Ir15  1  0.271860  0.427577  0.500000  1
  Ir  Ir16  1  0.068620  0.223777  0.500000  1
  Ir  Ir17  1  0.500000  0.000000  0.500000  1
  Ir  Ir18  1  0.775342  0.068694  0.500000  1
  Ru  Ru19  1  0.000000  0.500000  0.500000  1
