# generated using pymatgen
data_Lu9Sc(In2Te)2
_symmetry_space_group_name_H-M   'P 1'
_cell_length_a   6.32570202
_cell_length_b   8.79321077
_cell_length_c   8.78823393
_cell_angle_alpha   120.01676639
_cell_angle_beta   90.03852785
_cell_angle_gamma   89.93754905
_symmetry_Int_Tables_number   1
_chemical_formula_structural   Lu9Sc(In2Te)2
_chemical_formula_sum   'Lu9 Sc1 In4 Te2'
_cell_volume   423.26737268
_cell_formula_units_Z   1
loop_
 _symmetry_equiv_pos_site_id
 _symmetry_equiv_pos_as_xyz
  1  'x, y, z'
loop_
 _atom_site_type_symbol
 _atom_site_label
 _atom_site_symmetry_multiplicity
 _atom_site_fract_x
 _atom_site_fract_y
 _atom_site_fract_z
 _atom_site_occupancy
  Lu  Lu0  1  0.495761  0.667981  0.336586  1
  Lu  Lu1  1  0.004391  0.668061  0.337019  1
  Lu  Lu2  1  0.005017  0.332348  0.668890  1
  Lu  Lu3  1  0.749249  0.231478  0.990788  1
  Lu  Lu4  1  0.749483  0.768823  0.760188  1
  Lu  Lu5  1  0.749425  0.999986  0.235691  1
  Lu  Lu6  1  0.250198  0.765086  0.002042  1
  Lu  Lu7  1  0.250166  0.234001  0.236019  1
  Lu  Lu8  1  0.250268  0.000032  0.764534  1
  Sc  Sc9  1  0.495240  0.331902  0.668515  1
  In  In10  1  0.747369  0.002589  0.597155  1
  In  In11  1  0.252428  0.395391  0.002259  1
  In  In12  1  0.252449  0.602180  0.608840  1
  In  In13  1  0.252434  0.002584  0.399510  1
  Te  Te14  1  0.747949  0.607127  0.998811  1
  Te  Te15  1  0.748179  0.390432  0.393150  1
