# generated using pymatgen
data_Ba2GaPtCl
_symmetry_space_group_name_H-M   'P 1'
_cell_length_a   4.49299600
_cell_length_b   4.49299542
_cell_length_c   18.11332300
_cell_angle_alpha   90.00000000
_cell_angle_beta   90.00000000
_cell_angle_gamma   120.00000430
_symmetry_Int_Tables_number   1
_chemical_formula_structural   Ba2GaPtCl
_chemical_formula_sum   'Ba4 Ga2 Pt2 Cl2'
_cell_volume   316.66550096
_cell_formula_units_Z   2
loop_
 _symmetry_equiv_pos_site_id
 _symmetry_equiv_pos_as_xyz
  1  'x, y, z'
loop_
 _atom_site_type_symbol
 _atom_site_label
 _atom_site_symmetry_multiplicity
 _atom_site_fract_x
 _atom_site_fract_y
 _atom_site_fract_z
 _atom_site_occupancy
  Ba  Ba0  1  0.000000  0.000000  0.122188  1
  Ba  Ba1  1  0.000000  0.000000  0.377812  1
  Ba  Ba2  1  0.000000  0.000000  0.623244  1
  Ba  Ba3  1  0.000000  0.000000  0.876756  1
  Ga  Ga4  1  0.666666  0.333334  0.500912  1
  Ga  Ga5  1  0.666666  0.333334  0.999088  1
  Pt  Pt6  1  0.333334  0.666667  0.000515  1
  Pt  Pt7  1  0.333334  0.666667  0.499485  1
  Cl  Cl8  1  0.666666  0.333334  0.250000  1
  Cl  Cl9  1  0.333334  0.666667  0.750000  1
