# generated using pymatgen
data_ErPa3(Ir2Pb)2
_symmetry_space_group_name_H-M   'P 1'
_cell_length_a   7.86193318
_cell_length_b   7.86193355
_cell_length_c   3.56909100
_cell_angle_alpha   90.00000000
_cell_angle_beta   90.00000000
_cell_angle_gamma   88.45518381
_symmetry_Int_Tables_number   1
_chemical_formula_structural   ErPa3(Ir2Pb)2
_chemical_formula_sum   'Er1 Pa3 Ir4 Pb2'
_cell_volume   220.52532077
_cell_formula_units_Z   1
loop_
 _symmetry_equiv_pos_site_id
 _symmetry_equiv_pos_as_xyz
  1  'x, y, z'
loop_
 _atom_site_type_symbol
 _atom_site_label
 _atom_site_symmetry_multiplicity
 _atom_site_fract_x
 _atom_site_fract_y
 _atom_site_fract_z
 _atom_site_occupancy
  Er  Er0  1  0.331813  0.831813  0.500000  1
  Pa  Pa1  1  0.664656  0.164656  0.500000  1
  Pa  Pa2  1  0.169728  0.332651  0.500000  1
  Pa  Pa3  1  0.832651  0.669728  0.500000  1
  Ir  Ir4  1  0.375456  0.144378  0.000000  1
  Ir  Ir5  1  0.114654  0.614654  0.000000  1
  Ir  Ir6  1  0.644378  0.875456  0.000000  1
  Ir  Ir7  1  0.860546  0.360546  0.000000  1
  Pb  Pb8  1  0.010613  0.995503  0.000000  1
  Pb  Pb9  1  0.495503  0.510613  0.000000  1
