# generated using pymatgen
data_LiTb8InPt2
_symmetry_space_group_name_H-M   'P 1'
_cell_length_a   9.76750533
_cell_length_b   9.76750589
_cell_length_c   9.73604800
_cell_angle_alpha   60.10648177
_cell_angle_beta   60.10647987
_cell_angle_gamma   59.98015340
_symmetry_Int_Tables_number   1
_chemical_formula_structural   LiTb8InPt2
_chemical_formula_sum   'Li2 Tb16 In2 Pt4'
_cell_volume   657.75894470
_cell_formula_units_Z   2
loop_
 _symmetry_equiv_pos_site_id
 _symmetry_equiv_pos_as_xyz
  1  'x, y, z'
loop_
 _atom_site_type_symbol
 _atom_site_label
 _atom_site_symmetry_multiplicity
 _atom_site_fract_x
 _atom_site_fract_y
 _atom_site_fract_z
 _atom_site_occupancy
  Li  Li0  1  0.427450  0.427450  0.423904  1
  Li  Li1  1  0.427450  0.427450  0.721195  1
  Tb  Tb2  1  0.805832  0.805832  0.194168  1
  Tb  Tb3  1  0.810082  0.188981  0.809885  1
  Tb  Tb4  1  0.184012  0.184012  0.815988  1
  Tb  Tb5  1  0.650684  0.049762  0.649777  1
  Tb  Tb6  1  0.064343  0.064343  0.435657  1
  Tb  Tb7  1  0.435690  0.435690  0.064310  1
  Tb  Tb8  1  0.649345  0.649345  0.648308  1
  Tb  Tb9  1  0.810082  0.188981  0.191052  1
  Tb  Tb10  1  0.188981  0.810082  0.809885  1
  Tb  Tb11  1  0.049762  0.650684  0.649777  1
  Tb  Tb12  1  0.436137  0.064800  0.064338  1
  Tb  Tb13  1  0.436137  0.064800  0.434725  1
  Tb  Tb14  1  0.064800  0.436137  0.064338  1
  Tb  Tb15  1  0.649345  0.649345  0.053002  1
  Tb  Tb16  1  0.188981  0.810082  0.191052  1
  Tb  Tb17  1  0.064800  0.436137  0.434725  1
  In  In18  1  0.415562  0.744868  0.419785  1
  In  In19  1  0.744868  0.415562  0.419785  1
  Pt  Pt20  1  0.855422  0.428742  0.857919  1
  Pt  Pt21  1  0.855747  0.855747  0.859090  1
  Pt  Pt22  1  0.855747  0.855747  0.429417  1
  Pt  Pt23  1  0.428742  0.855422  0.857919  1
