# generated using pymatgen
data_Ta4CdHg2PbO14
_symmetry_space_group_name_H-M   'P 1'
_cell_length_a   7.60629810
_cell_length_b   7.50092148
_cell_length_c   7.50092133
_cell_angle_alpha   59.48453792
_cell_angle_beta   59.87013628
_cell_angle_gamma   59.87013864
_symmetry_Int_Tables_number   1
_chemical_formula_structural   Ta4CdHg2PbO14
_chemical_formula_sum   'Ta4 Cd1 Hg2 Pb1 O14'
_cell_volume   300.82815286
_cell_formula_units_Z   1
loop_
 _symmetry_equiv_pos_site_id
 _symmetry_equiv_pos_as_xyz
  1  'x, y, z'
loop_
 _atom_site_type_symbol
 _atom_site_label
 _atom_site_symmetry_multiplicity
 _atom_site_fract_x
 _atom_site_fract_y
 _atom_site_fract_z
 _atom_site_occupancy
  Ta  Ta0  1  0.125000  0.625000  0.125000  1
  Ta  Ta1  1  0.125000  0.125000  0.625000  1
  Ta  Ta2  1  0.625000  0.125000  0.125000  1
  Ta  Ta3  1  0.125000  0.125000  0.125000  1
  Cd  Cd4  1  0.625000  0.625000  0.625000  1
  Hg  Hg5  1  0.625000  0.125000  0.625000  1
  Hg  Hg6  1  0.625000  0.625000  0.125000  1
  Pb  Pb7  1  0.125000  0.625000  0.625000  1
  O  O8  1  0.713689  0.763092  0.763092  1
  O  O9  1  0.190851  0.808393  0.808393  1
  O  O10  1  0.184309  0.810230  0.192921  1
  O  O11  1  0.814387  0.191322  0.810879  1
  O  O12  1  0.184309  0.192921  0.810230  1
  O  O13  1  0.814387  0.810879  0.191322  1
  O  O14  1  0.433985  0.065378  0.065378  1
  O  O15  1  0.816015  0.184622  0.184622  1
  O  O16  1  0.065691  0.439770  0.057079  1
  O  O17  1  0.065691  0.057079  0.439770  1
  O  O18  1  0.435613  0.439121  0.058678  1
  O  O19  1  0.435613  0.058678  0.439121  1
  O  O20  1  0.059149  0.441607  0.441607  1
  O  O21  1  0.536311  0.486908  0.486908  1
