# generated using pymatgen
data_U4Re3(Ge3Ru2)2
_symmetry_space_group_name_H-M   'P 1'
_cell_length_a   7.21309321
_cell_length_b   7.21309555
_cell_length_c   7.21309491
_cell_angle_alpha   109.84771923
_cell_angle_beta   109.05429507
_cell_angle_gamma   109.51262280
_symmetry_Int_Tables_number   1
_chemical_formula_structural   U4Re3(Ge3Ru2)2
_chemical_formula_sum   'U4 Re3 Ge6 Ru4'
_cell_volume   288.88302669
_cell_formula_units_Z   1
loop_
 _symmetry_equiv_pos_site_id
 _symmetry_equiv_pos_as_xyz
  1  'x, y, z'
loop_
 _atom_site_type_symbol
 _atom_site_label
 _atom_site_symmetry_multiplicity
 _atom_site_fract_x
 _atom_site_fract_y
 _atom_site_fract_z
 _atom_site_occupancy
  U  U0  1  0.498095  0.501384  0.500117  1
  U  U1  1  0.001267  0.997976  0.499883  1
  U  U2  1  0.498095  0.997976  0.996710  1
  U  U3  1  0.001267  0.501384  0.003290  1
  Re  Re4  1  0.249998  0.500036  0.749962  1
  Re  Re5  1  0.750075  0.500036  0.250038  1
  Re  Re6  1  0.250130  0.750130  0.500000  1
  Ge  Ge7  1  0.306293  0.306293  0.000000  1
  Ge  Ge8  1  0.998470  0.303740  0.305270  1
  Ge  Ge9  1  0.998470  0.693199  0.694730  1
  Ge  Ge10  1  0.694620  0.001188  0.693432  1
  Ge  Ge11  1  0.307755  0.001188  0.306568  1
  Ge  Ge12  1  0.694089  0.694089  0.000000  1
  Ru  Ru13  1  0.749734  0.249734  0.500000  1
  Ru  Ru14  1  0.500788  0.250475  0.749687  1
  Ru  Ru15  1  0.500788  0.751101  0.250313  1
  Ru  Ru16  1  0.000069  0.000069  0.000000  1
