# generated using pymatgen
data_YbLu9(NiPb3)2
_symmetry_space_group_name_H-M   'P 1'
_cell_length_a   8.99264400
_cell_length_b   8.99264387
_cell_length_c   6.65286900
_cell_angle_alpha   90.00000000
_cell_angle_beta   90.00000000
_cell_angle_gamma   120.00000048
_symmetry_Int_Tables_number   1
_chemical_formula_structural   YbLu9(NiPb3)2
_chemical_formula_sum   'Yb1 Lu9 Ni2 Pb6'
_cell_volume   465.92326546
_cell_formula_units_Z   1
loop_
 _symmetry_equiv_pos_site_id
 _symmetry_equiv_pos_as_xyz
  1  'x, y, z'
loop_
 _atom_site_type_symbol
 _atom_site_label
 _atom_site_symmetry_multiplicity
 _atom_site_fract_x
 _atom_site_fract_y
 _atom_site_fract_z
 _atom_site_occupancy
  Yb  Yb0  1  0.333333  0.666667  0.500000  1
  Lu  Lu1  1  0.237346  0.000851  0.249605  1
  Lu  Lu2  1  0.763505  0.000851  0.750395  1
  Lu  Lu3  1  0.999149  0.236495  0.249605  1
  Lu  Lu4  1  0.666667  0.333333  0.500000  1
  Lu  Lu5  1  0.666667  0.333333  0.000000  1
  Lu  Lu6  1  0.999149  0.762654  0.750395  1
  Lu  Lu7  1  0.237346  0.236495  0.750395  1
  Lu  Lu8  1  0.333333  0.666667  0.000000  1
  Lu  Lu9  1  0.763505  0.762654  0.249605  1
  Ni  Ni10  1  0.000000  0.000000  0.000000  1
  Ni  Ni11  1  0.000000  0.000000  0.500000  1
  Pb  Pb12  1  0.400859  0.001303  0.753010  1
  Pb  Pb13  1  0.998697  0.399555  0.753010  1
  Pb  Pb14  1  0.400859  0.399555  0.246990  1
  Pb  Pb15  1  0.600445  0.001303  0.246990  1
  Pb  Pb16  1  0.998697  0.599141  0.246990  1
  Pb  Pb17  1  0.600445  0.599141  0.753010  1
