# generated using pymatgen
data_TbEr2Zr(Ga3Rh)6
_symmetry_space_group_name_H-M   'P 1'
_cell_length_a   7.55375893
_cell_length_b   7.53526972
_cell_length_c   9.46269100
_cell_angle_alpha   90.00000000
_cell_angle_beta   90.00000000
_cell_angle_gamma   119.79846409
_symmetry_Int_Tables_number   1
_chemical_formula_structural   TbEr2Zr(Ga3Rh)6
_chemical_formula_sum   'Tb1 Er2 Zr1 Ga18 Rh6'
_cell_volume   467.39666091
_cell_formula_units_Z   1
loop_
 _symmetry_equiv_pos_site_id
 _symmetry_equiv_pos_as_xyz
  1  'x, y, z'
loop_
 _atom_site_type_symbol
 _atom_site_label
 _atom_site_symmetry_multiplicity
 _atom_site_fract_x
 _atom_site_fract_y
 _atom_site_fract_z
 _atom_site_occupancy
  Tb  Tb0  1  0.670148  0.998403  0.250000  1
  Er  Er1  1  0.004166  0.328867  0.750000  1
  Er  Er2  1  0.329936  0.003537  0.750000  1
  Zr  Zr3  1  0.996798  0.669218  0.250000  1
  Ga  Ga4  1  0.124468  0.123689  0.250000  1
  Ga  Ga5  1  0.871902  0.870860  0.750000  1
  Ga  Ga6  1  0.000015  0.338621  0.081899  1
  Ga  Ga7  1  0.000907  0.664982  0.922658  1
  Ga  Ga8  1  0.000907  0.664982  0.577342  1
  Ga  Ga9  1  0.330816  0.997182  0.417679  1
  Ga  Ga10  1  0.000015  0.338621  0.418101  1
  Ga  Ga11  1  0.665003  0.999632  0.580412  1
  Ga  Ga12  1  0.665003  0.999632  0.919588  1
  Ga  Ga13  1  0.330816  0.997182  0.082321  1
  Ga  Ga14  1  0.333315  0.333105  0.564312  1
  Ga  Ga15  1  0.670369  0.667759  0.431412  1
  Ga  Ga16  1  0.670369  0.667759  0.068588  1
  Ga  Ga17  1  0.333315  0.333105  0.935688  1
  Ga  Ga18  1  0.336602  0.548495  0.250000  1
  Ga  Ga19  1  0.661920  0.452136  0.750000  1
  Ga  Ga20  1  0.552196  0.341018  0.250000  1
  Ga  Ga21  1  0.450069  0.659577  0.750000  1
  Rh  Rh22  1  0.672105  0.328657  0.000683  1
  Rh  Rh23  1  0.328276  0.672368  0.001453  1
  Rh  Rh24  1  0.328276  0.672368  0.498547  1
  Rh  Rh25  1  0.672105  0.328657  0.499317  1
  Rh  Rh26  1  0.000092  0.999792  0.000322  1
  Rh  Rh27  1  0.000092  0.999792  0.499678  1
