# generated using pymatgen
data_Tb2Ga10Os2Ru
_symmetry_space_group_name_H-M   'P 1'
_cell_length_a   8.90847600
_cell_length_b   8.90847600
_cell_length_c   6.45908600
_cell_angle_alpha   90.00000000
_cell_angle_beta   90.00000000
_cell_angle_gamma   90.00072034
_symmetry_Int_Tables_number   1
_chemical_formula_structural   Tb2Ga10Os2Ru
_chemical_formula_sum   'Tb4 Ga20 Os4 Ru2'
_cell_volume   512.59916647
_cell_formula_units_Z   2
loop_
 _symmetry_equiv_pos_site_id
 _symmetry_equiv_pos_as_xyz
  1  'x, y, z'
loop_
 _atom_site_type_symbol
 _atom_site_label
 _atom_site_symmetry_multiplicity
 _atom_site_fract_x
 _atom_site_fract_y
 _atom_site_fract_z
 _atom_site_occupancy
  Tb  Tb0  1  0.183006  0.683006  0.000000  1
  Tb  Tb1  1  0.816994  0.316994  0.000000  1
  Tb  Tb2  1  0.682928  0.817072  0.000000  1
  Tb  Tb3  1  0.317072  0.182928  0.000000  1
  Ga  Ga4  1  0.061325  0.206183  0.705452  1
  Ga  Ga5  1  0.938675  0.793817  0.705452  1
  Ga  Ga6  1  0.560652  0.293386  0.705539  1
  Ga  Ga7  1  0.439348  0.706614  0.705539  1
  Ga  Ga8  1  0.793386  0.060652  0.705539  1
  Ga  Ga9  1  0.206614  0.939348  0.705539  1
  Ga  Ga10  1  0.706183  0.561325  0.705452  1
  Ga  Ga11  1  0.293817  0.438675  0.705452  1
  Ga  Ga12  1  0.938675  0.793817  0.294548  1
  Ga  Ga13  1  0.061325  0.206183  0.294548  1
  Ga  Ga14  1  0.439348  0.706614  0.294461  1
  Ga  Ga15  1  0.560652  0.293386  0.294461  1
  Ga  Ga16  1  0.206614  0.939348  0.294461  1
  Ga  Ga17  1  0.793386  0.060652  0.294461  1
  Ga  Ga18  1  0.293817  0.438675  0.294548  1
  Ga  Ga19  1  0.706183  0.561325  0.294548  1
  Ga  Ga20  1  0.000000  0.500000  0.710496  1
  Ga  Ga21  1  0.500000  0.000000  0.710442  1
  Ga  Ga22  1  0.000000  0.500000  0.289504  1
  Ga  Ga23  1  0.500000  0.000000  0.289558  1
  Os  Os24  1  0.178604  0.678604  0.500000  1
  Os  Os25  1  0.821396  0.321396  0.500000  1
  Os  Os26  1  0.000000  0.000000  0.000000  1
  Os  Os27  1  0.500000  0.500000  0.000000  1
  Ru  Ru28  1  0.678706  0.821294  0.500000  1
  Ru  Ru29  1  0.321294  0.178706  0.500000  1
