# generated using pymatgen
data_YHo3V(ReN4)3
_symmetry_space_group_name_H-M   'P 1'
_cell_length_a   7.33411344
_cell_length_b   7.37380396
_cell_length_c   6.25475160
_cell_angle_alpha   72.73530704
_cell_angle_beta   73.05061645
_cell_angle_gamma   82.04489316
_symmetry_Int_Tables_number   1
_chemical_formula_structural   YHo3V(ReN4)3
_chemical_formula_sum   'Y1 Ho3 V1 Re3 N12'
_cell_volume   308.48857713
_cell_formula_units_Z   1
loop_
 _symmetry_equiv_pos_site_id
 _symmetry_equiv_pos_as_xyz
  1  'x, y, z'
loop_
 _atom_site_type_symbol
 _atom_site_label
 _atom_site_symmetry_multiplicity
 _atom_site_fract_x
 _atom_site_fract_y
 _atom_site_fract_z
 _atom_site_occupancy
  Y  Y0  1  0.294864  0.710435  0.745948  1
  Ho  Ho1  1  0.902156  0.085882  0.761843  1
  Ho  Ho2  1  0.091708  0.905325  0.251966  1
  Ho  Ho3  1  0.708005  0.281317  0.252479  1
  V  V4  1  0.621506  0.800854  0.283395  1
  Re  Re5  1  0.202047  0.377338  0.218153  1
  Re  Re6  1  0.377293  0.203873  0.718122  1
  Re  Re7  1  0.792482  0.622865  0.785436  1
  N  N8  1  0.666955  0.633426  0.081742  1
  N  N9  1  0.383664  0.870780  0.337134  1
  N  N10  1  0.364674  0.332254  0.414757  1
  N  N11  1  0.130562  0.627153  0.158705  1
  N  N12  1  0.004096  0.218723  0.338712  1
  N  N13  1  0.780348  0.994723  0.159014  1
  N  N14  1  0.218888  0.005934  0.839148  1
  N  N15  1  0.629269  0.132650  0.656937  1
  N  N16  1  0.333728  0.363778  0.915340  1
  N  N17  1  0.873556  0.378457  0.834358  1
  N  N18  1  0.632080  0.671997  0.587766  1
  N  N19  1  0.992119  0.782235  0.659044  1
