# generated using pymatgen
data_CePr2(RhPb)3
_symmetry_space_group_name_H-M   'P 1'
_cell_length_a   7.80819548
_cell_length_b   7.90418424
_cell_length_c   3.99848600
_cell_angle_alpha   90.00000000
_cell_angle_beta   90.00000000
_cell_angle_gamma   120.40748980
_symmetry_Int_Tables_number   1
_chemical_formula_structural   CePr2(RhPb)3
_chemical_formula_sum   'Ce1 Pr2 Rh3 Pb3'
_cell_volume   212.83153932
_cell_formula_units_Z   1
loop_
 _symmetry_equiv_pos_site_id
 _symmetry_equiv_pos_as_xyz
  1  'x, y, z'
loop_
 _atom_site_type_symbol
 _atom_site_label
 _atom_site_symmetry_multiplicity
 _atom_site_fract_x
 _atom_site_fract_y
 _atom_site_fract_z
 _atom_site_occupancy
  Ce  Ce0  1  0.000000  0.586770  0.500000  1
  Pr  Pr1  1  0.407353  0.407924  0.500000  1
  Pr  Pr2  1  0.592647  0.000572  0.500000  1
  Rh  Rh3  1  0.000000  0.991365  0.500000  1
  Rh  Rh4  1  0.691485  0.353557  0.000000  1
  Rh  Rh5  1  0.308515  0.662073  0.000000  1
  Pb  Pb6  1  0.736531  0.740700  0.000000  1
  Pb  Pb7  1  0.263469  0.004170  0.000000  1
  Pb  Pb8  1  0.000000  0.252869  0.000000  1
