# generated using pymatgen
data_PrNd9Co4
_symmetry_space_group_name_H-M   'P 1'
_cell_length_a   9.00633990
_cell_length_b   9.02884403
_cell_length_c   7.09070608
_cell_angle_alpha   84.12892575
_cell_angle_beta   84.22979145
_cell_angle_gamma   42.52334922
_symmetry_Int_Tables_number   1
_chemical_formula_structural   PrNd9Co4
_chemical_formula_sum   'Pr1 Nd9 Co4'
_cell_volume   387.39878651
_cell_formula_units_Z   1
loop_
 _symmetry_equiv_pos_site_id
 _symmetry_equiv_pos_as_xyz
  1  'x, y, z'
loop_
 _atom_site_type_symbol
 _atom_site_label
 _atom_site_symmetry_multiplicity
 _atom_site_fract_x
 _atom_site_fract_y
 _atom_site_fract_z
 _atom_site_occupancy
  Pr  Pr0  1  0.010590  0.799527  0.912453  1
  Nd  Nd1  1  0.200170  0.989376  0.587585  1
  Nd  Nd2  1  0.989846  0.199970  0.087604  1
  Nd  Nd3  1  0.799904  0.010920  0.412620  1
  Nd  Nd4  1  0.355623  0.216826  0.821051  1
  Nd  Nd5  1  0.782935  0.644791  0.678833  1
  Nd  Nd6  1  0.644308  0.782736  0.179093  1
  Nd  Nd7  1  0.217275  0.354900  0.321086  1
  Nd  Nd8  1  0.567665  0.432444  0.750003  1
  Nd  Nd9  1  0.432478  0.567429  0.250221  1
  Co  Co10  1  0.184359  0.594877  0.572844  1
  Co  Co11  1  0.404453  0.815948  0.925889  1
  Co  Co12  1  0.816059  0.404340  0.426355  1
  Co  Co13  1  0.594335  0.185917  0.074363  1
