# generated using pymatgen
data_DyHo7(WC2)4
_symmetry_space_group_name_H-M   'P 1'
_cell_length_a   5.72853916
_cell_length_b   5.72853901
_cell_length_c   9.83333865
_cell_angle_alpha   89.94300114
_cell_angle_beta   89.94300234
_cell_angle_gamma   89.99362158
_symmetry_Int_Tables_number   1
_chemical_formula_structural   DyHo7(WC2)4
_chemical_formula_sum   'Dy1 Ho7 W4 C8'
_cell_volume   322.69209388
_cell_formula_units_Z   1
loop_
 _symmetry_equiv_pos_site_id
 _symmetry_equiv_pos_as_xyz
  1  'x, y, z'
loop_
 _atom_site_type_symbol
 _atom_site_label
 _atom_site_symmetry_multiplicity
 _atom_site_fract_x
 _atom_site_fract_y
 _atom_site_fract_z
 _atom_site_occupancy
  Dy  Dy0  1  0.800013  0.800013  0.658007  1
  Ho  Ho1  1  0.199877  0.199877  0.341830  1
  Ho  Ho2  1  0.300774  0.700472  0.842310  1
  Ho  Ho3  1  0.700472  0.300774  0.842310  1
  Ho  Ho4  1  0.700603  0.300330  0.158166  1
  Ho  Ho5  1  0.300330  0.700603  0.158166  1
  Ho  Ho6  1  0.199590  0.199590  0.657768  1
  Ho  Ho7  1  0.799492  0.799492  0.341831  1
  W  W8  1  0.320805  0.677308  0.499470  1
  W  W9  1  0.822345  0.822345  0.000611  1
  W  W10  1  0.179013  0.179013  0.000432  1
  W  W11  1  0.677308  0.320805  0.499470  1
  C  C12  1  0.000339  0.000339  0.154614  1
  C  C13  1  0.498745  0.498745  0.654028  1
  C  C14  1  0.498408  0.999389  0.498822  1
  C  C15  1  0.499504  0.499504  0.345350  1
  C  C16  1  0.001228  0.001228  0.846449  1
  C  C17  1  0.500762  0.001006  0.000769  1
  C  C18  1  0.001006  0.500762  0.000769  1
  C  C19  1  0.999389  0.498408  0.498822  1
