# generated using pymatgen
data_Sc5Fe(SnRu2)6
_symmetry_space_group_name_H-M   'P 1'
_cell_length_a   4.51275600
_cell_length_b   6.39499400
_cell_length_c   13.55114700
_cell_angle_alpha   90.00000000
_cell_angle_beta   89.99990272
_cell_angle_gamma   90.00000000
_symmetry_Int_Tables_number   1
_chemical_formula_structural   Sc5Fe(SnRu2)6
_chemical_formula_sum   'Sc5 Fe1 Sn6 Ru12'
_cell_volume   391.07319554
_cell_formula_units_Z   1
loop_
 _symmetry_equiv_pos_site_id
 _symmetry_equiv_pos_as_xyz
  1  'x, y, z'
loop_
 _atom_site_type_symbol
 _atom_site_label
 _atom_site_symmetry_multiplicity
 _atom_site_fract_x
 _atom_site_fract_y
 _atom_site_fract_z
 _atom_site_occupancy
  Sc  Sc0  1  0.499934  0.500001  0.164137  1
  Sc  Sc1  1  0.999929  0.000000  0.333408  1
  Sc  Sc2  1  0.500001  0.500001  0.500000  1
  Sc  Sc3  1  0.000071  0.000000  0.666591  1
  Sc  Sc4  1  0.500065  0.500001  0.835864  1
  Fe  Fe5  1  0.000000  0.000000  0.000000  1
  Sn  Sn6  1  0.000000  0.500001  0.000000  1
  Sn  Sn7  1  0.499838  0.000000  0.169953  1
  Sn  Sn8  1  0.999950  0.500001  0.330272  1
  Sn  Sn9  1  0.500001  0.000000  0.500000  1
  Sn  Sn10  1  0.000046  0.500001  0.669727  1
  Sn  Sn11  1  0.500161  0.000000  0.830048  1
  Ru  Ru12  1  0.500001  0.227217  0.000000  1
  Ru  Ru13  1  0.500001  0.772783  0.000000  1
  Ru  Ru14  1  0.999963  0.241499  0.158823  1
  Ru  Ru15  1  0.999963  0.758501  0.158823  1
  Ru  Ru16  1  0.499965  0.251911  0.331846  1
  Ru  Ru17  1  0.499965  0.748088  0.331846  1
  Ru  Ru18  1  0.000000  0.251163  0.500000  1
  Ru  Ru19  1  0.000000  0.748840  0.500000  1
  Ru  Ru20  1  0.500034  0.251911  0.668153  1
  Ru  Ru21  1  0.500034  0.748088  0.668153  1
  Ru  Ru22  1  0.000037  0.241499  0.841177  1
  Ru  Ru23  1  0.000037  0.758501  0.841177  1
