# generated using pymatgen
data_PuIn2Cl5
_symmetry_space_group_name_H-M   'P 1'
_cell_length_a   8.21934100
_cell_length_b   8.61819700
_cell_length_c   13.29296000
_cell_angle_alpha   90.00000000
_cell_angle_beta   90.00000000
_cell_angle_gamma   90.00000000
_symmetry_Int_Tables_number   1
_chemical_formula_structural   PuIn2Cl5
_chemical_formula_sum   'Pu4 In8 Cl20'
_cell_volume   941.61878458
_cell_formula_units_Z   4
loop_
 _symmetry_equiv_pos_site_id
 _symmetry_equiv_pos_as_xyz
  1  'x, y, z'
loop_
 _atom_site_type_symbol
 _atom_site_label
 _atom_site_symmetry_multiplicity
 _atom_site_fract_x
 _atom_site_fract_y
 _atom_site_fract_z
 _atom_site_occupancy
  Pu  Pu0  1  0.936047  0.750000  0.503230  1
  Pu  Pu1  1  0.063953  0.250000  0.496770  1
  Pu  Pu2  1  0.436047  0.250000  0.996770  1
  Pu  Pu3  1  0.563953  0.750000  0.003230  1
  In  In4  1  0.952592  0.004607  0.829889  1
  In  In5  1  0.047408  0.995393  0.170111  1
  In  In6  1  0.452592  0.995393  0.670111  1
  In  In7  1  0.047408  0.504607  0.170111  1
  In  In8  1  0.547408  0.004607  0.329889  1
  In  In9  1  0.952592  0.495393  0.829889  1
  In  In10  1  0.547408  0.495393  0.329889  1
  In  In11  1  0.452592  0.504607  0.670111  1
  Cl  Cl12  1  0.113646  0.750000  0.678872  1
  Cl  Cl13  1  0.886354  0.250000  0.321128  1
  Cl  Cl14  1  0.613646  0.250000  0.821128  1
  Cl  Cl15  1  0.386354  0.750000  0.178872  1
  Cl  Cl16  1  0.839235  0.040182  0.578553  1
  Cl  Cl17  1  0.160765  0.959818  0.421447  1
  Cl  Cl18  1  0.339235  0.959818  0.921447  1
  Cl  Cl19  1  0.160765  0.540182  0.421447  1
  Cl  Cl20  1  0.660765  0.040182  0.078553  1
  Cl  Cl21  1  0.839235  0.459818  0.578553  1
  Cl  Cl22  1  0.660765  0.459818  0.078553  1
  Cl  Cl23  1  0.339235  0.540182  0.921447  1
  Cl  Cl24  1  0.589339  0.750000  0.505259  1
  Cl  Cl25  1  0.410661  0.250000  0.494741  1
  Cl  Cl26  1  0.089339  0.250000  0.994741  1
  Cl  Cl27  1  0.910661  0.750000  0.005259  1
  Cl  Cl28  1  0.655755  0.750000  0.801483  1
  Cl  Cl29  1  0.344245  0.250000  0.198517  1
  Cl  Cl30  1  0.155755  0.250000  0.698517  1
  Cl  Cl31  1  0.844245  0.750000  0.301483  1
