# generated using pymatgen
data_K2TaTe4Au
_symmetry_space_group_name_H-M   'P 1'
_cell_length_a   15.01709446
_cell_length_b   13.44858929
_cell_length_c   8.01049863
_cell_angle_alpha   84.80218538
_cell_angle_beta   63.10909123
_cell_angle_gamma   32.08872400
_symmetry_Int_Tables_number   1
_chemical_formula_structural   K2TaTe4Au
_chemical_formula_sum   'K4 Ta2 Te8 Au2'
_cell_volume   602.85537974
_cell_formula_units_Z   2
loop_
 _symmetry_equiv_pos_site_id
 _symmetry_equiv_pos_as_xyz
  1  'x, y, z'
loop_
 _atom_site_type_symbol
 _atom_site_label
 _atom_site_symmetry_multiplicity
 _atom_site_fract_x
 _atom_site_fract_y
 _atom_site_fract_z
 _atom_site_occupancy
  K  K0  1  0.431498  0.431498  0.068502  1
  K  K1  1  0.818502  0.818502  0.181498  1
  K  K2  1  0.068502  0.068502  0.431498  1
  K  K3  1  0.181498  0.181498  0.818502  1
  Ta  Ta4  1  0.000000  0.000000  0.000000  1
  Ta  Ta5  1  0.250000  0.250000  0.250000  1
  Te  Te6  1  0.722731  0.397433  0.064163  1
  Te  Te7  1  0.815674  0.064163  0.397433  1
  Te  Te8  1  0.064163  0.815674  0.722731  1
  Te  Te9  1  0.397433  0.722731  0.815674  1
  Te  Te10  1  0.527269  0.852567  0.185837  1
  Te  Te11  1  0.852567  0.527269  0.434326  1
  Te  Te12  1  0.185837  0.434326  0.527269  1
  Te  Te13  1  0.434326  0.185837  0.852567  1
  Au  Au14  1  0.500000  0.500000  0.500000  1
  Au  Au15  1  0.750000  0.750000  0.750000  1
