# generated using pymatgen
data_Ta2Cr3(NiP)4
_symmetry_space_group_name_H-M   'P 1'
_cell_length_a   7.02064785
_cell_length_b   7.02064677
_cell_length_c   6.86105037
_cell_angle_alpha   93.52200528
_cell_angle_beta   93.94916751
_cell_angle_gamma   150.76911613
_symmetry_Int_Tables_number   1
_chemical_formula_structural   Ta2Cr3(NiP)4
_chemical_formula_sum   'Ta2 Cr3 Ni4 P4'
_cell_volume   159.54134321
_cell_formula_units_Z   1
loop_
 _symmetry_equiv_pos_site_id
 _symmetry_equiv_pos_as_xyz
  1  'x, y, z'
loop_
 _atom_site_type_symbol
 _atom_site_label
 _atom_site_symmetry_multiplicity
 _atom_site_fract_x
 _atom_site_fract_y
 _atom_site_fract_z
 _atom_site_occupancy
  Ta  Ta0  1  0.189087  0.122742  0.311830  1
  Ta  Ta1  1  0.810913  0.877258  0.688170  1
  Cr  Cr2  1  0.875262  0.194277  0.069539  1
  Cr  Cr3  1  0.124738  0.805723  0.930461  1
  Cr  Cr4  1  0.500000  0.500000  0.000000  1
  Ni  Ni5  1  0.613758  0.089508  0.703267  1
  Ni  Ni6  1  0.386242  0.910492  0.296733  1
  Ni  Ni7  1  0.088852  0.392536  0.481388  1
  Ni  Ni8  1  0.911148  0.607464  0.518612  1
  P  P9  1  0.745146  0.427777  0.172923  1
  P  P10  1  0.254854  0.572223  0.827077  1
  P  P11  1  0.450845  0.249936  0.700782  1
  P  P12  1  0.549155  0.750064  0.299218  1
