# generated using pymatgen
data_BaAgBi2Pd
_symmetry_space_group_name_H-M   'P 1'
_cell_length_a   5.00043500
_cell_length_b   5.00043500
_cell_length_c   11.45186100
_cell_angle_alpha   90.00000000
_cell_angle_beta   90.00000000
_cell_angle_gamma   90.00000000
_symmetry_Int_Tables_number   1
_chemical_formula_structural   BaAgBi2Pd
_chemical_formula_sum   'Ba2 Ag2 Bi4 Pd2'
_cell_volume   286.34634276
_cell_formula_units_Z   2
loop_
 _symmetry_equiv_pos_site_id
 _symmetry_equiv_pos_as_xyz
  1  'x, y, z'
loop_
 _atom_site_type_symbol
 _atom_site_label
 _atom_site_symmetry_multiplicity
 _atom_site_fract_x
 _atom_site_fract_y
 _atom_site_fract_z
 _atom_site_occupancy
  Ba  Ba0  1  0.000000  0.500000  0.749068  1
  Ba  Ba1  1  0.500000  0.000000  0.250932  1
  Ag  Ag2  1  0.000000  0.000000  0.000000  1
  Ag  Ag3  1  0.500000  0.500000  0.000000  1
  Bi  Bi4  1  0.000000  0.000000  0.500000  1
  Bi  Bi5  1  0.500000  0.500000  0.500000  1
  Bi  Bi6  1  0.000000  0.500000  0.139859  1
  Bi  Bi7  1  0.500000  0.000000  0.860141  1
  Pd  Pd8  1  0.000000  0.500000  0.381683  1
  Pd  Pd9  1  0.500000  0.000000  0.618317  1
