# generated using pymatgen
data_LaV6InO18
_symmetry_space_group_name_H-M   'P 1'
_cell_length_a   7.37083404
_cell_length_b   8.37004304
_cell_length_c   9.46588800
_cell_angle_alpha   106.00685405
_cell_angle_beta   112.98898613
_cell_angle_gamma   64.02609375
_symmetry_Int_Tables_number   1
_chemical_formula_structural   LaV6InO18
_chemical_formula_sum   'La1 V6 In1 O18'
_cell_volume   479.42416536
_cell_formula_units_Z   1
loop_
 _symmetry_equiv_pos_site_id
 _symmetry_equiv_pos_as_xyz
  1  'x, y, z'
loop_
 _atom_site_type_symbol
 _atom_site_label
 _atom_site_symmetry_multiplicity
 _atom_site_fract_x
 _atom_site_fract_y
 _atom_site_fract_z
 _atom_site_occupancy
  La  La0  1  0.200354  0.855229  0.741520  1
  V  V1  1  0.757257  0.600739  0.018543  1
  V  V2  1  0.978274  0.915793  0.079837  1
  V  V3  1  0.429499  0.804497  0.411164  1
  V  V4  1  0.646296  0.113218  0.495154  1
  V  V5  1  0.162843  0.397871  0.565059  1
  V  V6  1  0.206255  0.313524  0.927900  1
  In  In7  1  0.680463  0.359518  0.244801  1
  O  O8  1  0.373253  0.403866  0.069274  1
  O  O9  1  0.824300  0.136488  0.092237  1
  O  O10  1  0.850298  0.782825  0.092627  1
  O  O11  1  0.693390  0.563131  0.155762  1
  O  O12  1  0.224308  0.874477  0.234716  1
  O  O13  1  0.637853  0.176951  0.337625  1
  O  O14  1  0.992527  0.323424  0.410565  1
  O  O15  1  0.538539  0.578360  0.402817  1
  O  O16  1  0.624234  0.897335  0.445851  1
  O  O17  1  0.323808  0.890796  0.557104  1
  O  O18  1  0.106825  0.615613  0.564836  1
  O  O19  1  0.432120  0.272761  0.565096  1
  O  O20  1  0.878360  0.094740  0.636247  1
  O  O21  1  0.150621  0.374829  0.743673  1
  O  O22  1  0.544039  0.652187  0.859100  1
  O  O23  1  0.033020  0.849846  0.911105  1
  O  O24  1  0.309507  0.089079  0.919992  1
  O  O25  1  0.958548  0.399508  0.967595  1
