# generated using pymatgen
data_Tm5Ga2Ru3
_symmetry_space_group_name_H-M   'P 1'
_cell_length_a   8.23682071
_cell_length_b   8.23682054
_cell_length_c   8.23682100
_cell_angle_alpha   109.47122177
_cell_angle_beta   109.47122136
_cell_angle_gamma   109.47121684
_symmetry_Int_Tables_number   1
_chemical_formula_structural   Tm5Ga2Ru3
_chemical_formula_sum   'Tm10 Ga4 Ru6'
_cell_volume   430.18668515
_cell_formula_units_Z   2
loop_
 _symmetry_equiv_pos_site_id
 _symmetry_equiv_pos_as_xyz
  1  'x, y, z'
loop_
 _atom_site_type_symbol
 _atom_site_label
 _atom_site_symmetry_multiplicity
 _atom_site_fract_x
 _atom_site_fract_y
 _atom_site_fract_z
 _atom_site_occupancy
  Tm  Tm0  1  0.250000  0.681386  0.431386  1
  Tm  Tm1  1  0.750000  0.818614  0.068614  1
  Tm  Tm2  1  0.431386  0.250000  0.681386  1
  Tm  Tm3  1  0.681386  0.431386  0.250000  1
  Tm  Tm4  1  0.068614  0.750000  0.818614  1
  Tm  Tm5  1  0.818614  0.068614  0.750000  1
  Tm  Tm6  1  0.216289  0.216289  0.216289  1
  Tm  Tm7  1  0.500000  0.000000  0.283711  1
  Tm  Tm8  1  0.283711  0.500000  0.000000  1
  Tm  Tm9  1  0.000000  0.283711  0.500000  1
  Ga  Ga10  1  0.587480  0.587480  0.587480  1
  Ga  Ga11  1  0.500000  0.000000  0.912520  1
  Ga  Ga12  1  0.912520  0.500000  0.000000  1
  Ga  Ga13  1  0.000000  0.912520  0.500000  1
  Ru  Ru14  1  0.250000  0.126582  0.876582  1
  Ru  Ru15  1  0.750000  0.373418  0.623418  1
  Ru  Ru16  1  0.876581  0.250000  0.126582  1
  Ru  Ru17  1  0.126582  0.876581  0.250000  1
  Ru  Ru18  1  0.623418  0.750000  0.373418  1
  Ru  Ru19  1  0.373418  0.623418  0.750000  1
