# generated using pymatgen
data_Ba(AcSe2)2
_symmetry_space_group_name_H-M   'P 1'
_cell_length_a   8.24841303
_cell_length_b   8.24839232
_cell_length_c   8.24841388
_cell_angle_alpha   109.35845703
_cell_angle_beta   109.35910326
_cell_angle_gamma   109.69643732
_symmetry_Int_Tables_number   1
_chemical_formula_structural   Ba(AcSe2)2
_chemical_formula_sum   'Ba2 Ac4 Se8'
_cell_volume   431.99894801
_cell_formula_units_Z   2
loop_
 _symmetry_equiv_pos_site_id
 _symmetry_equiv_pos_as_xyz
  1  'x, y, z'
loop_
 _atom_site_type_symbol
 _atom_site_label
 _atom_site_symmetry_multiplicity
 _atom_site_fract_x
 _atom_site_fract_y
 _atom_site_fract_z
 _atom_site_occupancy
  Ba  Ba0  1  0.749999  0.250000  0.499998  1
  Ba  Ba1  1  0.499998  0.500000  0.999999  1
  Ac  Ac2  1  0.997028  0.375000  0.122028  1
  Ac  Ac3  1  0.625000  0.747029  0.622031  1
  Ac  Ac4  1  0.252974  0.875000  0.877974  1
  Ac  Ac5  1  0.125002  0.002971  0.377971  1
  Se  Se6  1  0.519581  0.112846  0.747835  1
  Se  Se7  1  0.887153  0.634987  0.406736  1
  Se  Se8  1  0.362846  0.269582  0.247835  1
  Se  Se9  1  0.730418  0.978253  0.093264  1
  Se  Se10  1  0.884988  0.637154  0.906734  1
  Se  Se11  1  0.228253  0.480418  0.593264  1
  Se  Se12  1  0.365011  0.771747  0.252165  1
  Se  Se13  1  0.021748  0.115013  0.752166  1
