# generated using pymatgen
data_La5NdAl24(RuRh3)2
_symmetry_space_group_name_H-M   'P 1'
_cell_length_a   8.97509436
_cell_length_b   8.97509506
_cell_length_c   9.69502300
_cell_angle_alpha   90.00000000
_cell_angle_beta   90.00000000
_cell_angle_gamma   120.03253230
_symmetry_Int_Tables_number   1
_chemical_formula_structural   La5NdAl24(RuRh3)2
_chemical_formula_sum   'La5 Nd1 Al24 Ru2 Rh6'
_cell_volume   676.10647224
_cell_formula_units_Z   1
loop_
 _symmetry_equiv_pos_site_id
 _symmetry_equiv_pos_as_xyz
  1  'x, y, z'
loop_
 _atom_site_type_symbol
 _atom_site_label
 _atom_site_symmetry_multiplicity
 _atom_site_fract_x
 _atom_site_fract_y
 _atom_site_fract_z
 _atom_site_occupancy
  La  La0  1  0.190986  0.381919  0.250000  1
  La  La1  1  0.808262  0.617773  0.750000  1
  La  La2  1  0.618081  0.809014  0.250000  1
  La  La3  1  0.382227  0.191738  0.750000  1
  La  La4  1  0.190898  0.809102  0.250000  1
  Nd  Nd5  1  0.810249  0.189751  0.750000  1
  Al  Al6  1  0.333243  0.666757  0.004923  1
  Al  Al7  1  0.667845  0.332155  0.984621  1
  Al  Al8  1  0.667845  0.332155  0.515379  1
  Al  Al9  1  0.333243  0.666757  0.495077  1
  Al  Al10  1  0.160669  0.323924  0.576054  1
  Al  Al11  1  0.837314  0.674284  0.424700  1
  Al  Al12  1  0.676076  0.839331  0.576054  1
  Al  Al13  1  0.837314  0.674284  0.075300  1
  Al  Al14  1  0.325716  0.162686  0.424700  1
  Al  Al15  1  0.160669  0.323924  0.923946  1
  Al  Al16  1  0.161961  0.838039  0.576489  1
  Al  Al17  1  0.325716  0.162686  0.075300  1
  Al  Al18  1  0.837333  0.162667  0.425325  1
  Al  Al19  1  0.676076  0.839331  0.923946  1
  Al  Al20  1  0.837333  0.162667  0.074675  1
  Al  Al21  1  0.161961  0.838039  0.923511  1
  Al  Al22  1  0.565089  0.129344  0.250000  1
  Al  Al23  1  0.437445  0.873912  0.750000  1
  Al  Al24  1  0.870656  0.434911  0.250000  1
  Al  Al25  1  0.126088  0.562555  0.750000  1
  Al  Al26  1  0.564971  0.435029  0.250000  1
  Al  Al27  1  0.435133  0.564867  0.750000  1
  Al  Al28  1  0.999966  0.000034  0.250000  1
  Al  Al29  1  0.999569  0.000431  0.750000  1
  Ru  Ru30  1  0.999796  0.000204  0.000773  1
  Ru  Ru31  1  0.999796  0.000204  0.499227  1
  Rh  Rh32  1  0.499468  0.998821  0.000620  1
  Rh  Rh33  1  0.001179  0.500532  0.000620  1
  Rh  Rh34  1  0.499468  0.998821  0.499380  1
  Rh  Rh35  1  0.499591  0.500409  0.999916  1
  Rh  Rh36  1  0.001179  0.500532  0.499380  1
  Rh  Rh37  1  0.499591  0.500409  0.500084  1
