# generated using pymatgen
data_SrNd3(SeO)4
_symmetry_space_group_name_H-M   'P 1'
_cell_length_a   7.74820241
_cell_length_b   7.74820319
_cell_length_c   5.94950407
_cell_angle_alpha   90.12484609
_cell_angle_beta   90.12484172
_cell_angle_gamma   134.82974022
_symmetry_Int_Tables_number   1
_chemical_formula_structural   SrNd3(SeO)4
_chemical_formula_sum   'Sr1 Nd3 Se4 O4'
_cell_volume   253.30715436
_cell_formula_units_Z   1
loop_
 _symmetry_equiv_pos_site_id
 _symmetry_equiv_pos_as_xyz
  1  'x, y, z'
loop_
 _atom_site_type_symbol
 _atom_site_label
 _atom_site_symmetry_multiplicity
 _atom_site_fract_x
 _atom_site_fract_y
 _atom_site_fract_z
 _atom_site_occupancy
  Sr  Sr0  1  0.332806  0.667194  0.000000  1
  Nd  Nd1  1  0.173905  0.826095  0.500000  1
  Nd  Nd2  1  0.823316  0.176684  0.500000  1
  Nd  Nd3  1  0.673696  0.326304  0.000000  1
  Se  Se4  1  0.859591  0.853513  0.853240  1
  Se  Se5  1  0.348369  0.344038  0.632941  1
  Se  Se6  1  0.146487  0.140409  0.146760  1
  Se  Se7  1  0.655962  0.651631  0.367059  1
  O  O8  1  0.501454  0.007282  0.744473  1
  O  O9  1  0.992718  0.498546  0.255527  1
  O  O10  1  0.505150  0.013453  0.256667  1
  O  O11  1  0.986547  0.494850  0.743333  1
