# generated using pymatgen
data_RbCeErS6
_symmetry_space_group_name_H-M   'P 1'
_cell_length_a   11.21412202
_cell_length_b   11.21412260
_cell_length_c   11.21412100
_cell_angle_alpha   159.81582627
_cell_angle_beta   152.94463861
_cell_angle_gamma   33.98788410
_symmetry_Int_Tables_number   1
_chemical_formula_structural   RbCeErS6
_chemical_formula_sum   'Rb1 Ce1 Er1 S6'
_cell_volume   221.12342881
_cell_formula_units_Z   1
loop_
 _symmetry_equiv_pos_site_id
 _symmetry_equiv_pos_as_xyz
  1  'x, y, z'
loop_
 _atom_site_type_symbol
 _atom_site_label
 _atom_site_symmetry_multiplicity
 _atom_site_fract_x
 _atom_site_fract_y
 _atom_site_fract_z
 _atom_site_occupancy
  Rb  Rb0  1  0.996587  0.996587  0.000000  1
  Ce  Ce1  1  0.689254  0.189254  0.500000  1
  Er  Er2  1  0.315356  0.815356  0.500000  1
  S  S3  1  0.192022  0.392432  0.799590  1
  S  S4  1  0.225160  0.225160  0.000000  1
  S  S5  1  0.408567  0.606421  0.802148  1
  S  S6  1  0.592844  0.392432  0.200410  1
  S  S7  1  0.804273  0.606421  0.197852  1
  S  S8  1  0.775938  0.775938  0.000000  1
