# generated using pymatgen
data_SmTh3Fe3NiB16
_symmetry_space_group_name_H-M   'P 1'
_cell_length_a   6.93285828
_cell_length_b   6.93295011
_cell_length_c   6.93294957
_cell_angle_alpha   112.58243096
_cell_angle_beta   112.25706574
_cell_angle_gamma   103.72329301
_symmetry_Int_Tables_number   1
_chemical_formula_structural   SmTh3Fe3NiB16
_chemical_formula_sum   'Sm1 Th3 Fe3 Ni1 B16'
_cell_volume   254.60923361
_cell_formula_units_Z   1
loop_
 _symmetry_equiv_pos_site_id
 _symmetry_equiv_pos_as_xyz
  1  'x, y, z'
loop_
 _atom_site_type_symbol
 _atom_site_label
 _atom_site_symmetry_multiplicity
 _atom_site_fract_x
 _atom_site_fract_y
 _atom_site_fract_z
 _atom_site_occupancy
  Sm  Sm0  1  0.794329  0.792674  0.001655  1
  Th  Th1  1  0.744297  0.246041  0.498255  1
  Th  Th2  1  0.251745  0.753683  0.498062  1
  Th  Th3  1  0.210710  0.208719  0.001991  1
  Fe  Fe4  1  0.499587  0.275085  0.776584  1
  Fe  Fe5  1  0.499587  0.723003  0.224502  1
  Fe  Fe6  1  0.724833  0.499786  0.225047  1
  Ni  Ni7  1  0.268593  0.499764  0.768829  1
  B  B8  1  0.419596  0.416584  0.536461  1
  B  B9  1  0.882013  0.880911  0.462751  1
  B  B10  1  0.581968  0.119261  0.001326  1
  B  B11  1  0.119757  0.583321  0.002497  1
  B  B12  1  0.581968  0.580641  0.462707  1
  B  B13  1  0.119757  0.117260  0.536436  1
  B  B14  1  0.882013  0.419261  0.001102  1
  B  B15  1  0.419596  0.883136  0.003012  1
  B  B16  1  0.111719  0.274928  0.386464  1
  B  B17  1  0.888752  0.723371  0.611542  1
  B  B18  1  0.888752  0.277209  0.165381  1
  B  B19  1  0.111719  0.725256  0.836791  1
  B  B20  1  0.722673  0.887172  0.609708  1
  B  B21  1  0.276682  0.112000  0.388714  1
  B  B22  1  0.722673  0.112964  0.835501  1
  B  B23  1  0.276682  0.887970  0.164682  1
