# generated using pymatgen
data_Tm4V3TcB16
_symmetry_space_group_name_H-M   'P 1'
_cell_length_a   3.46639500
_cell_length_b   5.95248230
_cell_length_c   11.51752883
_cell_angle_alpha   89.98641807
_cell_angle_beta   90.00000000
_cell_angle_gamma   90.00000000
_symmetry_Int_Tables_number   1
_chemical_formula_structural   Tm4V3TcB16
_chemical_formula_sum   'Tm4 V3 Tc1 B16'
_cell_volume   237.64870816
_cell_formula_units_Z   1
loop_
 _symmetry_equiv_pos_site_id
 _symmetry_equiv_pos_as_xyz
  1  'x, y, z'
loop_
 _atom_site_type_symbol
 _atom_site_label
 _atom_site_symmetry_multiplicity
 _atom_site_fract_x
 _atom_site_fract_y
 _atom_site_fract_z
 _atom_site_occupancy
  Tm  Tm0  1  0.000000  0.623872  0.349884  1
  Tm  Tm1  1  0.000000  0.375465  0.650978  1
  Tm  Tm2  1  0.000000  0.126680  0.151750  1
  Tm  Tm3  1  0.000000  0.874521  0.848845  1
  V  V4  1  0.000000  0.371562  0.917800  1
  V  V5  1  0.000000  0.127697  0.415879  1
  V  V6  1  0.000000  0.872481  0.582789  1
  Tc  Tc7  1  0.000000  0.628432  0.083168  1
  B  B8  1  0.500000  0.786310  0.185267  1
  B  B9  1  0.500000  0.213559  0.814421  1
  B  B10  1  0.500000  0.287157  0.313888  1
  B  B11  1  0.500000  0.712557  0.685980  1
  B  B12  1  0.500000  0.865876  0.031728  1
  B  B13  1  0.500000  0.134061  0.967838  1
  B  B14  1  0.500000  0.365374  0.467562  1
  B  B15  1  0.500000  0.634528  0.532522  1
  B  B16  1  0.500000  0.884868  0.452071  1
  B  B17  1  0.500000  0.115601  0.547973  1
  B  B18  1  0.500000  0.385341  0.047662  1
  B  B19  1  0.500000  0.614693  0.952043  1
  B  B20  1  0.500000  0.976646  0.306702  1
  B  B21  1  0.500000  0.023144  0.693264  1
  B  B22  1  0.500000  0.477112  0.193077  1
  B  B23  1  0.500000  0.522465  0.806911  1
