# generated using pymatgen
data_Ca8NdHo(Sn3H)2
_symmetry_space_group_name_H-M   'P 1'
_cell_length_a   9.43584607
_cell_length_b   9.43584547
_cell_length_c   9.43911995
_cell_angle_alpha   128.87500313
_cell_angle_beta   128.87500207
_cell_angle_gamma   75.20114481
_symmetry_Int_Tables_number   1
_chemical_formula_structural   Ca8NdHo(Sn3H)2
_chemical_formula_sum   'Ca8 Nd1 Ho1 Sn6 H2'
_cell_volume   495.89085224
_cell_formula_units_Z   1
loop_
 _symmetry_equiv_pos_site_id
 _symmetry_equiv_pos_as_xyz
  1  'x, y, z'
loop_
 _atom_site_type_symbol
 _atom_site_label
 _atom_site_symmetry_multiplicity
 _atom_site_fract_x
 _atom_site_fract_y
 _atom_site_fract_z
 _atom_site_occupancy
  Ca  Ca0  1  0.502402  0.502036  0.000631  1
  Ca  Ca1  1  0.002036  0.002402  0.000631  1
  Ca  Ca2  1  0.007527  0.185703  0.498576  1
  Ca  Ca3  1  0.685703  0.507527  0.498576  1
  Ca  Ca4  1  0.488778  0.988778  0.178235  1
  Ca  Ca5  1  0.808700  0.308700  0.819309  1
  Ca  Ca6  1  0.989274  0.813110  0.501360  1
  Ca  Ca7  1  0.313110  0.489274  0.501360  1
  Nd  Nd8  1  0.184024  0.684024  0.164988  1
  Ho  Ho9  1  0.517212  0.017212  0.829101  1
  Sn  Sn10  1  0.256192  0.249697  0.998874  1
  Sn  Sn11  1  0.749697  0.756192  0.998874  1
  Sn  Sn12  1  0.868008  0.368008  0.238373  1
  Sn  Sn13  1  0.125199  0.625199  0.753259  1
  Sn  Sn14  1  0.367780  0.124013  0.502752  1
  Sn  Sn15  1  0.624013  0.867780  0.502752  1
  H  H16  1  0.262599  0.762599  0.511757  1
  H  H17  1  0.747745  0.247745  0.500592  1
