# generated using pymatgen
data_K6AlTe4I
_symmetry_space_group_name_H-M   'P 1'
_cell_length_a   11.37709500
_cell_length_b   11.37709450
_cell_length_c   8.40971200
_cell_angle_alpha   90.00000000
_cell_angle_beta   90.00000000
_cell_angle_gamma   119.99999855
_symmetry_Int_Tables_number   1
_chemical_formula_structural   K6AlTe4I
_chemical_formula_sum   'K12 Al2 Te8 I2'
_cell_volume   942.70217921
_cell_formula_units_Z   2
loop_
 _symmetry_equiv_pos_site_id
 _symmetry_equiv_pos_as_xyz
  1  'x, y, z'
loop_
 _atom_site_type_symbol
 _atom_site_label
 _atom_site_symmetry_multiplicity
 _atom_site_fract_x
 _atom_site_fract_y
 _atom_site_fract_z
 _atom_site_occupancy
  K  K0  1  0.139255  0.860745  0.514058  1
  K  K1  1  0.721488  0.860745  0.514058  1
  K  K2  1  0.951477  0.475739  0.321122  1
  K  K3  1  0.524261  0.475739  0.321122  1
  K  K4  1  0.860745  0.721488  0.014058  1
  K  K5  1  0.278512  0.139255  0.014058  1
  K  K6  1  0.524261  0.048523  0.321122  1
  K  K7  1  0.139255  0.278512  0.514058  1
  K  K8  1  0.860745  0.139255  0.014058  1
  K  K9  1  0.048523  0.524261  0.821122  1
  K  K10  1  0.475739  0.951477  0.821122  1
  K  K11  1  0.475739  0.524261  0.821122  1
  Al  Al12  1  0.666667  0.333333  0.707586  1
  Al  Al13  1  0.333333  0.666667  0.207586  1
  Te  Te14  1  0.411054  0.205528  0.608535  1
  Te  Te15  1  0.588946  0.794472  0.108535  1
  Te  Te16  1  0.666667  0.333333  0.029356  1
  Te  Te17  1  0.794472  0.588946  0.608535  1
  Te  Te18  1  0.205528  0.411054  0.108535  1
  Te  Te19  1  0.333333  0.666667  0.529356  1
  Te  Te20  1  0.205528  0.794472  0.108535  1
  Te  Te21  1  0.794472  0.205528  0.608535  1
  I  I22  1  0.000000  0.000000  0.272513  1
  I  I23  1  0.000000  0.000000  0.772513  1
