# generated using pymatgen
data_Dy3LuSc3AlPt4
_symmetry_space_group_name_H-M   'P 1'
_cell_length_a   4.51031700
_cell_length_b   6.99315452
_cell_length_c   8.27780191
_cell_angle_alpha   86.92075622
_cell_angle_beta   90.00000000
_cell_angle_gamma   90.00000000
_symmetry_Int_Tables_number   1
_chemical_formula_structural   Dy3LuSc3AlPt4
_chemical_formula_sum   'Dy3 Lu1 Sc3 Al1 Pt4'
_cell_volume   260.71602799
_cell_formula_units_Z   1
loop_
 _symmetry_equiv_pos_site_id
 _symmetry_equiv_pos_as_xyz
  1  'x, y, z'
loop_
 _atom_site_type_symbol
 _atom_site_label
 _atom_site_symmetry_multiplicity
 _atom_site_fract_x
 _atom_site_fract_y
 _atom_site_fract_z
 _atom_site_occupancy
  Dy  Dy0  1  0.250000  0.040244  0.672291  1
  Dy  Dy1  1  0.250000  0.519783  0.815089  1
  Dy  Dy2  1  0.750000  0.990404  0.340554  1
  Lu  Lu3  1  0.750000  0.466919  0.182694  1
  Sc  Sc4  1  0.250000  0.132853  0.070875  1
  Sc  Sc5  1  0.250000  0.641913  0.433833  1
  Sc  Sc6  1  0.750000  0.859653  0.930790  1
  Al  Al7  1  0.750000  0.362869  0.566320  1
  Pt  Pt8  1  0.250000  0.266136  0.382611  1
  Pt  Pt9  1  0.250000  0.740791  0.101944  1
  Pt  Pt10  1  0.750000  0.733195  0.615717  1
  Pt  Pt11  1  0.750000  0.245243  0.887281  1
