# generated using pymatgen
data_Tm3Sc9CdNi4Sn
_symmetry_space_group_name_H-M   'P 1'
_cell_length_a   7.96721373
_cell_length_b   7.92759969
_cell_length_c   7.93093616
_cell_angle_alpha   106.54554609
_cell_angle_beta   109.59108104
_cell_angle_gamma   112.08361161
_symmetry_Int_Tables_number   1
_chemical_formula_structural   Tm3Sc9CdNi4Sn
_chemical_formula_sum   'Tm3 Sc9 Cd1 Ni4 Sn1'
_cell_volume   385.85151555
_cell_formula_units_Z   1
loop_
 _symmetry_equiv_pos_site_id
 _symmetry_equiv_pos_as_xyz
  1  'x, y, z'
loop_
 _atom_site_type_symbol
 _atom_site_label
 _atom_site_symmetry_multiplicity
 _atom_site_fract_x
 _atom_site_fract_y
 _atom_site_fract_z
 _atom_site_occupancy
  Tm  Tm0  1  0.980737  0.794644  0.186116  1
  Tm  Tm1  1  0.018144  0.206151  0.811937  1
  Tm  Tm2  1  0.393564  0.206389  0.187138  1
  Sc  Sc3  1  0.705971  0.266701  0.980378  1
  Sc  Sc4  1  0.295096  0.729300  0.017717  1
  Sc  Sc5  1  0.706132  0.725579  0.439443  1
  Sc  Sc6  1  0.294958  0.278102  0.566255  1
  Sc  Sc7  1  0.801619  0.123088  0.322160  1
  Sc  Sc8  1  0.800787  0.478466  0.678021  1
  Sc  Sc9  1  0.199114  0.873432  0.676467  1
  Sc  Sc10  1  0.198980  0.522284  0.325759  1
  Sc  Sc11  1  0.606562  0.795313  0.811508  1
  Cd  Cd12  1  0.505563  0.505968  0.000011  1
  Ni  Ni13  1  0.858275  0.498876  0.358505  1
  Ni  Ni14  1  0.142672  0.501144  0.643989  1
  Ni  Ni15  1  0.996274  0.132479  0.131456  1
  Ni  Ni16  1  0.995688  0.862709  0.862199  1
  Sn  Sn17  1  0.499864  0.999376  0.500941  1
