# generated using pymatgen
data_Er2Tm(InRh)3
_symmetry_space_group_name_H-M   'P 1'
_cell_length_a   7.53404600
_cell_length_b   7.53519505
_cell_length_c   3.87562200
_cell_angle_alpha   90.00000000
_cell_angle_beta   90.00000000
_cell_angle_gamma   119.99495578
_symmetry_Int_Tables_number   1
_chemical_formula_structural   Er2Tm(InRh)3
_chemical_formula_sum   'Er2 Tm1 In3 Rh3'
_cell_volume   190.55347915
_cell_formula_units_Z   1
loop_
 _symmetry_equiv_pos_site_id
 _symmetry_equiv_pos_as_xyz
  1  'x, y, z'
loop_
 _atom_site_type_symbol
 _atom_site_label
 _atom_site_symmetry_multiplicity
 _atom_site_fract_x
 _atom_site_fract_y
 _atom_site_fract_z
 _atom_site_occupancy
  Er  Er0  1  0.000026  0.406128  0.500000  1
  Er  Er1  1  0.593899  0.593872  0.500000  1
  Tm  Tm2  1  0.405664  0.000000  0.500000  1
  In  In3  1  0.260004  0.259876  0.000000  1
  In  In4  1  0.000127  0.740124  0.000000  1
  In  In5  1  0.739819  0.000000  0.000000  1
  Rh  Rh6  1  0.333597  0.667326  0.000000  1
  Rh  Rh7  1  0.000592  0.000000  0.500000  1
  Rh  Rh8  1  0.666272  0.332674  0.000000  1
