# generated using pymatgen
data_Hf3AlIr2N
_symmetry_space_group_name_H-M   'P 1'
_cell_length_a   8.49125068
_cell_length_b   8.49125151
_cell_length_c   8.49125000
_cell_angle_alpha   60.00000590
_cell_angle_beta   60.00000267
_cell_angle_gamma   59.99999826
_symmetry_Int_Tables_number   1
_chemical_formula_structural   Hf3AlIr2N
_chemical_formula_sum   'Hf12 Al4 Ir8 N4'
_cell_volume   432.91239422
_cell_formula_units_Z   4
loop_
 _symmetry_equiv_pos_site_id
 _symmetry_equiv_pos_as_xyz
  1  'x, y, z'
loop_
 _atom_site_type_symbol
 _atom_site_label
 _atom_site_symmetry_multiplicity
 _atom_site_fract_x
 _atom_site_fract_y
 _atom_site_fract_z
 _atom_site_occupancy
  Hf  Hf0  1  0.808946  0.808946  0.191054  1
  Hf  Hf1  1  0.191054  0.191054  0.808946  1
  Hf  Hf2  1  0.808946  0.191054  0.808946  1
  Hf  Hf3  1  0.191054  0.808946  0.191054  1
  Hf  Hf4  1  0.191054  0.808946  0.808946  1
  Hf  Hf5  1  0.808946  0.191054  0.191054  1
  Hf  Hf6  1  0.441054  0.441054  0.058946  1
  Hf  Hf7  1  0.058946  0.058946  0.441054  1
  Hf  Hf8  1  0.441054  0.058946  0.441054  1
  Hf  Hf9  1  0.058946  0.441054  0.058946  1
  Hf  Hf10  1  0.058946  0.441054  0.441054  1
  Hf  Hf11  1  0.441054  0.058946  0.058946  1
  Al  Al12  1  0.125000  0.625000  0.625000  1
  Al  Al13  1  0.625000  0.125000  0.625000  1
  Al  Al14  1  0.625000  0.625000  0.125000  1
  Al  Al15  1  0.625000  0.625000  0.625000  1
  Ir  Ir16  1  0.755916  0.414695  0.414695  1
  Ir  Ir17  1  0.414695  0.755916  0.414695  1
  Ir  Ir18  1  0.414695  0.414695  0.755916  1
  Ir  Ir19  1  0.414695  0.414695  0.414695  1
  Ir  Ir20  1  0.494084  0.835305  0.835305  1
  Ir  Ir21  1  0.835305  0.494084  0.835305  1
  Ir  Ir22  1  0.835305  0.835305  0.494084  1
  Ir  Ir23  1  0.835305  0.835305  0.835305  1
  N  N24  1  0.625000  0.125000  0.125000  1
  N  N25  1  0.125000  0.625000  0.125000  1
  N  N26  1  0.125000  0.125000  0.625000  1
  N  N27  1  0.125000  0.125000  0.125000  1
