# generated using pymatgen
data_PrTlCuPd3
_symmetry_space_group_name_H-M   'P 1'
_cell_length_a   5.56002274
_cell_length_b   5.56002400
_cell_length_c   5.30325200
_cell_angle_alpha   58.38501084
_cell_angle_beta   58.38501495
_cell_angle_gamma   60.00000519
_symmetry_Int_Tables_number   1
_chemical_formula_structural   PrTlCuPd3
_chemical_formula_sum   'Pr1 Tl1 Cu1 Pd3'
_cell_volume   113.01501189
_cell_formula_units_Z   1
loop_
 _symmetry_equiv_pos_site_id
 _symmetry_equiv_pos_as_xyz
  1  'x, y, z'
loop_
 _atom_site_type_symbol
 _atom_site_label
 _atom_site_symmetry_multiplicity
 _atom_site_fract_x
 _atom_site_fract_y
 _atom_site_fract_z
 _atom_site_occupancy
  Pr  Pr0  1  0.998451  0.998451  0.004648  1
  Tl  Tl1  1  0.746109  0.746109  0.761676  1
  Cu  Cu2  1  0.376213  0.376213  0.871362  1
  Pd  Pd3  1  0.376992  0.875246  0.370771  1
  Pd  Pd4  1  0.376992  0.376992  0.370771  1
  Pd  Pd5  1  0.875246  0.376992  0.370771  1
