# generated using pymatgen
data_Tm3MgIn2(Ni7B2)2
_symmetry_space_group_name_H-M   'P 1'
_cell_length_a   4.97280400
_cell_length_b   4.97280485
_cell_length_c   14.10927400
_cell_angle_alpha   90.00000000
_cell_angle_beta   90.00000000
_cell_angle_gamma   120.00000763
_symmetry_Int_Tables_number   1
_chemical_formula_structural   Tm3MgIn2(Ni7B2)2
_chemical_formula_sum   'Tm3 Mg1 In2 Ni14 B4'
_cell_volume   302.16073244
_cell_formula_units_Z   1
loop_
 _symmetry_equiv_pos_site_id
 _symmetry_equiv_pos_as_xyz
  1  'x, y, z'
loop_
 _atom_site_type_symbol
 _atom_site_label
 _atom_site_symmetry_multiplicity
 _atom_site_fract_x
 _atom_site_fract_y
 _atom_site_fract_z
 _atom_site_occupancy
  Tm  Tm0  1  0.333333  0.666667  0.967770  1
  Tm  Tm1  1  0.333333  0.666667  0.742859  1
  Tm  Tm2  1  0.666667  0.333333  0.253290  1
  Mg  Mg3  1  0.333333  0.666667  0.526484  1
  In  In4  1  0.666667  0.333333  0.035052  1
  In  In5  1  0.666667  0.333333  0.472859  1
  Ni  Ni6  1  0.000000  0.000000  0.000665  1
  Ni  Ni7  1  0.000000  0.000000  0.500159  1
  Ni  Ni8  1  0.166297  0.332593  0.148394  1
  Ni  Ni9  1  0.833500  0.667001  0.644460  1
  Ni  Ni10  1  0.667407  0.833703  0.148394  1
  Ni  Ni11  1  0.166297  0.833703  0.148394  1
  Ni  Ni12  1  0.833500  0.166500  0.644460  1
  Ni  Ni13  1  0.332999  0.166500  0.644460  1
  Ni  Ni14  1  0.833588  0.667175  0.851949  1
  Ni  Ni15  1  0.833588  0.166412  0.851949  1
  Ni  Ni16  1  0.332825  0.166412  0.851949  1
  Ni  Ni17  1  0.667636  0.833818  0.354929  1
  Ni  Ni18  1  0.166182  0.833818  0.354929  1
  Ni  Ni19  1  0.166182  0.332364  0.354929  1
  B  B20  1  0.333333  0.666667  0.251653  1
  B  B21  1  0.666667  0.333333  0.748705  1
  B  B22  1  0.000000  0.000000  0.252468  1
  B  B23  1  0.000000  0.000000  0.748842  1
