# generated using pymatgen
data_Ca2Dy2Sb6Rh7
_symmetry_space_group_name_H-M   'P 1'
_cell_length_a   7.64550007
_cell_length_b   7.64550056
_cell_length_c   7.61438086
_cell_angle_alpha   109.47766381
_cell_angle_beta   109.47767504
_cell_angle_gamma   109.62336401
_symmetry_Int_Tables_number   1
_chemical_formula_structural   Ca2Dy2Sb6Rh7
_chemical_formula_sum   'Ca2 Dy2 Sb6 Rh7'
_cell_volume   341.92911179
_cell_formula_units_Z   1
loop_
 _symmetry_equiv_pos_site_id
 _symmetry_equiv_pos_as_xyz
  1  'x, y, z'
loop_
 _atom_site_type_symbol
 _atom_site_label
 _atom_site_symmetry_multiplicity
 _atom_site_fract_x
 _atom_site_fract_y
 _atom_site_fract_z
 _atom_site_occupancy
  Ca  Ca0  1  0.000000  0.000000  0.500000  1
  Ca  Ca1  1  0.500000  0.500000  0.500000  1
  Dy  Dy2  1  0.500000  0.000000  0.000000  1
  Dy  Dy3  1  0.000000  0.500000  0.000000  1
  Sb  Sb4  1  0.318999  0.002905  0.321903  1
  Sb  Sb5  1  0.997095  0.681001  0.678097  1
  Sb  Sb6  1  0.680514  0.680514  0.000000  1
  Sb  Sb7  1  0.681001  0.997095  0.678097  1
  Sb  Sb8  1  0.002905  0.318999  0.321903  1
  Sb  Sb9  1  0.319486  0.319486  0.000000  1
  Rh  Rh10  1  0.249677  0.506020  0.755698  1
  Rh  Rh11  1  0.506020  0.249677  0.755698  1
  Rh  Rh12  1  0.750000  0.250000  0.500000  1
  Rh  Rh13  1  0.493980  0.750323  0.244302  1
  Rh  Rh14  1  0.000000  0.000000  0.000000  1
  Rh  Rh15  1  0.250000  0.750000  0.500000  1
  Rh  Rh16  1  0.750323  0.493980  0.244302  1
