# generated using pymatgen
data_Ca6Si24Ir3Ru5
_symmetry_space_group_name_H-M   'P 1'
_cell_length_a   10.16656216
_cell_length_b   10.16656288
_cell_length_c   8.18557200
_cell_angle_alpha   89.98990645
_cell_angle_beta   89.98991208
_cell_angle_gamma   132.48183490
_symmetry_Int_Tables_number   1
_chemical_formula_structural   Ca6Si24Ir3Ru5
_chemical_formula_sum   'Ca6 Si24 Ir3 Ru5'
_cell_volume   623.95644595
_cell_formula_units_Z   1
loop_
 _symmetry_equiv_pos_site_id
 _symmetry_equiv_pos_as_xyz
  1  'x, y, z'
loop_
 _atom_site_type_symbol
 _atom_site_label
 _atom_site_symmetry_multiplicity
 _atom_site_fract_x
 _atom_site_fract_y
 _atom_site_fract_z
 _atom_site_occupancy
  Ca  Ca0  1  0.499684  0.500316  0.500000  1
  Ca  Ca1  1  0.000030  0.999970  0.000000  1
  Ca  Ca2  1  0.501803  0.001538  0.750100  1
  Ca  Ca3  1  0.998462  0.498197  0.249900  1
  Ca  Ca4  1  0.499103  0.998802  0.249458  1
  Ca  Ca5  1  0.001198  0.500897  0.750542  1
  Si  Si6  1  0.795688  0.204312  0.500000  1
  Si  Si7  1  0.295534  0.704466  0.000000  1
  Si  Si8  1  0.205280  0.794720  0.500000  1
  Si  Si9  1  0.706066  0.293934  0.000000  1
  Si  Si10  1  0.333193  0.334291  0.833131  1
  Si  Si11  1  0.665709  0.666807  0.166869  1
  Si  Si12  1  0.165859  0.167075  0.332864  1
  Si  Si13  1  0.832925  0.834141  0.667136  1
  Si  Si14  1  0.121059  0.889218  0.726577  1
  Si  Si15  1  0.110782  0.878941  0.273423  1
  Si  Si16  1  0.610116  0.378566  0.226283  1
  Si  Si17  1  0.621434  0.389884  0.773717  1
  Si  Si18  1  0.877053  0.108978  0.269102  1
  Si  Si19  1  0.891022  0.122947  0.730898  1
  Si  Si20  1  0.389999  0.622232  0.774247  1
  Si  Si21  1  0.377768  0.610001  0.225753  1
  Si  Si22  1  0.342282  0.110882  0.503729  1
  Si  Si23  1  0.889118  0.657718  0.496271  1
  Si  Si24  1  0.389976  0.158199  0.004077  1
  Si  Si25  1  0.841801  0.610024  0.995923  1
  Si  Si26  1  0.658739  0.890136  0.496287  1
  Si  Si27  1  0.109864  0.341261  0.503713  1
  Si  Si28  1  0.614640  0.846968  0.993490  1
  Si  Si29  1  0.153032  0.385360  0.006510  1
  Ir  Ir30  1  0.668633  0.331367  0.500000  1
  Ir  Ir31  1  0.168634  0.831366  0.000000  1
  Ir  Ir32  1  0.331647  0.668353  0.500000  1
  Ru  Ru33  1  0.830859  0.169141  0.000000  1
  Ru  Ru34  1  0.126878  0.126113  0.626026  1
  Ru  Ru35  1  0.873887  0.873122  0.373974  1
  Ru  Ru36  1  0.373779  0.373531  0.125662  1
  Ru  Ru37  1  0.626469  0.626221  0.874338  1
