# generated using pymatgen
data_Tb4Al18ReNi4Pd
_symmetry_space_group_name_H-M   'P 1'
_cell_length_a   7.47923203
_cell_length_b   7.47923069
_cell_length_c   9.38609700
_cell_angle_alpha   89.79235921
_cell_angle_beta   89.79230398
_cell_angle_gamma   118.80936085
_symmetry_Int_Tables_number   1
_chemical_formula_structural   Tb4Al18ReNi4Pd
_chemical_formula_sum   'Tb4 Al18 Re1 Ni4 Pd1'
_cell_volume   460.05003605
_cell_formula_units_Z   1
loop_
 _symmetry_equiv_pos_site_id
 _symmetry_equiv_pos_as_xyz
  1  'x, y, z'
loop_
 _atom_site_type_symbol
 _atom_site_label
 _atom_site_symmetry_multiplicity
 _atom_site_fract_x
 _atom_site_fract_y
 _atom_site_fract_z
 _atom_site_occupancy
  Tb  Tb0  1  0.995795  0.678619  0.248075  1
  Tb  Tb1  1  0.004205  0.321381  0.751925  1
  Tb  Tb2  1  0.678619  0.995794  0.248075  1
  Tb  Tb3  1  0.321381  0.004206  0.751925  1
  Al  Al4  1  0.139318  0.139318  0.247597  1
  Al  Al5  1  0.860682  0.860682  0.752403  1
  Al  Al6  1  0.998816  0.338409  0.072332  1
  Al  Al7  1  0.001184  0.661591  0.927668  1
  Al  Al8  1  0.999991  0.656270  0.575625  1
  Al  Al9  1  0.343730  0.000009  0.424375  1
  Al  Al10  1  0.000009  0.343730  0.424375  1
  Al  Al11  1  0.656270  0.999991  0.575625  1
  Al  Al12  1  0.661591  0.001184  0.927668  1
  Al  Al13  1  0.338409  0.998816  0.072332  1
  Al  Al14  1  0.338747  0.338747  0.550400  1
  Al  Al15  1  0.661253  0.661253  0.449600  1
  Al  Al16  1  0.664506  0.664506  0.046685  1
  Al  Al17  1  0.335494  0.335494  0.953315  1
  Al  Al18  1  0.342580  0.557798  0.249224  1
  Al  Al19  1  0.657420  0.442202  0.750776  1
  Al  Al20  1  0.557798  0.342580  0.249224  1
  Al  Al21  1  0.442202  0.657420  0.750776  1
  Re  Re22  1  0.000000  0.000000  0.000000  1
  Ni  Ni23  1  0.670548  0.329456  0.000000  1
  Ni  Ni24  1  0.329452  0.670544  0.000000  1
  Ni  Ni25  1  0.329048  0.670952  0.500000  1
  Ni  Ni26  1  0.670952  0.329048  0.500000  1
  Pd  Pd27  1  0.000000  0.000000  0.500000  1
