# generated using pymatgen
data_ZnH5F7
_symmetry_space_group_name_H-M   'P 1'
_cell_length_a   5.10105670
_cell_length_b   4.95499962
_cell_length_c   6.21171499
_cell_angle_alpha   112.70685706
_cell_angle_beta   87.18211497
_cell_angle_gamma   102.42132573
_symmetry_Int_Tables_number   1
_chemical_formula_structural   ZnH5F7
_chemical_formula_sum   'Zn1 H5 F7'
_cell_volume   141.34615601
_cell_formula_units_Z   1
loop_
 _symmetry_equiv_pos_site_id
 _symmetry_equiv_pos_as_xyz
  1  'x, y, z'
loop_
 _atom_site_type_symbol
 _atom_site_label
 _atom_site_symmetry_multiplicity
 _atom_site_fract_x
 _atom_site_fract_y
 _atom_site_fract_z
 _atom_site_occupancy
  Zn  Zn0  1  0.254952  0.858879  0.405435  1
  H  H1  1  0.162890  0.450796  0.613068  1
  H  H2  1  0.742723  0.571989  0.238521  1
  H  H3  1  0.762223  0.180461  0.589389  1
  H  H4  1  0.668828  0.778703  0.026550  1
  H  H5  1  0.055399  0.964105  0.049535  1
  F  F6  1  0.539647  0.663247  0.191132  1
  F  F7  1  0.802088  0.861773  0.931275  1
  F  F8  1  0.566363  0.200993  0.596115  1
  F  F9  1  0.269286  0.663276  0.639791  1
  F  F10  1  0.922397  0.518879  0.264135  1
  F  F11  1  0.026120  0.174806  0.583765  1
  F  F12  1  0.230102  0.024568  0.141385  1
