# generated using pymatgen
data_TbTm2Zr(Al8Pt3)3
_symmetry_space_group_name_H-M   'P 1'
_cell_length_a   7.51876067
_cell_length_b   7.52506829
_cell_length_c   13.08967806
_cell_angle_alpha   84.54850067
_cell_angle_beta   79.01979605
_cell_angle_gamma   59.90589996
_symmetry_Int_Tables_number   1
_chemical_formula_structural   TbTm2Zr(Al8Pt3)3
_chemical_formula_sum   'Tb1 Tm2 Zr1 Al24 Pt9'
_cell_volume   629.04158716
_cell_formula_units_Z   1
loop_
 _symmetry_equiv_pos_site_id
 _symmetry_equiv_pos_as_xyz
  1  'x, y, z'
loop_
 _atom_site_type_symbol
 _atom_site_label
 _atom_site_symmetry_multiplicity
 _atom_site_fract_x
 _atom_site_fract_y
 _atom_site_fract_z
 _atom_site_occupancy
  Tb  Tb0  1  0.266722  0.501428  0.191668  1
  Tm  Tm1  1  0.606332  0.831792  0.192325  1
  Tm  Tm2  1  0.734068  0.498727  0.807064  1
  Zr  Zr3  1  0.393373  0.167899  0.809262  1
  Al  Al4  1  0.682158  0.835791  0.941644  1
  Al  Al5  1  0.317036  0.165669  0.053764  1
  Al  Al6  1  0.146437  0.832823  0.562624  1
  Al  Al7  1  0.853110  0.167130  0.438338  1
  Al  Al8  1  0.479963  0.166745  0.560907  1
  Al  Al9  1  0.519295  0.833773  0.441169  1
  Al  Al10  1  0.217518  0.164971  0.330203  1
  Al  Al11  1  0.779368  0.836623  0.673074  1
  Al  Al12  1  0.436401  0.504406  0.673420  1
  Al  Al13  1  0.562434  0.494068  0.329555  1
  Al  Al14  1  0.110867  0.160203  0.672321  1
  Al  Al15  1  0.889588  0.839825  0.330815  1
  Al  Al16  1  0.354720  0.496419  0.941153  1
  Al  Al17  1  0.648202  0.500516  0.055066  1
  Al  Al18  1  0.018365  0.168502  0.949899  1
  Al  Al19  1  0.984003  0.833038  0.046251  1
  Al  Al20  1  0.186697  0.499279  0.441367  1
  Al  Al21  1  0.813537  0.500447  0.559222  1
  Al  Al22  1  0.734318  0.163021  0.183665  1
  Al  Al23  1  0.266283  0.841204  0.816301  1
  Al  Al24  1  0.065902  0.626053  0.814976  1
  Al  Al25  1  0.938535  0.368851  0.184449  1
  Al  Al26  1  0.850342  0.041961  0.815597  1
  Al  Al27  1  0.145191  0.959015  0.183816  1
  Pt  Pt28  1  0.119252  0.491141  0.639376  1
  Pt  Pt29  1  0.878701  0.508762  0.361421  1
  Pt  Pt30  1  0.657630  0.171911  0.998820  1
  Pt  Pt31  1  0.343966  0.827540  0.999166  1
  Pt  Pt32  1  0.537548  0.166260  0.361926  1
  Pt  Pt33  1  0.463536  0.832226  0.639381  1
  Pt  Pt34  1  0.778294  0.176681  0.638032  1
  Pt  Pt35  1  0.220846  0.824890  0.363074  1
  Pt  Pt36  1  0.999462  0.500411  0.998893  1
