# generated using pymatgen
data_Dy2Ho10IrOs3
_symmetry_space_group_name_H-M   'P 1'
_cell_length_a   6.30962000
_cell_length_b   7.36645008
_cell_length_c   9.05874000
_cell_angle_alpha   90.00000000
_cell_angle_beta   90.00000000
_cell_angle_gamma   89.94757670
_symmetry_Int_Tables_number   1
_chemical_formula_structural   Dy2Ho10IrOs3
_chemical_formula_sum   'Dy2 Ho10 Ir1 Os3'
_cell_volume   421.04553661
_cell_formula_units_Z   1
loop_
 _symmetry_equiv_pos_site_id
 _symmetry_equiv_pos_as_xyz
  1  'x, y, z'
loop_
 _atom_site_type_symbol
 _atom_site_label
 _atom_site_symmetry_multiplicity
 _atom_site_fract_x
 _atom_site_fract_y
 _atom_site_fract_z
 _atom_site_occupancy
  Dy  Dy0  1  0.130799  0.460093  0.750000  1
  Dy  Dy1  1  0.369432  0.960813  0.750000  1
  Ho  Ho2  1  0.328455  0.675620  0.065522  1
  Ho  Ho3  1  0.169281  0.175107  0.436416  1
  Ho  Ho4  1  0.669381  0.323781  0.562372  1
  Ho  Ho5  1  0.832539  0.826365  0.937634  1
  Ho  Ho6  1  0.669381  0.323781  0.937628  1
  Ho  Ho7  1  0.832539  0.826365  0.562366  1
  Ho  Ho8  1  0.328455  0.675620  0.434478  1
  Ho  Ho9  1  0.169281  0.175107  0.063584  1
  Ho  Ho10  1  0.868782  0.538876  0.250000  1
  Ho  Ho11  1  0.630333  0.039116  0.250000  1
  Ir  Ir12  1  0.542250  0.615808  0.750000  1
  Os  Os13  1  0.038736  0.883093  0.250000  1
  Os  Os14  1  0.460982  0.384100  0.250000  1
  Os  Os15  1  0.959369  0.116354  0.750000  1
