# generated using pymatgen
data_NaPr2NdTe4
_symmetry_space_group_name_H-M   'P 1'
_cell_length_a   9.06073990
_cell_length_b   9.06073943
_cell_length_c   9.11478900
_cell_angle_alpha   59.80247050
_cell_angle_beta   59.80247225
_cell_angle_gamma   59.68627609
_symmetry_Int_Tables_number   1
_chemical_formula_structural   NaPr2NdTe4
_chemical_formula_sum   'Na2 Pr4 Nd2 Te8'
_cell_volume   526.28582835
_cell_formula_units_Z   2
loop_
 _symmetry_equiv_pos_site_id
 _symmetry_equiv_pos_as_xyz
  1  'x, y, z'
loop_
 _atom_site_type_symbol
 _atom_site_label
 _atom_site_symmetry_multiplicity
 _atom_site_fract_x
 _atom_site_fract_y
 _atom_site_fract_z
 _atom_site_occupancy
  Na  Na0  1  0.125000  0.625000  0.125000  1
  Na  Na1  1  0.625000  0.125000  0.125000  1
  Pr  Pr2  1  0.625000  0.125000  0.625000  1
  Pr  Pr3  1  0.625000  0.625000  0.625000  1
  Pr  Pr4  1  0.125000  0.625000  0.625000  1
  Pr  Pr5  1  0.625000  0.625000  0.125000  1
  Nd  Nd6  1  0.125000  0.125000  0.625000  1
  Nd  Nd7  1  0.125000  0.125000  0.125000  1
  Te  Te8  1  0.375705  0.879821  0.372237  1
  Te  Te9  1  0.874295  0.370179  0.877763  1
  Te  Te10  1  0.876003  0.876003  0.371828  1
  Te  Te11  1  0.876003  0.876003  0.876167  1
  Te  Te12  1  0.879821  0.375705  0.372237  1
  Te  Te13  1  0.373997  0.373997  0.878172  1
  Te  Te14  1  0.373997  0.373997  0.373833  1
  Te  Te15  1  0.370179  0.874295  0.877763  1
