# generated using pymatgen
data_Ho3AgHg3Au2
_symmetry_space_group_name_H-M   'P 1'
_cell_length_a   7.88506400
_cell_length_b   7.88506560
_cell_length_c   3.81123900
_cell_angle_alpha   90.00000000
_cell_angle_beta   90.00000000
_cell_angle_gamma   120.00000169
_symmetry_Int_Tables_number   1
_chemical_formula_structural   Ho3AgHg3Au2
_chemical_formula_sum   'Ho3 Ag1 Hg3 Au2'
_cell_volume   205.21416812
_cell_formula_units_Z   1
loop_
 _symmetry_equiv_pos_site_id
 _symmetry_equiv_pos_as_xyz
  1  'x, y, z'
loop_
 _atom_site_type_symbol
 _atom_site_label
 _atom_site_symmetry_multiplicity
 _atom_site_fract_x
 _atom_site_fract_y
 _atom_site_fract_z
 _atom_site_occupancy
  Ho  Ho0  1  0.596873  0.000000  0.000000  1
  Ho  Ho1  1  0.000000  0.596873  0.000000  1
  Ho  Ho2  1  0.403127  0.403127  0.000000  1
  Ag  Ag3  1  0.000000  0.000000  0.000000  1
  Hg  Hg4  1  0.270292  0.000000  0.500000  1
  Hg  Hg5  1  0.000000  0.270292  0.500000  1
  Hg  Hg6  1  0.729708  0.729708  0.500000  1
  Au  Au7  1  0.333333  0.666667  0.500000  1
  Au  Au8  1  0.666667  0.333333  0.500000  1
