# generated using pymatgen
data_CeTaNb3C4
_symmetry_space_group_name_H-M   'P 1'
_cell_length_a   6.34889283
_cell_length_b   6.34889690
_cell_length_c   6.36344353
_cell_angle_alpha   94.01977825
_cell_angle_beta   93.81210299
_cell_angle_gamma   149.66664325
_symmetry_Int_Tables_number   1
_chemical_formula_structural   CeTaNb3C4
_chemical_formula_sum   'Ce1 Ta1 Nb3 C4'
_cell_volume   125.04925186
_cell_formula_units_Z   1
loop_
 _symmetry_equiv_pos_site_id
 _symmetry_equiv_pos_as_xyz
  1  'x, y, z'
loop_
 _atom_site_type_symbol
 _atom_site_label
 _atom_site_symmetry_multiplicity
 _atom_site_fract_x
 _atom_site_fract_y
 _atom_site_fract_z
 _atom_site_occupancy
  Ce  Ce0  1  0.000162  0.000130  0.000292  1
  Ta  Ta1  1  0.174225  0.628344  0.802570  1
  Nb  Nb2  1  0.826559  0.372406  0.198966  1
  Nb  Nb3  1  0.627362  0.826525  0.453889  1
  Nb  Nb4  1  0.372183  0.173962  0.546146  1
  C  C5  1  0.398558  0.723649  0.122209  1
  C  C6  1  0.724219  0.600769  0.324989  1
  C  C7  1  0.275005  0.400568  0.675575  1
  C  C8  1  0.601723  0.273642  0.875365  1
