# generated using pymatgen
data_CaNdAl20Os3Rh
_symmetry_space_group_name_H-M   'P 1'
_cell_length_a   6.88482459
_cell_length_b   6.88442640
_cell_length_c   9.19937962
_cell_angle_alpha   90.28726763
_cell_angle_beta   90.10018771
_cell_angle_gamma   96.44178682
_symmetry_Int_Tables_number   1
_chemical_formula_structural   CaNdAl20Os3Rh
_chemical_formula_sum   'Ca1 Nd1 Al20 Os3 Rh1'
_cell_volume   433.27324986
_cell_formula_units_Z   1
loop_
 _symmetry_equiv_pos_site_id
 _symmetry_equiv_pos_as_xyz
  1  'x, y, z'
loop_
 _atom_site_type_symbol
 _atom_site_label
 _atom_site_symmetry_multiplicity
 _atom_site_fract_x
 _atom_site_fract_y
 _atom_site_fract_z
 _atom_site_occupancy
  Ca  Ca0  1  0.872216  0.124945  0.750419  1
  Nd  Nd1  1  0.126407  0.875950  0.250065  1
  Al  Al2  1  0.620627  0.376111  0.548993  1
  Al  Al3  1  0.380191  0.622808  0.448289  1
  Al  Al4  1  0.377995  0.622492  0.049219  1
  Al  Al5  1  0.623344  0.376291  0.953037  1
  Al  Al6  1  0.225046  0.226003  0.500400  1
  Al  Al7  1  0.773766  0.776140  0.501726  1
  Al  Al8  1  0.774854  0.777116  0.998035  1
  Al  Al9  1  0.223184  0.224453  0.000292  1
  Al  Al10  1  0.842272  0.158622  0.099633  1
  Al  Al11  1  0.159362  0.839220  0.899007  1
  Al  Al12  1  0.161117  0.840172  0.603070  1
  Al  Al13  1  0.840104  0.158285  0.397839  1
  Al  Al14  1  0.855925  0.586029  0.750498  1
  Al  Al15  1  0.142727  0.412537  0.249750  1
  Al  Al16  1  0.413259  0.142933  0.750359  1
  Al  Al17  1  0.589064  0.858401  0.249597  1
  Al  Al18  1  0.220126  0.479633  0.752494  1
  Al  Al19  1  0.778722  0.516696  0.247382  1
  Al  Al20  1  0.520414  0.782604  0.749101  1
  Al  Al21  1  0.483431  0.219504  0.250774  1
  Os  Os22  1  0.999601  0.501176  0.999935  1
  Os  Os23  1  0.498465  0.000325  0.999806  1
  Os  Os24  1  0.498616  0.000159  0.500159  1
  Rh  Rh25  1  0.999164  0.501395  0.500121  1
