# generated using pymatgen
data_Sm6Tc3As13Rh17
_symmetry_space_group_name_H-M   'P 1'
_cell_length_a   13.94012600
_cell_length_b   13.94012492
_cell_length_c   4.01078300
_cell_angle_alpha   90.00000000
_cell_angle_beta   90.00000000
_cell_angle_gamma   120.00000256
_symmetry_Int_Tables_number   1
_chemical_formula_structural   Sm6Tc3As13Rh17
_chemical_formula_sum   'Sm6 Tc3 As13 Rh17'
_cell_volume   674.98349084
_cell_formula_units_Z   1
loop_
 _symmetry_equiv_pos_site_id
 _symmetry_equiv_pos_as_xyz
  1  'x, y, z'
loop_
 _atom_site_type_symbol
 _atom_site_label
 _atom_site_symmetry_multiplicity
 _atom_site_fract_x
 _atom_site_fract_y
 _atom_site_fract_z
 _atom_site_occupancy
  Sm  Sm0  1  0.187223  0.470433  0.000000  1
  Sm  Sm1  1  0.529567  0.716790  0.000000  1
  Sm  Sm2  1  0.283210  0.812777  0.000000  1
  Sm  Sm3  1  0.720733  0.186996  0.500000  1
  Sm  Sm4  1  0.813004  0.533738  0.500000  1
  Sm  Sm5  1  0.466262  0.279267  0.500000  1
  Tc  Tc6  1  0.093470  0.196219  0.000000  1
  Tc  Tc7  1  0.803781  0.897251  0.000000  1
  Tc  Tc8  1  0.102749  0.906530  0.000000  1
  As  As9  1  0.387418  0.525878  0.500000  1
  As  As10  1  0.474122  0.861540  0.500000  1
  As  As11  1  0.138460  0.612582  0.500000  1
  As  As12  1  0.052583  0.280715  0.500000  1
  As  As13  1  0.719285  0.771869  0.500000  1
  As  As14  1  0.228131  0.947417  0.500000  1
  As  As15  1  0.526122  0.139394  0.000000  1
  As  As16  1  0.860606  0.386727  0.000000  1
  As  As17  1  0.613273  0.473878  0.000000  1
  As  As18  1  0.767515  0.050898  0.000000  1
  As  As19  1  0.949102  0.716617  0.000000  1
  As  As20  1  0.283383  0.232485  0.000000  1
  As  As21  1  0.000000  0.000000  0.000000  1
  Rh  Rh22  1  0.333333  0.666667  0.500000  1
  Rh  Rh23  1  0.902112  0.085285  0.500000  1
  Rh  Rh24  1  0.914715  0.816827  0.500000  1
  Rh  Rh25  1  0.183173  0.097888  0.500000  1
  Rh  Rh26  1  0.666667  0.333333  0.000000  1
  Rh  Rh27  1  0.418028  0.441234  0.000000  1
  Rh  Rh28  1  0.558766  0.976794  0.000000  1
  Rh  Rh29  1  0.023206  0.581972  0.000000  1
  Rh  Rh30  1  0.251934  0.327134  0.500000  1
  Rh  Rh31  1  0.672866  0.924800  0.500000  1
  Rh  Rh32  1  0.075200  0.748066  0.500000  1
  Rh  Rh33  1  0.439195  0.024856  0.500000  1
  Rh  Rh34  1  0.975144  0.414339  0.500000  1
  Rh  Rh35  1  0.585661  0.560805  0.500000  1
  Rh  Rh36  1  0.921778  0.248534  0.000000  1
  Rh  Rh37  1  0.751466  0.673244  0.000000  1
  Rh  Rh38  1  0.326756  0.078222  0.000000  1
