# generated using pymatgen
data_La5Sm(OsCl3)2
_symmetry_space_group_name_H-M   'P 1'
_cell_length_a   4.22738800
_cell_length_b   8.93852117
_cell_length_c   11.92236100
_cell_angle_alpha   87.15576041
_cell_angle_beta   90.00000000
_cell_angle_gamma   90.00000000
_symmetry_Int_Tables_number   1
_chemical_formula_structural   La5Sm(OsCl3)2
_chemical_formula_sum   'La5 Sm1 Os2 Cl6'
_cell_volume   449.95048409
_cell_formula_units_Z   1
loop_
 _symmetry_equiv_pos_site_id
 _symmetry_equiv_pos_as_xyz
  1  'x, y, z'
loop_
 _atom_site_type_symbol
 _atom_site_label
 _atom_site_symmetry_multiplicity
 _atom_site_fract_x
 _atom_site_fract_y
 _atom_site_fract_z
 _atom_site_occupancy
  La  La0  1  0.750000  0.664571  0.126946  1
  La  La1  1  0.250000  0.880121  0.346636  1
  La  La2  1  0.250000  0.332649  0.877223  1
  La  La3  1  0.250000  0.891590  0.885763  1
  La  La4  1  0.750000  0.125501  0.651598  1
  Sm  Sm5  1  0.750000  0.101210  0.112594  1
  Os  Os6  1  0.250000  0.881131  0.128852  1
  Os  Os7  1  0.750000  0.117140  0.870602  1
  Cl  Cl8  1  0.250000  0.391191  0.125108  1
  Cl  Cl9  1  0.750000  0.110862  0.379866  1
  Cl  Cl10  1  0.750000  0.604483  0.877095  1
  Cl  Cl11  1  0.250000  0.348502  0.628905  1
  Cl  Cl12  1  0.750000  0.656112  0.373573  1
  Cl  Cl13  1  0.250000  0.894939  0.615237  1
