# generated using pymatgen
data_Dy5YAl24(OsRh)4
_symmetry_space_group_name_H-M   'P 1'
_cell_length_a   8.78973200
_cell_length_b   8.85252381
_cell_length_c   9.56826100
_cell_angle_alpha   90.00000000
_cell_angle_beta   90.00000000
_cell_angle_gamma   119.76563086
_symmetry_Int_Tables_number   1
_chemical_formula_structural   Dy5YAl24(OsRh)4
_chemical_formula_sum   'Dy5 Y1 Al24 Os4 Rh4'
_cell_volume   646.28964955
_cell_formula_units_Z   1
loop_
 _symmetry_equiv_pos_site_id
 _symmetry_equiv_pos_as_xyz
  1  'x, y, z'
loop_
 _atom_site_type_symbol
 _atom_site_label
 _atom_site_symmetry_multiplicity
 _atom_site_fract_x
 _atom_site_fract_y
 _atom_site_fract_z
 _atom_site_occupancy
  Dy  Dy0  1  0.808590  0.617180  0.750000  1
  Dy  Dy1  1  0.613692  0.812396  0.250000  1
  Dy  Dy2  1  0.386386  0.187662  0.750000  1
  Dy  Dy3  1  0.198703  0.812396  0.250000  1
  Dy  Dy4  1  0.801276  0.187662  0.750000  1
  Y  Y5  1  0.191390  0.382780  0.250000  1
  Al  Al6  1  0.333756  0.667512  0.023883  1
  Al  Al7  1  0.666261  0.332522  0.976075  1
  Al  Al8  1  0.666261  0.332522  0.523925  1
  Al  Al9  1  0.333756  0.667512  0.476117  1
  Al  Al10  1  0.162752  0.325506  0.577693  1
  Al  Al11  1  0.837246  0.674491  0.422344  1
  Al  Al12  1  0.672404  0.836816  0.576690  1
  Al  Al13  1  0.837246  0.674491  0.077656  1
  Al  Al14  1  0.327614  0.163150  0.423355  1
  Al  Al15  1  0.162752  0.325506  0.922307  1
  Al  Al16  1  0.164411  0.836816  0.576690  1
  Al  Al17  1  0.327614  0.163150  0.076645  1
  Al  Al18  1  0.835537  0.163150  0.423355  1
  Al  Al19  1  0.672404  0.836816  0.923310  1
  Al  Al20  1  0.835537  0.163150  0.076645  1
  Al  Al21  1  0.164411  0.836816  0.923310  1
  Al  Al22  1  0.563311  0.126622  0.250000  1
  Al  Al23  1  0.436682  0.873364  0.750000  1
  Al  Al24  1  0.877873  0.439773  0.250000  1
  Al  Al25  1  0.122117  0.560251  0.750000  1
  Al  Al26  1  0.561900  0.439773  0.250000  1
  Al  Al27  1  0.438134  0.560251  0.750000  1
  Al  Al28  1  0.001100  0.002198  0.250000  1
  Al  Al29  1  0.998797  0.997595  0.750000  1
  Os  Os30  1  0.499998  0.999997  0.000013  1
  Os  Os31  1  0.499998  0.999997  0.499987  1
  Os  Os32  1  0.000024  0.000048  0.000052  1
  Os  Os33  1  0.000024  0.000048  0.499948  1
  Rh  Rh34  1  0.999984  0.500020  0.999964  1
  Rh  Rh35  1  0.500036  0.500020  0.999964  1
  Rh  Rh36  1  0.999984  0.500020  0.500036  1
  Rh  Rh37  1  0.500036  0.500020  0.500036  1
