# generated using pymatgen
data_Pr8TiZn7Rh8
_symmetry_space_group_name_H-M   'P 1'
_cell_length_a   4.03955700
_cell_length_b   7.39929113
_cell_length_c   16.71335251
_cell_angle_alpha   90.12164890
_cell_angle_beta   90.00000000
_cell_angle_gamma   90.00000000
_symmetry_Int_Tables_number   1
_chemical_formula_structural   Pr8TiZn7Rh8
_chemical_formula_sum   'Pr8 Ti1 Zn7 Rh8'
_cell_volume   499.55861183
_cell_formula_units_Z   1
loop_
 _symmetry_equiv_pos_site_id
 _symmetry_equiv_pos_as_xyz
  1  'x, y, z'
loop_
 _atom_site_type_symbol
 _atom_site_label
 _atom_site_symmetry_multiplicity
 _atom_site_fract_x
 _atom_site_fract_y
 _atom_site_fract_z
 _atom_site_occupancy
  Pr  Pr0  1  0.750000  0.448688  0.216856  1
  Pr  Pr1  1  0.750000  0.954679  0.274180  1
  Pr  Pr2  1  0.750000  0.826989  0.058723  1
  Pr  Pr3  1  0.250000  0.045847  0.718070  1
  Pr  Pr4  1  0.250000  0.169575  0.939191  1
  Pr  Pr5  1  0.250000  0.546207  0.785544  1
  Pr  Pr6  1  0.750000  0.354365  0.440006  1
  Pr  Pr7  1  0.250000  0.667095  0.567670  1
  Ti  Ti8  1  0.250000  0.993583  0.439227  1
  Zn  Zn9  1  0.750000  0.500697  0.939847  1
  Zn  Zn10  1  0.750000  0.002044  0.563806  1
  Zn  Zn11  1  0.250000  0.636184  0.345993  1
  Zn  Zn12  1  0.750000  0.367318  0.650129  1
  Zn  Zn13  1  0.750000  0.874921  0.850525  1
  Zn  Zn14  1  0.250000  0.496451  0.060458  1
  Zn  Zn15  1  0.250000  0.122700  0.145272  1
  Rh  Rh16  1  0.250000  0.232483  0.557841  1
  Rh  Rh17  1  0.750000  0.256824  0.065531  1
  Rh  Rh18  1  0.250000  0.228673  0.324744  1
  Rh  Rh19  1  0.750000  0.252479  0.813332  1
  Rh  Rh20  1  0.250000  0.742089  0.935350  1
  Rh  Rh21  1  0.750000  0.751599  0.688948  1
  Rh  Rh22  1  0.750000  0.785581  0.433350  1
  Rh  Rh23  1  0.250000  0.742927  0.185405  1
