# generated using pymatgen
data_NbVCo6Mo5
_symmetry_space_group_name_H-M   'P 1'
_cell_length_a   8.97606059
_cell_length_b   8.97606150
_cell_length_c   8.97606176
_cell_angle_alpha   31.05951396
_cell_angle_beta   31.05951959
_cell_angle_gamma   31.05951304
_symmetry_Int_Tables_number   1
_chemical_formula_structural   NbVCo6Mo5
_chemical_formula_sum   'Nb1 V1 Co6 Mo5'
_cell_volume   170.78751534
_cell_formula_units_Z   1
loop_
 _symmetry_equiv_pos_site_id
 _symmetry_equiv_pos_as_xyz
  1  'x, y, z'
loop_
 _atom_site_type_symbol
 _atom_site_label
 _atom_site_symmetry_multiplicity
 _atom_site_fract_x
 _atom_site_fract_y
 _atom_site_fract_z
 _atom_site_occupancy
  Nb  Nb0  1  0.834183  0.834183  0.834183  1
  V  V1  1  0.999990  0.999990  0.999990  1
  Co  Co2  1  0.094492  0.094492  0.583249  1
  Co  Co3  1  0.413008  0.907599  0.907599  1
  Co  Co4  1  0.583249  0.094492  0.094492  1
  Co  Co5  1  0.907599  0.907599  0.413008  1
  Co  Co6  1  0.907599  0.413008  0.907599  1
  Co  Co7  1  0.094492  0.583249  0.094492  1
  Mo  Mo8  1  0.652053  0.652053  0.652053  1
  Mo  Mo9  1  0.450450  0.450450  0.450450  1
  Mo  Mo10  1  0.549486  0.549486  0.549486  1
  Mo  Mo11  1  0.165698  0.165698  0.165698  1
  Mo  Mo12  1  0.347702  0.347702  0.347702  1
