# generated using pymatgen
data_CsK2H5Pt
_symmetry_space_group_name_H-M   'P 1'
_cell_length_a   7.68592900
_cell_length_b   7.68592900
_cell_length_c   6.01678700
_cell_angle_alpha   90.00000000
_cell_angle_beta   90.00000000
_cell_angle_gamma   90.00000000
_symmetry_Int_Tables_number   1
_chemical_formula_structural   CsK2H5Pt
_chemical_formula_sum   'Cs2 K4 H10 Pt2'
_cell_volume   355.43269448
_cell_formula_units_Z   2
loop_
 _symmetry_equiv_pos_site_id
 _symmetry_equiv_pos_as_xyz
  1  'x, y, z'
loop_
 _atom_site_type_symbol
 _atom_site_label
 _atom_site_symmetry_multiplicity
 _atom_site_fract_x
 _atom_site_fract_y
 _atom_site_fract_z
 _atom_site_occupancy
  Cs  Cs0  1  0.500000  0.500000  0.000000  1
  Cs  Cs1  1  0.000000  0.000000  0.000000  1
  K  K2  1  0.181584  0.681584  0.500000  1
  K  K3  1  0.818416  0.318416  0.500000  1
  K  K4  1  0.681584  0.818416  0.500000  1
  K  K5  1  0.318416  0.181584  0.500000  1
  H  H6  1  0.500000  0.500000  0.500000  1
  H  H7  1  0.000000  0.000000  0.500000  1
  H  H8  1  0.608672  0.108672  0.803967  1
  H  H9  1  0.391328  0.891328  0.803967  1
  H  H10  1  0.108672  0.391328  0.803967  1
  H  H11  1  0.891328  0.608672  0.803967  1
  H  H12  1  0.391328  0.891328  0.196033  1
  H  H13  1  0.608672  0.108672  0.196033  1
  H  H14  1  0.891328  0.608672  0.196033  1
  H  H15  1  0.108672  0.391328  0.196033  1
  Pt  Pt16  1  0.500000  0.000000  0.000000  1
  Pt  Pt17  1  0.000000  0.500000  0.000000  1
