# generated using pymatgen
data_SmZnGeIr2
_symmetry_space_group_name_H-M   'P 1'
_cell_length_a   4.13970300
_cell_length_b   4.13970300
_cell_length_c   10.71945700
_cell_angle_alpha   90.00000000
_cell_angle_beta   90.00000000
_cell_angle_gamma   90.00000000
_symmetry_Int_Tables_number   1
_chemical_formula_structural   SmZnGeIr2
_chemical_formula_sum   'Sm2 Zn2 Ge2 Ir4'
_cell_volume   183.70084528
_cell_formula_units_Z   2
loop_
 _symmetry_equiv_pos_site_id
 _symmetry_equiv_pos_as_xyz
  1  'x, y, z'
loop_
 _atom_site_type_symbol
 _atom_site_label
 _atom_site_symmetry_multiplicity
 _atom_site_fract_x
 _atom_site_fract_y
 _atom_site_fract_z
 _atom_site_occupancy
  Sm  Sm0  1  0.000000  0.500000  0.250544  1
  Sm  Sm1  1  0.500000  0.000000  0.749456  1
  Zn  Zn2  1  0.000000  0.000000  0.500000  1
  Zn  Zn3  1  0.500000  0.500000  0.500000  1
  Ge  Ge4  1  0.000000  0.500000  0.872656  1
  Ge  Ge5  1  0.500000  0.000000  0.127344  1
  Ir  Ir6  1  0.000000  0.000000  0.000000  1
  Ir  Ir7  1  0.500000  0.500000  0.000000  1
  Ir  Ir8  1  0.000000  0.500000  0.645555  1
  Ir  Ir9  1  0.500000  0.000000  0.354445  1
