# generated using pymatgen
data_Tm5P12Ru9Rh10
_symmetry_space_group_name_H-M   'P 1'
_cell_length_a   12.57995100
_cell_length_b   12.57995112
_cell_length_c   3.91422500
_cell_angle_alpha   90.00000000
_cell_angle_beta   90.00000000
_cell_angle_gamma   120.00000230
_symmetry_Int_Tables_number   1
_chemical_formula_structural   Tm5P12Ru9Rh10
_chemical_formula_sum   'Tm5 P12 Ru9 Rh10'
_cell_volume   536.45625241
_cell_formula_units_Z   1
loop_
 _symmetry_equiv_pos_site_id
 _symmetry_equiv_pos_as_xyz
  1  'x, y, z'
loop_
 _atom_site_type_symbol
 _atom_site_label
 _atom_site_symmetry_multiplicity
 _atom_site_fract_x
 _atom_site_fract_y
 _atom_site_fract_z
 _atom_site_occupancy
  Tm  Tm0  1  0.185963  0.185963  0.500000  1
  Tm  Tm1  1  0.814037  0.000000  0.500000  1
  Tm  Tm2  1  0.000000  0.814037  0.500000  1
  Tm  Tm3  1  0.333333  0.666667  0.000000  1
  Tm  Tm4  1  0.666667  0.333333  0.000000  1
  P  P5  1  0.818863  0.818863  0.000000  1
  P  P6  1  0.181137  0.000000  0.000000  1
  P  P7  1  0.000000  0.181137  0.000000  1
  P  P8  1  0.172282  0.482968  0.500000  1
  P  P9  1  0.517032  0.689314  0.500000  1
  P  P10  1  0.310686  0.827718  0.500000  1
  P  P11  1  0.689314  0.517032  0.500000  1
  P  P12  1  0.827718  0.310686  0.500000  1
  P  P13  1  0.482968  0.172282  0.500000  1
  P  P14  1  0.370102  0.370102  0.000000  1
  P  P15  1  0.629898  0.000000  0.000000  1
  P  P16  1  0.000000  0.629898  0.000000  1
  Ru  Ru17  1  0.717055  0.717055  0.500000  1
  Ru  Ru18  1  0.282945  0.000000  0.500000  1
  Ru  Ru19  1  0.000000  0.282945  0.500000  1
  Ru  Ru20  1  0.362086  0.489469  0.500000  1
  Ru  Ru21  1  0.510531  0.872616  0.500000  1
  Ru  Ru22  1  0.127384  0.637914  0.500000  1
  Ru  Ru23  1  0.872616  0.510531  0.500000  1
  Ru  Ru24  1  0.637914  0.127384  0.500000  1
  Ru  Ru25  1  0.489469  0.362086  0.500000  1
  Rh  Rh26  1  0.551585  0.551585  0.000000  1
  Rh  Rh27  1  0.448415  0.000000  0.000000  1
  Rh  Rh28  1  0.000000  0.448415  0.000000  1
  Rh  Rh29  1  0.183170  0.374543  0.000000  1
  Rh  Rh30  1  0.625457  0.808626  0.000000  1
  Rh  Rh31  1  0.191374  0.816830  0.000000  1
  Rh  Rh32  1  0.808626  0.625457  0.000000  1
  Rh  Rh33  1  0.816830  0.191374  0.000000  1
  Rh  Rh34  1  0.374543  0.183170  0.000000  1
  Rh  Rh35  1  0.000000  0.000000  0.000000  1
