# generated using pymatgen
data_Tb4Al18TcPd4Pt
_symmetry_space_group_name_H-M   'P 1'
_cell_length_a   7.63398055
_cell_length_b   7.63398121
_cell_length_c   9.50846551
_cell_angle_alpha   89.84242629
_cell_angle_beta   89.84243261
_cell_angle_gamma   119.46394934
_symmetry_Int_Tables_number   1
_chemical_formula_structural   Tb4Al18TcPd4Pt
_chemical_formula_sum   'Tb4 Al18 Tc1 Pd4 Pt1'
_cell_volume   482.45562269
_cell_formula_units_Z   1
loop_
 _symmetry_equiv_pos_site_id
 _symmetry_equiv_pos_as_xyz
  1  'x, y, z'
loop_
 _atom_site_type_symbol
 _atom_site_label
 _atom_site_symmetry_multiplicity
 _atom_site_fract_x
 _atom_site_fract_y
 _atom_site_fract_z
 _atom_site_occupancy
  Tb  Tb0  1  0.995609  0.671437  0.248901  1
  Tb  Tb1  1  0.004360  0.328503  0.751132  1
  Tb  Tb2  1  0.671497  0.995640  0.248868  1
  Tb  Tb3  1  0.328563  0.004391  0.751099  1
  Al  Al4  1  0.129405  0.129410  0.246449  1
  Al  Al5  1  0.870590  0.870595  0.753551  1
  Al  Al6  1  0.999783  0.329229  0.073396  1
  Al  Al7  1  0.999992  0.670659  0.926605  1
  Al  Al8  1  0.998088  0.663679  0.578009  1
  Al  Al9  1  0.336321  0.001912  0.421991  1
  Al  Al10  1  0.001935  0.336309  0.422008  1
  Al  Al11  1  0.663691  0.998065  0.577992  1
  Al  Al12  1  0.670771  0.000217  0.926604  1
  Al  Al13  1  0.329341  0.000008  0.073395  1
  Al  Al14  1  0.334045  0.334038  0.556390  1
  Al  Al15  1  0.665962  0.665955  0.443610  1
  Al  Al16  1  0.671128  0.671071  0.052597  1
  Al  Al17  1  0.328929  0.328872  0.947403  1
  Al  Al18  1  0.341463  0.547707  0.248784  1
  Al  Al19  1  0.658539  0.452438  0.751156  1
  Al  Al20  1  0.547562  0.341461  0.248844  1
  Al  Al21  1  0.452293  0.658537  0.751216  1
  Tc  Tc22  1  0.000066  0.999934  0.000000  1
  Pd  Pd23  1  0.327914  0.672086  0.000000  1
  Pd  Pd24  1  0.327808  0.672192  0.500000  1
  Pd  Pd25  1  0.672223  0.327777  0.500000  1
  Pd  Pd26  1  0.000014  0.999986  0.500000  1
  Pt  Pt27  1  0.672108  0.327892  0.000000  1
