# generated using pymatgen
data_Li8Ac7YSi8
_symmetry_space_group_name_H-M   'P 1'
_cell_length_a   9.22747100
_cell_length_b   9.22747013
_cell_length_c   7.88605400
_cell_angle_alpha   90.00000000
_cell_angle_beta   90.00000000
_cell_angle_gamma   120.00000672
_symmetry_Int_Tables_number   1
_chemical_formula_structural   Li8Ac7YSi8
_chemical_formula_sum   'Li8 Ac7 Y1 Si8'
_cell_volume   581.50798904
_cell_formula_units_Z   1
loop_
 _symmetry_equiv_pos_site_id
 _symmetry_equiv_pos_as_xyz
  1  'x, y, z'
loop_
 _atom_site_type_symbol
 _atom_site_label
 _atom_site_symmetry_multiplicity
 _atom_site_fract_x
 _atom_site_fract_y
 _atom_site_fract_z
 _atom_site_occupancy
  Li  Li0  1  0.164873  0.329750  0.276398  1
  Li  Li1  1  0.164873  0.835127  0.276398  1
  Li  Li2  1  0.670250  0.835127  0.276398  1
  Li  Li3  1  0.837218  0.674433  0.800154  1
  Li  Li4  1  0.837218  0.162782  0.800154  1
  Li  Li5  1  0.325567  0.162782  0.800154  1
  Li  Li6  1  0.333333  0.666667  0.672230  1
  Li  Li7  1  0.666667  0.333333  0.161248  1
  Ac  Ac8  1  0.512899  0.025795  0.496574  1
  Ac  Ac9  1  0.512899  0.487101  0.496574  1
  Ac  Ac10  1  0.974205  0.487101  0.496574  1
  Ac  Ac11  1  0.486627  0.973253  0.995739  1
  Ac  Ac12  1  0.486627  0.513373  0.995739  1
  Ac  Ac13  1  0.026747  0.513373  0.995739  1
  Ac  Ac14  1  0.000000  0.000000  0.505347  1
  Y  Y15  1  0.000000  0.000000  0.010797  1
  Si  Si16  1  0.164903  0.329806  0.729699  1
  Si  Si17  1  0.164903  0.835097  0.729699  1
  Si  Si18  1  0.670194  0.835097  0.729699  1
  Si  Si19  1  0.837902  0.675804  0.211205  1
  Si  Si20  1  0.837902  0.162098  0.211205  1
  Si  Si21  1  0.324196  0.162098  0.211205  1
  Si  Si22  1  0.333333  0.666667  0.285747  1
  Si  Si23  1  0.666667  0.333333  0.777315  1
