# generated using pymatgen
data_YbCrCu(Sb6Os)2
_symmetry_space_group_name_H-M   'P 1'
_cell_length_a   8.18005183
_cell_length_b   8.18768087
_cell_length_c   8.14297833
_cell_angle_alpha   109.45704096
_cell_angle_beta   109.12347472
_cell_angle_gamma   109.64807957
_symmetry_Int_Tables_number   1
_chemical_formula_structural   YbCrCu(Sb6Os)2
_chemical_formula_sum   'Yb1 Cr1 Cu1 Sb12 Os2'
_cell_volume   420.78409918
_cell_formula_units_Z   1
loop_
 _symmetry_equiv_pos_site_id
 _symmetry_equiv_pos_as_xyz
  1  'x, y, z'
loop_
 _atom_site_type_symbol
 _atom_site_label
 _atom_site_symmetry_multiplicity
 _atom_site_fract_x
 _atom_site_fract_y
 _atom_site_fract_z
 _atom_site_occupancy
  Yb  Yb0  1  0.000000  0.000000  0.000000  1
  Cr  Cr1  1  0.000000  0.000000  0.500000  1
  Cu  Cu2  1  0.500000  0.500000  0.500000  1
  Sb  Sb3  1  0.848177  0.660499  0.503841  1
  Sb  Sb4  1  0.151823  0.339501  0.496159  1
  Sb  Sb5  1  0.157383  0.663656  0.819324  1
  Sb  Sb6  1  0.842617  0.336344  0.180676  1
  Sb  Sb7  1  0.662166  0.503531  0.848203  1
  Sb  Sb8  1  0.337834  0.496469  0.151797  1
  Sb  Sb9  1  0.662705  0.820731  0.157811  1
  Sb  Sb10  1  0.337295  0.179269  0.842189  1
  Sb  Sb11  1  0.503066  0.847146  0.659961  1
  Sb  Sb12  1  0.496934  0.152854  0.340039  1
  Sb  Sb13  1  0.179810  0.841891  0.337441  1
  Sb  Sb14  1  0.820190  0.158109  0.662559  1
  Os  Os15  1  0.500000  0.000000  0.000000  1
  Os  Os16  1  0.000000  0.500000  0.000000  1
