# generated using pymatgen
data_Yb12CoNiRu2
_symmetry_space_group_name_H-M   'P 1'
_cell_length_a   6.25234189
_cell_length_b   7.51554512
_cell_length_c   9.28546200
_cell_angle_alpha   90.00000000
_cell_angle_beta   90.00000000
_cell_angle_gamma   89.91951563
_symmetry_Int_Tables_number   1
_chemical_formula_structural   Yb12CoNiRu2
_chemical_formula_sum   'Yb12 Co1 Ni1 Ru2'
_cell_volume   436.32117761
_cell_formula_units_Z   1
loop_
 _symmetry_equiv_pos_site_id
 _symmetry_equiv_pos_as_xyz
  1  'x, y, z'
loop_
 _atom_site_type_symbol
 _atom_site_label
 _atom_site_symmetry_multiplicity
 _atom_site_fract_x
 _atom_site_fract_y
 _atom_site_fract_z
 _atom_site_occupancy
  Yb  Yb0  1  0.341686  0.666768  0.069922  1
  Yb  Yb1  1  0.155579  0.168201  0.432568  1
  Yb  Yb2  1  0.655594  0.330731  0.564896  1
  Yb  Yb3  1  0.844121  0.835582  0.934067  1
  Yb  Yb4  1  0.655594  0.330731  0.935104  1
  Yb  Yb5  1  0.844121  0.835582  0.565933  1
  Yb  Yb6  1  0.341686  0.666768  0.430078  1
  Yb  Yb7  1  0.155579  0.168201  0.067432  1
  Yb  Yb8  1  0.867286  0.538969  0.250000  1
  Yb  Yb9  1  0.632041  0.039534  0.250000  1
  Yb  Yb10  1  0.136153  0.456944  0.750000  1
  Yb  Yb11  1  0.365487  0.960887  0.750000  1
  Co  Co12  1  0.046860  0.873915  0.250000  1
  Ni  Ni13  1  0.549210  0.624829  0.750000  1
  Ru  Ru14  1  0.455770  0.378249  0.250000  1
  Ru  Ru15  1  0.953234  0.124108  0.750000  1
