# generated using pymatgen
data_Nd3Y13(ZnCo)4
_symmetry_space_group_name_H-M   'P 1'
_cell_length_a   9.46692580
_cell_length_b   9.47796904
_cell_length_c   9.47862779
_cell_angle_alpha   60.03095036
_cell_angle_beta   60.03356868
_cell_angle_gamma   60.02336546
_symmetry_Int_Tables_number   1
_chemical_formula_structural   Nd3Y13(ZnCo)4
_chemical_formula_sum   'Nd3 Y13 Zn4 Co4'
_cell_volume   601.78731217
_cell_formula_units_Z   1
loop_
 _symmetry_equiv_pos_site_id
 _symmetry_equiv_pos_as_xyz
  1  'x, y, z'
loop_
 _atom_site_type_symbol
 _atom_site_label
 _atom_site_symmetry_multiplicity
 _atom_site_fract_x
 _atom_site_fract_y
 _atom_site_fract_z
 _atom_site_occupancy
  Nd  Nd0  1  0.598788  0.600549  0.600241  1
  Nd  Nd1  1  0.601069  0.601797  0.197290  1
  Nd  Nd2  1  0.601195  0.197149  0.601648  1
  Y  Y3  1  0.193265  0.602916  0.602732  1
  Y  Y4  1  0.060134  0.439986  0.440016  1
  Y  Y5  1  0.438336  0.060488  0.060702  1
  Y  Y6  1  0.439302  0.059606  0.439774  1
  Y  Y7  1  0.060331  0.438790  0.059218  1
  Y  Y8  1  0.439328  0.439785  0.059713  1
  Y  Y9  1  0.060463  0.059118  0.438805  1
  Y  Y10  1  0.189275  0.812542  0.812628  1
  Y  Y11  1  0.812760  0.186782  0.186778  1
  Y  Y12  1  0.814280  0.187981  0.812945  1
  Y  Y13  1  0.188936  0.811082  0.187353  1
  Y  Y14  1  0.814341  0.812923  0.187966  1
  Y  Y15  1  0.188955  0.187337  0.811106  1
  Zn  Zn16  1  0.829453  0.825464  0.825458  1
  Zn  Zn17  1  0.830613  0.826951  0.514893  1
  Zn  Zn18  1  0.830618  0.514898  0.826950  1
  Zn  Zn19  1  0.515902  0.827561  0.827542  1
  Co  Co20  1  0.386663  0.393227  0.393180  1
  Co  Co21  1  0.388684  0.394109  0.827362  1
  Co  Co22  1  0.388703  0.827290  0.394082  1
  Co  Co23  1  0.828604  0.391671  0.391619  1
