# generated using pymatgen
data_Dy8Nb11ReSi16
_symmetry_space_group_name_H-M   'P 1'
_cell_length_a   7.03743582
_cell_length_b   7.04389940
_cell_length_c   13.05012917
_cell_angle_alpha   89.84788348
_cell_angle_beta   89.90728560
_cell_angle_gamma   90.09214930
_symmetry_Int_Tables_number   1
_chemical_formula_structural   Dy8Nb11ReSi16
_chemical_formula_sum   'Dy8 Nb11 Re1 Si16'
_cell_volume   646.90385345
_cell_formula_units_Z   1
loop_
 _symmetry_equiv_pos_site_id
 _symmetry_equiv_pos_as_xyz
  1  'x, y, z'
loop_
 _atom_site_type_symbol
 _atom_site_label
 _atom_site_symmetry_multiplicity
 _atom_site_fract_x
 _atom_site_fract_y
 _atom_site_fract_z
 _atom_site_occupancy
  Dy  Dy0  1  0.998963  0.339283  0.220374  1
  Dy  Dy1  1  0.002199  0.661037  0.716551  1
  Dy  Dy2  1  0.160421  0.499727  0.467512  1
  Dy  Dy3  1  0.500575  0.840045  0.033521  1
  Dy  Dy4  1  0.838928  0.501525  0.967960  1
  Dy  Dy5  1  0.498312  0.159579  0.530638  1
  Dy  Dy6  1  0.339306  0.999286  0.781393  1
  Dy  Dy7  1  0.660772  0.001150  0.282169  1
  Nb  Nb8  1  0.170106  0.170168  0.000977  1
  Nb  Nb9  1  0.829186  0.830710  0.499706  1
  Nb  Nb10  1  0.329125  0.668179  0.250326  1
  Nb  Nb11  1  0.669537  0.330413  0.750141  1
  Nb  Nb12  1  0.844980  0.007249  0.875224  1
  Nb  Nb13  1  0.504919  0.656929  0.623798  1
  Nb  Nb14  1  0.344964  0.492938  0.873936  1
  Nb  Nb15  1  0.489456  0.342208  0.127392  1
  Nb  Nb16  1  0.655629  0.506667  0.374357  1
  Nb  Nb17  1  0.994470  0.155310  0.623380  1
  Nb  Nb18  1  0.005622  0.846084  0.124471  1
  Re  Re19  1  0.159390  0.995271  0.375563  1
  Si  Si20  1  0.292348  0.040322  0.189775  1
  Si  Si21  1  0.706044  0.956639  0.686311  1
  Si  Si22  1  0.453007  0.794957  0.434645  1
  Si  Si23  1  0.205182  0.543776  0.063721  1
  Si  Si24  1  0.542938  0.204898  0.936749  1
  Si  Si25  1  0.793410  0.455997  0.563253  1
  Si  Si26  1  0.043323  0.295169  0.813442  1
  Si  Si27  1  0.960846  0.712231  0.314083  1
  Si  Si28  1  0.368710  0.290270  0.319385  1
  Si  Si29  1  0.631004  0.705851  0.816479  1
  Si  Si30  1  0.202638  0.870570  0.564099  1
  Si  Si31  1  0.131732  0.796011  0.933192  1
  Si  Si32  1  0.795761  0.132301  0.067775  1
  Si  Si33  1  0.874583  0.199290  0.431793  1
  Si  Si34  1  0.296228  0.368471  0.682090  1
  Si  Si35  1  0.705387  0.629494  0.183819  1
