# generated using pymatgen
data_NaPa4TlTe10
_symmetry_space_group_name_H-M   'P 1'
_cell_length_a   9.32722215
_cell_length_b   9.32722228
_cell_length_c   9.32722300
_cell_angle_alpha   128.27453530
_cell_angle_beta   128.27453595
_cell_angle_gamma   76.18071861
_symmetry_Int_Tables_number   1
_chemical_formula_structural   NaPa4TlTe10
_chemical_formula_sum   'Na1 Pa4 Tl1 Te10'
_cell_volume   486.09091308
_cell_formula_units_Z   1
loop_
 _symmetry_equiv_pos_site_id
 _symmetry_equiv_pos_as_xyz
  1  'x, y, z'
loop_
 _atom_site_type_symbol
 _atom_site_label
 _atom_site_symmetry_multiplicity
 _atom_site_fract_x
 _atom_site_fract_y
 _atom_site_fract_z
 _atom_site_occupancy
  Na  Na0  1  0.750000  0.750000  0.000000  1
  Pa  Pa1  1  0.649941  0.149941  0.799883  1
  Pa  Pa2  1  0.350059  0.850059  0.200117  1
  Pa  Pa3  1  0.149941  0.350059  0.500000  1
  Pa  Pa4  1  0.850059  0.649941  0.500000  1
  Tl  Tl5  1  0.250000  0.250000  0.000000  1
  Te  Te6  1  0.007003  0.517136  0.801198  1
  Te  Te7  1  0.715937  0.205803  0.198802  1
  Te  Te8  1  0.517136  0.715937  0.510133  1
  Te  Te9  1  0.205803  0.007003  0.489867  1
  Te  Te10  1  0.982864  0.492997  0.198802  1
  Te  Te11  1  0.294197  0.784063  0.801198  1
  Te  Te12  1  0.492997  0.294197  0.510133  1
  Te  Te13  1  0.784063  0.982864  0.489867  1
  Te  Te14  1  0.007765  0.007765  0.000000  1
  Te  Te15  1  0.492235  0.492235  0.000000  1
