# generated using pymatgen
data_Dy2ErNi12B2Ir
_symmetry_space_group_name_H-M   'P 1'
_cell_length_a   4.92525700
_cell_length_b   4.98110582
_cell_length_c   10.96567600
_cell_angle_alpha   90.00000000
_cell_angle_beta   90.00000000
_cell_angle_gamma   119.62980018
_symmetry_Int_Tables_number   1
_chemical_formula_structural   Dy2ErNi12B2Ir
_chemical_formula_sum   'Dy2 Er1 Ni12 B2 Ir1'
_cell_volume   233.84534678
_cell_formula_units_Z   1
loop_
 _symmetry_equiv_pos_site_id
 _symmetry_equiv_pos_as_xyz
  1  'x, y, z'
loop_
 _atom_site_type_symbol
 _atom_site_label
 _atom_site_symmetry_multiplicity
 _atom_site_fract_x
 _atom_site_fract_y
 _atom_site_fract_z
 _atom_site_occupancy
  Dy  Dy0  1  0.500000  0.000000  0.671171  1
  Dy  Dy1  1  0.500000  0.000000  0.328829  1
  Er  Er2  1  0.500000  0.000000  0.000000  1
  Ni  Ni3  1  0.500000  0.500000  0.500000  1
  Ni  Ni4  1  0.000000  0.500000  0.500000  1
  Ni  Ni5  1  0.830153  0.660305  0.684827  1
  Ni  Ni6  1  0.169847  0.339695  0.684827  1
  Ni  Ni7  1  0.169847  0.339695  0.315173  1
  Ni  Ni8  1  0.830153  0.660305  0.315173  1
  Ni  Ni9  1  0.000000  0.000000  0.867026  1
  Ni  Ni10  1  0.500000  0.500000  0.869523  1
  Ni  Ni11  1  0.000000  0.500000  0.869523  1
  Ni  Ni12  1  0.000000  0.000000  0.132974  1
  Ni  Ni13  1  0.500000  0.500000  0.130477  1
  Ni  Ni14  1  0.000000  0.500000  0.130477  1
  B  B15  1  0.836179  0.672357  0.000000  1
  B  B16  1  0.163821  0.327643  0.000000  1
  Ir  Ir17  1  0.000000  0.000000  0.500000  1
