# generated using pymatgen
data_Nd5GaBiPb2
_symmetry_space_group_name_H-M   'P 1'
_cell_length_a   9.69228967
_cell_length_b   9.61616769
_cell_length_c   6.77611500
_cell_angle_alpha   90.00000000
_cell_angle_beta   90.00000000
_cell_angle_gamma   119.74053310
_symmetry_Int_Tables_number   1
_chemical_formula_structural   Nd5GaBiPb2
_chemical_formula_sum   'Nd10 Ga2 Bi2 Pb4'
_cell_volume   548.36455454
_cell_formula_units_Z   2
loop_
 _symmetry_equiv_pos_site_id
 _symmetry_equiv_pos_as_xyz
  1  'x, y, z'
loop_
 _atom_site_type_symbol
 _atom_site_label
 _atom_site_symmetry_multiplicity
 _atom_site_fract_x
 _atom_site_fract_y
 _atom_site_fract_z
 _atom_site_occupancy
  Nd  Nd0  1  0.667189  0.334473  0.000323  1
  Nd  Nd1  1  0.332811  0.667285  0.000323  1
  Nd  Nd2  1  0.332811  0.667285  0.499677  1
  Nd  Nd3  1  0.667189  0.334473  0.499677  1
  Nd  Nd4  1  0.743566  0.742860  0.750000  1
  Nd  Nd5  1  0.256434  0.999294  0.750000  1
  Nd  Nd6  1  0.000000  0.256500  0.750000  1
  Nd  Nd7  1  0.259220  0.258718  0.250000  1
  Nd  Nd8  1  0.740780  0.999497  0.250000  1
  Nd  Nd9  1  0.000000  0.739920  0.250000  1
  Ga  Ga10  1  0.000000  0.999160  0.002991  1
  Ga  Ga11  1  0.000000  0.999160  0.497009  1
  Bi  Bi12  1  0.386478  0.387386  0.750000  1
  Bi  Bi13  1  0.613522  0.000908  0.750000  1
  Pb  Pb14  1  0.000000  0.612570  0.750000  1
  Pb  Pb15  1  0.614388  0.615184  0.250000  1
  Pb  Pb16  1  0.385612  0.000798  0.250000  1
  Pb  Pb17  1  0.000000  0.384530  0.250000  1
