# generated using pymatgen
data_GdCdCu5
_symmetry_space_group_name_H-M   'P 1'
_cell_length_a   5.02062400
_cell_length_b   8.22849000
_cell_length_c   10.53912700
_cell_angle_alpha   90.00000000
_cell_angle_beta   90.00000000
_cell_angle_gamma   90.00000000
_symmetry_Int_Tables_number   1
_chemical_formula_structural   GdCdCu5
_chemical_formula_sum   'Gd4 Cd4 Cu20'
_cell_volume   435.39404163
_cell_formula_units_Z   4
loop_
 _symmetry_equiv_pos_site_id
 _symmetry_equiv_pos_as_xyz
  1  'x, y, z'
loop_
 _atom_site_type_symbol
 _atom_site_label
 _atom_site_symmetry_multiplicity
 _atom_site_fract_x
 _atom_site_fract_y
 _atom_site_fract_z
 _atom_site_occupancy
  Gd  Gd0  1  0.250000  0.753073  0.062685  1
  Gd  Gd1  1  0.750000  0.246927  0.937315  1
  Gd  Gd2  1  0.750000  0.746927  0.562685  1
  Gd  Gd3  1  0.250000  0.253073  0.437315  1
  Cd  Cd4  1  0.250000  0.640716  0.361338  1
  Cd  Cd5  1  0.750000  0.359284  0.638662  1
  Cd  Cd6  1  0.750000  0.859284  0.861338  1
  Cd  Cd7  1  0.250000  0.140716  0.138662  1
  Cu  Cu8  1  0.250000  0.814242  0.745026  1
  Cu  Cu9  1  0.750000  0.185758  0.254974  1
  Cu  Cu10  1  0.750000  0.685758  0.245026  1
  Cu  Cu11  1  0.250000  0.314242  0.754974  1
  Cu  Cu12  1  0.500272  0.564893  0.813366  1
  Cu  Cu13  1  0.499728  0.435107  0.186634  1
  Cu  Cu14  1  0.499728  0.935107  0.313366  1
  Cu  Cu15  1  0.000272  0.435107  0.186634  1
  Cu  Cu16  1  0.500272  0.064893  0.686634  1
  Cu  Cu17  1  0.999728  0.564893  0.813366  1
  Cu  Cu18  1  0.999728  0.064893  0.686634  1
  Cu  Cu19  1  0.000272  0.935107  0.313366  1
  Cu  Cu20  1  0.250000  0.914162  0.518131  1
  Cu  Cu21  1  0.750000  0.085838  0.481869  1
  Cu  Cu22  1  0.750000  0.585838  0.018131  1
  Cu  Cu23  1  0.250000  0.414162  0.981869  1
  Cu  Cu24  1  0.250000  0.560028  0.603400  1
  Cu  Cu25  1  0.750000  0.439972  0.396600  1
  Cu  Cu26  1  0.750000  0.939972  0.103400  1
  Cu  Cu27  1  0.250000  0.060028  0.896600  1
