# generated using pymatgen
data_Y2Mn3Si7Pt9
_symmetry_space_group_name_H-M   'P 1'
_cell_length_a   9.89440100
_cell_length_b   9.89440198
_cell_length_c   3.93041500
_cell_angle_alpha   90.00000000
_cell_angle_beta   90.00000000
_cell_angle_gamma   119.99999965
_symmetry_Int_Tables_number   1
_chemical_formula_structural   Y2Mn3Si7Pt9
_chemical_formula_sum   'Y2 Mn3 Si7 Pt9'
_cell_volume   333.23307424
_cell_formula_units_Z   1
loop_
 _symmetry_equiv_pos_site_id
 _symmetry_equiv_pos_as_xyz
  1  'x, y, z'
loop_
 _atom_site_type_symbol
 _atom_site_label
 _atom_site_symmetry_multiplicity
 _atom_site_fract_x
 _atom_site_fract_y
 _atom_site_fract_z
 _atom_site_occupancy
  Y  Y0  1  0.000000  0.000000  0.000000  1
  Y  Y1  1  0.333333  0.666667  0.500000  1
  Mn  Mn2  1  0.880510  0.454448  0.500000  1
  Mn  Mn3  1  0.573937  0.119490  0.500000  1
  Mn  Mn4  1  0.545552  0.426063  0.500000  1
  Si  Si5  1  0.260172  0.216391  0.500000  1
  Si  Si6  1  0.783609  0.043782  0.500000  1
  Si  Si7  1  0.956218  0.739828  0.500000  1
  Si  Si8  1  0.552645  0.632378  0.000000  1
  Si  Si9  1  0.367622  0.920267  0.000000  1
  Si  Si10  1  0.079733  0.447355  0.000000  1
  Si  Si11  1  0.666667  0.333333  0.000000  1
  Pt  Pt12  1  0.225044  0.946604  0.500000  1
  Pt  Pt13  1  0.053396  0.278442  0.500000  1
  Pt  Pt14  1  0.721558  0.774956  0.500000  1
  Pt  Pt15  1  0.303599  0.407927  0.000000  1
  Pt  Pt16  1  0.592073  0.895672  0.000000  1
  Pt  Pt17  1  0.104328  0.696401  0.000000  1
  Pt  Pt18  1  0.393686  0.177490  0.000000  1
  Pt  Pt19  1  0.822510  0.216196  0.000000  1
  Pt  Pt20  1  0.783804  0.606314  0.000000  1
