# generated using pymatgen
data_BaGaCu5P2
_symmetry_space_group_name_H-M   'P 1'
_cell_length_a   4.07008000
_cell_length_b   4.07008000
_cell_length_c   8.98992200
_cell_angle_alpha   90.00000000
_cell_angle_beta   90.00000000
_cell_angle_gamma   90.00000000
_symmetry_Int_Tables_number   1
_chemical_formula_structural   BaGaCu5P2
_chemical_formula_sum   'Ba1 Ga1 Cu5 P2'
_cell_volume   148.92301323
_cell_formula_units_Z   1
loop_
 _symmetry_equiv_pos_site_id
 _symmetry_equiv_pos_as_xyz
  1  'x, y, z'
loop_
 _atom_site_type_symbol
 _atom_site_label
 _atom_site_symmetry_multiplicity
 _atom_site_fract_x
 _atom_site_fract_y
 _atom_site_fract_z
 _atom_site_occupancy
  Ba  Ba0  1  0.500000  0.500000  0.500000  1
  Ga  Ga1  1  0.500000  0.500000  0.000000  1
  Cu  Cu2  1  0.000000  0.500000  0.178836  1
  Cu  Cu3  1  0.000000  0.500000  0.821164  1
  Cu  Cu4  1  0.500000  0.000000  0.178836  1
  Cu  Cu5  1  0.500000  0.000000  0.821164  1
  Cu  Cu6  1  0.000000  0.000000  0.000000  1
  P  P7  1  0.000000  0.000000  0.299515  1
  P  P8  1  0.000000  0.000000  0.700485  1
