# generated using pymatgen
data_Nd6Cr3TcC12
_symmetry_space_group_name_H-M   'P 1'
_cell_length_a   8.27518200
_cell_length_b   8.27518214
_cell_length_c   5.18646900
_cell_angle_alpha   90.00000000
_cell_angle_beta   90.00000000
_cell_angle_gamma   119.99999942
_symmetry_Int_Tables_number   1
_chemical_formula_structural   Nd6Cr3TcC12
_chemical_formula_sum   'Nd6 Cr3 Tc1 C12'
_cell_volume   307.57960625
_cell_formula_units_Z   1
loop_
 _symmetry_equiv_pos_site_id
 _symmetry_equiv_pos_as_xyz
  1  'x, y, z'
loop_
 _atom_site_type_symbol
 _atom_site_label
 _atom_site_symmetry_multiplicity
 _atom_site_fract_x
 _atom_site_fract_y
 _atom_site_fract_z
 _atom_site_occupancy
  Nd  Nd0  1  0.614594  0.686702  0.750000  1
  Nd  Nd1  1  0.924923  0.614489  0.250000  1
  Nd  Nd2  1  0.689565  0.075077  0.250000  1
  Nd  Nd3  1  0.313298  0.927893  0.750000  1
  Nd  Nd4  1  0.072107  0.385406  0.750000  1
  Nd  Nd5  1  0.385511  0.310435  0.250000  1
  Cr  Cr6  1  0.000000  0.000000  0.504931  1
  Cr  Cr7  1  0.000000  0.000000  0.995069  1
  Cr  Cr8  1  0.666667  0.333333  0.750000  1
  Tc  Tc9  1  0.333333  0.666667  0.250000  1
  C  C10  1  0.955643  0.773059  0.750000  1
  C  C11  1  0.178884  0.958290  0.250000  1
  C  C12  1  0.779407  0.821116  0.250000  1
  C  C13  1  0.226941  0.182586  0.750000  1
  C  C14  1  0.817414  0.044357  0.750000  1
  C  C15  1  0.041710  0.220593  0.250000  1
  C  C16  1  0.858288  0.580306  0.750000  1
  C  C17  1  0.279836  0.869828  0.250000  1
  C  C18  1  0.589991  0.720164  0.250000  1
  C  C19  1  0.419694  0.277982  0.750000  1
  C  C20  1  0.130172  0.410009  0.250000  1
  C  C21  1  0.722018  0.141712  0.750000  1
