# generated using pymatgen
data_Ca4Sn4IrPd3
_symmetry_space_group_name_H-M   'P 1'
_cell_length_a   4.61068300
_cell_length_b   7.39423151
_cell_length_c   8.06469090
_cell_angle_alpha   90.31489977
_cell_angle_beta   90.00000000
_cell_angle_gamma   90.00000000
_symmetry_Int_Tables_number   1
_chemical_formula_structural   Ca4Sn4IrPd3
_chemical_formula_sum   'Ca4 Sn4 Ir1 Pd3'
_cell_volume   274.94097939
_cell_formula_units_Z   1
loop_
 _symmetry_equiv_pos_site_id
 _symmetry_equiv_pos_as_xyz
  1  'x, y, z'
loop_
 _atom_site_type_symbol
 _atom_site_label
 _atom_site_symmetry_multiplicity
 _atom_site_fract_x
 _atom_site_fract_y
 _atom_site_fract_z
 _atom_site_occupancy
  Ca  Ca0  1  0.750000  0.476843  0.816056  1
  Ca  Ca1  1  0.250000  0.517263  0.184874  1
  Ca  Ca2  1  0.250000  0.021400  0.311787  1
  Ca  Ca3  1  0.750000  0.980873  0.686149  1
  Sn  Sn4  1  0.750000  0.332022  0.425024  1
  Sn  Sn5  1  0.250000  0.665473  0.570114  1
  Sn  Sn6  1  0.750000  0.839783  0.071294  1
  Sn  Sn7  1  0.250000  0.166161  0.933335  1
  Ir  Ir8  1  0.750000  0.212581  0.110325  1
  Pd  Pd9  1  0.750000  0.712629  0.390437  1
  Pd  Pd10  1  0.250000  0.786723  0.889304  1
  Pd  Pd11  1  0.250000  0.288249  0.611300  1
