# generated using pymatgen
data_SrTmSi4N7
_symmetry_space_group_name_H-M   'P 1'
_cell_length_a   6.02488600
_cell_length_b   6.02488608
_cell_length_c   9.83207000
_cell_angle_alpha   90.00000000
_cell_angle_beta   90.00000000
_cell_angle_gamma   119.99998858
_symmetry_Int_Tables_number   1
_chemical_formula_structural   SrTmSi4N7
_chemical_formula_sum   'Sr2 Tm2 Si8 N14'
_cell_volume   309.08171752
_cell_formula_units_Z   2
loop_
 _symmetry_equiv_pos_site_id
 _symmetry_equiv_pos_as_xyz
  1  'x, y, z'
loop_
 _atom_site_type_symbol
 _atom_site_label
 _atom_site_symmetry_multiplicity
 _atom_site_fract_x
 _atom_site_fract_y
 _atom_site_fract_z
 _atom_site_occupancy
  Sr  Sr0  1  0.666667  0.333333  0.581126  1
  Sr  Sr1  1  0.333333  0.666667  0.081126  1
  Tm  Tm2  1  0.666667  0.333333  0.950699  1
  Tm  Tm3  1  0.333333  0.666667  0.450699  1
  Si  Si4  1  0.173867  0.347732  0.760132  1
  Si  Si5  1  0.826133  0.173867  0.260132  1
  Si  Si6  1  0.347732  0.173867  0.260132  1
  Si  Si7  1  0.652268  0.826133  0.760132  1
  Si  Si8  1  0.173867  0.826133  0.760132  1
  Si  Si9  1  0.826133  0.652268  0.260132  1
  Si  Si10  1  0.000000  0.000000  0.026793  1
  Si  Si11  1  0.000000  0.000000  0.526793  1
  N  N12  1  0.000000  0.000000  0.835690  1
  N  N13  1  0.000000  0.000000  0.335690  1
  N  N14  1  0.845703  0.691406  0.086067  1
  N  N15  1  0.154297  0.845703  0.586067  1
  N  N16  1  0.691406  0.845703  0.586067  1
  N  N17  1  0.308594  0.154297  0.086067  1
  N  N18  1  0.845703  0.154297  0.086067  1
  N  N19  1  0.154297  0.308594  0.586067  1
  N  N20  1  0.489770  0.510230  0.813305  1
  N  N21  1  0.979541  0.489770  0.313305  1
  N  N22  1  0.510230  0.020459  0.313305  1
  N  N23  1  0.489770  0.979541  0.813305  1
  N  N24  1  0.510230  0.489770  0.313305  1
  N  N25  1  0.020459  0.510230  0.813305  1
