# generated using pymatgen
data_Yb5Pd3
_symmetry_space_group_name_H-M   'P 1'
_cell_length_a   8.76347768
_cell_length_b   8.76347767
_cell_length_c   8.76347777
_cell_angle_alpha   128.78888940
_cell_angle_beta   128.78889091
_cell_angle_gamma   75.35049777
_symmetry_Int_Tables_number   1
_chemical_formula_structural   Yb5Pd3
_chemical_formula_sum   'Yb10 Pd6'
_cell_volume   397.96896711
_cell_formula_units_Z   2
loop_
 _symmetry_equiv_pos_site_id
 _symmetry_equiv_pos_as_xyz
  1  'x, y, z'
loop_
 _atom_site_type_symbol
 _atom_site_label
 _atom_site_symmetry_multiplicity
 _atom_site_fract_x
 _atom_site_fract_y
 _atom_site_fract_z
 _atom_site_occupancy
  Yb  Yb0  1  0.810767  0.973169  0.500000  1
  Yb  Yb1  1  0.689233  0.189233  0.162401  1
  Yb  Yb2  1  0.526831  0.689233  0.500000  1
  Yb  Yb3  1  0.026831  0.526831  0.837599  1
  Yb  Yb4  1  0.000000  0.000000  0.000000  1
  Yb  Yb5  1  0.473169  0.310767  0.500000  1
  Yb  Yb6  1  0.310767  0.810767  0.837599  1
  Yb  Yb7  1  0.189233  0.026831  0.500000  1
  Yb  Yb8  1  0.973169  0.473169  0.162401  1
  Yb  Yb9  1  0.500000  0.500000  0.000000  1
  Pd  Pd10  1  0.131265  0.368735  0.500000  1
  Pd  Pd11  1  0.250000  0.250000  0.000000  1
  Pd  Pd12  1  0.868735  0.631265  0.500000  1
  Pd  Pd13  1  0.750000  0.750000  0.000000  1
  Pd  Pd14  1  0.631265  0.131265  0.762529  1
  Pd  Pd15  1  0.368735  0.868735  0.237471  1
