# generated using pymatgen
data_Hf3Nb2Sn(B2Ru5)2
_symmetry_space_group_name_H-M   'P 1'
_cell_length_a   9.45749125
_cell_length_b   9.47268928
_cell_length_c   3.10544600
_cell_angle_alpha   90.00000000
_cell_angle_beta   90.00000000
_cell_angle_gamma   90.06145659
_symmetry_Int_Tables_number   1
_chemical_formula_structural   Hf3Nb2Sn(B2Ru5)2
_chemical_formula_sum   'Hf3 Nb2 Sn1 B4 Ru10'
_cell_volume   278.21015104
_cell_formula_units_Z   1
loop_
 _symmetry_equiv_pos_site_id
 _symmetry_equiv_pos_as_xyz
  1  'x, y, z'
loop_
 _atom_site_type_symbol
 _atom_site_label
 _atom_site_symmetry_multiplicity
 _atom_site_fract_x
 _atom_site_fract_y
 _atom_site_fract_z
 _atom_site_occupancy
  Hf  Hf0  1  0.823881  0.675532  0.000000  1
  Hf  Hf1  1  0.177922  0.325464  0.000000  1
  Hf  Hf2  1  0.324629  0.823253  0.000000  1
  Nb  Nb3  1  0.677098  0.175518  0.000000  1
  Nb  Nb4  1  0.001618  0.999579  0.000000  1
  Sn  Sn5  1  0.499045  0.501894  0.000000  1
  B  B6  1  0.620851  0.878261  0.000000  1
  B  B7  1  0.379796  0.123099  0.000000  1
  B  B8  1  0.120884  0.620440  0.000000  1
  B  B9  1  0.877220  0.378774  0.000000  1
  Ru  Ru10  1  0.574262  0.722825  0.500000  1
  Ru  Ru11  1  0.431396  0.277791  0.500000  1
  Ru  Ru12  1  0.066981  0.781413  0.500000  1
  Ru  Ru13  1  0.926725  0.216265  0.500000  1
  Ru  Ru14  1  0.277247  0.574365  0.500000  1
  Ru  Ru15  1  0.718476  0.418716  0.500000  1
  Ru  Ru16  1  0.219211  0.069941  0.500000  1
  Ru  Ru17  1  0.781314  0.934937  0.500000  1
  Ru  Ru18  1  0.503363  0.003390  0.500000  1
  Ru  Ru19  1  0.998079  0.498543  0.500000  1
