# generated using pymatgen
data_LiY16Hg3Rh4
_symmetry_space_group_name_H-M   'P 1'
_cell_length_a   9.64665441
_cell_length_b   9.63393734
_cell_length_c   9.63393700
_cell_angle_alpha   60.00000461
_cell_angle_beta   60.04360365
_cell_angle_gamma   60.04359709
_symmetry_Int_Tables_number   1
_chemical_formula_structural   LiY16Hg3Rh4
_chemical_formula_sum   'Li1 Y16 Hg3 Rh4'
_cell_volume   633.51259171
_cell_formula_units_Z   1
loop_
 _symmetry_equiv_pos_site_id
 _symmetry_equiv_pos_as_xyz
  1  'x, y, z'
loop_
 _atom_site_type_symbol
 _atom_site_label
 _atom_site_symmetry_multiplicity
 _atom_site_fract_x
 _atom_site_fract_y
 _atom_site_fract_z
 _atom_site_occupancy
  Li  Li0  1  0.547793  0.817402  0.817402  1
  Y  Y1  1  0.602621  0.598902  0.598902  1
  Y  Y2  1  0.602621  0.598902  0.199577  1
  Y  Y3  1  0.602621  0.199577  0.598902  1
  Y  Y4  1  0.184405  0.605199  0.605199  1
  Y  Y5  1  0.059572  0.439372  0.439372  1
  Y  Y6  1  0.435092  0.064517  0.064517  1
  Y  Y7  1  0.435092  0.064517  0.435873  1
  Y  Y8  1  0.059572  0.439372  0.061684  1
  Y  Y9  1  0.435092  0.435873  0.064517  1
  Y  Y10  1  0.059572  0.061684  0.439372  1
  Y  Y11  1  0.185265  0.814117  0.814117  1
  Y  Y12  1  0.814258  0.185448  0.185448  1
  Y  Y13  1  0.814258  0.185448  0.814846  1
  Y  Y14  1  0.185265  0.814117  0.186500  1
  Y  Y15  1  0.814258  0.814846  0.185448  1
  Y  Y16  1  0.185265  0.186500  0.814117  1
  Hg  Hg17  1  0.829419  0.836878  0.836878  1
  Hg  Hg18  1  0.829419  0.836878  0.496824  1
  Hg  Hg19  1  0.829419  0.496824  0.836878  1
  Rh  Rh20  1  0.389276  0.395442  0.395442  1
  Rh  Rh21  1  0.389276  0.395442  0.819841  1
  Rh  Rh22  1  0.389276  0.819841  0.395442  1
  Rh  Rh23  1  0.821294  0.392902  0.392902  1
