# generated using pymatgen
data_Dy3Er5Sc11Si16Hg
_symmetry_space_group_name_H-M   'P 1'
_cell_length_a   7.03617362
_cell_length_b   7.38505579
_cell_length_c   13.99691022
_cell_angle_alpha   90.04445084
_cell_angle_beta   90.04694631
_cell_angle_gamma   89.89665896
_symmetry_Int_Tables_number   1
_chemical_formula_structural   Dy3Er5Sc11Si16Hg
_chemical_formula_sum   'Dy3 Er5 Sc11 Si16 Hg1'
_cell_volume   727.31328787
_cell_formula_units_Z   1
loop_
 _symmetry_equiv_pos_site_id
 _symmetry_equiv_pos_as_xyz
  1  'x, y, z'
loop_
 _atom_site_type_symbol
 _atom_site_label
 _atom_site_symmetry_multiplicity
 _atom_site_fract_x
 _atom_site_fract_y
 _atom_site_fract_z
 _atom_site_occupancy
  Dy  Dy0  1  0.010045  0.174933  0.096565  1
  Dy  Dy1  1  0.990507  0.816393  0.902505  1
  Dy  Dy2  1  0.485540  0.673256  0.902658  1
  Er  Er3  1  0.990268  0.816224  0.597666  1
  Er  Er4  1  0.510680  0.323668  0.097033  1
  Er  Er5  1  0.010263  0.175033  0.403339  1
  Er  Er6  1  0.510677  0.323600  0.403152  1
  Er  Er7  1  0.485604  0.673545  0.597455  1
  Sc  Sc8  1  0.837842  0.497511  0.250075  1
  Sc  Sc9  1  0.339880  0.004277  0.250066  1
  Sc  Sc10  1  0.656909  0.996989  0.749871  1
  Sc  Sc11  1  0.324979  0.182632  0.626158  1
  Sc  Sc12  1  0.671500  0.824204  0.375025  1
  Sc  Sc13  1  0.169188  0.680689  0.373222  1
  Sc  Sc14  1  0.671445  0.824140  0.125112  1
  Sc  Sc15  1  0.838702  0.325360  0.626005  1
  Sc  Sc16  1  0.325008  0.182631  0.873708  1
  Sc  Sc17  1  0.838793  0.325388  0.873864  1
  Sc  Sc18  1  0.169342  0.680454  0.126885  1
  Si  Si19  1  0.026333  0.092032  0.749776  1
  Si  Si20  1  0.968341  0.889789  0.250160  1
  Si  Si21  1  0.467014  0.616278  0.250043  1
  Si  Si22  1  0.543908  0.380129  0.749853  1
  Si  Si23  1  0.290634  0.884598  0.749650  1
  Si  Si24  1  0.713085  0.130397  0.250210  1
  Si  Si25  1  0.213001  0.372175  0.250181  1
  Si  Si26  1  0.769528  0.632177  0.749575  1
  Si  Si27  1  0.164111  0.459452  0.528311  1
  Si  Si28  1  0.841322  0.535743  0.461845  1
  Si  Si29  1  0.343415  0.966641  0.462290  1
  Si  Si30  1  0.841152  0.535641  0.038200  1
  Si  Si31  1  0.658053  0.033107  0.540402  1
  Si  Si32  1  0.163829  0.459238  0.971819  1
  Si  Si33  1  0.657635  0.033673  0.959673  1
  Si  Si34  1  0.343913  0.966746  0.037752  1
  Hg  Hg35  1  0.157551  0.511255  0.749896  1
