# generated using pymatgen
data_Ba6Sr2SmUSe12
_symmetry_space_group_name_H-M   'P 1'
_cell_length_a   8.99677361
_cell_length_b   8.99677274
_cell_length_c   8.99677453
_cell_angle_alpha   90.80132489
_cell_angle_beta   90.80133346
_cell_angle_gamma   90.80133468
_symmetry_Int_Tables_number   1
_chemical_formula_structural   Ba6Sr2SmUSe12
_chemical_formula_sum   'Ba6 Sr2 Sm1 U1 Se12'
_cell_volume   728.00059832
_cell_formula_units_Z   1
loop_
 _symmetry_equiv_pos_site_id
 _symmetry_equiv_pos_as_xyz
  1  'x, y, z'
loop_
 _atom_site_type_symbol
 _atom_site_label
 _atom_site_symmetry_multiplicity
 _atom_site_fract_x
 _atom_site_fract_y
 _atom_site_fract_z
 _atom_site_occupancy
  Ba  Ba0  1  0.870397  0.622221  0.256358  1
  Ba  Ba1  1  0.256358  0.870397  0.622221  1
  Ba  Ba2  1  0.622221  0.256358  0.870397  1
  Ba  Ba3  1  0.743642  0.129603  0.377779  1
  Ba  Ba4  1  0.377779  0.743642  0.129603  1
  Ba  Ba5  1  0.129603  0.377779  0.743642  1
  Sr  Sr6  1  0.254427  0.254427  0.254427  1
  Sr  Sr7  1  0.745573  0.745573  0.745573  1
  Sm  Sm8  1  0.500000  0.500000  0.500000  1
  U  U9  1  0.000000  0.000000  0.000000  1
  Se  Se10  1  0.194434  0.556931  0.412004  1
  Se  Se11  1  0.412004  0.194434  0.556931  1
  Se  Se12  1  0.556931  0.412004  0.194434  1
  Se  Se13  1  0.923002  0.050775  0.706364  1
  Se  Se14  1  0.706364  0.923002  0.050775  1
  Se  Se15  1  0.050775  0.706364  0.923002  1
  Se  Se16  1  0.805566  0.443069  0.587996  1
  Se  Se17  1  0.587996  0.805566  0.443069  1
  Se  Se18  1  0.443069  0.587996  0.805566  1
  Se  Se19  1  0.076998  0.949225  0.293636  1
  Se  Se20  1  0.293636  0.076998  0.949225  1
  Se  Se21  1  0.949225  0.293636  0.076998  1
