# generated using pymatgen
data_TbPrNd(Co3P2)3
_symmetry_space_group_name_H-M   'P 1'
_cell_length_a   3.75322500
_cell_length_b   10.61620300
_cell_length_c   12.33185400
_cell_angle_alpha   90.00000000
_cell_angle_beta   90.00000000
_cell_angle_gamma   90.00000000
_symmetry_Int_Tables_number   1
_chemical_formula_structural   TbPrNd(Co3P2)3
_chemical_formula_sum   'Tb2 Pr2 Nd2 Co18 P12'
_cell_volume   491.36270419
_cell_formula_units_Z   2
loop_
 _symmetry_equiv_pos_site_id
 _symmetry_equiv_pos_as_xyz
  1  'x, y, z'
loop_
 _atom_site_type_symbol
 _atom_site_label
 _atom_site_symmetry_multiplicity
 _atom_site_fract_x
 _atom_site_fract_y
 _atom_site_fract_z
 _atom_site_occupancy
  Tb  Tb0  1  0.500000  0.817827  0.205394  1
  Tb  Tb1  1  0.500000  0.182173  0.205394  1
  Pr  Pr2  1  0.000000  0.500000  0.520447  1
  Pr  Pr3  1  0.500000  0.000000  0.477592  1
  Nd  Nd4  1  0.000000  0.683051  0.794705  1
  Nd  Nd5  1  0.000000  0.316949  0.794705  1
  Co  Co6  1  0.500000  0.500000  0.156993  1
  Co  Co7  1  0.000000  0.000000  0.843414  1
  Co  Co8  1  0.500000  0.500000  0.705981  1
  Co  Co9  1  0.000000  0.000000  0.293536  1
  Co  Co10  1  0.000000  0.500000  0.990743  1
  Co  Co11  1  0.500000  0.000000  0.015791  1
  Co  Co12  1  0.500000  0.332258  0.998022  1
  Co  Co13  1  0.500000  0.667742  0.998022  1
  Co  Co14  1  0.000000  0.165275  0.006389  1
  Co  Co15  1  0.000000  0.834725  0.006389  1
  Co  Co16  1  0.500000  0.296574  0.426832  1
  Co  Co17  1  0.500000  0.703426  0.426832  1
  Co  Co18  1  0.000000  0.202770  0.568378  1
  Co  Co19  1  0.000000  0.797230  0.568378  1
  Co  Co20  1  0.500000  0.881469  0.711205  1
  Co  Co21  1  0.500000  0.118531  0.711205  1
  Co  Co22  1  0.000000  0.620039  0.286876  1
  Co  Co23  1  0.000000  0.379961  0.286876  1
  P  P24  1  0.500000  0.500000  0.888783  1
  P  P25  1  0.000000  0.000000  0.117007  1
  P  P26  1  0.500000  0.500000  0.338186  1
  P  P27  1  0.000000  0.000000  0.660800  1
  P  P28  1  0.500000  0.305142  0.613083  1
  P  P29  1  0.500000  0.694858  0.613083  1
  P  P30  1  0.000000  0.193225  0.381801  1
  P  P31  1  0.000000  0.806775  0.381801  1
  P  P32  1  0.500000  0.849743  0.896437  1
  P  P33  1  0.500000  0.150257  0.896437  1
  P  P34  1  0.000000  0.654751  0.106246  1
  P  P35  1  0.000000  0.345249  0.106246  1
