# generated using pymatgen
data_TmLuI26
_symmetry_space_group_name_H-M   'P 1'
_cell_length_a   12.95359743
_cell_length_b   11.48365838
_cell_length_c   15.24537670
_cell_angle_alpha   121.89768992
_cell_angle_beta   88.87954238
_cell_angle_gamma   106.00976088
_symmetry_Int_Tables_number   1
_chemical_formula_structural   TmLuI26
_chemical_formula_sum   'Tm1 Lu1 I26'
_cell_volume   1828.43217293
_cell_formula_units_Z   1
loop_
 _symmetry_equiv_pos_site_id
 _symmetry_equiv_pos_as_xyz
  1  'x, y, z'
loop_
 _atom_site_type_symbol
 _atom_site_label
 _atom_site_symmetry_multiplicity
 _atom_site_fract_x
 _atom_site_fract_y
 _atom_site_fract_z
 _atom_site_occupancy
  Tm  Tm0  1  0.330017  0.866812  0.935829  1
  Lu  Lu1  1  0.669117  0.131257  0.063628  1
  I  I2  1  0.378566  0.653797  0.974398  1
  I  I3  1  0.617938  0.338979  0.022348  1
  I  I4  1  0.578909  0.808598  0.393082  1
  I  I5  1  0.427784  0.197503  0.606508  1
  I  I6  1  0.731167  0.694535  0.009035  1
  I  I7  1  0.264813  0.303921  0.992025  1
  I  I8  1  0.710887  0.968054  0.159321  1
  I  I9  1  0.283672  0.030189  0.840408  1
  I  I10  1  0.447979  0.132507  0.137544  1
  I  I11  1  0.553285  0.867392  0.862979  1
  I  I12  1  0.233469  0.651064  0.705764  1
  I  I13  1  0.767695  0.349615  0.291084  1
  I  I14  1  0.118650  0.823738  0.999664  1
  I  I15  1  0.879910  0.171744  0.001071  1
  I  I16  1  0.091354  0.088700  0.215927  1
  I  I17  1  0.906795  0.906996  0.784677  1
  I  I18  1  0.278377  0.912737  0.457079  1
  I  I19  1  0.726245  0.093791  0.544570  1
  I  I20  1  0.329983  0.419781  0.649381  1
  I  I21  1  0.674489  0.583793  0.348822  1
  I  I22  1  0.857290  0.392955  0.705050  1
  I  I23  1  0.143594  0.614846  0.298553  1
  I  I24  1  0.946753  0.687497  0.599471  1
  I  I25  1  0.052013  0.308467  0.401045  1
  I  I26  1  0.253308  0.623079  0.129445  1
  I  I27  1  0.745939  0.377650  0.871292  1
