# generated using pymatgen
data_La8GaPd23Au
_symmetry_space_group_name_H-M   'P 1'
_cell_length_a   8.53754500
_cell_length_b   8.59888200
_cell_length_c   8.61101000
_cell_angle_alpha   90.00000000
_cell_angle_beta   90.00000000
_cell_angle_gamma   90.00000000
_symmetry_Int_Tables_number   1
_chemical_formula_structural   La8GaPd23Au
_chemical_formula_sum   'La8 Ga1 Pd23 Au1'
_cell_volume   632.16302231
_cell_formula_units_Z   1
loop_
 _symmetry_equiv_pos_site_id
 _symmetry_equiv_pos_as_xyz
  1  'x, y, z'
loop_
 _atom_site_type_symbol
 _atom_site_label
 _atom_site_symmetry_multiplicity
 _atom_site_fract_x
 _atom_site_fract_y
 _atom_site_fract_z
 _atom_site_occupancy
  La  La0  1  0.251846  0.248066  0.256791  1
  La  La1  1  0.747763  0.747932  0.747423  1
  La  La2  1  0.747763  0.747932  0.252577  1
  La  La3  1  0.747763  0.252068  0.747423  1
  La  La4  1  0.251846  0.248066  0.743209  1
  La  La5  1  0.251846  0.751934  0.256791  1
  La  La6  1  0.251846  0.751934  0.743209  1
  La  La7  1  0.747763  0.252068  0.252577  1
  Ga  Ga8  1  0.000284  0.000000  0.000000  1
  Pd  Pd9  1  0.738579  0.500000  0.000000  1
  Pd  Pd10  1  0.999718  0.261430  0.500000  1
  Pd  Pd11  1  0.499506  0.260636  0.000000  1
  Pd  Pd12  1  0.999718  0.738570  0.500000  1
  Pd  Pd13  1  0.499506  0.739364  0.000000  1
  Pd  Pd14  1  0.500304  0.000000  0.261396  1
  Pd  Pd15  1  0.261606  0.000000  0.500000  1
  Pd  Pd16  1  0.500304  0.000000  0.738604  1
  Pd  Pd17  1  0.738429  0.000000  0.500000  1
  Pd  Pd18  1  0.000387  0.500000  0.262067  1
  Pd  Pd19  1  0.000387  0.500000  0.737933  1
  Pd  Pd20  1  0.254093  0.500000  0.500000  1
  Pd  Pd21  1  0.746021  0.500000  0.500000  1
  Pd  Pd22  1  0.500273  0.254217  0.500000  1
  Pd  Pd23  1  0.500273  0.745783  0.500000  1
  Pd  Pd24  1  0.499564  0.500000  0.254954  1
  Pd  Pd25  1  0.499564  0.500000  0.745046  1
  Pd  Pd26  1  0.295038  0.000000  0.000000  1
  Pd  Pd27  1  0.704703  0.000000  0.000000  1
  Pd  Pd28  1  0.000574  0.293899  0.000000  1
  Pd  Pd29  1  0.000574  0.706101  0.000000  1
  Pd  Pd30  1  0.999508  0.000000  0.294498  1
  Pd  Pd31  1  0.999508  0.000000  0.705502  1
  Au  Au32  1  0.263140  0.500000  0.000000  1
