# generated using pymatgen
data_Sc4Co16SiP11W4
_symmetry_space_group_name_H-M   'P 1'
_cell_length_a   3.63896900
_cell_length_b   10.28238805
_cell_length_c   11.74978510
_cell_angle_alpha   90.01313816
_cell_angle_beta   90.00000000
_cell_angle_gamma   90.00000000
_symmetry_Int_Tables_number   1
_chemical_formula_structural   Sc4Co16SiP11W4
_chemical_formula_sum   'Sc4 Co16 Si1 P11 W4'
_cell_volume   439.64512092
_cell_formula_units_Z   1
loop_
 _symmetry_equiv_pos_site_id
 _symmetry_equiv_pos_as_xyz
  1  'x, y, z'
loop_
 _atom_site_type_symbol
 _atom_site_label
 _atom_site_symmetry_multiplicity
 _atom_site_fract_x
 _atom_site_fract_y
 _atom_site_fract_z
 _atom_site_occupancy
  Sc  Sc0  1  0.250000  0.582437  0.705632  1
  Sc  Sc1  1  0.250000  0.917660  0.205643  1
  Sc  Sc2  1  0.750000  0.418392  0.296484  1
  Sc  Sc3  1  0.750000  0.082732  0.794362  1
  Co  Co4  1  0.250000  0.406834  0.486224  1
  Co  Co5  1  0.250000  0.092279  0.985223  1
  Co  Co6  1  0.750000  0.593519  0.513937  1
  Co  Co7  1  0.750000  0.906144  0.014022  1
  Co  Co8  1  0.250000  0.214483  0.178452  1
  Co  Co9  1  0.250000  0.278212  0.677999  1
  Co  Co10  1  0.750000  0.778459  0.821544  1
  Co  Co11  1  0.750000  0.722489  0.322626  1
  Co  Co12  1  0.250000  0.888108  0.701133  1
  Co  Co13  1  0.250000  0.617387  0.201806  1
  Co  Co14  1  0.750000  0.110560  0.299874  1
  Co  Co15  1  0.750000  0.387477  0.797814  1
  Co  Co16  1  0.250000  0.466045  0.929670  1
  Co  Co17  1  0.250000  0.035163  0.433452  1
  Co  Co18  1  0.750000  0.537104  0.065808  1
  Co  Co19  1  0.750000  0.965075  0.567744  1
  Si  Si20  1  0.250000  0.419498  0.119908  1
  P  P21  1  0.250000  0.080110  0.618679  1
  P  P22  1  0.750000  0.579735  0.881198  1
  P  P23  1  0.750000  0.920079  0.382108  1
  P  P24  1  0.250000  0.264295  0.863692  1
  P  P25  1  0.250000  0.235818  0.362703  1
  P  P26  1  0.750000  0.735749  0.136718  1
  P  P27  1  0.750000  0.763943  0.636632  1
  P  P28  1  0.250000  0.591978  0.388241  1
  P  P29  1  0.250000  0.908431  0.888322  1
  P  P30  1  0.750000  0.408730  0.611336  1
  P  P31  1  0.750000  0.091178  0.111493  1
  W  W32  1  0.250000  0.710681  0.987373  1
  W  W33  1  0.250000  0.789544  0.488033  1
  W  W34  1  0.750000  0.288838  0.011869  1
  W  W35  1  0.750000  0.210835  0.512244  1
