# generated using pymatgen
data_Pr7ZnNi2
_symmetry_space_group_name_H-M   'P 1'
_cell_length_a   3.78723000
_cell_length_b   12.30561500
_cell_length_c   12.30561500
_cell_angle_alpha   90.00000000
_cell_angle_beta   90.00000000
_cell_angle_gamma   90.00000000
_symmetry_Int_Tables_number   1
_chemical_formula_structural   Pr7ZnNi2
_chemical_formula_sum   'Pr14 Zn2 Ni4'
_cell_volume   573.49327240
_cell_formula_units_Z   2
loop_
 _symmetry_equiv_pos_site_id
 _symmetry_equiv_pos_as_xyz
  1  'x, y, z'
loop_
 _atom_site_type_symbol
 _atom_site_label
 _atom_site_symmetry_multiplicity
 _atom_site_fract_x
 _atom_site_fract_y
 _atom_site_fract_z
 _atom_site_occupancy
  Pr  Pr0  1  0.500000  0.000000  0.500000  1
  Pr  Pr1  1  0.500000  0.500000  0.000000  1
  Pr  Pr2  1  0.000000  0.318857  0.818857  1
  Pr  Pr3  1  0.000000  0.681143  0.181143  1
  Pr  Pr4  1  0.000000  0.181143  0.318857  1
  Pr  Pr5  1  0.000000  0.818857  0.681143  1
  Pr  Pr6  1  0.500000  0.559469  0.703869  1
  Pr  Pr7  1  0.500000  0.440531  0.296131  1
  Pr  Pr8  1  0.500000  0.940531  0.203869  1
  Pr  Pr9  1  0.500000  0.059469  0.796131  1
  Pr  Pr10  1  0.500000  0.703869  0.440531  1
  Pr  Pr11  1  0.500000  0.296131  0.559469  1
  Pr  Pr12  1  0.500000  0.203869  0.059469  1
  Pr  Pr13  1  0.500000  0.796131  0.940531  1
  Zn  Zn14  1  0.000000  0.500000  0.500000  1
  Zn  Zn15  1  0.000000  0.000000  0.000000  1
  Ni  Ni16  1  0.000000  0.131147  0.631147  1
  Ni  Ni17  1  0.000000  0.868853  0.368853  1
  Ni  Ni18  1  0.000000  0.368853  0.131147  1
  Ni  Ni19  1  0.000000  0.631147  0.868853  1
