# generated using pymatgen
data_Dy6HoHf3(Si5Ir2)4
_symmetry_space_group_name_H-M   'P 1'
_cell_length_a   12.55888901
_cell_length_b   12.55888829
_cell_length_c   4.19863500
_cell_angle_alpha   90.00000000
_cell_angle_beta   90.00000000
_cell_angle_gamma   90.03659317
_symmetry_Int_Tables_number   1
_chemical_formula_structural   Dy6HoHf3(Si5Ir2)4
_chemical_formula_sum   'Dy6 Ho1 Hf3 Si20 Ir8'
_cell_volume   662.23244232
_cell_formula_units_Z   1
loop_
 _symmetry_equiv_pos_site_id
 _symmetry_equiv_pos_as_xyz
  1  'x, y, z'
loop_
 _atom_site_type_symbol
 _atom_site_label
 _atom_site_symmetry_multiplicity
 _atom_site_fract_x
 _atom_site_fract_y
 _atom_site_fract_z
 _atom_site_occupancy
  Dy  Dy0  1  0.499684  0.501444  0.000000  1
  Dy  Dy1  1  0.998556  0.000316  0.000000  1
  Dy  Dy2  1  0.884482  0.381897  0.500000  1
  Dy  Dy3  1  0.118103  0.615518  0.500000  1
  Dy  Dy4  1  0.384166  0.115834  0.500000  1
  Dy  Dy5  1  0.611498  0.888502  0.500000  1
  Ho  Ho6  1  0.824704  0.675296  0.500000  1
  Hf  Hf7  1  0.673915  0.174493  0.500000  1
  Hf  Hf8  1  0.325507  0.826085  0.500000  1
  Hf  Hf9  1  0.174555  0.325445  0.500000  1
  Si  Si10  1  0.565822  0.067853  0.000000  1
  Si  Si11  1  0.432147  0.934178  0.000000  1
  Si  Si12  1  0.067612  0.432388  0.000000  1
  Si  Si13  1  0.934601  0.565399  0.000000  1
  Si  Si14  1  0.661925  0.702007  0.000000  1
  Si  Si15  1  0.334808  0.299614  0.000000  1
  Si  Si16  1  0.166376  0.800406  0.000000  1
  Si  Si17  1  0.835026  0.200430  0.000000  1
  Si  Si18  1  0.299570  0.664974  0.000000  1
  Si  Si19  1  0.699594  0.333624  0.000000  1
  Si  Si20  1  0.200386  0.165192  0.000000  1
  Si  Si21  1  0.797993  0.838075  0.000000  1
  Si  Si22  1  0.657018  0.497991  0.500000  1
  Si  Si23  1  0.343230  0.490115  0.500000  1
  Si  Si24  1  0.156575  0.991682  0.500000  1
  Si  Si25  1  0.840393  0.004744  0.500000  1
  Si  Si26  1  0.495256  0.659607  0.500000  1
  Si  Si27  1  0.508318  0.343425  0.500000  1
  Si  Si28  1  0.009885  0.156770  0.500000  1
  Si  Si29  1  0.002009  0.842982  0.500000  1
  Ir  Ir30  1  0.744277  0.519148  0.000000  1
  Ir  Ir31  1  0.254265  0.478074  0.000000  1
  Ir  Ir32  1  0.245573  0.979503  0.000000  1
  Ir  Ir33  1  0.752853  0.023959  0.000000  1
  Ir  Ir34  1  0.476041  0.747147  0.000000  1
  Ir  Ir35  1  0.520497  0.254427  0.000000  1
  Ir  Ir36  1  0.021926  0.245735  0.000000  1
  Ir  Ir37  1  0.980852  0.755723  0.000000  1
