# generated using pymatgen
data_Er8Hf12Si15Au
_symmetry_space_group_name_H-M   'P 1'
_cell_length_a   7.26560640
_cell_length_b   7.30198987
_cell_length_c   13.36821801
_cell_angle_alpha   89.93490212
_cell_angle_beta   89.96407558
_cell_angle_gamma   89.97392837
_symmetry_Int_Tables_number   1
_chemical_formula_structural   Er8Hf12Si15Au
_chemical_formula_sum   'Er8 Hf12 Si15 Au1'
_cell_volume   709.22853717
_cell_formula_units_Z   1
loop_
 _symmetry_equiv_pos_site_id
 _symmetry_equiv_pos_as_xyz
  1  'x, y, z'
loop_
 _atom_site_type_symbol
 _atom_site_label
 _atom_site_symmetry_multiplicity
 _atom_site_fract_x
 _atom_site_fract_y
 _atom_site_fract_z
 _atom_site_occupancy
  Er  Er0  1  0.991502  0.347390  0.213713  1
  Er  Er1  1  0.004364  0.655110  0.715466  1
  Er  Er2  1  0.154698  0.498543  0.466834  1
  Er  Er3  1  0.504573  0.843198  0.033395  1
  Er  Er4  1  0.844239  0.502692  0.964939  1
  Er  Er5  1  0.497435  0.153839  0.537775  1
  Er  Er6  1  0.343525  0.997663  0.784858  1
  Er  Er7  1  0.662251  0.996850  0.283606  1
  Hf  Hf8  1  0.174919  0.176341  0.998871  1
  Hf  Hf9  1  0.826529  0.825219  0.500628  1
  Hf  Hf10  1  0.325147  0.680628  0.249119  1
  Hf  Hf11  1  0.675364  0.324607  0.750234  1
  Hf  Hf12  1  0.145681  0.998062  0.374664  1
  Hf  Hf13  1  0.851675  0.002778  0.874784  1
  Hf  Hf14  1  0.503801  0.649663  0.625075  1
  Hf  Hf15  1  0.351766  0.496167  0.874770  1
  Hf  Hf16  1  0.495715  0.351119  0.121722  1
  Hf  Hf17  1  0.651898  0.509332  0.380191  1
  Hf  Hf18  1  0.996379  0.147930  0.626585  1
  Hf  Hf19  1  0.000565  0.849936  0.123438  1
  Si  Si20  1  0.638623  0.706160  0.818673  1
  Si  Si21  1  0.204896  0.861788  0.568436  1
  Si  Si22  1  0.138911  0.795499  0.931437  1
  Si  Si23  1  0.795123  0.138730  0.066931  1
  Si  Si24  1  0.858666  0.200886  0.434751  1
  Si  Si25  1  0.295573  0.361876  0.682378  1
  Si  Si26  1  0.704545  0.639232  0.181182  1
  Si  Si27  1  0.293797  0.044688  0.181686  1
  Si  Si28  1  0.703927  0.950836  0.685899  1
  Si  Si29  1  0.448797  0.796169  0.435796  1
  Si  Si30  1  0.203244  0.549489  0.063691  1
  Si  Si31  1  0.548410  0.203089  0.934532  1
  Si  Si32  1  0.796183  0.450309  0.566694  1
  Si  Si33  1  0.047858  0.297064  0.815036  1
  Si  Si34  1  0.951850  0.703369  0.313489  1
  Au  Au35  1  0.367570  0.293750  0.318721  1
