# generated using pymatgen
data_Nd16AlTlCdHgIr4
_symmetry_space_group_name_H-M   'P 1'
_cell_length_a   9.90990722
_cell_length_b   9.91949871
_cell_length_c   9.91950100
_cell_angle_alpha   60.09151435
_cell_angle_beta   60.09365222
_cell_angle_gamma   60.09365339
_symmetry_Int_Tables_number   1
_chemical_formula_structural   Nd16AlTlCdHgIr4
_chemical_formula_sum   'Nd16 Al1 Tl1 Cd1 Hg1 Ir4'
_cell_volume   690.95184251
_cell_formula_units_Z   1
loop_
 _symmetry_equiv_pos_site_id
 _symmetry_equiv_pos_as_xyz
  1  'x, y, z'
loop_
 _atom_site_type_symbol
 _atom_site_label
 _atom_site_symmetry_multiplicity
 _atom_site_fract_x
 _atom_site_fract_y
 _atom_site_fract_z
 _atom_site_occupancy
  Nd  Nd0  1  0.348383  0.348292  0.348529  1
  Nd  Nd1  1  0.351339  0.351285  0.949982  1
  Nd  Nd2  1  0.351336  0.950537  0.351081  1
  Nd  Nd3  1  0.949404  0.351412  0.351522  1
  Nd  Nd4  1  0.809121  0.191210  0.190751  1
  Nd  Nd5  1  0.190650  0.808146  0.808241  1
  Nd  Nd6  1  0.189822  0.809887  0.190496  1
  Nd  Nd7  1  0.807359  0.191787  0.807553  1
  Nd  Nd8  1  0.188772  0.190044  0.810545  1
  Nd  Nd9  1  0.806994  0.807328  0.191941  1
  Nd  Nd10  1  0.937410  0.562135  0.561326  1
  Nd  Nd11  1  0.559458  0.943181  0.937436  1
  Nd  Nd12  1  0.561067  0.939714  0.561081  1
  Nd  Nd13  1  0.941318  0.560439  0.937858  1
  Nd  Nd14  1  0.560833  0.561491  0.936969  1
  Nd  Nd15  1  0.939188  0.940444  0.560122  1
  Al  Al16  1  0.579546  0.578354  0.580470  1
  Tl  Tl17  1  0.581776  0.582895  0.255118  1
  Cd  Cd18  1  0.263297  0.579014  0.581474  1
  Hg  Hg19  1  0.582348  0.251452  0.586925  1
  Ir  Ir20  1  0.142195  0.142456  0.141843  1
  Ir  Ir21  1  0.141804  0.141637  0.575150  1
  Ir  Ir22  1  0.141879  0.574766  0.141703  1
  Ir  Ir23  1  0.574699  0.142098  0.141885  1
