# generated using pymatgen
data_Sm2DySn6Ru
_symmetry_space_group_name_H-M   'P 1'
_cell_length_a   8.58008788
_cell_length_b   8.58008722
_cell_length_c   13.34818800
_cell_angle_alpha   90.00000000
_cell_angle_beta   90.00000000
_cell_angle_gamma   148.43003131
_symmetry_Int_Tables_number   1
_chemical_formula_structural   Sm2DySn6Ru
_chemical_formula_sum   'Sm4 Dy2 Sn12 Ru2'
_cell_volume   514.46416480
_cell_formula_units_Z   2
loop_
 _symmetry_equiv_pos_site_id
 _symmetry_equiv_pos_as_xyz
  1  'x, y, z'
loop_
 _atom_site_type_symbol
 _atom_site_label
 _atom_site_symmetry_multiplicity
 _atom_site_fract_x
 _atom_site_fract_y
 _atom_site_fract_z
 _atom_site_occupancy
  Sm  Sm0  1  0.399737  0.600263  0.403797  1
  Sm  Sm1  1  0.600263  0.399737  0.596203  1
  Sm  Sm2  1  0.399737  0.600263  0.096203  1
  Sm  Sm3  1  0.600263  0.399737  0.903797  1
  Dy  Dy4  1  0.602604  0.397396  0.250000  1
  Dy  Dy5  1  0.397396  0.602604  0.750000  1
  Sn  Sn6  1  0.926110  0.073890  0.923774  1
  Sn  Sn7  1  0.073890  0.926110  0.076226  1
  Sn  Sn8  1  0.926110  0.073890  0.576226  1
  Sn  Sn9  1  0.073890  0.926110  0.423774  1
  Sn  Sn10  1  0.960714  0.039286  0.250000  1
  Sn  Sn11  1  0.039286  0.960714  0.750000  1
  Sn  Sn12  1  0.744471  0.255530  0.432891  1
  Sn  Sn13  1  0.255530  0.744470  0.567109  1
  Sn  Sn14  1  0.744471  0.255530  0.067109  1
  Sn  Sn15  1  0.255530  0.744470  0.932891  1
  Sn  Sn16  1  0.230616  0.769384  0.250000  1
  Sn  Sn17  1  0.769384  0.230616  0.750000  1
  Ru  Ru18  1  0.800926  0.199074  0.250000  1
  Ru  Ru19  1  0.199074  0.800926  0.750000  1
