# generated using pymatgen
data_Ce4Sm(FeB3)2
_symmetry_space_group_name_H-M   'P 1'
_cell_length_a   5.31842308
_cell_length_b   5.31842504
_cell_length_c   8.79074353
_cell_angle_alpha   72.39208591
_cell_angle_beta   72.39209099
_cell_angle_gamma   59.99999506
_symmetry_Int_Tables_number   1
_chemical_formula_structural   Ce4Sm(FeB3)2
_chemical_formula_sum   'Ce4 Sm1 Fe2 B6'
_cell_volume   201.77485442
_cell_formula_units_Z   1
loop_
 _symmetry_equiv_pos_site_id
 _symmetry_equiv_pos_as_xyz
  1  'x, y, z'
loop_
 _atom_site_type_symbol
 _atom_site_label
 _atom_site_symmetry_multiplicity
 _atom_site_fract_x
 _atom_site_fract_y
 _atom_site_fract_z
 _atom_site_occupancy
  Ce  Ce0  1  0.750062  0.750062  0.749814  1
  Ce  Ce1  1  0.249938  0.249938  0.250186  1
  Ce  Ce2  1  0.582804  0.582804  0.251588  1
  Ce  Ce3  1  0.417196  0.417196  0.748412  1
  Sm  Sm4  1  0.000000  0.000000  0.000000  1
  Fe  Fe5  1  0.880074  0.880074  0.359781  1
  Fe  Fe6  1  0.119926  0.119926  0.640220  1
  B  B7  1  0.500000  0.167896  0.500000  1
  B  B8  1  0.832104  0.500000  0.500000  1
  B  B9  1  0.167896  0.832104  0.500000  1
  B  B10  1  0.167896  0.500000  0.500000  1
  B  B11  1  0.832104  0.167896  0.500000  1
  B  B12  1  0.500000  0.832104  0.500000  1
