# generated using pymatgen
data_Zr2NiSnRh4
_symmetry_space_group_name_H-M   'P 1'
_cell_length_a   5.60113782
_cell_length_b   5.60113758
_cell_length_c   8.35402700
_cell_angle_alpha   90.00000000
_cell_angle_beta   90.00000000
_cell_angle_gamma   98.25412256
_symmetry_Int_Tables_number   1
_chemical_formula_structural   Zr2NiSnRh4
_chemical_formula_sum   'Zr4 Ni2 Sn2 Rh8'
_cell_volume   259.37378476
_cell_formula_units_Z   2
loop_
 _symmetry_equiv_pos_site_id
 _symmetry_equiv_pos_as_xyz
  1  'x, y, z'
loop_
 _atom_site_type_symbol
 _atom_site_label
 _atom_site_symmetry_multiplicity
 _atom_site_fract_x
 _atom_site_fract_y
 _atom_site_fract_z
 _atom_site_occupancy
  Zr  Zr0  1  0.784510  0.215490  0.500000  1
  Zr  Zr1  1  0.215490  0.784510  0.000000  1
  Zr  Zr2  1  0.215490  0.784510  0.500000  1
  Zr  Zr3  1  0.784510  0.215490  0.000000  1
  Ni  Ni4  1  0.000229  0.000229  0.250000  1
  Ni  Ni5  1  0.999771  0.999771  0.750000  1
  Sn  Sn6  1  0.501967  0.501967  0.750000  1
  Sn  Sn7  1  0.498033  0.498033  0.250000  1
  Rh  Rh8  1  0.732971  0.732971  0.001038  1
  Rh  Rh9  1  0.732971  0.732971  0.498962  1
  Rh  Rh10  1  0.267029  0.267029  0.998962  1
  Rh  Rh11  1  0.267029  0.267029  0.501038  1
  Rh  Rh12  1  0.500122  0.000654  0.750000  1
  Rh  Rh13  1  0.499878  0.999346  0.250000  1
  Rh  Rh14  1  0.000654  0.500122  0.750000  1
  Rh  Rh15  1  0.999346  0.499878  0.250000  1
