# generated using pymatgen
data_Tm6Ti2Al12V2Os7
_symmetry_space_group_name_H-M   'P 1'
_cell_length_a   8.90756734
_cell_length_b   8.91686181
_cell_length_c   8.91686307
_cell_angle_alpha   60.07758030
_cell_angle_beta   60.03449164
_cell_angle_gamma   60.03448500
_symmetry_Int_Tables_number   1
_chemical_formula_structural   Tm6Ti2Al12V2Os7
_chemical_formula_sum   'Tm6 Ti2 Al12 V2 Os7'
_cell_volume   501.35886505
_cell_formula_units_Z   1
loop_
 _symmetry_equiv_pos_site_id
 _symmetry_equiv_pos_as_xyz
  1  'x, y, z'
loop_
 _atom_site_type_symbol
 _atom_site_label
 _atom_site_symmetry_multiplicity
 _atom_site_fract_x
 _atom_site_fract_y
 _atom_site_fract_z
 _atom_site_occupancy
  Tm  Tm0  1  0.709958  0.710022  0.289150  1
  Tm  Tm1  1  0.290870  0.710022  0.289150  1
  Tm  Tm2  1  0.707980  0.292020  0.292020  1
  Tm  Tm3  1  0.290870  0.289150  0.710022  1
  Tm  Tm4  1  0.709958  0.289150  0.710022  1
  Tm  Tm5  1  0.288320  0.711680  0.711680  1
  Ti  Ti6  1  0.880175  0.881983  0.357666  1
  Ti  Ti7  1  0.880175  0.357666  0.881983  1
  Al  Al8  1  0.119628  0.121058  0.639685  1
  Al  Al9  1  0.119628  0.639685  0.121058  1
  Al  Al10  1  0.642694  0.119255  0.119255  1
  Al  Al11  1  0.118798  0.119255  0.119255  1
  Al  Al12  1  0.668789  0.669674  0.992747  1
  Al  Al13  1  0.668789  0.992747  0.669674  1
  Al  Al14  1  0.993801  0.668919  0.668919  1
  Al  Al15  1  0.668361  0.668919  0.668919  1
  Al  Al16  1  0.332070  0.331694  0.004165  1
  Al  Al17  1  0.332070  0.004165  0.331694  1
  Al  Al18  1  0.005225  0.331374  0.331374  1
  Al  Al19  1  0.332027  0.331374  0.331374  1
  V  V20  1  0.360818  0.880283  0.880283  1
  V  V21  1  0.878615  0.880283  0.880283  1
  Os  Os22  1  0.006301  0.993699  0.993699  1
  Os  Os23  1  0.997430  0.998000  0.505530  1
  Os  Os24  1  0.499040  0.998000  0.505530  1
  Os  Os25  1  0.998305  0.501695  0.501695  1
  Os  Os26  1  0.499040  0.505530  0.998000  1
  Os  Os27  1  0.997430  0.505530  0.998000  1
  Os  Os28  1  0.502835  0.997165  0.997165  1
