# generated using pymatgen
data_Tb3Ho13MgAg3Rh4
_symmetry_space_group_name_H-M   'P 1'
_cell_length_a   9.51465727
_cell_length_b   9.53739909
_cell_length_c   9.53709157
_cell_angle_alpha   60.18596898
_cell_angle_beta   60.09634786
_cell_angle_gamma   60.15830645
_symmetry_Int_Tables_number   1
_chemical_formula_structural   Tb3Ho13MgAg3Rh4
_chemical_formula_sum   'Tb3 Ho13 Mg1 Ag3 Rh4'
_cell_volume   613.99660178
_cell_formula_units_Z   1
loop_
 _symmetry_equiv_pos_site_id
 _symmetry_equiv_pos_as_xyz
  1  'x, y, z'
loop_
 _atom_site_type_symbol
 _atom_site_label
 _atom_site_symmetry_multiplicity
 _atom_site_fract_x
 _atom_site_fract_y
 _atom_site_fract_z
 _atom_site_occupancy
  Tb  Tb0  1  0.934788  0.563508  0.935451  1
  Tb  Tb1  1  0.563838  0.565823  0.934649  1
  Tb  Tb2  1  0.934276  0.935204  0.563480  1
  Ho  Ho3  1  0.352561  0.348814  0.349220  1
  Ho  Ho4  1  0.349464  0.348856  0.954504  1
  Ho  Ho5  1  0.349120  0.954313  0.349388  1
  Ho  Ho6  1  0.938016  0.353465  0.354440  1
  Ho  Ho7  1  0.810539  0.187147  0.187685  1
  Ho  Ho8  1  0.184773  0.813831  0.813721  1
  Ho  Ho9  1  0.185797  0.812903  0.186184  1
  Ho  Ho10  1  0.809490  0.188043  0.811267  1
  Ho  Ho11  1  0.186104  0.185938  0.813085  1
  Ho  Ho12  1  0.809134  0.810771  0.188645  1
  Ho  Ho13  1  0.934397  0.563007  0.562128  1
  Ho  Ho14  1  0.564166  0.936290  0.935700  1
  Ho  Ho15  1  0.563764  0.935728  0.564710  1
  Mg  Mg16  1  0.289776  0.571057  0.571163  1
  Ag  Ag17  1  0.582420  0.585969  0.583473  1
  Ag  Ag18  1  0.582894  0.586477  0.248749  1
  Ag  Ag19  1  0.582621  0.248384  0.586286  1
  Rh  Rh20  1  0.139241  0.143903  0.143684  1
  Rh  Rh21  1  0.140327  0.147273  0.571493  1
  Rh  Rh22  1  0.140539  0.570838  0.147369  1
  Rh  Rh23  1  0.571956  0.142456  0.143521  1
