# generated using pymatgen
data_TaP2AuF12
_symmetry_space_group_name_H-M   'P 1'
_cell_length_a   8.49332974
_cell_length_b   9.12946500
_cell_length_c   8.56477910
_cell_angle_alpha   90.00000000
_cell_angle_beta   119.78084525
_cell_angle_gamma   90.00000000
_symmetry_Int_Tables_number   1
_chemical_formula_structural   TaP2AuF12
_chemical_formula_sum   'Ta2 P4 Au2 F24'
_cell_volume   576.40130453
_cell_formula_units_Z   2
loop_
 _symmetry_equiv_pos_site_id
 _symmetry_equiv_pos_as_xyz
  1  'x, y, z'
loop_
 _atom_site_type_symbol
 _atom_site_label
 _atom_site_symmetry_multiplicity
 _atom_site_fract_x
 _atom_site_fract_y
 _atom_site_fract_z
 _atom_site_occupancy
  Ta  Ta0  1  0.000000  0.500000  0.500000  1
  Ta  Ta1  1  0.000000  0.000000  0.000000  1
  P  P2  1  0.690756  0.026801  0.347125  1
  P  P3  1  0.309244  0.526801  0.152875  1
  P  P4  1  0.309244  0.973199  0.652875  1
  P  P5  1  0.690756  0.473199  0.847125  1
  Au  Au6  1  0.000000  0.000000  0.500000  1
  Au  Au7  1  0.000000  0.500000  0.000000  1
  F  F8  1  0.164578  0.420863  0.734418  1
  F  F9  1  0.835422  0.920863  0.765582  1
  F  F10  1  0.835422  0.579137  0.265582  1
  F  F11  1  0.164578  0.079137  0.234418  1
  F  F12  1  0.140591  0.410501  0.404883  1
  F  F13  1  0.859409  0.910501  0.095117  1
  F  F14  1  0.859409  0.589499  0.595117  1
  F  F15  1  0.140591  0.089499  0.904883  1
  F  F16  1  0.148186  0.674380  0.559617  1
  F  F17  1  0.851814  0.174380  0.940383  1
  F  F18  1  0.851814  0.325620  0.440383  1
  F  F19  1  0.148186  0.825620  0.059617  1
  F  F20  1  0.602085  0.113958  0.438963  1
  F  F21  1  0.397915  0.613958  0.061037  1
  F  F22  1  0.397915  0.886042  0.561037  1
  F  F23  1  0.602085  0.386042  0.938963  1
  F  F24  1  0.605282  0.102212  0.160036  1
  F  F25  1  0.394718  0.602212  0.339964  1
  F  F26  1  0.394718  0.897788  0.839964  1
  F  F27  1  0.605282  0.397788  0.660036  1
  F  F28  1  0.581165  0.881301  0.299168  1
  F  F29  1  0.418835  0.381301  0.200832  1
  F  F30  1  0.418835  0.118699  0.700832  1
  F  F31  1  0.581165  0.618699  0.799168  1
