# generated using pymatgen
data_NaSrCuH4
_symmetry_space_group_name_H-M   'P 1'
_cell_length_a   7.21771900
_cell_length_b   7.21771900
_cell_length_c   7.21771900
_cell_angle_alpha   90.00000000
_cell_angle_beta   90.00000000
_cell_angle_gamma   90.00000000
_symmetry_Int_Tables_number   1
_chemical_formula_structural   NaSrCuH4
_chemical_formula_sum   'Na4 Sr4 Cu4 H16'
_cell_volume   376.01044604
_cell_formula_units_Z   4
loop_
 _symmetry_equiv_pos_site_id
 _symmetry_equiv_pos_as_xyz
  1  'x, y, z'
loop_
 _atom_site_type_symbol
 _atom_site_label
 _atom_site_symmetry_multiplicity
 _atom_site_fract_x
 _atom_site_fract_y
 _atom_site_fract_z
 _atom_site_occupancy
  Na  Na0  1  0.840081  0.340081  0.159918  1
  Na  Na1  1  0.159918  0.840081  0.340081  1
  Na  Na2  1  0.659919  0.659919  0.659919  1
  Na  Na3  1  0.340081  0.159918  0.840081  1
  Sr  Sr4  1  0.624875  0.875124  0.124875  1
  Sr  Sr5  1  0.375124  0.375124  0.375124  1
  Sr  Sr6  1  0.875124  0.124875  0.624875  1
  Sr  Sr7  1  0.124875  0.624875  0.875124  1
  Cu  Cu8  1  0.033451  0.033451  0.033451  1
  Cu  Cu9  1  0.966548  0.533451  0.466549  1
  Cu  Cu10  1  0.466549  0.966548  0.533451  1
  Cu  Cu11  1  0.533451  0.466549  0.966548  1
  H  H12  1  0.543390  0.260532  0.068535  1
  H  H13  1  0.403477  0.596524  0.096524  1
  H  H14  1  0.239468  0.931464  0.043390  1
  H  H15  1  0.068535  0.543390  0.260532  1
  H  H16  1  0.931464  0.043390  0.239468  1
  H  H17  1  0.760531  0.431465  0.456611  1
  H  H18  1  0.596524  0.096524  0.403477  1
  H  H19  1  0.456611  0.760531  0.431465  1
  H  H20  1  0.956611  0.739469  0.568534  1
  H  H21  1  0.096524  0.403477  0.596524  1
  H  H22  1  0.260532  0.068535  0.543390  1
  H  H23  1  0.431465  0.456611  0.760531  1
  H  H24  1  0.568534  0.956611  0.739469  1
  H  H25  1  0.739469  0.568534  0.956611  1
  H  H26  1  0.903476  0.903476  0.903476  1
  H  H27  1  0.043390  0.239468  0.931464  1
