# generated using pymatgen
data_Ca6Pr4Sn3Pb5
_symmetry_space_group_name_H-M   'P 1'
_cell_length_a   8.07976200
_cell_length_b   8.65639200
_cell_length_c   16.32035700
_cell_angle_alpha   90.00000000
_cell_angle_beta   90.00000000
_cell_angle_gamma   90.00000000
_symmetry_Int_Tables_number   1
_chemical_formula_structural   Ca6Pr4Sn3Pb5
_chemical_formula_sum   'Ca12 Pr8 Sn6 Pb10'
_cell_volume   1141.47167125
_cell_formula_units_Z   2
loop_
 _symmetry_equiv_pos_site_id
 _symmetry_equiv_pos_as_xyz
  1  'x, y, z'
loop_
 _atom_site_type_symbol
 _atom_site_label
 _atom_site_symmetry_multiplicity
 _atom_site_fract_x
 _atom_site_fract_y
 _atom_site_fract_z
 _atom_site_occupancy
  Ca  Ca0  1  0.333657  0.831253  0.877115  1
  Ca  Ca1  1  0.833657  0.668747  0.622885  1
  Ca  Ca2  1  0.665794  0.170723  0.375491  1
  Ca  Ca3  1  0.165794  0.329277  0.124509  1
  Ca  Ca4  1  0.665794  0.170723  0.124509  1
  Ca  Ca5  1  0.165794  0.329277  0.375491  1
  Ca  Ca6  1  0.333657  0.831253  0.622885  1
  Ca  Ca7  1  0.833657  0.668747  0.877115  1
  Ca  Ca8  1  0.161347  0.497980  0.750000  1
  Ca  Ca9  1  0.661347  0.002020  0.750000  1
  Ca  Ca10  1  0.836997  0.499457  0.250000  1
  Ca  Ca11  1  0.336997  0.000543  0.250000  1
  Pr  Pr12  1  0.495454  0.311709  0.902314  1
  Pr  Pr13  1  0.995454  0.188291  0.597686  1
  Pr  Pr14  1  0.505338  0.686477  0.401146  1
  Pr  Pr15  1  0.005338  0.813523  0.098854  1
  Pr  Pr16  1  0.505338  0.686477  0.098854  1
  Pr  Pr17  1  0.005338  0.813523  0.401146  1
  Pr  Pr18  1  0.495454  0.311709  0.597686  1
  Pr  Pr19  1  0.995454  0.188291  0.902314  1
  Sn  Sn20  1  0.466095  0.400642  0.250000  1
  Sn  Sn21  1  0.966095  0.099358  0.250000  1
  Sn  Sn22  1  0.290793  0.143991  0.750000  1
  Sn  Sn23  1  0.790793  0.356009  0.750000  1
  Sn  Sn24  1  0.711122  0.858478  0.250000  1
  Sn  Sn25  1  0.211122  0.641522  0.250000  1
  Pb  Pb26  1  0.323559  0.036391  0.039743  1
  Pb  Pb27  1  0.823559  0.463609  0.460257  1
  Pb  Pb28  1  0.677343  0.963970  0.539153  1
  Pb  Pb29  1  0.177343  0.536030  0.960847  1
  Pb  Pb30  1  0.677343  0.963970  0.960847  1
  Pb  Pb31  1  0.177343  0.536030  0.539153  1
  Pb  Pb32  1  0.323559  0.036391  0.460257  1
  Pb  Pb33  1  0.823559  0.463609  0.039743  1
  Pb  Pb34  1  0.531357  0.602809  0.750000  1
  Pb  Pb35  1  0.031357  0.897191  0.750000  1
