# generated using pymatgen
data_Y12Si11Ge
_symmetry_space_group_name_H-M   'P 1'
_cell_length_a   3.87181900
_cell_length_b   5.72779778
_cell_length_c   24.08975100
_cell_angle_alpha   82.35128288
_cell_angle_beta   90.00000000
_cell_angle_gamma   90.00000000
_symmetry_Int_Tables_number   1
_chemical_formula_structural   Y12Si11Ge
_chemical_formula_sum   'Y12 Si11 Ge1'
_cell_volume   529.48505403
_cell_formula_units_Z   1
loop_
 _symmetry_equiv_pos_site_id
 _symmetry_equiv_pos_as_xyz
  1  'x, y, z'
loop_
 _atom_site_type_symbol
 _atom_site_label
 _atom_site_symmetry_multiplicity
 _atom_site_fract_x
 _atom_site_fract_y
 _atom_site_fract_z
 _atom_site_occupancy
  Y  Y0  1  0.750000  0.348911  0.058996  1
  Y  Y1  1  0.250000  0.658441  0.939897  1
  Y  Y2  1  0.750000  0.530264  0.228119  1
  Y  Y3  1  0.250000  0.469717  0.773058  1
  Y  Y4  1  0.750000  0.168726  0.393543  1
  Y  Y5  1  0.250000  0.826740  0.606416  1
  Y  Y6  1  0.750000  0.350461  0.560070  1
  Y  Y7  1  0.250000  0.644821  0.439955  1
  Y  Y8  1  0.750000  0.994285  0.726917  1
  Y  Y9  1  0.250000  0.002477  0.273592  1
  Y  Y10  1  0.750000  0.167232  0.893233  1
  Y  Y11  1  0.250000  0.840682  0.105896  1
  Si  Si12  1  0.750000  0.866185  0.012420  1
  Si  Si13  1  0.250000  0.142209  0.987097  1
  Si  Si14  1  0.750000  0.037618  0.180148  1
  Si  Si15  1  0.250000  0.954952  0.820839  1
  Si  Si16  1  0.750000  0.705669  0.346038  1
  Si  Si17  1  0.250000  0.289497  0.654050  1
  Si  Si18  1  0.750000  0.863155  0.512363  1
  Si  Si19  1  0.250000  0.132834  0.487479  1
  Si  Si20  1  0.750000  0.532543  0.679072  1
  Si  Si21  1  0.250000  0.463089  0.321383  1
  Si  Si22  1  0.750000  0.682444  0.845902  1
  Ge  Ge23  1  0.250000  0.327051  0.153517  1
