# generated using pymatgen
data_Sr3Sc2TcO9
_symmetry_space_group_name_H-M   'P 1'
_cell_length_a   9.90611135
_cell_length_b   9.90611143
_cell_length_c   5.69383864
_cell_angle_alpha   73.16855107
_cell_angle_beta   73.16854611
_cell_angle_gamma   48.99376646
_symmetry_Int_Tables_number   1
_chemical_formula_structural   Sr3Sc2TcO9
_chemical_formula_sum   'Sr6 Sc4 Tc2 O18'
_cell_volume   399.73248138
_cell_formula_units_Z   2
loop_
 _symmetry_equiv_pos_site_id
 _symmetry_equiv_pos_as_xyz
  1  'x, y, z'
loop_
 _atom_site_type_symbol
 _atom_site_label
 _atom_site_symmetry_multiplicity
 _atom_site_fract_x
 _atom_site_fract_y
 _atom_site_fract_z
 _atom_site_occupancy
  Sr  Sr0  1  0.917555  0.402550  0.844530  1
  Sr  Sr1  1  0.236009  0.763991  0.500000  1
  Sr  Sr2  1  0.597450  0.082445  0.155470  1
  Sr  Sr3  1  0.763991  0.236009  0.500000  1
  Sr  Sr4  1  0.082445  0.597450  0.155470  1
  Sr  Sr5  1  0.402550  0.917555  0.844530  1
  Sc  Sc6  1  0.500000  0.500000  0.000000  1
  Sc  Sc7  1  0.833062  0.833062  0.664083  1
  Sc  Sc8  1  0.166938  0.166938  0.335917  1
  Sc  Sc9  1  0.000000  0.000000  0.000000  1
  Tc  Tc10  1  0.333283  0.333283  0.663719  1
  Tc  Tc11  1  0.666717  0.666717  0.336281  1
  O  O12  1  0.431216  0.907487  0.330393  1
  O  O13  1  0.745900  0.254100  0.000000  1
  O  O14  1  0.092513  0.568784  0.669607  1
  O  O15  1  0.907487  0.431216  0.330393  1
  O  O16  1  0.254100  0.745900  0.000000  1
  O  O17  1  0.568784  0.092513  0.669607  1
  O  O18  1  0.072237  0.072237  0.224370  1
  O  O19  1  0.397032  0.397032  0.885154  1
  O  O20  1  0.726144  0.726144  0.565127  1
  O  O21  1  0.602968  0.602968  0.114846  1
  O  O22  1  0.927763  0.927763  0.775630  1
  O  O23  1  0.273856  0.273856  0.434873  1
  O  O24  1  0.571657  0.571657  0.615677  1
  O  O25  1  0.897432  0.897432  0.308146  1
  O  O26  1  0.239887  0.239887  0.946236  1
  O  O27  1  0.102568  0.102568  0.691854  1
  O  O28  1  0.428343  0.428343  0.384323  1
  O  O29  1  0.760113  0.760113  0.053764  1
