# generated using pymatgen
data_SrLa(Zn4Cu9)2
_symmetry_space_group_name_H-M   'P 1'
_cell_length_a   8.38431608
_cell_length_b   8.38431595
_cell_length_c   8.38431608
_cell_angle_alpha   120.45286150
_cell_angle_beta   120.45286000
_cell_angle_gamma   89.21739018
_symmetry_Int_Tables_number   1
_chemical_formula_structural   SrLa(Zn4Cu9)2
_chemical_formula_sum   'Sr1 La1 Zn8 Cu18'
_cell_volume   413.86724939
_cell_formula_units_Z   1
loop_
 _symmetry_equiv_pos_site_id
 _symmetry_equiv_pos_as_xyz
  1  'x, y, z'
loop_
 _atom_site_type_symbol
 _atom_site_label
 _atom_site_symmetry_multiplicity
 _atom_site_fract_x
 _atom_site_fract_y
 _atom_site_fract_z
 _atom_site_occupancy
  Sr  Sr0  1  0.750000  0.750000  0.000000  1
  La  La1  1  0.250000  0.250000  0.000000  1
  Zn  Zn2  1  0.799912  0.299492  0.858457  1
  Zn  Zn3  1  0.558546  0.058965  0.858457  1
  Zn  Zn4  1  0.058965  0.200508  0.500420  1
  Zn  Zn5  1  0.299492  0.441035  0.499580  1
  Zn  Zn6  1  0.941454  0.799912  0.500420  1
  Zn  Zn7  1  0.441035  0.941454  0.141543  1
  Zn  Zn8  1  0.200508  0.700088  0.141543  1
  Zn  Zn9  1  0.700088  0.558546  0.499580  1
  Cu  Cu10  1  0.935943  0.204327  0.139397  1
  Cu  Cu11  1  0.204327  0.064931  0.268384  1
  Cu  Cu12  1  0.796547  0.935943  0.731616  1
  Cu  Cu13  1  0.435069  0.295673  0.731616  1
  Cu  Cu14  1  0.064931  0.796547  0.860603  1
  Cu  Cu15  1  0.794952  0.063093  0.501488  1
  Cu  Cu16  1  0.561604  0.293464  0.498512  1
  Cu  Cu17  1  0.206536  0.938396  0.501488  1
  Cu  Cu18  1  0.436907  0.705048  0.498512  1
  Cu  Cu19  1  0.938396  0.436907  0.731858  1
  Cu  Cu20  1  0.705048  0.206536  0.268142  1
  Cu  Cu21  1  0.063093  0.561604  0.268142  1
  Cu  Cu22  1  0.703453  0.435069  0.139397  1
  Cu  Cu23  1  0.564057  0.703453  0.268384  1
  Cu  Cu24  1  0.500000  0.000000  0.500000  1
  Cu  Cu25  1  0.000000  0.500000  0.500000  1
  Cu  Cu26  1  0.293464  0.794952  0.731858  1
  Cu  Cu27  1  0.295673  0.564057  0.860603  1
