# generated using pymatgen
data_TbHo5Co9(P4Ru3)3
_symmetry_space_group_name_H-M   'P 1'
_cell_length_a   3.83191700
_cell_length_b   10.64559304
_cell_length_c   12.49362845
_cell_angle_alpha   89.73375290
_cell_angle_beta   90.00000000
_cell_angle_gamma   90.00000000
_symmetry_Int_Tables_number   1
_chemical_formula_structural   TbHo5Co9(P4Ru3)3
_chemical_formula_sum   'Tb1 Ho5 Co9 P12 Ru9'
_cell_volume   509.64744429
_cell_formula_units_Z   1
loop_
 _symmetry_equiv_pos_site_id
 _symmetry_equiv_pos_as_xyz
  1  'x, y, z'
loop_
 _atom_site_type_symbol
 _atom_site_label
 _atom_site_symmetry_multiplicity
 _atom_site_fract_x
 _atom_site_fract_y
 _atom_site_fract_z
 _atom_site_occupancy
  Tb  Tb0  1  0.500000  0.000555  0.471620  1
  Ho  Ho1  1  0.000000  0.500265  0.525852  1
  Ho  Ho2  1  0.500000  0.820342  0.200614  1
  Ho  Ho3  1  0.500000  0.180999  0.201027  1
  Ho  Ho4  1  0.000000  0.678471  0.799941  1
  Ho  Ho5  1  0.000000  0.321651  0.798960  1
  Co  Co6  1  0.000000  0.498704  0.986121  1
  Co  Co7  1  0.500000  0.000320  0.016550  1
  Co  Co8  1  0.000000  0.374804  0.280027  1
  Co  Co9  1  0.500000  0.331408  0.989738  1
  Co  Co10  1  0.500000  0.666028  0.991397  1
  Co  Co11  1  0.000000  0.168361  0.012633  1
  Co  Co12  1  0.000000  0.832607  0.011356  1
  Co  Co13  1  0.500000  0.500200  0.703351  1
  Co  Co14  1  0.000000  0.001146  0.296329  1
  P  P15  1  0.500000  0.316374  0.616645  1
  P  P16  1  0.500000  0.685474  0.618713  1
  P  P17  1  0.000000  0.189600  0.377466  1
  P  P18  1  0.000000  0.813253  0.379951  1
  P  P19  1  0.500000  0.499456  0.882233  1
  P  P20  1  0.000000  0.000107  0.119137  1
  P  P21  1  0.500000  0.845307  0.901722  1
  P  P22  1  0.500000  0.154444  0.900343  1
  P  P23  1  0.000000  0.653600  0.100344  1
  P  P24  1  0.000000  0.345627  0.103988  1
  P  P25  1  0.500000  0.499618  0.338905  1
  P  P26  1  0.000000  0.000905  0.661796  1
  Ru  Ru27  1  0.500000  0.301304  0.422457  1
  Ru  Ru28  1  0.500000  0.702088  0.427514  1
  Ru  Ru29  1  0.000000  0.205122  0.568894  1
  Ru  Ru30  1  0.000000  0.798011  0.572012  1
  Ru  Ru31  1  0.500000  0.875191  0.719409  1
  Ru  Ru32  1  0.500000  0.126211  0.717481  1
  Ru  Ru33  1  0.000000  0.618952  0.281925  1
  Ru  Ru34  1  0.500000  0.492073  0.149893  1
  Ru  Ru35  1  0.000000  0.001420  0.853653  1
