# generated using pymatgen
data_U6Ta2S15
_symmetry_space_group_name_H-M   'P 1'
_cell_length_a   11.56532491
_cell_length_b   11.56532487
_cell_length_c   11.56532500
_cell_angle_alpha   109.47121911
_cell_angle_beta   109.47121904
_cell_angle_gamma   109.47122477
_symmetry_Int_Tables_number   1
_chemical_formula_structural   U6Ta2S15
_chemical_formula_sum   'U12 Ta4 S30'
_cell_volume   1190.83508031
_cell_formula_units_Z   2
loop_
 _symmetry_equiv_pos_site_id
 _symmetry_equiv_pos_as_xyz
  1  'x, y, z'
loop_
 _atom_site_type_symbol
 _atom_site_label
 _atom_site_symmetry_multiplicity
 _atom_site_fract_x
 _atom_site_fract_y
 _atom_site_fract_z
 _atom_site_occupancy
  U  U0  1  0.295998  0.295998  0.591998  1
  U  U1  1  0.704002  0.000000  0.295998  1
  U  U2  1  0.000000  0.704002  0.295998  1
  U  U3  1  0.704002  0.295998  0.000000  1
  U  U4  1  0.295998  0.591998  0.295998  1
  U  U5  1  0.000000  0.295998  0.704002  1
  U  U6  1  0.295998  0.704002  0.000000  1
  U  U7  1  0.295998  0.000000  0.704002  1
  U  U8  1  0.591998  0.295998  0.295998  1
  U  U9  1  0.704002  0.704002  0.408002  1
  U  U10  1  0.704002  0.408002  0.704002  1
  U  U11  1  0.408002  0.704002  0.704002  1
  Ta  Ta12  1  0.000000  0.000000  0.500000  1
  Ta  Ta13  1  0.000000  0.500000  0.000000  1
  Ta  Ta14  1  0.500000  0.000000  0.000000  1
  Ta  Ta15  1  0.500000  0.500000  0.500000  1
  S  S16  1  0.000000  0.187734  0.443321  1
  S  S17  1  0.812266  0.812266  0.255586  1
  S  S18  1  0.187734  0.000000  0.443321  1
  S  S19  1  0.000000  0.443321  0.187734  1
  S  S20  1  0.187734  0.443321  0.000000  1
  S  S21  1  0.812266  0.255586  0.812266  1
  S  S22  1  0.255586  0.812266  0.812266  1
  S  S23  1  0.443321  0.187734  0.000000  1
  S  S24  1  0.443321  0.000000  0.187734  1
  S  S25  1  0.744414  0.556679  0.556679  1
  S  S26  1  0.556679  0.556679  0.744414  1
  S  S27  1  0.556679  0.744414  0.556679  1
  S  S28  1  0.000000  0.812266  0.556679  1
  S  S29  1  0.187734  0.187734  0.744414  1
  S  S30  1  0.812266  0.000000  0.556679  1
  S  S31  1  0.000000  0.556679  0.812266  1
  S  S32  1  0.812266  0.556679  0.000000  1
  S  S33  1  0.187734  0.744414  0.187734  1
  S  S34  1  0.744414  0.187734  0.187734  1
  S  S35  1  0.556679  0.812266  0.000000  1
  S  S36  1  0.556679  0.000000  0.812266  1
  S  S37  1  0.255586  0.443321  0.443321  1
  S  S38  1  0.443321  0.443321  0.255586  1
  S  S39  1  0.443321  0.255586  0.443321  1
  S  S40  1  0.750000  0.250000  0.500000  1
  S  S41  1  0.750000  0.500000  0.250000  1
  S  S42  1  0.500000  0.250000  0.750000  1
  S  S43  1  0.250000  0.500000  0.750000  1
  S  S44  1  0.250000  0.750000  0.500000  1
  S  S45  1  0.500000  0.750000  0.250000  1
