# generated using pymatgen
data_Tb5NdDy10Cd4Pd3Pt
_symmetry_space_group_name_H-M   'P 1'
_cell_length_a   9.72124173
_cell_length_b   9.72124126
_cell_length_c   9.69654000
_cell_angle_alpha   60.08401867
_cell_angle_beta   60.08402025
_cell_angle_gamma   59.92051639
_symmetry_Int_Tables_number   1
_chemical_formula_structural   Tb5NdDy10Cd4Pd3Pt
_chemical_formula_sum   'Tb5 Nd1 Dy10 Cd4 Pd3 Pt1'
_cell_volume   648.38567264
_cell_formula_units_Z   1
loop_
 _symmetry_equiv_pos_site_id
 _symmetry_equiv_pos_as_xyz
  1  'x, y, z'
loop_
 _atom_site_type_symbol
 _atom_site_label
 _atom_site_symmetry_multiplicity
 _atom_site_fract_x
 _atom_site_fract_y
 _atom_site_fract_z
 _atom_site_occupancy
  Tb  Tb0  1  0.935460  0.562476  0.565731  1
  Tb  Tb1  1  0.563157  0.935743  0.936812  1
  Tb  Tb2  1  0.563157  0.935743  0.564288  1
  Tb  Tb3  1  0.935460  0.562476  0.936333  1
  Tb  Tb4  1  0.566832  0.566258  0.933455  1
  Nd  Nd5  1  0.935324  0.934808  0.564934  1
  Dy  Dy6  1  0.353991  0.351769  0.349770  1
  Dy  Dy7  1  0.353991  0.351769  0.944468  1
  Dy  Dy8  1  0.357733  0.938041  0.352112  1
  Dy  Dy9  1  0.936649  0.357428  0.352961  1
  Dy  Dy10  1  0.809506  0.191013  0.188026  1
  Dy  Dy11  1  0.190907  0.810474  0.809901  1
  Dy  Dy12  1  0.190907  0.810474  0.188719  1
  Dy  Dy13  1  0.809506  0.191013  0.811455  1
  Dy  Dy14  1  0.190848  0.190717  0.809218  1
  Dy  Dy15  1  0.810614  0.813592  0.187897  1
  Cd  Cd16  1  0.580838  0.581402  0.582129  1
  Cd  Cd17  1  0.580838  0.581402  0.255632  1
  Cd  Cd18  1  0.577857  0.255542  0.583301  1
  Cd  Cd19  1  0.256606  0.578273  0.582561  1
  Pd  Pd20  1  0.144561  0.144865  0.144596  1
  Pd  Pd21  1  0.144561  0.144865  0.565978  1
  Pd  Pd22  1  0.141782  0.568262  0.144977  1
  Pt  Pt23  1  0.568915  0.141593  0.144745  1
