# generated using pymatgen
data_Nb3CrCo3B7
_symmetry_space_group_name_H-M   'P 1'
_cell_length_a   9.35245751
_cell_length_b   9.35245738
_cell_length_c   8.94641900
_cell_angle_alpha   90.00000000
_cell_angle_beta   90.00000000
_cell_angle_gamma   19.84796797
_symmetry_Int_Tables_number   1
_chemical_formula_structural   Nb3CrCo3B7
_chemical_formula_sum   'Nb6 Cr2 Co6 B14'
_cell_volume   265.68872246
_cell_formula_units_Z   2
loop_
 _symmetry_equiv_pos_site_id
 _symmetry_equiv_pos_as_xyz
  1  'x, y, z'
loop_
 _atom_site_type_symbol
 _atom_site_label
 _atom_site_symmetry_multiplicity
 _atom_site_fract_x
 _atom_site_fract_y
 _atom_site_fract_z
 _atom_site_occupancy
  Nb  Nb0  1  0.417533  0.417533  0.554580  1
  Nb  Nb1  1  0.582468  0.582468  0.054580  1
  Nb  Nb2  1  0.582468  0.582468  0.445421  1
  Nb  Nb3  1  0.417533  0.417533  0.945420  1
  Nb  Nb4  1  0.301428  0.301428  0.250000  1
  Nb  Nb5  1  0.698572  0.698572  0.749999  1
  Cr  Cr6  1  0.458389  0.458389  0.250000  1
  Cr  Cr7  1  0.541611  0.541611  0.749999  1
  Co  Co8  1  0.198906  0.198906  0.504520  1
  Co  Co9  1  0.801094  0.801094  0.004520  1
  Co  Co10  1  0.801094  0.801094  0.495481  1
  Co  Co11  1  0.198906  0.198906  0.995480  1
  Co  Co12  1  0.156274  0.156274  0.250000  1
  Co  Co13  1  0.843726  0.843726  0.749999  1
  B  B14  1  0.014970  0.014970  0.591909  1
  B  B15  1  0.985030  0.985030  0.091909  1
  B  B16  1  0.985030  0.985030  0.408091  1
  B  B17  1  0.014970  0.014970  0.908091  1
  B  B18  1  0.044345  0.044345  0.250000  1
  B  B19  1  0.955655  0.955655  0.749999  1
  B  B20  1  0.110465  0.110465  0.648732  1
  B  B21  1  0.889535  0.889535  0.148732  1
  B  B22  1  0.889535  0.889535  0.351267  1
  B  B23  1  0.110465  0.110465  0.851268  1
  B  B24  1  0.289641  0.289641  0.644343  1
  B  B25  1  0.710359  0.710359  0.144343  1
  B  B26  1  0.710359  0.710359  0.355658  1
  B  B27  1  0.289641  0.289641  0.855656  1
