# generated using pymatgen
data_RbFePO4
_symmetry_space_group_name_H-M   'P 1'
_cell_length_a   5.48494898
_cell_length_b   9.08735673
_cell_length_c   9.17721104
_cell_angle_alpha   90.99309370
_cell_angle_beta   90.13366471
_cell_angle_gamma   89.48395869
_symmetry_Int_Tables_number   1
_chemical_formula_structural   RbFePO4
_chemical_formula_sum   'Rb4 Fe4 P4 O16'
_cell_volume   457.33770039
_cell_formula_units_Z   4
loop_
 _symmetry_equiv_pos_site_id
 _symmetry_equiv_pos_as_xyz
  1  'x, y, z'
loop_
 _atom_site_type_symbol
 _atom_site_label
 _atom_site_symmetry_multiplicity
 _atom_site_fract_x
 _atom_site_fract_y
 _atom_site_fract_z
 _atom_site_occupancy
  Rb  Rb0  1  0.877069  0.994679  0.800997  1
  Rb  Rb1  1  0.375359  0.005390  0.198645  1
  Rb  Rb2  1  0.411345  0.508704  0.310766  1
  Rb  Rb3  1  0.911441  0.490198  0.689756  1
  Fe  Fe4  1  0.413292  0.674499  0.903922  1
  Fe  Fe5  1  0.350445  0.158148  0.569599  1
  Fe  Fe6  1  0.911584  0.325930  0.095877  1
  Fe  Fe7  1  0.849774  0.842296  0.430554  1
  P  P8  1  0.400982  0.796978  0.574425  1
  P  P9  1  0.898720  0.202870  0.425105  1
  P  P10  1  0.409904  0.301051  0.903609  1
  P  P11  1  0.910840  0.699177  0.096596  1
  O  O12  1  0.185234  0.731270  0.069170  1
  O  O13  1  0.684361  0.265648  0.931908  1
  O  O14  1  0.813627  0.809109  0.215188  1
  O  O15  1  0.313628  0.191710  0.784844  1
  O  O16  1  0.673909  0.260464  0.510419  1
  O  O17  1  0.175946  0.740448  0.489867  1
  O  O18  1  0.625113  0.693931  0.546396  1
  O  O19  1  0.121692  0.305024  0.452486  1
  O  O20  1  0.376940  0.460948  0.849207  1
  O  O21  1  0.881265  0.539465  0.151264  1
  O  O22  1  0.837716  0.186654  0.259949  1
  O  O23  1  0.341412  0.813997  0.739641  1
  O  O24  1  0.765900  0.721974  0.952293  1
  O  O25  1  0.265577  0.279887  0.047773  1
  O  O26  1  0.994124  0.050332  0.483771  1
  O  O27  1  0.494204  0.949217  0.515974  1
