# generated using pymatgen
data_Re2Hg3PbO10
_symmetry_space_group_name_H-M   'P 1'
_cell_length_a   8.83855434
_cell_length_b   9.81395685
_cell_length_c   9.70679750
_cell_angle_alpha   120.43516993
_cell_angle_beta   102.79480692
_cell_angle_gamma   84.76448690
_symmetry_Int_Tables_number   1
_chemical_formula_structural   Re2Hg3PbO10
_chemical_formula_sum   'Re4 Hg6 Pb2 O20'
_cell_volume   707.71150079
_cell_formula_units_Z   2
loop_
 _symmetry_equiv_pos_site_id
 _symmetry_equiv_pos_as_xyz
  1  'x, y, z'
loop_
 _atom_site_type_symbol
 _atom_site_label
 _atom_site_symmetry_multiplicity
 _atom_site_fract_x
 _atom_site_fract_y
 _atom_site_fract_z
 _atom_site_occupancy
  Re  Re0  1  0.893337  0.754092  0.476599  1
  Re  Re1  1  0.717597  0.331660  0.983543  1
  Re  Re2  1  0.282403  0.668340  0.016457  1
  Re  Re3  1  0.106663  0.245908  0.523401  1
  Hg  Hg4  1  0.367476  0.607907  0.426829  1
  Hg  Hg5  1  0.684657  0.679508  0.812572  1
  Hg  Hg6  1  0.632524  0.392093  0.573171  1
  Hg  Hg7  1  0.354860  0.959833  0.813896  1
  Hg  Hg8  1  0.315343  0.320492  0.187428  1
  Hg  Hg9  1  0.645140  0.040167  0.186104  1
  Pb  Pb10  1  0.000000  0.000000  0.000000  1
  Pb  Pb11  1  0.500000  0.000000  0.500000  1
  O  O12  1  0.236350  0.119131  0.569496  1
  O  O13  1  0.456668  0.837564  0.616892  1
  O  O14  1  0.092894  0.731141  0.974493  1
  O  O15  1  0.258959  0.078370  0.014473  1
  O  O16  1  0.030473  0.149493  0.310691  1
  O  O17  1  0.969527  0.850507  0.689309  1
  O  O18  1  0.356563  0.772144  0.229571  1
  O  O19  1  0.741041  0.921630  0.985527  1
  O  O20  1  0.907106  0.268859  0.025507  1
  O  O21  1  0.719942  0.533142  0.050723  1
  O  O22  1  0.046321  0.706756  0.374388  1
  O  O23  1  0.280058  0.466858  0.949277  1
  O  O24  1  0.763650  0.880869  0.430504  1
  O  O25  1  0.793742  0.582280  0.419656  1
  O  O26  1  0.206258  0.417720  0.580344  1
  O  O27  1  0.643437  0.227856  0.770429  1
  O  O28  1  0.543332  0.162436  0.383108  1
  O  O29  1  0.598860  0.289598  0.080416  1
  O  O30  1  0.953679  0.293244  0.625612  1
  O  O31  1  0.401140  0.710402  0.919584  1
