# generated using pymatgen
data_Tb4Ho6In8Pd3Ru
_symmetry_space_group_name_H-M   'P 1'
_cell_length_a   3.60533100
_cell_length_b   8.15302209
_cell_length_c   18.32722887
_cell_angle_alpha   89.93844623
_cell_angle_beta   90.00000000
_cell_angle_gamma   90.00000000
_symmetry_Int_Tables_number   1
_chemical_formula_structural   Tb4Ho6In8Pd3Ru
_chemical_formula_sum   'Tb4 Ho6 In8 Pd3 Ru1'
_cell_volume   538.71654592
_cell_formula_units_Z   1
loop_
 _symmetry_equiv_pos_site_id
 _symmetry_equiv_pos_as_xyz
  1  'x, y, z'
loop_
 _atom_site_type_symbol
 _atom_site_label
 _atom_site_symmetry_multiplicity
 _atom_site_fract_x
 _atom_site_fract_y
 _atom_site_fract_z
 _atom_site_occupancy
  Tb  Tb0  1  0.000000  0.499903  0.499410  1
  Tb  Tb1  1  0.000000  0.000245  0.000909  1
  Tb  Tb2  1  0.000000  0.729409  0.277666  1
  Tb  Tb3  1  0.000000  0.259973  0.719751  1
  Ho  Ho4  1  0.000000  0.759762  0.779809  1
  Ho  Ho5  1  0.000000  0.251451  0.220270  1
  Ho  Ho6  1  0.000000  0.614792  0.086857  1
  Ho  Ho7  1  0.000000  0.383880  0.916250  1
  Ho  Ho8  1  0.000000  0.884030  0.583425  1
  Ho  Ho9  1  0.000000  0.117808  0.415153  1
  In  In10  1  0.500000  0.709012  0.931687  1
  In  In11  1  0.500000  0.293525  0.069456  1
  In  In12  1  0.500000  0.792525  0.432328  1
  In  In13  1  0.500000  0.207671  0.567544  1
  In  In14  1  0.500000  0.580570  0.649882  1
  In  In15  1  0.500000  0.423582  0.349645  1
  In  In16  1  0.500000  0.921108  0.150307  1
  In  In17  1  0.500000  0.078939  0.850444  1
  Pd  Pd18  1  0.500000  0.478468  0.804429  1
  Pd  Pd19  1  0.500000  0.975228  0.695716  1
  Pd  Pd20  1  0.500000  0.021126  0.303920  1
  Ru  Ru21  1  0.500000  0.516995  0.195143  1
