# generated using pymatgen
data_ErTm9(SiSb)4
_symmetry_space_group_name_H-M   'P 1'
_cell_length_a   8.40473687
_cell_length_b   8.40192649
_cell_length_c   7.77383625
_cell_angle_alpha   90.01743226
_cell_angle_beta   90.00920136
_cell_angle_gamma   125.11088141
_symmetry_Int_Tables_number   1
_chemical_formula_structural   ErTm9(SiSb)4
_chemical_formula_sum   'Er1 Tm9 Si4 Sb4'
_cell_volume   449.06906181
_cell_formula_units_Z   1
loop_
 _symmetry_equiv_pos_site_id
 _symmetry_equiv_pos_as_xyz
  1  'x, y, z'
loop_
 _atom_site_type_symbol
 _atom_site_label
 _atom_site_symmetry_multiplicity
 _atom_site_fract_x
 _atom_site_fract_y
 _atom_site_fract_z
 _atom_site_occupancy
  Er  Er0  1  0.540507  0.790941  0.165354  1
  Tm  Tm1  1  0.290427  0.040648  0.334830  1
  Tm  Tm2  1  0.209390  0.459326  0.834732  1
  Tm  Tm3  1  0.959292  0.709497  0.665239  1
  Tm  Tm4  1  0.709521  0.959247  0.665288  1
  Tm  Tm5  1  0.459250  0.209336  0.834761  1
  Tm  Tm6  1  0.790616  0.540652  0.165203  1
  Tm  Tm7  1  0.040733  0.290488  0.334719  1
  Tm  Tm8  1  0.499998  0.499879  0.500183  1
  Tm  Tm9  1  0.000249  0.000127  0.999926  1
  Si  Si10  1  0.632877  0.632704  0.867844  1
  Si  Si11  1  0.132772  0.132787  0.631779  1
  Si  Si12  1  0.867666  0.867230  0.368458  1
  Si  Si13  1  0.367009  0.366769  0.131821  1
  Sb  Sb14  1  0.293717  0.705791  0.500434  1
  Sb  Sb15  1  0.205536  0.794035  0.999796  1
  Sb  Sb16  1  0.705942  0.293984  0.499954  1
  Sb  Sb17  1  0.794499  0.206558  0.999681  1
