# generated using pymatgen
data_Y3Lu(CrB4)4
_symmetry_space_group_name_H-M   'P 1'
_cell_length_a   3.43693000
_cell_length_b   5.92941465
_cell_length_c   11.45558426
_cell_angle_alpha   89.94631755
_cell_angle_beta   90.00000000
_cell_angle_gamma   90.00000000
_symmetry_Int_Tables_number   1
_chemical_formula_structural   Y3Lu(CrB4)4
_chemical_formula_sum   'Y3 Lu1 Cr4 B16'
_cell_volume   233.45305545
_cell_formula_units_Z   1
loop_
 _symmetry_equiv_pos_site_id
 _symmetry_equiv_pos_as_xyz
  1  'x, y, z'
loop_
 _atom_site_type_symbol
 _atom_site_label
 _atom_site_symmetry_multiplicity
 _atom_site_fract_x
 _atom_site_fract_y
 _atom_site_fract_z
 _atom_site_occupancy
  Y  Y0  1  0.000000  0.625221  0.349242  1
  Y  Y1  1  0.000000  0.374819  0.651046  1
  Y  Y2  1  0.000000  0.125090  0.150731  1
  Lu  Lu3  1  0.000000  0.874638  0.849328  1
  Cr  Cr4  1  0.000000  0.624962  0.080288  1
  Cr  Cr5  1  0.000000  0.375381  0.918671  1
  Cr  Cr6  1  0.000000  0.123958  0.419663  1
  Cr  Cr7  1  0.000000  0.875919  0.581277  1
  B  B8  1  0.500000  0.781987  0.183879  1
  B  B9  1  0.500000  0.215909  0.816019  1
  B  B10  1  0.500000  0.281785  0.315995  1
  B  B11  1  0.500000  0.718655  0.685109  1
  B  B12  1  0.500000  0.863283  0.031340  1
  B  B13  1  0.500000  0.136048  0.966892  1
  B  B14  1  0.500000  0.362709  0.467664  1
  B  B15  1  0.500000  0.637436  0.532766  1
  B  B16  1  0.500000  0.887066  0.453365  1
  B  B17  1  0.500000  0.112639  0.547135  1
  B  B18  1  0.500000  0.387386  0.046230  1
  B  B19  1  0.500000  0.614681  0.952308  1
  B  B20  1  0.500000  0.976252  0.308568  1
  B  B21  1  0.500000  0.022766  0.692745  1
  B  B22  1  0.500000  0.476007  0.191305  1
  B  B23  1  0.500000  0.525405  0.808435  1
