# generated using pymatgen
data_Dy9Er9Tm2(CoBi2)4
_symmetry_space_group_name_H-M   'P 1'
_cell_length_a   7.94988564
_cell_length_b   8.86803609
_cell_length_c   12.39276809
_cell_angle_alpha   89.97726168
_cell_angle_beta   89.97625823
_cell_angle_gamma   89.97903667
_symmetry_Int_Tables_number   1
_chemical_formula_structural   Dy9Er9Tm2(CoBi2)4
_chemical_formula_sum   'Dy9 Er9 Tm2 Co4 Bi8'
_cell_volume   873.68837133
_cell_formula_units_Z   1
loop_
 _symmetry_equiv_pos_site_id
 _symmetry_equiv_pos_as_xyz
  1  'x, y, z'
loop_
 _atom_site_type_symbol
 _atom_site_label
 _atom_site_symmetry_multiplicity
 _atom_site_fract_x
 _atom_site_fract_y
 _atom_site_fract_z
 _atom_site_occupancy
  Dy  Dy0  1  0.654069  0.750087  0.699411  1
  Dy  Dy1  1  0.345869  0.249908  0.300428  1
  Dy  Dy2  1  0.153918  0.250205  0.800249  1
  Dy  Dy3  1  0.846448  0.749789  0.199858  1
  Dy  Dy4  1  0.120927  0.749427  0.813392  1
  Dy  Dy5  1  0.879126  0.250581  0.186668  1
  Dy  Dy6  1  0.620884  0.249726  0.686810  1
  Dy  Dy7  1  0.379135  0.750277  0.313147  1
  Dy  Dy8  1  0.552769  0.749519  0.997099  1
  Er  Er9  1  0.446548  0.250480  0.002871  1
  Er  Er10  1  0.053061  0.250046  0.502861  1
  Er  Er11  1  0.947211  0.750004  0.497167  1
  Er  Er12  1  0.326096  0.536583  0.563879  1
  Er  Er13  1  0.173462  0.963771  0.063838  1
  Er  Er14  1  0.673807  0.463236  0.436171  1
  Er  Er15  1  0.826666  0.036737  0.936023  1
  Er  Er16  1  0.673842  0.036784  0.436215  1
  Er  Er17  1  0.326059  0.963490  0.563832  1
  Tm  Tm18  1  0.827830  0.462872  0.936040  1
  Tm  Tm19  1  0.172371  0.536450  0.063845  1
  Co  Co20  1  0.937664  0.749400  0.993092  1
  Co  Co21  1  0.062903  0.250579  0.006962  1
  Co  Co22  1  0.436439  0.249992  0.507178  1
  Co  Co23  1  0.563561  0.750038  0.492828  1
  Bi  Bi24  1  0.933031  0.007489  0.672354  1
  Bi  Bi25  1  0.066985  0.992704  0.327651  1
  Bi  Bi26  1  0.432292  0.993149  0.827207  1
  Bi  Bi27  1  0.067358  0.507425  0.327680  1
  Bi  Bi28  1  0.567343  0.008135  0.172840  1
  Bi  Bi29  1  0.932681  0.492403  0.672341  1
  Bi  Bi30  1  0.566453  0.492082  0.173032  1
  Bi  Bi31  1  0.433192  0.506634  0.827032  1
