# generated using pymatgen
data_Li5Er4(P4Rh5)3
_symmetry_space_group_name_H-M   'P 1'
_cell_length_a   3.91503100
_cell_length_b   10.69990210
_cell_length_c   12.76145367
_cell_angle_alpha   90.16524220
_cell_angle_beta   90.00000000
_cell_angle_gamma   90.00000000
_symmetry_Int_Tables_number   1
_chemical_formula_structural   Li5Er4(P4Rh5)3
_chemical_formula_sum   'Li5 Er4 P12 Rh15'
_cell_volume   534.58079318
_cell_formula_units_Z   1
loop_
 _symmetry_equiv_pos_site_id
 _symmetry_equiv_pos_as_xyz
  1  'x, y, z'
loop_
 _atom_site_type_symbol
 _atom_site_label
 _atom_site_symmetry_multiplicity
 _atom_site_fract_x
 _atom_site_fract_y
 _atom_site_fract_z
 _atom_site_occupancy
  Li  Li0  1  0.250000  0.708614  0.995055  1
  Li  Li1  1  0.250000  0.793555  0.491706  1
  Li  Li2  1  0.750000  0.291255  0.006362  1
  Li  Li3  1  0.750000  0.204235  0.513597  1
  Li  Li4  1  0.250000  0.407702  0.493048  1
  Er  Er5  1  0.250000  0.574489  0.707148  1
  Er  Er6  1  0.250000  0.928557  0.202935  1
  Er  Er7  1  0.750000  0.430786  0.295875  1
  Er  Er8  1  0.750000  0.069853  0.795518  1
  P  P9  1  0.250000  0.432216  0.116554  1
  P  P10  1  0.250000  0.070439  0.617085  1
  P  P11  1  0.750000  0.569149  0.883544  1
  P  P12  1  0.750000  0.936241  0.381762  1
  P  P13  1  0.250000  0.256139  0.856986  1
  P  P14  1  0.250000  0.243417  0.345483  1
  P  P15  1  0.750000  0.741551  0.145406  1
  P  P16  1  0.750000  0.755470  0.640997  1
  P  P17  1  0.250000  0.604344  0.392180  1
  P  P18  1  0.250000  0.893389  0.888424  1
  P  P19  1  0.750000  0.397206  0.617857  1
  P  P20  1  0.750000  0.101088  0.104852  1
  Rh  Rh21  1  0.250000  0.090144  0.973417  1
  Rh  Rh22  1  0.750000  0.583245  0.518302  1
  Rh  Rh23  1  0.750000  0.902986  0.024523  1
  Rh  Rh24  1  0.250000  0.230223  0.163959  1
  Rh  Rh25  1  0.250000  0.272962  0.670518  1
  Rh  Rh26  1  0.750000  0.768440  0.826263  1
  Rh  Rh27  1  0.750000  0.735685  0.329592  1
  Rh  Rh28  1  0.250000  0.873159  0.698429  1
  Rh  Rh29  1  0.250000  0.625832  0.204377  1
  Rh  Rh30  1  0.750000  0.129951  0.296336  1
  Rh  Rh31  1  0.750000  0.370904  0.802033  1
  Rh  Rh32  1  0.250000  0.458387  0.934308  1
  Rh  Rh33  1  0.250000  0.048309  0.432970  1
  Rh  Rh34  1  0.750000  0.542393  0.068062  1
  Rh  Rh35  1  0.750000  0.957686  0.564538  1
