# generated using pymatgen
data_TbEr9AlBi5
_symmetry_space_group_name_H-M   'P 1'
_cell_length_a   9.05259301
_cell_length_b   9.03933465
_cell_length_c   6.37390900
_cell_angle_alpha   90.00000000
_cell_angle_beta   90.00000000
_cell_angle_gamma   119.86080615
_symmetry_Int_Tables_number   1
_chemical_formula_structural   TbEr9AlBi5
_chemical_formula_sum   'Tb1 Er9 Al1 Bi5'
_cell_volume   452.32791356
_cell_formula_units_Z   1
loop_
 _symmetry_equiv_pos_site_id
 _symmetry_equiv_pos_as_xyz
  1  'x, y, z'
loop_
 _atom_site_type_symbol
 _atom_site_label
 _atom_site_symmetry_multiplicity
 _atom_site_fract_x
 _atom_site_fract_y
 _atom_site_fract_z
 _atom_site_occupancy
  Tb  Tb0  1  0.000456  0.759311  0.250000  1
  Er  Er1  1  0.659088  0.336033  0.996345  1
  Er  Er2  1  0.335142  0.658599  0.996441  1
  Er  Er3  1  0.335142  0.658599  0.503559  1
  Er  Er4  1  0.659088  0.336033  0.503655  1
  Er  Er5  1  0.749963  0.750364  0.750000  1
  Er  Er6  1  0.243815  0.013929  0.750000  1
  Er  Er7  1  0.013217  0.242524  0.750000  1
  Er  Er8  1  0.239486  0.239282  0.250000  1
  Er  Er9  1  0.759026  0.000282  0.250000  1
  Al  Al10  1  0.397347  0.397345  0.750000  1
  Bi  Bi11  1  0.611254  0.002723  0.750000  1
  Bi  Bi12  1  0.003025  0.611374  0.750000  1
  Bi  Bi13  1  0.605725  0.606859  0.250000  1
  Bi  Bi14  1  0.392927  0.996742  0.250000  1
  Bi  Bi15  1  0.995300  0.390002  0.250000  1
