# generated using pymatgen
data_Th2PaMn2
_symmetry_space_group_name_H-M   'P 1'
_cell_length_a   5.89476726
_cell_length_b   5.89476563
_cell_length_c   5.89486147
_cell_angle_alpha   139.90379367
_cell_angle_beta   121.89481937
_cell_angle_gamma   72.94160308
_symmetry_Int_Tables_number   1
_chemical_formula_structural   Th2PaMn2
_chemical_formula_sum   'Th2 Pa1 Mn2'
_cell_volume   109.68593729
_cell_formula_units_Z   1
loop_
 _symmetry_equiv_pos_site_id
 _symmetry_equiv_pos_as_xyz
  1  'x, y, z'
loop_
 _atom_site_type_symbol
 _atom_site_label
 _atom_site_symmetry_multiplicity
 _atom_site_fract_x
 _atom_site_fract_y
 _atom_site_fract_z
 _atom_site_occupancy
  Th  Th0  1  0.309349  0.809349  0.500000  1
  Th  Th1  1  0.690651  0.190651  0.500000  1
  Pa  Pa2  1  0.000000  0.000000  0.000000  1
  Mn  Mn3  1  0.241019  0.499986  0.741004  1
  Mn  Mn4  1  0.758981  0.500014  0.258996  1
