# generated using pymatgen
data_Tb11YNi4
_symmetry_space_group_name_H-M   'P 1'
_cell_length_a   6.86488242
_cell_length_b   9.64725900
_cell_length_c   6.34095431
_cell_angle_alpha   90.00000000
_cell_angle_beta   90.07374535
_cell_angle_gamma   90.00000000
_symmetry_Int_Tables_number   1
_chemical_formula_structural   Tb11YNi4
_chemical_formula_sum   'Tb11 Y1 Ni4'
_cell_volume   419.94392765
_cell_formula_units_Z   1
loop_
 _symmetry_equiv_pos_site_id
 _symmetry_equiv_pos_as_xyz
  1  'x, y, z'
loop_
 _atom_site_type_symbol
 _atom_site_label
 _atom_site_symmetry_multiplicity
 _atom_site_fract_x
 _atom_site_fract_y
 _atom_site_fract_z
 _atom_site_occupancy
  Tb  Tb0  1  0.321403  0.565510  0.176037  1
  Tb  Tb1  1  0.321403  0.934490  0.176037  1
  Tb  Tb2  1  0.821508  0.565619  0.323876  1
  Tb  Tb3  1  0.821508  0.934381  0.323876  1
  Tb  Tb4  1  0.534487  0.250000  0.359258  1
  Tb  Tb5  1  0.465509  0.750000  0.641144  1
  Tb  Tb6  1  0.178601  0.065437  0.676217  1
  Tb  Tb7  1  0.178601  0.434563  0.676217  1
  Tb  Tb8  1  0.678420  0.065406  0.823815  1
  Tb  Tb9  1  0.678420  0.434594  0.823815  1
  Tb  Tb10  1  0.965304  0.750000  0.858950  1
  Y  Y11  1  0.034115  0.250000  0.140504  1
  Ni  Ni12  1  0.609977  0.750000  0.058029  1
  Ni  Ni13  1  0.109968  0.750000  0.442082  1
  Ni  Ni14  1  0.890032  0.250000  0.558627  1
  Ni  Ni15  1  0.390746  0.250000  0.941519  1
