# generated using pymatgen
data_La2Cd4PdRh
_symmetry_space_group_name_H-M   'P 1'
_cell_length_a   5.48770314
_cell_length_b   5.48770328
_cell_length_c   8.54934300
_cell_angle_alpha   90.00000000
_cell_angle_beta   90.00000000
_cell_angle_gamma   132.91366509
_symmetry_Int_Tables_number   1
_chemical_formula_structural   La2Cd4PdRh
_chemical_formula_sum   'La2 Cd4 Pd1 Rh1'
_cell_volume   188.56051678
_cell_formula_units_Z   1
loop_
 _symmetry_equiv_pos_site_id
 _symmetry_equiv_pos_as_xyz
  1  'x, y, z'
loop_
 _atom_site_type_symbol
 _atom_site_label
 _atom_site_symmetry_multiplicity
 _atom_site_fract_x
 _atom_site_fract_y
 _atom_site_fract_z
 _atom_site_occupancy
  La  La0  1  0.065721  0.934279  0.250000  1
  La  La1  1  0.939475  0.060525  0.750000  1
  Cd  Cd2  1  0.647127  0.352873  0.549190  1
  Cd  Cd3  1  0.354215  0.645785  0.453901  1
  Cd  Cd4  1  0.647127  0.352873  0.950810  1
  Cd  Cd5  1  0.354215  0.645785  0.046099  1
  Pd  Pd6  1  0.781570  0.218430  0.250000  1
  Rh  Rh7  1  0.210549  0.789451  0.750000  1
