# generated using pymatgen
data_LaPa7Tl3Pt8Pb
_symmetry_space_group_name_H-M   'P 1'
_cell_length_a   7.96266051
_cell_length_b   7.96300243
_cell_length_c   7.29818719
_cell_angle_alpha   89.97714949
_cell_angle_beta   90.00248894
_cell_angle_gamma   90.64473155
_symmetry_Int_Tables_number   1
_chemical_formula_structural   LaPa7Tl3Pt8Pb
_chemical_formula_sum   'La1 Pa7 Tl3 Pt8 Pb1'
_cell_volume   462.72452120
_cell_formula_units_Z   1
loop_
 _symmetry_equiv_pos_site_id
 _symmetry_equiv_pos_as_xyz
  1  'x, y, z'
loop_
 _atom_site_type_symbol
 _atom_site_label
 _atom_site_symmetry_multiplicity
 _atom_site_fract_x
 _atom_site_fract_y
 _atom_site_fract_z
 _atom_site_occupancy
  La  La0  1  0.181506  0.820693  0.500963  1
  Pa  Pa1  1  0.679258  0.678032  0.999610  1
  Pa  Pa2  1  0.336809  0.334338  0.500199  1
  Pa  Pa3  1  0.821608  0.176811  0.500258  1
  Pa  Pa4  1  0.663617  0.665209  0.500629  1
  Pa  Pa5  1  0.323944  0.318990  0.999544  1
  Pa  Pa6  1  0.834523  0.163447  0.999315  1
  Pa  Pa7  1  0.165926  0.835625  0.999721  1
  Tl  Tl8  1  0.496785  0.999368  0.747954  1
  Tl  Tl9  1  0.496634  0.998968  0.252101  1
  Tl  Tl10  1  0.000954  0.503678  0.749022  1
  Pt  Pt11  1  0.862874  0.875557  0.742649  1
  Pt  Pt12  1  0.124718  0.137414  0.742905  1
  Pt  Pt13  1  0.632342  0.367824  0.764085  1
  Pt  Pt14  1  0.630803  0.366957  0.235110  1
  Pt  Pt15  1  0.380052  0.621676  0.224301  1
  Pt  Pt16  1  0.125349  0.135435  0.256694  1
  Pt  Pt17  1  0.862859  0.876204  0.257754  1
  Pt  Pt18  1  0.378964  0.621201  0.776035  1
  Pb  Pb19  1  0.000477  0.502572  0.251152  1
