# generated using pymatgen
data_LaTcP2Os
_symmetry_space_group_name_H-M   'P 1'
_cell_length_a   5.90934453
_cell_length_b   5.90934480
_cell_length_c   5.90934438
_cell_angle_alpha   138.75670733
_cell_angle_beta   138.75670950
_cell_angle_gamma   59.74600952
_symmetry_Int_Tables_number   1
_chemical_formula_structural   LaTcP2Os
_chemical_formula_sum   'La1 Tc1 P2 Os1'
_cell_volume   88.78301989
_cell_formula_units_Z   1
loop_
 _symmetry_equiv_pos_site_id
 _symmetry_equiv_pos_as_xyz
  1  'x, y, z'
loop_
 _atom_site_type_symbol
 _atom_site_label
 _atom_site_symmetry_multiplicity
 _atom_site_fract_x
 _atom_site_fract_y
 _atom_site_fract_z
 _atom_site_occupancy
  La  La0  1  0.000000  0.000000  0.000000  1
  Tc  Tc1  1  0.750000  0.250000  0.500000  1
  P  P2  1  0.641246  0.641246  0.000000  1
  P  P3  1  0.358754  0.358754  0.000000  1
  Os  Os4  1  0.250000  0.750000  0.500000  1
