# generated using pymatgen
data_CaTh2Zn11
_symmetry_space_group_name_H-M   'P 1'
_cell_length_a   4.47250338
_cell_length_b   8.31289950
_cell_length_c   8.31289849
_cell_angle_alpha   66.39346784
_cell_angle_beta   74.39462638
_cell_angle_gamma   74.39463722
_symmetry_Int_Tables_number   1
_chemical_formula_structural   CaTh2Zn11
_chemical_formula_sum   'Ca1 Th2 Zn11'
_cell_volume   268.17213050
_cell_formula_units_Z   1
loop_
 _symmetry_equiv_pos_site_id
 _symmetry_equiv_pos_as_xyz
  1  'x, y, z'
loop_
 _atom_site_type_symbol
 _atom_site_label
 _atom_site_symmetry_multiplicity
 _atom_site_fract_x
 _atom_site_fract_y
 _atom_site_fract_z
 _atom_site_occupancy
  Ca  Ca0  1  0.000000  0.000000  0.000000  1
  Th  Th1  1  0.703797  0.296203  0.296203  1
  Th  Th2  1  0.296203  0.703797  0.703797  1
  Zn  Zn3  1  0.000000  0.500000  0.500000  1
  Zn  Zn4  1  0.500000  0.683329  0.316671  1
  Zn  Zn5  1  0.500000  0.316671  0.683329  1
  Zn  Zn6  1  0.659453  0.698840  0.982254  1
  Zn  Zn7  1  0.340547  0.301160  0.017746  1
  Zn  Zn8  1  0.659453  0.982254  0.698840  1
  Zn  Zn9  1  0.340547  0.017746  0.301160  1
  Zn  Zn10  1  0.864261  0.414367  0.857110  1
  Zn  Zn11  1  0.135739  0.585633  0.142890  1
  Zn  Zn12  1  0.864261  0.857110  0.414367  1
  Zn  Zn13  1  0.135739  0.142890  0.585633  1
