# generated using pymatgen
data_Dy8Er12Si15Te
_symmetry_space_group_name_H-M   'P 1'
_cell_length_a   7.43366886
_cell_length_b   7.62263474
_cell_length_c   14.51790100
_cell_angle_alpha   89.90417169
_cell_angle_beta   86.85234234
_cell_angle_gamma   90.06077633
_symmetry_Int_Tables_number   1
_chemical_formula_structural   Dy8Er12Si15Te
_chemical_formula_sum   'Dy8 Er12 Si15 Te1'
_cell_volume   821.40162629
_cell_formula_units_Z   1
loop_
 _symmetry_equiv_pos_site_id
 _symmetry_equiv_pos_as_xyz
  1  'x, y, z'
loop_
 _atom_site_type_symbol
 _atom_site_label
 _atom_site_symmetry_multiplicity
 _atom_site_fract_x
 _atom_site_fract_y
 _atom_site_fract_z
 _atom_site_occupancy
  Dy  Dy0  1  0.021875  0.183423  0.099479  1
  Dy  Dy1  1  0.978061  0.818049  0.900590  1
  Dy  Dy2  1  0.478472  0.682884  0.900965  1
  Dy  Dy3  1  0.999154  0.826041  0.599592  1
  Dy  Dy4  1  0.522151  0.317511  0.100322  1
  Dy  Dy5  1  0.994695  0.174216  0.399092  1
  Dy  Dy6  1  0.505993  0.313127  0.397281  1
  Dy  Dy7  1  0.515770  0.688451  0.602166  1
  Er  Er8  1  0.166679  0.506623  0.754159  1
  Er  Er9  1  0.831759  0.492708  0.254027  1
  Er  Er10  1  0.330878  0.007929  0.252889  1
  Er  Er11  1  0.671851  0.992120  0.748938  1
  Er  Er12  1  0.358699  0.153351  0.624163  1
  Er  Er13  1  0.645801  0.831617  0.378338  1
  Er  Er14  1  0.141495  0.677940  0.373041  1
  Er  Er15  1  0.672767  0.822269  0.122516  1
  Er  Er16  1  0.841725  0.330259  0.621830  1
  Er  Er17  1  0.326697  0.178059  0.877289  1
  Er  Er18  1  0.826639  0.322463  0.877037  1
  Er  Er19  1  0.172541  0.678015  0.123066  1
  Si  Si20  1  0.043225  0.111053  0.750701  1
  Si  Si21  1  0.955844  0.892794  0.246557  1
  Si  Si22  1  0.457030  0.608494  0.248699  1
  Si  Si23  1  0.539984  0.392294  0.750393  1
  Si  Si24  1  0.287942  0.867198  0.752443  1
  Si  Si25  1  0.714058  0.128332  0.247015  1
  Si  Si26  1  0.213576  0.371846  0.248500  1
  Si  Si27  1  0.788807  0.629688  0.751327  1
  Si  Si28  1  0.793658  0.535036  0.457400  1
  Si  Si29  1  0.300019  0.965120  0.457968  1
  Si  Si30  1  0.850674  0.530207  0.040515  1
  Si  Si31  1  0.699623  0.034213  0.541992  1
  Si  Si32  1  0.147411  0.471282  0.959548  1
  Si  Si33  1  0.647541  0.030128  0.959098  1
  Si  Si34  1  0.351126  0.971264  0.041290  1
  Te  Te35  1  0.205781  0.464001  0.539771  1
