# generated using pymatgen
data_KBa4Re2AgN8
_symmetry_space_group_name_H-M   'P 1'
_cell_length_a   6.20637400
_cell_length_b   6.73332242
_cell_length_c   7.87392584
_cell_angle_alpha   76.70773828
_cell_angle_beta   90.00000000
_cell_angle_gamma   90.00000000
_symmetry_Int_Tables_number   1
_chemical_formula_structural   KBa4Re2AgN8
_chemical_formula_sum   'K1 Ba4 Re2 Ag1 N8'
_cell_volume   320.23235368
_cell_formula_units_Z   1
loop_
 _symmetry_equiv_pos_site_id
 _symmetry_equiv_pos_as_xyz
  1  'x, y, z'
loop_
 _atom_site_type_symbol
 _atom_site_label
 _atom_site_symmetry_multiplicity
 _atom_site_fract_x
 _atom_site_fract_y
 _atom_site_fract_z
 _atom_site_occupancy
  K  K0  1  0.750000  0.268413  0.318403  1
  Ba  Ba1  1  0.250000  0.296597  0.049894  1
  Ba  Ba2  1  0.750000  0.758640  0.956127  1
  Ba  Ba3  1  0.750000  0.737764  0.460980  1
  Ba  Ba4  1  0.250000  0.137416  0.631156  1
  Re  Re5  1  0.250000  0.752124  0.203504  1
  Re  Re6  1  0.750000  0.279208  0.793101  1
  Ag  Ag7  1  0.250000  0.651673  0.603239  1
  N  N8  1  0.508489  0.441941  0.742172  1
  N  N9  1  0.012384  0.587276  0.231108  1
  N  N10  1  0.487616  0.587276  0.231108  1
  N  N11  1  0.991511  0.441941  0.742172  1
  N  N12  1  0.750000  0.079111  0.665757  1
  N  N13  1  0.250000  0.919485  0.367838  1
  N  N14  1  0.750000  0.152196  0.022175  1
  N  N15  1  0.250000  0.908939  0.981267  1
