# generated using pymatgen
data_Lu12Mn2InBiRu
_symmetry_space_group_name_H-M   'P 1'
_cell_length_a   8.26352683
_cell_length_b   8.26351848
_cell_length_c   8.26352663
_cell_angle_alpha   108.66838597
_cell_angle_beta   108.22080782
_cell_angle_gamma   111.54490985
_symmetry_Int_Tables_number   1
_chemical_formula_structural   Lu12Mn2InBiRu
_chemical_formula_sum   'Lu12 Mn2 In1 Bi1 Ru1'
_cell_volume   433.94912709
_cell_formula_units_Z   1
loop_
 _symmetry_equiv_pos_site_id
 _symmetry_equiv_pos_as_xyz
  1  'x, y, z'
loop_
 _atom_site_type_symbol
 _atom_site_label
 _atom_site_symmetry_multiplicity
 _atom_site_fract_x
 _atom_site_fract_y
 _atom_site_fract_z
 _atom_site_occupancy
  Lu  Lu0  1  0.314325  0.304592  0.618916  1
  Lu  Lu1  1  0.685675  0.695408  0.381084  1
  Lu  Lu2  1  0.685675  0.304592  0.990268  1
  Lu  Lu3  1  0.314325  0.695408  0.009732  1
  Lu  Lu4  1  0.193857  0.426415  0.232558  1
  Lu  Lu5  1  0.806143  0.573585  0.767442  1
  Lu  Lu6  1  0.193859  0.961302  0.767444  1
  Lu  Lu7  1  0.954239  0.190917  0.763324  1
  Lu  Lu8  1  0.806141  0.038698  0.232556  1
  Lu  Lu9  1  0.045761  0.809083  0.236676  1
  Lu  Lu10  1  0.427593  0.190917  0.236677  1
  Lu  Lu11  1  0.572407  0.809083  0.763323  1
  Mn  Mn12  1  0.384835  0.384851  0.000015  1
  Mn  Mn13  1  0.615165  0.615149  0.999985  1
  In  In14  1  0.500000  0.000000  0.500000  1
  Bi  Bi15  1  0.000000  0.500000  0.500000  1
  Ru  Ru16  1  0.000000  0.000000  0.000000  1
