# generated using pymatgen
data_Rb2Er2BiSb3Se10
_symmetry_space_group_name_H-M   'P 1'
_cell_length_a   4.11087600
_cell_length_b   12.33679677
_cell_length_c   22.18531693
_cell_angle_alpha   90.42410922
_cell_angle_beta   90.00000000
_cell_angle_gamma   90.00000000
_symmetry_Int_Tables_number   1
_chemical_formula_structural   Rb2Er2BiSb3Se10
_chemical_formula_sum   'Rb4 Er4 Bi2 Sb6 Se20'
_cell_volume   1125.09845124
_cell_formula_units_Z   2
loop_
 _symmetry_equiv_pos_site_id
 _symmetry_equiv_pos_as_xyz
  1  'x, y, z'
loop_
 _atom_site_type_symbol
 _atom_site_label
 _atom_site_symmetry_multiplicity
 _atom_site_fract_x
 _atom_site_fract_y
 _atom_site_fract_z
 _atom_site_occupancy
  Rb  Rb0  1  0.250000  0.490252  0.211432  1
  Rb  Rb1  1  0.750000  0.509748  0.788568  1
  Rb  Rb2  1  0.750000  0.991024  0.290159  1
  Rb  Rb3  1  0.250000  0.008976  0.709841  1
  Er  Er4  1  0.250000  0.365277  0.023756  1
  Er  Er5  1  0.750000  0.634723  0.976244  1
  Er  Er6  1  0.750000  0.863999  0.477143  1
  Er  Er7  1  0.250000  0.136001  0.522857  1
  Bi  Bi8  1  0.750000  0.095942  0.074756  1
  Bi  Bi9  1  0.250000  0.904058  0.925244  1
  Sb  Sb10  1  0.250000  0.805948  0.126671  1
  Sb  Sb11  1  0.750000  0.194052  0.873329  1
  Sb  Sb12  1  0.750000  0.308804  0.375687  1
  Sb  Sb13  1  0.250000  0.691196  0.624313  1
  Sb  Sb14  1  0.250000  0.596133  0.427006  1
  Sb  Sb15  1  0.750000  0.403867  0.572994  1
  Se  Se16  1  0.250000  0.803483  0.391214  1
  Se  Se17  1  0.750000  0.196517  0.608786  1
  Se  Se18  1  0.750000  0.312651  0.110118  1
  Se  Se19  1  0.250000  0.687349  0.889882  1
  Se  Se20  1  0.250000  0.253723  0.299390  1
  Se  Se21  1  0.750000  0.746277  0.700610  1
  Se  Se22  1  0.750000  0.751904  0.202470  1
  Se  Se23  1  0.250000  0.248096  0.797530  1
  Se  Se24  1  0.250000  0.355015  0.481390  1
  Se  Se25  1  0.750000  0.644985  0.518610  1
  Se  Se26  1  0.750000  0.854341  0.020177  1
  Se  Se27  1  0.250000  0.145659  0.979823  1
  Se  Se28  1  0.250000  0.022390  0.160002  1
  Se  Se29  1  0.750000  0.977610  0.839998  1
  Se  Se30  1  0.750000  0.525106  0.343655  1
  Se  Se31  1  0.250000  0.474894  0.656345  1
  Se  Se32  1  0.250000  0.584445  0.060150  1
  Se  Se33  1  0.750000  0.415555  0.939850  1
  Se  Se34  1  0.750000  0.081792  0.439511  1
  Se  Se35  1  0.250000  0.918208  0.560489  1
