# generated using pymatgen
data_Y7Co3Sn23Rh3
_symmetry_space_group_name_H-M   'P 1'
_cell_length_a   9.79771430
_cell_length_b   9.79913503
_cell_length_c   10.05502000
_cell_angle_alpha   90.01184490
_cell_angle_beta   90.01360325
_cell_angle_gamma   120.00451649
_symmetry_Int_Tables_number   1
_chemical_formula_structural   Y7Co3Sn23Rh3
_chemical_formula_sum   'Y7 Co3 Sn23 Rh3'
_cell_volume   835.99999379
_cell_formula_units_Z   1
loop_
 _symmetry_equiv_pos_site_id
 _symmetry_equiv_pos_as_xyz
  1  'x, y, z'
loop_
 _atom_site_type_symbol
 _atom_site_label
 _atom_site_symmetry_multiplicity
 _atom_site_fract_x
 _atom_site_fract_y
 _atom_site_fract_z
 _atom_site_occupancy
  Y  Y0  1  0.999295  0.998525  0.000708  1
  Y  Y1  1  0.477440  0.521245  0.307356  1
  Y  Y2  1  0.520922  0.477945  0.693422  1
  Y  Y3  1  0.478391  0.956873  0.307043  1
  Y  Y4  1  0.521968  0.043780  0.693271  1
  Y  Y5  1  0.043953  0.521414  0.307077  1
  Y  Y6  1  0.956881  0.477867  0.693573  1
  Co  Co7  1  0.168665  0.335640  0.802918  1
  Co  Co8  1  0.336486  0.169737  0.196871  1
  Co  Co9  1  0.664439  0.832859  0.801242  1
  Sn  Sn10  1  0.350502  0.004557  0.004677  1
  Sn  Sn11  1  0.649471  0.995558  0.994883  1
  Sn  Sn12  1  0.005038  0.349658  0.995029  1
  Sn  Sn13  1  0.000456  0.648520  0.999961  1
  Sn  Sn14  1  0.648754  0.653500  0.995183  1
  Sn  Sn15  1  0.345305  0.345638  0.000066  1
  Sn  Sn16  1  0.335717  0.664320  0.817803  1
  Sn  Sn17  1  0.661268  0.330721  0.180732  1
  Sn  Sn18  1  0.999511  0.999028  0.500276  1
  Sn  Sn19  1  0.778946  0.220770  0.455673  1
  Sn  Sn20  1  0.220731  0.778863  0.544384  1
  Sn  Sn21  1  0.778785  0.557550  0.456228  1
  Sn  Sn22  1  0.219016  0.437977  0.549840  1
  Sn  Sn23  1  0.438431  0.219160  0.450887  1
  Sn  Sn24  1  0.561582  0.780668  0.549744  1
  Sn  Sn25  1  0.333497  0.667044  0.117049  1
  Sn  Sn26  1  0.666912  0.333728  0.882776  1
  Sn  Sn27  1  0.123717  0.887397  0.276750  1
  Sn  Sn28  1  0.883211  0.117741  0.725724  1
  Sn  Sn29  1  0.123504  0.236776  0.277006  1
  Sn  Sn30  1  0.876545  0.763144  0.722570  1
  Sn  Sn31  1  0.760210  0.880765  0.281477  1
  Sn  Sn32  1  0.237240  0.124274  0.722246  1
  Rh  Rh33  1  0.832786  0.168882  0.195742  1
  Rh  Rh34  1  0.169229  0.833937  0.802147  1
  Rh  Rh35  1  0.831196  0.663943  0.197669  1
