# generated using pymatgen
data_Y9Lu11Bi12
_symmetry_space_group_name_H-M   'P 1'
_cell_length_a   8.18447772
_cell_length_b   9.41366507
_cell_length_c   11.99187596
_cell_angle_alpha   89.98748878
_cell_angle_beta   90.09278247
_cell_angle_gamma   89.99491366
_symmetry_Int_Tables_number   1
_chemical_formula_structural   Y9Lu11Bi12
_chemical_formula_sum   'Y9 Lu11 Bi12'
_cell_volume   923.92402254
_cell_formula_units_Z   1
loop_
 _symmetry_equiv_pos_site_id
 _symmetry_equiv_pos_as_xyz
  1  'x, y, z'
loop_
 _atom_site_type_symbol
 _atom_site_label
 _atom_site_symmetry_multiplicity
 _atom_site_fract_x
 _atom_site_fract_y
 _atom_site_fract_z
 _atom_site_occupancy
  Y  Y0  1  0.186085  0.749814  0.718924  1
  Y  Y1  1  0.686377  0.749987  0.781371  1
  Y  Y2  1  0.813516  0.249257  0.280641  1
  Y  Y3  1  0.313456  0.249815  0.218458  1
  Y  Y4  1  0.808529  0.437756  0.558843  1
  Y  Y5  1  0.353269  0.749662  0.216241  1
  Y  Y6  1  0.852819  0.749249  0.283669  1
  Y  Y7  1  0.645437  0.248619  0.784389  1
  Y  Y8  1  0.147736  0.249225  0.716633  1
  Lu  Lu9  1  0.023809  0.749742  0.989833  1
  Lu  Lu10  1  0.523561  0.749919  0.510327  1
  Lu  Lu11  1  0.976039  0.249821  0.010337  1
  Lu  Lu12  1  0.475034  0.249381  0.489580  1
  Lu  Lu13  1  0.306692  0.433422  0.940997  1
  Lu  Lu14  1  0.806512  0.066588  0.559520  1
  Lu  Lu15  1  0.693325  0.933505  0.059033  1
  Lu  Lu16  1  0.193024  0.566626  0.440819  1
  Lu  Lu17  1  0.693108  0.566569  0.059240  1
  Lu  Lu18  1  0.194019  0.933833  0.440410  1
  Lu  Lu19  1  0.306661  0.066444  0.941058  1
  Bi  Bi20  1  0.433898  0.003223  0.671922  1
  Bi  Bi21  1  0.934350  0.495831  0.828457  1
  Bi  Bi22  1  0.565926  0.503286  0.328017  1
  Bi  Bi23  1  0.065940  0.995898  0.171735  1
  Bi  Bi24  1  0.565657  0.995987  0.328228  1
  Bi  Bi25  1  0.066215  0.503568  0.171506  1
  Bi  Bi26  1  0.433580  0.495860  0.671959  1
  Bi  Bi27  1  0.934153  0.003548  0.828521  1
  Bi  Bi28  1  0.404868  0.749970  0.957506  1
  Bi  Bi29  1  0.906419  0.754416  0.541825  1
  Bi  Bi30  1  0.594971  0.250101  0.042742  1
  Bi  Bi31  1  0.095013  0.249077  0.457261  1
