# generated using pymatgen
data_Dy2YMn(Co4P3)2
_symmetry_space_group_name_H-M   'P 1'
_cell_length_a   3.69376900
_cell_length_b   10.53906000
_cell_length_c   12.19950200
_cell_angle_alpha   90.00000000
_cell_angle_beta   90.00000000
_cell_angle_gamma   90.00000000
_symmetry_Int_Tables_number   1
_chemical_formula_structural   Dy2YMn(Co4P3)2
_chemical_formula_sum   'Dy4 Y2 Mn2 Co16 P12'
_cell_volume   474.91262146
_cell_formula_units_Z   2
loop_
 _symmetry_equiv_pos_site_id
 _symmetry_equiv_pos_as_xyz
  1  'x, y, z'
loop_
 _atom_site_type_symbol
 _atom_site_label
 _atom_site_symmetry_multiplicity
 _atom_site_fract_x
 _atom_site_fract_y
 _atom_site_fract_z
 _atom_site_occupancy
  Dy  Dy0  1  0.500000  0.817982  0.205176  1
  Dy  Dy1  1  0.500000  0.182018  0.205176  1
  Dy  Dy2  1  0.000000  0.682018  0.794824  1
  Dy  Dy3  1  0.000000  0.317982  0.794824  1
  Y  Y4  1  0.000000  0.500000  0.522778  1
  Y  Y5  1  0.500000  0.000000  0.477222  1
  Mn  Mn6  1  0.500000  0.500000  0.158904  1
  Mn  Mn7  1  0.000000  0.000000  0.841096  1
  Co  Co8  1  0.500000  0.500000  0.702927  1
  Co  Co9  1  0.000000  0.000000  0.297073  1
  Co  Co10  1  0.000000  0.500000  0.986104  1
  Co  Co11  1  0.500000  0.000000  0.013896  1
  Co  Co12  1  0.500000  0.333191  0.993933  1
  Co  Co13  1  0.500000  0.666809  0.993933  1
  Co  Co14  1  0.000000  0.166809  0.006067  1
  Co  Co15  1  0.000000  0.833191  0.006067  1
  Co  Co16  1  0.500000  0.296554  0.430420  1
  Co  Co17  1  0.500000  0.703446  0.430420  1
  Co  Co18  1  0.000000  0.203446  0.569580  1
  Co  Co19  1  0.000000  0.796554  0.569580  1
  Co  Co20  1  0.500000  0.879592  0.709305  1
  Co  Co21  1  0.500000  0.120408  0.709305  1
  Co  Co22  1  0.000000  0.620408  0.290695  1
  Co  Co23  1  0.000000  0.379592  0.290695  1
  P  P24  1  0.500000  0.500000  0.882662  1
  P  P25  1  0.000000  0.000000  0.117338  1
  P  P26  1  0.500000  0.500000  0.344939  1
  P  P27  1  0.000000  0.000000  0.655061  1
  P  P28  1  0.500000  0.310865  0.616160  1
  P  P29  1  0.500000  0.689135  0.616160  1
  P  P30  1  0.000000  0.189135  0.383840  1
  P  P31  1  0.000000  0.810865  0.383840  1
  P  P32  1  0.500000  0.847426  0.893070  1
  P  P33  1  0.500000  0.152574  0.893070  1
  P  P34  1  0.000000  0.652574  0.106930  1
  P  P35  1  0.000000  0.347426  0.106930  1
