# generated using pymatgen
data_Na2V3Si7Pt9
_symmetry_space_group_name_H-M   'P 1'
_cell_length_a   9.86527800
_cell_length_b   9.86527905
_cell_length_c   3.88392900
_cell_angle_alpha   90.00000000
_cell_angle_beta   90.00000000
_cell_angle_gamma   120.00000318
_symmetry_Int_Tables_number   1
_chemical_formula_structural   Na2V3Si7Pt9
_chemical_formula_sum   'Na2 V3 Si7 Pt9'
_cell_volume   327.35622382
_cell_formula_units_Z   1
loop_
 _symmetry_equiv_pos_site_id
 _symmetry_equiv_pos_as_xyz
  1  'x, y, z'
loop_
 _atom_site_type_symbol
 _atom_site_label
 _atom_site_symmetry_multiplicity
 _atom_site_fract_x
 _atom_site_fract_y
 _atom_site_fract_z
 _atom_site_occupancy
  Na  Na0  1  0.000000  0.000000  0.000000  1
  Na  Na1  1  0.333333  0.666667  0.500000  1
  V  V2  1  0.878732  0.455410  0.500000  1
  V  V3  1  0.576679  0.121268  0.500000  1
  V  V4  1  0.544590  0.423321  0.500000  1
  Si  Si5  1  0.255617  0.211297  0.500000  1
  Si  Si6  1  0.788703  0.044322  0.500000  1
  Si  Si7  1  0.955678  0.744383  0.500000  1
  Si  Si8  1  0.545491  0.630945  0.000000  1
  Si  Si9  1  0.369055  0.914547  0.000000  1
  Si  Si10  1  0.085453  0.454509  0.000000  1
  Si  Si11  1  0.666667  0.333333  0.000000  1
  Pt  Pt12  1  0.228879  0.943745  0.500000  1
  Pt  Pt13  1  0.056255  0.285135  0.500000  1
  Pt  Pt14  1  0.714865  0.771121  0.500000  1
  Pt  Pt15  1  0.300628  0.398454  0.000000  1
  Pt  Pt16  1  0.601546  0.902174  0.000000  1
  Pt  Pt17  1  0.097826  0.699372  0.000000  1
  Pt  Pt18  1  0.394115  0.173410  0.000000  1
  Pt  Pt19  1  0.826590  0.220706  0.000000  1
  Pt  Pt20  1  0.779294  0.605885  0.000000  1
