# generated using pymatgen
data_Ti3VP2
_symmetry_space_group_name_H-M   'P 1'
_cell_length_a   3.37215100
_cell_length_b   6.43041000
_cell_length_c   7.85700200
_cell_angle_alpha   90.00000000
_cell_angle_beta   90.00000000
_cell_angle_gamma   90.00000000
_symmetry_Int_Tables_number   1
_chemical_formula_structural   Ti3VP2
_chemical_formula_sum   'Ti6 V2 P4'
_cell_volume   170.37369463
_cell_formula_units_Z   2
loop_
 _symmetry_equiv_pos_site_id
 _symmetry_equiv_pos_as_xyz
  1  'x, y, z'
loop_
 _atom_site_type_symbol
 _atom_site_label
 _atom_site_symmetry_multiplicity
 _atom_site_fract_x
 _atom_site_fract_y
 _atom_site_fract_z
 _atom_site_occupancy
  Ti  Ti0  1  0.250000  0.041656  0.833488  1
  Ti  Ti1  1  0.250000  0.541656  0.666512  1
  Ti  Ti2  1  0.750000  0.963395  0.169625  1
  Ti  Ti3  1  0.750000  0.463395  0.330375  1
  Ti  Ti4  1  0.250000  0.135964  0.439423  1
  Ti  Ti5  1  0.250000  0.635964  0.060577  1
  V  V6  1  0.750000  0.861851  0.561491  1
  V  V7  1  0.750000  0.361851  0.938509  1
  P  P8  1  0.250000  0.754784  0.364590  1
  P  P9  1  0.250000  0.254784  0.135410  1
  P  P10  1  0.750000  0.242349  0.645571  1
  P  P11  1  0.750000  0.742349  0.854429  1
