# generated using pymatgen
data_ErSc2(Ni3P2)3
_symmetry_space_group_name_H-M   'P 1'
_cell_length_a   3.69354100
_cell_length_b   10.39061500
_cell_length_c   12.17185100
_cell_angle_alpha   90.00000000
_cell_angle_beta   90.00000000
_cell_angle_gamma   90.00000000
_symmetry_Int_Tables_number   1
_chemical_formula_structural   ErSc2(Ni3P2)3
_chemical_formula_sum   'Er2 Sc4 Ni18 P12'
_cell_volume   467.13327582
_cell_formula_units_Z   2
loop_
 _symmetry_equiv_pos_site_id
 _symmetry_equiv_pos_as_xyz
  1  'x, y, z'
loop_
 _atom_site_type_symbol
 _atom_site_label
 _atom_site_symmetry_multiplicity
 _atom_site_fract_x
 _atom_site_fract_y
 _atom_site_fract_z
 _atom_site_occupancy
  Er  Er0  1  0.000000  0.500000  0.524292  1
  Er  Er1  1  0.500000  0.000000  0.475708  1
  Sc  Sc2  1  0.500000  0.819015  0.205145  1
  Sc  Sc3  1  0.500000  0.180985  0.205145  1
  Sc  Sc4  1  0.000000  0.680985  0.794855  1
  Sc  Sc5  1  0.000000  0.319015  0.794855  1
  Ni  Ni6  1  0.500000  0.500000  0.159379  1
  Ni  Ni7  1  0.000000  0.000000  0.840621  1
  Ni  Ni8  1  0.500000  0.500000  0.703026  1
  Ni  Ni9  1  0.000000  0.000000  0.296974  1
  Ni  Ni10  1  0.000000  0.500000  0.986039  1
  Ni  Ni11  1  0.500000  0.000000  0.013961  1
  Ni  Ni12  1  0.500000  0.332387  0.995794  1
  Ni  Ni13  1  0.500000  0.667613  0.995794  1
  Ni  Ni14  1  0.000000  0.167613  0.004206  1
  Ni  Ni15  1  0.000000  0.832387  0.004206  1
  Ni  Ni16  1  0.500000  0.299793  0.430073  1
  Ni  Ni17  1  0.500000  0.700207  0.430073  1
  Ni  Ni18  1  0.000000  0.200207  0.569927  1
  Ni  Ni19  1  0.000000  0.799793  0.569927  1
  Ni  Ni20  1  0.500000  0.876675  0.711009  1
  Ni  Ni21  1  0.500000  0.123325  0.711009  1
  Ni  Ni22  1  0.000000  0.623325  0.288991  1
  Ni  Ni23  1  0.000000  0.376675  0.288991  1
  P  P24  1  0.500000  0.500000  0.876948  1
  P  P25  1  0.000000  0.000000  0.123052  1
  P  P26  1  0.500000  0.500000  0.346372  1
  P  P27  1  0.000000  0.000000  0.653628  1
  P  P28  1  0.500000  0.314845  0.618356  1
  P  P29  1  0.500000  0.685155  0.618356  1
  P  P30  1  0.000000  0.185155  0.381644  1
  P  P31  1  0.000000  0.814845  0.381644  1
  P  P32  1  0.500000  0.843894  0.889565  1
  P  P33  1  0.500000  0.156106  0.889565  1
  P  P34  1  0.000000  0.656106  0.110435  1
  P  P35  1  0.000000  0.343894  0.110435  1
