# generated using pymatgen
data_Y2Tm3U(Co3P2)6
_symmetry_space_group_name_H-M   'P 1'
_cell_length_a   3.67733500
_cell_length_b   10.48945701
_cell_length_c   12.08127901
_cell_angle_alpha   89.99589573
_cell_angle_beta   90.00000000
_cell_angle_gamma   90.00000000
_symmetry_Int_Tables_number   1
_chemical_formula_structural   Y2Tm3U(Co3P2)6
_chemical_formula_sum   'Y2 Tm3 U1 Co18 P12'
_cell_volume   466.01416266
_cell_formula_units_Z   1
loop_
 _symmetry_equiv_pos_site_id
 _symmetry_equiv_pos_as_xyz
  1  'x, y, z'
loop_
 _atom_site_type_symbol
 _atom_site_label
 _atom_site_symmetry_multiplicity
 _atom_site_fract_x
 _atom_site_fract_y
 _atom_site_fract_z
 _atom_site_occupancy
  Y  Y0  1  0.500000  0.000136  0.476662  1
  Y  Y1  1  0.000000  0.683434  0.794714  1
  Tm  Tm2  1  0.500000  0.816523  0.205805  1
  Tm  Tm3  1  0.500000  0.183614  0.206279  1
  Tm  Tm4  1  0.000000  0.316277  0.794810  1
  U  U5  1  0.000000  0.499483  0.529271  1
  Co  Co6  1  0.500000  0.499672  0.159198  1
  Co  Co7  1  0.000000  0.000331  0.841571  1
  Co  Co8  1  0.500000  0.499057  0.693358  1
  Co  Co9  1  0.000000  0.000176  0.295894  1
  Co  Co10  1  0.000000  0.499348  0.986086  1
  Co  Co11  1  0.500000  0.000599  0.014994  1
  Co  Co12  1  0.500000  0.333454  0.993883  1
  Co  Co13  1  0.500000  0.665971  0.994344  1
  Co  Co14  1  0.000000  0.166986  0.005877  1
  Co  Co15  1  0.000000  0.833665  0.006383  1
  Co  Co16  1  0.500000  0.300203  0.431428  1
  Co  Co17  1  0.500000  0.699877  0.430566  1
  Co  Co18  1  0.000000  0.201772  0.569111  1
  Co  Co19  1  0.000000  0.798312  0.568113  1
  Co  Co20  1  0.500000  0.880069  0.710389  1
  Co  Co21  1  0.500000  0.121150  0.711334  1
  Co  Co22  1  0.000000  0.620373  0.290830  1
  Co  Co23  1  0.000000  0.379571  0.291255  1
  P  P24  1  0.500000  0.498789  0.878862  1
  P  P25  1  0.000000  0.000338  0.118689  1
  P  P26  1  0.500000  0.500064  0.346574  1
  P  P27  1  0.000000  0.999966  0.655720  1
  P  P28  1  0.500000  0.306281  0.616320  1
  P  P29  1  0.500000  0.693300  0.614829  1
  P  P30  1  0.000000  0.188868  0.382527  1
  P  P31  1  0.000000  0.811259  0.381924  1
  P  P32  1  0.500000  0.847890  0.894070  1
  P  P33  1  0.500000  0.153420  0.893474  1
  P  P34  1  0.000000  0.652949  0.107201  1
  P  P35  1  0.000000  0.346823  0.107656  1
