# generated using pymatgen
data_La2NdHg3Pd2Rh
_symmetry_space_group_name_H-M   'P 1'
_cell_length_a   7.85403190
_cell_length_b   7.83558768
_cell_length_c   4.02989600
_cell_angle_alpha   90.00000000
_cell_angle_beta   90.00000000
_cell_angle_gamma   120.43458700
_symmetry_Int_Tables_number   1
_chemical_formula_structural   La2NdHg3Pd2Rh
_chemical_formula_sum   'La2 Nd1 Hg3 Pd2 Rh1'
_cell_volume   213.83074191
_cell_formula_units_Z   1
loop_
 _symmetry_equiv_pos_site_id
 _symmetry_equiv_pos_as_xyz
  1  'x, y, z'
loop_
 _atom_site_type_symbol
 _atom_site_label
 _atom_site_symmetry_multiplicity
 _atom_site_fract_x
 _atom_site_fract_y
 _atom_site_fract_z
 _atom_site_occupancy
  La  La0  1  0.601210  0.012747  0.500000  1
  La  La1  1  0.987478  0.588790  0.500000  1
  Nd  Nd2  1  0.407569  0.397121  0.500000  1
  Hg  Hg3  1  0.736853  0.739061  0.000000  1
  Hg  Hg4  1  0.258418  0.001103  0.000000  1
  Hg  Hg5  1  0.004824  0.260738  0.000000  1
  Pd  Pd6  1  0.334051  0.667571  0.000000  1
  Pd  Pd7  1  0.999862  0.999831  0.500000  1
  Rh  Rh8  1  0.669735  0.333038  0.000000  1
