# generated using pymatgen
data_Hf8Ta11Si16Ru
_symmetry_space_group_name_H-M   'P 1'
_cell_length_a   6.62333703
_cell_length_b   6.81575648
_cell_length_c   13.05492200
_cell_angle_alpha   90.00000000
_cell_angle_beta   90.00000000
_cell_angle_gamma   90.54053803
_symmetry_Int_Tables_number   1
_chemical_formula_structural   Hf8Ta11Si16Ru
_chemical_formula_sum   'Hf8 Ta11 Si16 Ru1'
_cell_volume   589.31279963
_cell_formula_units_Z   1
loop_
 _symmetry_equiv_pos_site_id
 _symmetry_equiv_pos_as_xyz
  1  'x, y, z'
loop_
 _atom_site_type_symbol
 _atom_site_label
 _atom_site_symmetry_multiplicity
 _atom_site_fract_x
 _atom_site_fract_y
 _atom_site_fract_z
 _atom_site_occupancy
  Hf  Hf0  1  0.490092  0.674116  0.590259  1
  Hf  Hf1  1  0.997516  0.829542  0.911094  1
  Hf  Hf2  1  0.504688  0.329064  0.092140  1
  Hf  Hf3  1  0.006347  0.173536  0.405407  1
  Hf  Hf4  1  0.504688  0.329064  0.407860  1
  Hf  Hf5  1  0.006347  0.173536  0.094593  1
  Hf  Hf6  1  0.490092  0.674116  0.909741  1
  Hf  Hf7  1  0.997516  0.829542  0.588906  1
  Ta  Ta8  1  0.666874  0.167170  0.626636  1
  Ta  Ta9  1  0.163195  0.326462  0.874086  1
  Ta  Ta10  1  0.335918  0.828378  0.123800  1
  Ta  Ta11  1  0.837177  0.670197  0.378465  1
  Ta  Ta12  1  0.335918  0.828378  0.376200  1
  Ta  Ta13  1  0.837177  0.670197  0.121535  1
  Ta  Ta14  1  0.666874  0.167170  0.873364  1
  Ta  Ta15  1  0.163195  0.326462  0.625914  1
  Ta  Ta16  1  0.340178  0.997510  0.750000  1
  Ta  Ta17  1  0.163529  0.503086  0.250000  1
  Ta  Ta18  1  0.662734  0.996816  0.250000  1
  Si  Si19  1  0.672189  0.965359  0.461289  1
  Si  Si20  1  0.170314  0.534779  0.037251  1
  Si  Si21  1  0.330789  0.037571  0.961414  1
  Si  Si22  1  0.828194  0.464066  0.542852  1
  Si  Si23  1  0.330789  0.037571  0.538586  1
  Si  Si24  1  0.828194  0.464066  0.957148  1
  Si  Si25  1  0.672189  0.965359  0.038711  1
  Si  Si26  1  0.170314  0.534779  0.462749  1
  Si  Si27  1  0.470256  0.393303  0.750000  1
  Si  Si28  1  0.963643  0.103886  0.750000  1
  Si  Si29  1  0.539590  0.612270  0.250000  1
  Si  Si30  1  0.037153  0.887458  0.250000  1
  Si  Si31  1  0.704283  0.848604  0.750000  1
  Si  Si32  1  0.190866  0.636781  0.750000  1
  Si  Si33  1  0.298680  0.141637  0.250000  1
  Si  Si34  1  0.795822  0.360221  0.250000  1
  Ru  Ru35  1  0.826677  0.517944  0.750000  1
