# generated using pymatgen
data_YbDy5HoCo6Sn23
_symmetry_space_group_name_H-M   'P 1'
_cell_length_a   9.72653701
_cell_length_b   9.72667167
_cell_length_c   9.96197801
_cell_angle_alpha   89.99942107
_cell_angle_beta   90.00472601
_cell_angle_gamma   119.99838903
_symmetry_Int_Tables_number   1
_chemical_formula_structural   YbDy5HoCo6Sn23
_chemical_formula_sum   'Yb1 Dy5 Ho1 Co6 Sn23'
_cell_volume   816.21723010
_cell_formula_units_Z   1
loop_
 _symmetry_equiv_pos_site_id
 _symmetry_equiv_pos_as_xyz
  1  'x, y, z'
loop_
 _atom_site_type_symbol
 _atom_site_label
 _atom_site_symmetry_multiplicity
 _atom_site_fract_x
 _atom_site_fract_y
 _atom_site_fract_z
 _atom_site_occupancy
  Yb  Yb0  1  0.999998  0.000004  0.000006  1
  Dy  Dy1  1  0.520998  0.478977  0.693571  1
  Dy  Dy2  1  0.521010  0.042012  0.693608  1
  Dy  Dy3  1  0.958000  0.478984  0.693614  1
  Dy  Dy4  1  0.041988  0.520996  0.306368  1
  Dy  Dy5  1  0.479011  0.958000  0.306372  1
  Ho  Ho6  1  0.479042  0.520975  0.306392  1
  Co  Co7  1  0.168393  0.831601  0.801646  1
  Co  Co8  1  0.168394  0.336785  0.801647  1
  Co  Co9  1  0.663219  0.831605  0.801648  1
  Co  Co10  1  0.336810  0.168468  0.198372  1
  Co  Co11  1  0.831533  0.663189  0.198372  1
  Co  Co12  1  0.831612  0.168394  0.198352  1
  Sn  Sn13  1  0.666672  0.333358  0.183155  1
  Sn  Sn14  1  0.666664  0.333339  0.881329  1
  Sn  Sn15  1  0.333396  0.666602  0.118771  1
  Sn  Sn16  1  0.345799  0.345800  0.000021  1
  Sn  Sn17  1  0.999964  0.654197  0.000038  1
  Sn  Sn18  1  0.654246  0.000045  0.000057  1
  Sn  Sn19  1  0.654217  0.654183  0.000068  1
  Sn  Sn20  1  0.333318  0.666646  0.816853  1
  Sn  Sn21  1  0.437160  0.218681  0.451959  1
  Sn  Sn22  1  0.218572  0.781428  0.547990  1
  Sn  Sn23  1  0.218625  0.437154  0.547952  1
  Sn  Sn24  1  0.562839  0.781371  0.547922  1
  Sn  Sn25  1  0.117280  0.882675  0.273575  1
  Sn  Sn26  1  0.781323  0.562847  0.451936  1
  Sn  Sn27  1  0.781434  0.218568  0.451954  1
  Sn  Sn28  1  0.345795  0.000020  0.000017  1
  Sn  Sn29  1  0.117330  0.234628  0.273584  1
  Sn  Sn30  1  0.765367  0.882645  0.273578  1
  Sn  Sn31  1  0.234578  0.117310  0.726424  1
  Sn  Sn32  1  0.882718  0.765422  0.726417  1
  Sn  Sn33  1  0.882725  0.117329  0.726424  1
  Sn  Sn34  1  0.999997  0.000003  0.499978  1
  Sn  Sn35  1  0.999974  0.345762  0.000031  1
