# generated using pymatgen
data_YHoTh2(Ga3Ir)6
_symmetry_space_group_name_H-M   'P 1'
_cell_length_a   7.65916503
_cell_length_b   7.66607572
_cell_length_c   9.49745800
_cell_angle_alpha   90.00000000
_cell_angle_beta   90.00000000
_cell_angle_gamma   119.82402456
_symmetry_Int_Tables_number   1
_chemical_formula_structural   YHoTh2(Ga3Ir)6
_chemical_formula_sum   'Y1 Ho1 Th2 Ga18 Ir6'
_cell_volume   483.79338724
_cell_formula_units_Z   1
loop_
 _symmetry_equiv_pos_site_id
 _symmetry_equiv_pos_as_xyz
  1  'x, y, z'
loop_
 _atom_site_type_symbol
 _atom_site_label
 _atom_site_symmetry_multiplicity
 _atom_site_fract_x
 _atom_site_fract_y
 _atom_site_fract_z
 _atom_site_occupancy
  Y  Y0  1  0.668172  0.996216  0.250000  1
  Ho  Ho1  1  0.331796  0.003750  0.750000  1
  Th  Th2  1  0.996438  0.668659  0.250000  1
  Th  Th3  1  0.003576  0.331338  0.750000  1
  Ga  Ga4  1  0.128594  0.129878  0.250000  1
  Ga  Ga5  1  0.871598  0.870161  0.750000  1
  Ga  Ga6  1  0.998848  0.329395  0.081585  1
  Ga  Ga7  1  0.001379  0.670825  0.918243  1
  Ga  Ga8  1  0.001379  0.670825  0.581757  1
  Ga  Ga9  1  0.339251  0.003158  0.422148  1
  Ga  Ga10  1  0.998848  0.329395  0.418415  1
  Ga  Ga11  1  0.660523  0.996843  0.578192  1
  Ga  Ga12  1  0.660523  0.996843  0.921808  1
  Ga  Ga13  1  0.339251  0.003158  0.077852  1
  Ga  Ga14  1  0.335994  0.331496  0.564127  1
  Ga  Ga15  1  0.663995  0.668303  0.436062  1
  Ga  Ga16  1  0.663995  0.668303  0.063938  1
  Ga  Ga17  1  0.335994  0.331496  0.935873  1
  Ga  Ga18  1  0.341625  0.546045  0.250000  1
  Ga  Ga19  1  0.658162  0.453716  0.750000  1
  Ga  Ga20  1  0.542119  0.335978  0.250000  1
  Ga  Ga21  1  0.457847  0.664143  0.750000  1
  Ir  Ir22  1  0.674159  0.330765  0.999912  1
  Ir  Ir23  1  0.325764  0.669256  0.999927  1
  Ir  Ir24  1  0.325764  0.669256  0.500073  1
  Ir  Ir25  1  0.674159  0.330765  0.500088  1
  Ir  Ir26  1  0.000124  0.000018  0.999907  1
  Ir  Ir27  1  0.000124  0.000018  0.500093  1
