# generated using pymatgen
data_Be6Nb3Si2Tc
_symmetry_space_group_name_H-M   'P 1'
_cell_length_a   4.61091200
_cell_length_b   4.61091343
_cell_length_c   7.74505400
_cell_angle_alpha   90.00000000
_cell_angle_beta   90.00000000
_cell_angle_gamma   120.00000409
_symmetry_Int_Tables_number   1
_chemical_formula_structural   Be6Nb3Si2Tc
_chemical_formula_sum   'Be6 Nb3 Si2 Tc1'
_cell_volume   142.60306696
_cell_formula_units_Z   1
loop_
 _symmetry_equiv_pos_site_id
 _symmetry_equiv_pos_as_xyz
  1  'x, y, z'
loop_
 _atom_site_type_symbol
 _atom_site_label
 _atom_site_symmetry_multiplicity
 _atom_site_fract_x
 _atom_site_fract_y
 _atom_site_fract_z
 _atom_site_occupancy
  Be  Be0  1  0.826503  0.653006  0.247344  1
  Be  Be1  1  0.172710  0.827290  0.752888  1
  Be  Be2  1  0.654579  0.827290  0.752888  1
  Be  Be3  1  0.346994  0.173497  0.247344  1
  Be  Be4  1  0.826503  0.173497  0.247344  1
  Be  Be5  1  0.172710  0.345421  0.752888  1
  Nb  Nb6  1  0.666667  0.333333  0.563615  1
  Nb  Nb7  1  0.666667  0.333333  0.940518  1
  Nb  Nb8  1  0.333333  0.666667  0.433373  1
  Si  Si9  1  0.000000  0.000000  0.000944  1
  Si  Si10  1  0.000000  0.000000  0.495605  1
  Tc  Tc11  1  0.333333  0.666667  0.065249  1
