# generated using pymatgen
data_Er4Lu6Zn3Bi2Au
_symmetry_space_group_name_H-M   'P 1'
_cell_length_a   8.56044355
_cell_length_b   8.55664757
_cell_length_c   8.55743560
_cell_angle_alpha   124.18853377
_cell_angle_beta   124.20199471
_cell_angle_gamma   82.88368457
_symmetry_Int_Tables_number   1
_chemical_formula_structural   Er4Lu6Zn3Bi2Au
_chemical_formula_sum   'Er4 Lu6 Zn3 Bi2 Au1'
_cell_volume   411.60297825
_cell_formula_units_Z   1
loop_
 _symmetry_equiv_pos_site_id
 _symmetry_equiv_pos_as_xyz
  1  'x, y, z'
loop_
 _atom_site_type_symbol
 _atom_site_label
 _atom_site_symmetry_multiplicity
 _atom_site_fract_x
 _atom_site_fract_y
 _atom_site_fract_z
 _atom_site_occupancy
  Er  Er0  1  0.489128  0.990301  0.194027  1
  Er  Er1  1  0.795103  0.296276  0.805973  1
  Er  Er2  1  0.989018  0.795177  0.500000  1
  Er  Er3  1  0.295699  0.488849  0.500000  1
  Lu  Lu4  1  0.498877  0.498603  0.998844  1
  Lu  Lu5  1  0.000033  0.999759  0.001156  1
  Lu  Lu6  1  0.510082  0.011581  0.804352  1
  Lu  Lu7  1  0.205728  0.707227  0.195648  1
  Lu  Lu8  1  0.012034  0.206108  0.500000  1
  Lu  Lu9  1  0.706746  0.511385  0.500000  1
  Zn  Zn10  1  0.137079  0.638822  0.777609  1
  Zn  Zn11  1  0.859470  0.361213  0.222391  1
  Zn  Zn12  1  0.639255  0.859119  0.500000  1
  Bi  Bi13  1  0.249388  0.250780  0.000071  1
  Bi  Bi14  1  0.749317  0.750710  0.999929  1
  Au  Au15  1  0.363043  0.134089  0.500000  1
