# generated using pymatgen
data_Sr6Sn8BiAs
_symmetry_space_group_name_H-M   'P 1'
_cell_length_a   8.98445198
_cell_length_b   8.98445231
_cell_length_c   8.98445274
_cell_angle_alpha   120.17077592
_cell_angle_beta   120.17078123
_cell_angle_gamma   89.70445937
_symmetry_Int_Tables_number   1
_chemical_formula_structural   Sr6Sn8BiAs
_chemical_formula_sum   'Sr6 Sn8 Bi1 As1'
_cell_volume   511.48282764
_cell_formula_units_Z   1
loop_
 _symmetry_equiv_pos_site_id
 _symmetry_equiv_pos_as_xyz
  1  'x, y, z'
loop_
 _atom_site_type_symbol
 _atom_site_label
 _atom_site_symmetry_multiplicity
 _atom_site_fract_x
 _atom_site_fract_y
 _atom_site_fract_z
 _atom_site_occupancy
  Sr  Sr0  1  0.237638  0.237638  0.000000  1
  Sr  Sr1  1  0.762362  0.762362  0.000000  1
  Sr  Sr2  1  0.153286  0.677968  0.831256  1
  Sr  Sr3  1  0.846714  0.322032  0.168744  1
  Sr  Sr4  1  0.677968  0.846714  0.524682  1
  Sr  Sr5  1  0.322032  0.153286  0.475318  1
  Sn  Sn6  1  0.828398  0.334368  0.785997  1
  Sn  Sn7  1  0.171602  0.665632  0.214003  1
  Sn  Sn8  1  0.548371  0.042402  0.214003  1
  Sn  Sn9  1  0.334368  0.548371  0.505970  1
  Sn  Sn10  1  0.957598  0.171602  0.505970  1
  Sn  Sn11  1  0.451629  0.957598  0.785997  1
  Sn  Sn12  1  0.665632  0.451629  0.494030  1
  Sn  Sn13  1  0.042402  0.828398  0.494030  1
  Bi  Bi14  1  0.500000  0.500000  0.000000  1
  As  As15  1  0.000000  0.000000  0.000000  1
