# generated using pymatgen
data_Dy3HoTm4(CdIr)2
_symmetry_space_group_name_H-M   'P 1'
_cell_length_a   9.57248921
_cell_length_b   9.57248989
_cell_length_c   9.57724500
_cell_angle_alpha   59.98356290
_cell_angle_beta   59.98356058
_cell_angle_gamma   59.96763183
_symmetry_Int_Tables_number   1
_chemical_formula_structural   Dy3HoTm4(CdIr)2
_chemical_formula_sum   'Dy6 Ho2 Tm8 Cd4 Ir4'
_cell_volume   620.24197263
_cell_formula_units_Z   2
loop_
 _symmetry_equiv_pos_site_id
 _symmetry_equiv_pos_as_xyz
  1  'x, y, z'
loop_
 _atom_site_type_symbol
 _atom_site_label
 _atom_site_symmetry_multiplicity
 _atom_site_fract_x
 _atom_site_fract_y
 _atom_site_fract_z
 _atom_site_occupancy
  Dy  Dy0  1  0.188860  0.811425  0.811222  1
  Dy  Dy1  1  0.811425  0.188860  0.188494  1
  Dy  Dy2  1  0.811425  0.188860  0.811222  1
  Dy  Dy3  1  0.188860  0.811425  0.188494  1
  Dy  Dy4  1  0.811588  0.811588  0.188412  1
  Dy  Dy5  1  0.188939  0.188939  0.811061  1
  Ho  Ho6  1  0.599248  0.599248  0.598818  1
  Ho  Ho7  1  0.599248  0.599248  0.202686  1
  Tm  Tm8  1  0.599255  0.203097  0.598824  1
  Tm  Tm9  1  0.203097  0.599255  0.598824  1
  Tm  Tm10  1  0.061371  0.437913  0.438828  1
  Tm  Tm11  1  0.437913  0.061371  0.061887  1
  Tm  Tm12  1  0.437913  0.061371  0.438828  1
  Tm  Tm13  1  0.061371  0.437913  0.061887  1
  Tm  Tm14  1  0.438251  0.438251  0.061749  1
  Tm  Tm15  1  0.061508  0.061508  0.438492  1
  Cd  Cd16  1  0.830559  0.830559  0.830374  1
  Cd  Cd17  1  0.830559  0.830559  0.508508  1
  Cd  Cd18  1  0.830808  0.507942  0.830625  1
  Cd  Cd19  1  0.507942  0.830808  0.830625  1
  Ir  Ir20  1  0.391532  0.391532  0.392070  1
  Ir  Ir21  1  0.391532  0.391532  0.824867  1
  Ir  Ir22  1  0.391105  0.825693  0.391602  1
  Ir  Ir23  1  0.825693  0.391105  0.391602  1
