# generated using pymatgen
data_Rb8Li4ErLu3As8
_symmetry_space_group_name_H-M   'P 1'
_cell_length_a   10.55067683
_cell_length_b   10.55067715
_cell_length_c   6.78707421
_cell_angle_alpha   90.02153041
_cell_angle_beta   89.97847614
_cell_angle_gamma   99.91359359
_symmetry_Int_Tables_number   1
_chemical_formula_structural   Rb8Li4ErLu3As8
_chemical_formula_sum   'Rb8 Li4 Er1 Lu3 As8'
_cell_volume   744.23422013
_cell_formula_units_Z   1
loop_
 _symmetry_equiv_pos_site_id
 _symmetry_equiv_pos_as_xyz
  1  'x, y, z'
loop_
 _atom_site_type_symbol
 _atom_site_label
 _atom_site_symmetry_multiplicity
 _atom_site_fract_x
 _atom_site_fract_y
 _atom_site_fract_z
 _atom_site_occupancy
  Rb  Rb0  1  0.568278  0.932024  0.750227  1
  Rb  Rb1  1  0.932024  0.568278  0.249773  1
  Rb  Rb2  1  0.431911  0.067516  0.249820  1
  Rb  Rb3  1  0.067516  0.431911  0.750180  1
  Rb  Rb4  1  0.678455  0.322076  0.788637  1
  Rb  Rb5  1  0.822049  0.177817  0.288640  1
  Rb  Rb6  1  0.322076  0.678455  0.211363  1
  Rb  Rb7  1  0.177817  0.822049  0.711360  1
  Li  Li8  1  0.619399  0.619399  0.000000  1
  Li  Li9  1  0.881014  0.881014  0.500000  1
  Li  Li10  1  0.381047  0.381047  0.000000  1
  Li  Li11  1  0.118270  0.118270  0.500000  1
  Er  Er12  1  0.368187  0.368187  0.500000  1
  Lu  Lu13  1  0.868812  0.868812  0.000000  1
  Lu  Lu14  1  0.631921  0.631921  0.500000  1
  Lu  Lu15  1  0.130536  0.130536  0.000000  1
  As  As16  1  0.340893  0.156764  0.752621  1
  As  As17  1  0.156764  0.340893  0.247379  1
  As  As18  1  0.659438  0.840956  0.250084  1
  As  As19  1  0.840956  0.659438  0.749916  1
  As  As20  1  0.910311  0.089372  0.768296  1
  As  As21  1  0.591665  0.411291  0.267036  1
  As  As22  1  0.089372  0.910311  0.231704  1
  As  As23  1  0.411291  0.591665  0.732964  1
