# generated using pymatgen
data_La4PrAl2Os3
_symmetry_space_group_name_H-M   'P 1'
_cell_length_a   8.66949385
_cell_length_b   8.66949299
_cell_length_c   8.66768468
_cell_angle_alpha   109.50079644
_cell_angle_beta   109.45417477
_cell_angle_gamma   109.46715434
_symmetry_Int_Tables_number   1
_chemical_formula_structural   La4PrAl2Os3
_chemical_formula_sum   'La8 Pr2 Al4 Os6'
_cell_volume   501.44490946
_cell_formula_units_Z   2
loop_
 _symmetry_equiv_pos_site_id
 _symmetry_equiv_pos_as_xyz
  1  'x, y, z'
loop_
 _atom_site_type_symbol
 _atom_site_label
 _atom_site_symmetry_multiplicity
 _atom_site_fract_x
 _atom_site_fract_y
 _atom_site_fract_z
 _atom_site_occupancy
  La  La0  1  0.248157  0.686229  0.437390  1
  La  La1  1  0.748839  0.810767  0.062610  1
  La  La2  1  0.436194  0.250786  0.689260  1
  La  La3  1  0.687716  0.437716  0.250000  1
  La  La4  1  0.061526  0.746934  0.810740  1
  La  La5  1  0.811767  0.061767  0.750000  1
  La  La6  1  0.212168  0.210793  0.210392  1
  La  La7  1  0.500401  0.001776  0.289608  1
  Pr  Pr8  1  0.284789  0.500977  0.000886  1
  Pr  Pr9  1  0.000091  0.283902  0.499114  1
  Al  Al10  1  0.586682  0.587345  0.586646  1
  Al  Al11  1  0.500698  0.000035  0.913354  1
  Al  Al12  1  0.913004  0.499987  0.999374  1
  Al  Al13  1  0.000612  0.913630  0.500626  1
  Os  Os14  1  0.251262  0.115380  0.864854  1
  Os  Os15  1  0.750527  0.386408  0.635146  1
  Os  Os16  1  0.866310  0.249892  0.112574  1
  Os  Os17  1  0.115665  0.865664  0.250000  1
  Os  Os18  1  0.637318  0.753737  0.387426  1
  Os  Os19  1  0.386275  0.636275  0.750000  1
