# generated using pymatgen
data_PrNd2Ho(MoO6)2
_symmetry_space_group_name_H-M   'P 1'
_cell_length_a   10.20243605
_cell_length_b   10.20243572
_cell_length_c   5.52197652
_cell_angle_alpha   75.01012560
_cell_angle_beta   75.01012586
_cell_angle_gamma   68.60097083
_symmetry_Int_Tables_number   1
_chemical_formula_structural   PrNd2Ho(MoO6)2
_chemical_formula_sum   'Pr2 Nd4 Ho2 Mo4 O24'
_cell_volume   508.24936675
_cell_formula_units_Z   2
loop_
 _symmetry_equiv_pos_site_id
 _symmetry_equiv_pos_as_xyz
  1  'x, y, z'
loop_
 _atom_site_type_symbol
 _atom_site_label
 _atom_site_symmetry_multiplicity
 _atom_site_fract_x
 _atom_site_fract_y
 _atom_site_fract_z
 _atom_site_occupancy
  Pr  Pr0  1  0.863190  0.136810  0.250000  1
  Pr  Pr1  1  0.136810  0.863190  0.750000  1
  Nd  Nd2  1  0.447150  0.214117  0.378669  1
  Nd  Nd3  1  0.785883  0.552850  0.121331  1
  Nd  Nd4  1  0.552850  0.785883  0.621331  1
  Nd  Nd5  1  0.214117  0.447150  0.878669  1
  Ho  Ho6  1  0.398827  0.601173  0.250000  1
  Ho  Ho7  1  0.601173  0.398827  0.750000  1
  Mo  Mo8  1  0.298421  0.007766  0.065557  1
  Mo  Mo9  1  0.992234  0.701579  0.434443  1
  Mo  Mo10  1  0.701579  0.992234  0.934443  1
  Mo  Mo11  1  0.007766  0.298421  0.565557  1
  O  O12  1  0.606393  0.569290  0.924831  1
  O  O13  1  0.430710  0.393607  0.575169  1
  O  O14  1  0.393607  0.430710  0.075169  1
  O  O15  1  0.569290  0.606393  0.424831  1
  O  O16  1  0.339448  0.805059  0.940772  1
  O  O17  1  0.194941  0.660552  0.559228  1
  O  O18  1  0.660552  0.194941  0.059228  1
  O  O19  1  0.805059  0.339448  0.440772  1
  O  O20  1  0.329862  0.889589  0.375476  1
  O  O21  1  0.110411  0.670138  0.124524  1
  O  O22  1  0.670138  0.110411  0.624524  1
  O  O23  1  0.889589  0.329862  0.875476  1
  O  O24  1  0.177893  0.290127  0.632980  1
  O  O25  1  0.709873  0.822107  0.867020  1
  O  O26  1  0.822107  0.709873  0.367020  1
  O  O27  1  0.290127  0.177893  0.132980  1
  O  O28  1  0.044406  0.117484  0.521158  1
  O  O29  1  0.882516  0.955594  0.978842  1
  O  O30  1  0.955594  0.882516  0.478842  1
  O  O31  1  0.117484  0.044406  0.021158  1
  O  O32  1  0.023562  0.427488  0.263575  1
  O  O33  1  0.572512  0.976438  0.236425  1
  O  O34  1  0.976438  0.572512  0.736425  1
  O  O35  1  0.427488  0.023562  0.763575  1
