# generated using pymatgen
data_YEr(OsO4)2
_symmetry_space_group_name_H-M   'P 1'
_cell_length_a   5.36370572
_cell_length_b   7.70022071
_cell_length_c   7.45445291
_cell_angle_alpha   79.66895100
_cell_angle_beta   91.13923893
_cell_angle_gamma   93.84145695
_symmetry_Int_Tables_number   1
_chemical_formula_structural   YEr(OsO4)2
_chemical_formula_sum   'Y2 Er2 Os4 O16'
_cell_volume   302.20010753
_cell_formula_units_Z   2
loop_
 _symmetry_equiv_pos_site_id
 _symmetry_equiv_pos_as_xyz
  1  'x, y, z'
loop_
 _atom_site_type_symbol
 _atom_site_label
 _atom_site_symmetry_multiplicity
 _atom_site_fract_x
 _atom_site_fract_y
 _atom_site_fract_z
 _atom_site_occupancy
  Y  Y0  1  0.197701  0.169837  0.102063  1
  Y  Y1  1  0.802285  0.830203  0.897914  1
  Er  Er2  1  0.263188  0.113755  0.609583  1
  Er  Er3  1  0.736931  0.886346  0.390479  1
  Os  Os4  1  0.247113  0.664981  0.207223  1
  Os  Os5  1  0.752750  0.334966  0.792808  1
  Os  Os6  1  0.716065  0.334854  0.300010  1
  Os  Os7  1  0.284023  0.665232  0.700006  1
  O  O8  1  0.055977  0.466837  0.710436  1
  O  O9  1  0.944171  0.533251  0.289497  1
  O  O10  1  0.611786  0.325829  0.549891  1
  O  O11  1  0.388096  0.674180  0.450101  1
  O  O12  1  0.843289  0.318053  0.054646  1
  O  O13  1  0.156833  0.681952  0.945333  1
  O  O14  1  0.408808  0.442077  0.198414  1
  O  O15  1  0.590981  0.558052  0.801523  1
  O  O16  1  0.050171  0.885808  0.181438  1
  O  O17  1  0.949945  0.114104  0.818559  1
  O  O18  1  0.490802  0.108996  0.324260  1
  O  O19  1  0.509066  0.890877  0.675741  1
  O  O20  1  0.448675  0.194549  0.866247  1
  O  O21  1  0.551143  0.805305  0.133796  1
  O  O22  1  0.976938  0.163013  0.383974  1
  O  O23  1  0.023262  0.836944  0.616058  1
