# generated using pymatgen
data_YNp3Ga12Au
_symmetry_space_group_name_H-M   'P 1'
_cell_length_a   7.50114165
_cell_length_b   7.56668419
_cell_length_c   7.50114104
_cell_angle_alpha   109.64831235
_cell_angle_beta   109.29354485
_cell_angle_gamma   109.64832435
_symmetry_Int_Tables_number   1
_chemical_formula_structural   YNp3Ga12Au
_chemical_formula_sum   'Y1 Np3 Ga12 Au1'
_cell_volume   327.02769577
_cell_formula_units_Z   1
loop_
 _symmetry_equiv_pos_site_id
 _symmetry_equiv_pos_as_xyz
  1  'x, y, z'
loop_
 _atom_site_type_symbol
 _atom_site_label
 _atom_site_symmetry_multiplicity
 _atom_site_fract_x
 _atom_site_fract_y
 _atom_site_fract_z
 _atom_site_occupancy
  Y  Y0  1  0.000000  0.500000  0.000000  1
  Np  Np1  1  0.500000  0.500000  0.500000  1
  Np  Np2  1  0.000000  0.000000  0.500000  1
  Np  Np3  1  0.500000  0.000000  0.000000  1
  Ga  Ga4  1  0.749465  0.500000  0.250535  1
  Ga  Ga5  1  0.501070  0.750535  0.250535  1
  Ga  Ga6  1  0.498930  0.249465  0.749465  1
  Ga  Ga7  1  0.749465  0.249465  0.498930  1
  Ga  Ga8  1  0.250535  0.750535  0.501070  1
  Ga  Ga9  1  0.250535  0.500000  0.749465  1
  Ga  Ga10  1  0.304281  0.003547  0.304281  1
  Ga  Ga11  1  0.000000  0.300734  0.304281  1
  Ga  Ga12  1  0.000000  0.699266  0.695719  1
  Ga  Ga13  1  0.304281  0.300734  0.000000  1
  Ga  Ga14  1  0.695719  0.699266  0.000000  1
  Ga  Ga15  1  0.695719  0.996453  0.695719  1
  Au  Au16  1  0.000000  0.000000  0.000000  1
