# generated using pymatgen
data_Er2ThRh9
_symmetry_space_group_name_H-M   'P 1'
_cell_length_a   5.27168317
_cell_length_b   5.27163846
_cell_length_c   17.61627300
_cell_angle_alpha   90.00000000
_cell_angle_beta   90.00000000
_cell_angle_gamma   120.00122076
_symmetry_Int_Tables_number   1
_chemical_formula_structural   Er2ThRh9
_chemical_formula_sum   'Er4 Th2 Rh18'
_cell_volume   423.96913414
_cell_formula_units_Z   2
loop_
 _symmetry_equiv_pos_site_id
 _symmetry_equiv_pos_as_xyz
  1  'x, y, z'
loop_
 _atom_site_type_symbol
 _atom_site_label
 _atom_site_symmetry_multiplicity
 _atom_site_fract_x
 _atom_site_fract_y
 _atom_site_fract_z
 _atom_site_occupancy
  Er  Er0  1  0.333355  0.666669  0.959530  1
  Er  Er1  1  0.666645  0.333331  0.040470  1
  Er  Er2  1  0.666645  0.333331  0.459530  1
  Er  Er3  1  0.333355  0.666669  0.540470  1
  Th  Th4  1  0.333343  0.666658  0.750000  1
  Th  Th5  1  0.666657  0.333342  0.250000  1
  Rh  Rh6  1  0.167363  0.832552  0.375923  1
  Rh  Rh7  1  0.167346  0.334803  0.375956  1
  Rh  Rh8  1  0.665244  0.832590  0.375903  1
  Rh  Rh9  1  0.832637  0.167448  0.624077  1
  Rh  Rh10  1  0.832654  0.665197  0.624044  1
  Rh  Rh11  1  0.334756  0.167410  0.624097  1
  Rh  Rh12  1  0.832637  0.167448  0.875923  1
  Rh  Rh13  1  0.832654  0.665197  0.875956  1
  Rh  Rh14  1  0.334756  0.167410  0.875903  1
  Rh  Rh15  1  0.167363  0.832552  0.124077  1
  Rh  Rh16  1  0.167346  0.334803  0.124044  1
  Rh  Rh17  1  0.665244  0.832590  0.124097  1
  Rh  Rh18  1  0.333428  0.666765  0.250000  1
  Rh  Rh19  1  0.666572  0.333235  0.750000  1
  Rh  Rh20  1  0.999874  0.999817  0.250000  1
  Rh  Rh21  1  0.000126  0.000183  0.750000  1
  Rh  Rh22  1  0.000000  0.000000  0.500000  1
  Rh  Rh23  1  0.000000  0.000000  0.000000  1
