# generated using pymatgen
data_HoSb(AuCl6)2
_symmetry_space_group_name_H-M   'P 1'
_cell_length_a   8.13261622
_cell_length_b   10.01425436
_cell_length_c   14.08729200
_cell_angle_alpha   102.86542216
_cell_angle_beta   97.53616078
_cell_angle_gamma   112.99556840
_symmetry_Int_Tables_number   1
_chemical_formula_structural   HoSb(AuCl6)2
_chemical_formula_sum   'Ho2 Sb2 Au4 Cl24'
_cell_volume   998.73581084
_cell_formula_units_Z   2
loop_
 _symmetry_equiv_pos_site_id
 _symmetry_equiv_pos_as_xyz
  1  'x, y, z'
loop_
 _atom_site_type_symbol
 _atom_site_label
 _atom_site_symmetry_multiplicity
 _atom_site_fract_x
 _atom_site_fract_y
 _atom_site_fract_z
 _atom_site_occupancy
  Ho  Ho0  1  0.974532  0.320065  0.873649  1
  Ho  Ho1  1  0.025468  0.679935  0.126351  1
  Sb  Sb2  1  0.606339  0.941673  0.624061  1
  Sb  Sb3  1  0.393661  0.058327  0.375939  1
  Au  Au4  1  0.285612  0.631185  0.766489  1
  Au  Au5  1  0.714388  0.368815  0.233511  1
  Au  Au6  1  0.500000  0.500000  0.500000  1
  Au  Au7  1  0.000000  0.000000  0.000000  1
  Cl  Cl8  1  0.589962  0.725053  0.758551  1
  Cl  Cl9  1  0.410038  0.274947  0.241449  1
  Cl  Cl10  1  0.271835  0.844655  0.738158  1
  Cl  Cl11  1  0.728165  0.155345  0.261842  1
  Cl  Cl12  1  0.978458  0.531722  0.774753  1
  Cl  Cl13  1  0.021542  0.468278  0.225247  1
  Cl  Cl14  1  0.290233  0.410770  0.794550  1
  Cl  Cl15  1  0.709767  0.589230  0.205450  1
  Cl  Cl16  1  0.693254  0.381690  0.507378  1
  Cl  Cl17  1  0.306746  0.618310  0.492622  1
  Cl  Cl18  1  0.751759  0.732848  0.532881  1
  Cl  Cl19  1  0.248241  0.267152  0.467119  1
  Cl  Cl20  1  0.796544  0.106901  0.973191  1
  Cl  Cl21  1  0.203456  0.893099  0.026809  1
  Cl  Cl22  1  0.785320  0.793684  0.035001  1
  Cl  Cl23  1  0.214680  0.206316  0.964999  1
  Cl  Cl24  1  0.630327  0.192765  0.741466  1
  Cl  Cl25  1  0.369673  0.807235  0.258534  1
  Cl  Cl26  1  0.937657  0.060636  0.729576  1
  Cl  Cl27  1  0.062343  0.939364  0.270424  1
  Cl  Cl28  1  0.725205  0.053409  0.492505  1
  Cl  Cl29  1  0.274795  0.946591  0.507495  1
  Cl  Cl30  1  0.777450  0.436513  0.974238  1
  Cl  Cl31  1  0.222550  0.563487  0.025762  1
