# generated using pymatgen
data_ErTmLu4(ReB7)2
_symmetry_space_group_name_H-M   'P 1'
_cell_length_a   7.92847800
_cell_length_b   7.92847910
_cell_length_c   9.25272300
_cell_angle_alpha   90.00000000
_cell_angle_beta   90.00000000
_cell_angle_gamma   154.57641523
_symmetry_Int_Tables_number   1
_chemical_formula_structural   ErTmLu4(ReB7)2
_chemical_formula_sum   'Er1 Tm1 Lu4 Re2 B14'
_cell_volume   249.69921662
_cell_formula_units_Z   1
loop_
 _symmetry_equiv_pos_site_id
 _symmetry_equiv_pos_as_xyz
  1  'x, y, z'
loop_
 _atom_site_type_symbol
 _atom_site_label
 _atom_site_symmetry_multiplicity
 _atom_site_fract_x
 _atom_site_fract_y
 _atom_site_fract_z
 _atom_site_occupancy
  Er  Er0  1  0.244024  0.755976  0.250000  1
  Tm  Tm1  1  0.756153  0.243847  0.750000  1
  Lu  Lu2  1  0.894458  0.105542  0.058785  1
  Lu  Lu3  1  0.105587  0.894413  0.559034  1
  Lu  Lu4  1  0.105587  0.894413  0.940966  1
  Lu  Lu5  1  0.894458  0.105542  0.441215  1
  Re  Re6  1  0.051586  0.948414  0.250000  1
  Re  Re7  1  0.948299  0.051701  0.750000  1
  B  B8  1  0.452628  0.547372  0.250000  1
  B  B9  1  0.547364  0.452636  0.750000  1
  B  B10  1  0.727575  0.272425  0.033234  1
  B  B11  1  0.272417  0.727583  0.533699  1
  B  B12  1  0.272417  0.727583  0.966301  1
  B  B13  1  0.727575  0.272425  0.466766  1
  B  B14  1  0.632329  0.367671  0.349931  1
  B  B15  1  0.367608  0.632392  0.849836  1
  B  B16  1  0.367608  0.632392  0.650164  1
  B  B17  1  0.632329  0.367671  0.150069  1
  B  B18  1  0.519426  0.480574  0.405677  1
  B  B19  1  0.480574  0.519426  0.905684  1
  B  B20  1  0.480574  0.519426  0.594316  1
  B  B21  1  0.519426  0.480574  0.094323  1
