# generated using pymatgen
data_TbDy3(ZnSi)4
_symmetry_space_group_name_H-M   'P 1'
_cell_length_a   4.15810700
_cell_length_b   4.15810700
_cell_length_c   15.78712600
_cell_angle_alpha   90.00000000
_cell_angle_beta   90.00000000
_cell_angle_gamma   120.00000799
_symmetry_Int_Tables_number   1
_chemical_formula_structural   TbDy3(ZnSi)4
_chemical_formula_sum   'Tb1 Dy3 Zn4 Si4'
_cell_volume   236.38776419
_cell_formula_units_Z   1
loop_
 _symmetry_equiv_pos_site_id
 _symmetry_equiv_pos_as_xyz
  1  'x, y, z'
loop_
 _atom_site_type_symbol
 _atom_site_label
 _atom_site_symmetry_multiplicity
 _atom_site_fract_x
 _atom_site_fract_y
 _atom_site_fract_z
 _atom_site_occupancy
  Tb  Tb0  1  0.000000  0.000000  0.000000  1
  Dy  Dy1  1  0.000000  0.000000  0.250189  1
  Dy  Dy2  1  0.000000  0.000000  0.500000  1
  Dy  Dy3  1  0.000000  0.000000  0.749811  1
  Zn  Zn4  1  0.666666  0.333334  0.137436  1
  Zn  Zn5  1  0.666666  0.333334  0.362720  1
  Zn  Zn6  1  0.333333  0.666665  0.637280  1
  Zn  Zn7  1  0.333333  0.666665  0.862564  1
  Si  Si8  1  0.333333  0.666665  0.118829  1
  Si  Si9  1  0.333333  0.666665  0.381560  1
  Si  Si10  1  0.666666  0.333334  0.618440  1
  Si  Si11  1  0.666666  0.333334  0.881171  1
