# generated using pymatgen
data_HfSc2Re2Si3Rh
_symmetry_space_group_name_H-M   'P 1'
_cell_length_a   6.92383183
_cell_length_b   6.90805447
_cell_length_c   3.47915800
_cell_angle_alpha   90.00000000
_cell_angle_beta   90.00000000
_cell_angle_gamma   120.51445285
_symmetry_Int_Tables_number   1
_chemical_formula_structural   HfSc2Re2Si3Rh
_chemical_formula_sum   'Hf1 Sc2 Re2 Si3 Rh1'
_cell_volume   143.36140755
_cell_formula_units_Z   1
loop_
 _symmetry_equiv_pos_site_id
 _symmetry_equiv_pos_as_xyz
  1  'x, y, z'
loop_
 _atom_site_type_symbol
 _atom_site_label
 _atom_site_symmetry_multiplicity
 _atom_site_fract_x
 _atom_site_fract_y
 _atom_site_fract_z
 _atom_site_occupancy
  Hf  Hf0  1  0.008018  0.595080  0.500000  1
  Sc  Sc1  1  0.400439  0.400344  0.500000  1
  Sc  Sc2  1  0.595426  0.006210  0.500000  1
  Re  Re3  1  0.250034  0.997025  0.000000  1
  Re  Re4  1  0.000253  0.256634  0.000000  1
  Si  Si5  1  0.664978  0.332870  0.000000  1
  Si  Si6  1  0.338754  0.669739  0.000000  1
  Si  Si7  1  0.994084  0.995809  0.500000  1
  Rh  Rh8  1  0.748013  0.746289  0.000000  1
