# generated using pymatgen
data_Pr2Sm3Pt19
_symmetry_space_group_name_H-M   'P 1'
_cell_length_a   5.45532271
_cell_length_b   5.45532345
_cell_length_c   18.05105471
_cell_angle_alpha   81.30884583
_cell_angle_beta   81.30884443
_cell_angle_gamma   60.00000445
_symmetry_Int_Tables_number   1
_chemical_formula_structural   Pr2Sm3Pt19
_chemical_formula_sum   'Pr2 Sm3 Pt19'
_cell_volume   458.10014302
_cell_formula_units_Z   1
loop_
 _symmetry_equiv_pos_site_id
 _symmetry_equiv_pos_as_xyz
  1  'x, y, z'
loop_
 _atom_site_type_symbol
 _atom_site_label
 _atom_site_symmetry_multiplicity
 _atom_site_fract_x
 _atom_site_fract_y
 _atom_site_fract_z
 _atom_site_occupancy
  Pr  Pr0  1  0.077252  0.077252  0.768244  1
  Pr  Pr1  1  0.922748  0.922748  0.231756  1
  Sm  Sm2  1  0.000000  0.000000  0.000000  1
  Sm  Sm3  1  0.152155  0.152155  0.543535  1
  Sm  Sm4  1  0.847845  0.847845  0.456465  1
  Pt  Pt5  1  0.500000  0.500000  0.500000  1
  Pt  Pt6  1  0.249791  0.249791  0.250627  1
  Pt  Pt7  1  0.750209  0.750209  0.749373  1
  Pt  Pt8  1  0.333259  0.333259  0.000222  1
  Pt  Pt9  1  0.666741  0.666741  0.999778  1
  Pt  Pt10  1  0.416546  0.416546  0.750363  1
  Pt  Pt11  1  0.583454  0.583454  0.249637  1
  Pt  Pt12  1  0.122191  0.627259  0.623289  1
  Pt  Pt13  1  0.627259  0.627259  0.623289  1
  Pt  Pt14  1  0.627259  0.122191  0.623289  1
  Pt  Pt15  1  0.877809  0.372741  0.376711  1
  Pt  Pt16  1  0.372741  0.372741  0.376711  1
  Pt  Pt17  1  0.372741  0.877809  0.376711  1
  Pt  Pt18  1  0.041211  0.541283  0.876223  1
  Pt  Pt19  1  0.541283  0.541283  0.876223  1
  Pt  Pt20  1  0.541283  0.041211  0.876223  1
  Pt  Pt21  1  0.958789  0.458717  0.123777  1
  Pt  Pt22  1  0.458717  0.458717  0.123777  1
  Pt  Pt23  1  0.458717  0.958789  0.123777  1
