# generated using pymatgen
data_Tb6Ti2Co16Si7P5
_symmetry_space_group_name_H-M   'P 1'
_cell_length_a   3.76442500
_cell_length_b   10.74953803
_cell_length_c   12.40498957
_cell_angle_alpha   90.14904034
_cell_angle_beta   90.00000000
_cell_angle_gamma   90.00000000
_symmetry_Int_Tables_number   1
_chemical_formula_structural   Tb6Ti2Co16Si7P5
_chemical_formula_sum   'Tb6 Ti2 Co16 Si7 P5'
_cell_volume   501.97649680
_cell_formula_units_Z   1
loop_
 _symmetry_equiv_pos_site_id
 _symmetry_equiv_pos_as_xyz
  1  'x, y, z'
loop_
 _atom_site_type_symbol
 _atom_site_label
 _atom_site_symmetry_multiplicity
 _atom_site_fract_x
 _atom_site_fract_y
 _atom_site_fract_z
 _atom_site_occupancy
  Tb  Tb0  1  0.000000  0.499314  0.527637  1
  Tb  Tb1  1  0.500000  0.997489  0.472404  1
  Tb  Tb2  1  0.500000  0.819121  0.206003  1
  Tb  Tb3  1  0.500000  0.180698  0.204805  1
  Tb  Tb4  1  0.000000  0.680387  0.795354  1
  Tb  Tb5  1  0.000000  0.319144  0.795761  1
  Ti  Ti6  1  0.500000  0.500723  0.146245  1
  Ti  Ti7  1  0.000000  0.999782  0.853943  1
  Co  Co8  1  0.500000  0.500139  0.699323  1
  Co  Co9  1  0.000000  0.995784  0.301799  1
  Co  Co10  1  0.000000  0.500232  0.991487  1
  Co  Co11  1  0.500000  0.999831  0.009226  1
  Co  Co12  1  0.500000  0.329576  0.997178  1
  Co  Co13  1  0.500000  0.670897  0.997357  1
  Co  Co14  1  0.000000  0.170322  0.003826  1
  Co  Co15  1  0.000000  0.829493  0.003378  1
  Co  Co16  1  0.500000  0.300837  0.430603  1
  Co  Co17  1  0.500000  0.704885  0.428561  1
  Co  Co18  1  0.000000  0.198298  0.568865  1
  Co  Co19  1  0.000000  0.800824  0.564615  1
  Co  Co20  1  0.500000  0.880172  0.709797  1
  Co  Co21  1  0.500000  0.118334  0.710398  1
  Co  Co22  1  0.000000  0.622391  0.291787  1
  Co  Co23  1  0.000000  0.382347  0.289955  1
  Si  Si24  1  0.500000  0.500086  0.886281  1
  Si  Si25  1  0.000000  0.999796  0.114640  1
  Si  Si26  1  0.500000  0.500354  0.347913  1
  Si  Si27  1  0.000000  0.999841  0.652335  1
  Si  Si28  1  0.500000  0.301729  0.614262  1
  Si  Si29  1  0.500000  0.697035  0.613766  1
  Si  Si30  1  0.000000  0.196598  0.385314  1
  P  P31  1  0.000000  0.803147  0.384460  1
  P  P32  1  0.500000  0.842345  0.893357  1
  P  P33  1  0.500000  0.157215  0.893514  1
  P  P34  1  0.000000  0.657967  0.106841  1
  P  P35  1  0.000000  0.342867  0.107009  1
