# generated using pymatgen
data_Yb4TcOs7
_symmetry_space_group_name_H-M   'P 1'
_cell_length_a   5.33615600
_cell_length_b   5.33615493
_cell_length_c   8.62822100
_cell_angle_alpha   90.00000000
_cell_angle_beta   90.00000000
_cell_angle_gamma   119.99999422
_symmetry_Int_Tables_number   1
_chemical_formula_structural   Yb4TcOs7
_chemical_formula_sum   'Yb4 Tc1 Os7'
_cell_volume   212.76925140
_cell_formula_units_Z   1
loop_
 _symmetry_equiv_pos_site_id
 _symmetry_equiv_pos_as_xyz
  1  'x, y, z'
loop_
 _atom_site_type_symbol
 _atom_site_label
 _atom_site_symmetry_multiplicity
 _atom_site_fract_x
 _atom_site_fract_y
 _atom_site_fract_z
 _atom_site_occupancy
  Yb  Yb0  1  0.333333  0.666667  0.431603  1
  Yb  Yb1  1  0.666667  0.333333  0.568397  1
  Yb  Yb2  1  0.666667  0.333333  0.934335  1
  Yb  Yb3  1  0.333333  0.666667  0.065665  1
  Tc  Tc4  1  0.000000  0.000000  0.500000  1
  Os  Os5  1  0.000000  0.000000  0.000000  1
  Os  Os6  1  0.827682  0.172318  0.250267  1
  Os  Os7  1  0.827682  0.655365  0.250267  1
  Os  Os8  1  0.344635  0.172318  0.250267  1
  Os  Os9  1  0.172318  0.827682  0.749733  1
  Os  Os10  1  0.172318  0.344635  0.749733  1
  Os  Os11  1  0.655365  0.827682  0.749733  1
