# generated using pymatgen
data_Tm16Ag3HgRh4
_symmetry_space_group_name_H-M   'P 1'
_cell_length_a   9.43955063
_cell_length_b   9.43955184
_cell_length_c   9.39012054
_cell_angle_alpha   59.82571182
_cell_angle_beta   59.82570690
_cell_angle_gamma   59.99999891
_symmetry_Int_Tables_number   1
_chemical_formula_structural   Tm16Ag3HgRh4
_chemical_formula_sum   'Tm16 Ag3 Hg1 Rh4'
_cell_volume   590.07840060
_cell_formula_units_Z   1
loop_
 _symmetry_equiv_pos_site_id
 _symmetry_equiv_pos_as_xyz
  1  'x, y, z'
loop_
 _atom_site_type_symbol
 _atom_site_label
 _atom_site_symmetry_multiplicity
 _atom_site_fract_x
 _atom_site_fract_y
 _atom_site_fract_z
 _atom_site_occupancy
  Tm  Tm0  1  0.063642  0.063642  0.436795  1
  Tm  Tm1  1  0.435921  0.063642  0.436795  1
  Tm  Tm2  1  0.062537  0.435147  0.067169  1
  Tm  Tm3  1  0.061321  0.645854  0.646973  1
  Tm  Tm4  1  0.435147  0.435147  0.067169  1
  Tm  Tm5  1  0.645854  0.061321  0.646973  1
  Tm  Tm6  1  0.187887  0.812826  0.186461  1
  Tm  Tm7  1  0.188134  0.188134  0.811931  1
  Tm  Tm8  1  0.812826  0.812826  0.186461  1
  Tm  Tm9  1  0.435147  0.062537  0.067169  1
  Tm  Tm10  1  0.812826  0.187887  0.186461  1
  Tm  Tm11  1  0.063642  0.435921  0.436795  1
  Tm  Tm12  1  0.811802  0.188134  0.811931  1
  Tm  Tm13  1  0.188134  0.811802  0.811931  1
  Tm  Tm14  1  0.646821  0.646821  0.059540  1
  Tm  Tm15  1  0.645854  0.645854  0.646973  1
  Ag  Ag16  1  0.417619  0.417619  0.415238  1
  Ag  Ag17  1  0.749522  0.417619  0.415238  1
  Ag  Ag18  1  0.417619  0.749522  0.415238  1
  Hg  Hg19  1  0.417032  0.417032  0.748903  1
  Rh  Rh20  1  0.856049  0.856049  0.431853  1
  Rh  Rh21  1  0.856177  0.856177  0.855333  1
  Rh  Rh22  1  0.432313  0.856177  0.855333  1
  Rh  Rh23  1  0.856177  0.432313  0.855333  1
