# generated using pymatgen
data_Al11Re3Pd
_symmetry_space_group_name_H-M   'P 1'
_cell_length_a   5.19985841
_cell_length_b   5.20007475
_cell_length_c   9.04957104
_cell_angle_alpha   105.19256235
_cell_angle_beta   88.45925971
_cell_angle_gamma   99.95639384
_symmetry_Int_Tables_number   1
_chemical_formula_structural   Al11Re3Pd
_chemical_formula_sum   'Al11 Re3 Pd1'
_cell_volume   232.54508820
_cell_formula_units_Z   1
loop_
 _symmetry_equiv_pos_site_id
 _symmetry_equiv_pos_as_xyz
  1  'x, y, z'
loop_
 _atom_site_type_symbol
 _atom_site_label
 _atom_site_symmetry_multiplicity
 _atom_site_fract_x
 _atom_site_fract_y
 _atom_site_fract_z
 _atom_site_occupancy
  Al  Al0  1  0.832402  0.274686  0.627715  1
  Al  Al1  1  0.168805  0.714536  0.378717  1
  Al  Al2  1  0.154988  0.478276  0.879857  1
  Al  Al3  1  0.849339  0.547770  0.132258  1
  Al  Al4  1  0.004219  0.003570  0.987329  1
  Al  Al5  1  0.522458  0.103208  0.880162  1
  Al  Al6  1  0.488590  0.902222  0.131450  1
  Al  Al7  1  0.571254  0.327499  0.372889  1
  Al  Al8  1  0.421302  0.672566  0.627459  1
  Al  Al9  1  0.932077  0.802633  0.654636  1
  Al  Al10  1  0.048811  0.161691  0.314074  1
  Re  Re11  1  0.688965  0.852656  0.397994  1
  Re  Re12  1  0.670748  0.613204  0.867132  1
  Re  Re13  1  0.330322  0.386667  0.133089  1
  Pd  Pd14  1  0.315716  0.158815  0.615239  1
