# generated using pymatgen
data_Na20Hf(ZrAs4)3
_symmetry_space_group_name_H-M   'P 1'
_cell_length_a   13.95733396
_cell_length_b   7.55040749
_cell_length_c   8.54909937
_cell_angle_alpha   89.95945274
_cell_angle_beta   89.38736658
_cell_angle_gamma   89.91586791
_symmetry_Int_Tables_number   1
_chemical_formula_structural   Na20Hf(ZrAs4)3
_chemical_formula_sum   'Na20 Hf1 Zr3 As12'
_cell_volume   900.88182863
_cell_formula_units_Z   1
loop_
 _symmetry_equiv_pos_site_id
 _symmetry_equiv_pos_as_xyz
  1  'x, y, z'
loop_
 _atom_site_type_symbol
 _atom_site_label
 _atom_site_symmetry_multiplicity
 _atom_site_fract_x
 _atom_site_fract_y
 _atom_site_fract_z
 _atom_site_occupancy
  Na  Na0  1  0.243155  0.844961  0.077032  1
  Na  Na1  1  0.918886  0.836423  0.078349  1
  Na  Na2  1  0.092897  0.511803  0.168214  1
  Na  Na3  1  0.737969  0.507850  0.179397  1
  Na  Na4  1  0.415142  0.528601  0.181528  1
  Na  Na5  1  0.084792  0.028566  0.317972  1
  Na  Na6  1  0.762058  0.007625  0.320666  1
  Na  Na7  1  0.407096  0.011743  0.331690  1
  Na  Na8  1  0.581002  0.336380  0.421732  1
  Na  Na9  1  0.257070  0.344541  0.422787  1
  Na  Na10  1  0.743061  0.655327  0.577211  1
  Na  Na11  1  0.418878  0.663470  0.578556  1
  Na  Na12  1  0.592780  0.988284  0.668323  1
  Na  Na13  1  0.238167  0.992313  0.679706  1
  Na  Na14  1  0.915190  0.971244  0.682082  1
  Na  Na15  1  0.584609  0.471110  0.817940  1
  Na  Na16  1  0.262202  0.491979  0.820710  1
  Na  Na17  1  0.907166  0.488304  0.831719  1
  Na  Na18  1  0.081245  0.163520  0.921654  1
  Na  Na19  1  0.756866  0.155309  0.922854  1
  Hf  Hf20  1  0.413350  0.143311  0.925884  1
  Zr  Zr21  1  0.586710  0.856153  0.074183  1
  Zr  Zr22  1  0.912911  0.355609  0.425499  1
  Zr  Zr23  1  0.087094  0.644387  0.574455  1
  As  As24  1  0.568534  0.208911  0.087245  1
  As  As25  1  0.264997  0.238746  0.088250  1
  As  As26  1  0.916797  0.242584  0.136801  1
  As  As27  1  0.583169  0.742464  0.363076  1
  As  As28  1  0.236542  0.739360  0.410392  1
  As  As29  1  0.930249  0.708328  0.411785  1
  As  As30  1  0.069739  0.291635  0.588111  1
  As  As31  1  0.763416  0.260533  0.589513  1
  As  As32  1  0.416852  0.256621  0.639596  1
  As  As33  1  0.083176  0.757429  0.863217  1
  As  As34  1  0.736455  0.760646  0.910450  1
  As  As35  1  0.429775  0.793928  0.911415  1
