# generated using pymatgen
data_Lu3B6(IrRu)4
_symmetry_space_group_name_H-M   'P 1'
_cell_length_a   9.95444540
_cell_length_b   9.17141424
_cell_length_c   5.50093669
_cell_angle_alpha   81.28761554
_cell_angle_beta   65.60329784
_cell_angle_gamma   32.92422766
_symmetry_Int_Tables_number   1
_chemical_formula_structural   Lu3B6(IrRu)4
_chemical_formula_sum   'Lu3 B6 Ir4 Ru4'
_cell_volume   228.44107334
_cell_formula_units_Z   1
loop_
 _symmetry_equiv_pos_site_id
 _symmetry_equiv_pos_as_xyz
  1  'x, y, z'
loop_
 _atom_site_type_symbol
 _atom_site_label
 _atom_site_symmetry_multiplicity
 _atom_site_fract_x
 _atom_site_fract_y
 _atom_site_fract_z
 _atom_site_occupancy
  Lu  Lu0  1  0.000081  0.000081  0.999919  1
  Lu  Lu1  1  0.821717  0.821717  0.178283  1
  Lu  Lu2  1  0.178772  0.178772  0.821228  1
  B  B3  1  0.673118  0.327157  0.680822  1
  B  B4  1  0.327157  0.673118  0.318902  1
  B  B5  1  0.172403  0.478905  0.521725  1
  B  B6  1  0.478905  0.172403  0.826966  1
  B  B7  1  0.823061  0.524610  0.484647  1
  B  B8  1  0.524610  0.823061  0.167682  1
  Ir  Ir9  1  0.913839  0.913839  0.586161  1
  Ir  Ir10  1  0.415209  0.415209  0.584791  1
  Ir  Ir11  1  0.584348  0.584348  0.415652  1
  Ir  Ir12  1  0.249543  0.249543  0.250457  1
  Ru  Ru13  1  0.750564  0.750564  0.749436  1
  Ru  Ru14  1  0.086869  0.086869  0.413131  1
  Ru  Ru15  1  0.587289  0.587289  0.912711  1
  Ru  Ru16  1  0.412516  0.412516  0.087484  1
