# generated using pymatgen
data_La6Nd2ErPt6
_symmetry_space_group_name_H-M   'P 1'
_cell_length_a   7.78752573
_cell_length_b   7.78752726
_cell_length_c   7.78752695
_cell_angle_alpha   71.85217050
_cell_angle_beta   71.85216193
_cell_angle_gamma   71.85217289
_symmetry_Int_Tables_number   1
_chemical_formula_structural   La6Nd2ErPt6
_chemical_formula_sum   'La6 Nd2 Er1 Pt6'
_cell_volume   414.25980724
_cell_formula_units_Z   1
loop_
 _symmetry_equiv_pos_site_id
 _symmetry_equiv_pos_as_xyz
  1  'x, y, z'
loop_
 _atom_site_type_symbol
 _atom_site_label
 _atom_site_symmetry_multiplicity
 _atom_site_fract_x
 _atom_site_fract_y
 _atom_site_fract_z
 _atom_site_occupancy
  La  La0  1  0.327466  0.610222  0.837068  1
  La  La1  1  0.837068  0.327466  0.610222  1
  La  La2  1  0.610222  0.837068  0.327466  1
  La  La3  1  0.672534  0.389778  0.162932  1
  La  La4  1  0.162932  0.672534  0.389778  1
  La  La5  1  0.389778  0.162932  0.672534  1
  Nd  Nd6  1  0.801253  0.801253  0.801253  1
  Nd  Nd7  1  0.198747  0.198747  0.198747  1
  Er  Er8  1  0.000000  0.000000  0.000000  1
  Pt  Pt9  1  0.161136  0.960429  0.596339  1
  Pt  Pt10  1  0.596339  0.161136  0.960429  1
  Pt  Pt11  1  0.960429  0.596339  0.161136  1
  Pt  Pt12  1  0.838864  0.039571  0.403661  1
  Pt  Pt13  1  0.403661  0.838864  0.039571  1
  Pt  Pt14  1  0.039571  0.403661  0.838864  1
