# generated using pymatgen
data_TbLu15(NiAg)4
_symmetry_space_group_name_H-M   'P 1'
_cell_length_a   9.25814203
_cell_length_b   9.25814233
_cell_length_c   9.25814300
_cell_angle_alpha   59.99848234
_cell_angle_beta   59.99848141
_cell_angle_gamma   59.99848106
_symmetry_Int_Tables_number   1
_chemical_formula_structural   TbLu15(NiAg)4
_chemical_formula_sum   'Tb1 Lu15 Ni4 Ag4'
_cell_volume   561.10175592
_cell_formula_units_Z   1
loop_
 _symmetry_equiv_pos_site_id
 _symmetry_equiv_pos_as_xyz
  1  'x, y, z'
loop_
 _atom_site_type_symbol
 _atom_site_label
 _atom_site_symmetry_multiplicity
 _atom_site_fract_x
 _atom_site_fract_y
 _atom_site_fract_z
 _atom_site_occupancy
  Tb  Tb0  1  0.350567  0.350567  0.350567  1
  Lu  Lu1  1  0.350309  0.350309  0.948764  1
  Lu  Lu2  1  0.350309  0.948764  0.350309  1
  Lu  Lu3  1  0.948764  0.350309  0.350309  1
  Lu  Lu4  1  0.811828  0.188526  0.188526  1
  Lu  Lu5  1  0.188910  0.811158  0.811158  1
  Lu  Lu6  1  0.188526  0.811828  0.188526  1
  Lu  Lu7  1  0.811158  0.188910  0.811158  1
  Lu  Lu8  1  0.188526  0.188526  0.811828  1
  Lu  Lu9  1  0.811158  0.811158  0.188910  1
  Lu  Lu10  1  0.934998  0.564723  0.564723  1
  Lu  Lu11  1  0.564463  0.935650  0.935650  1
  Lu  Lu12  1  0.564723  0.934998  0.564723  1
  Lu  Lu13  1  0.935650  0.564463  0.935650  1
  Lu  Lu14  1  0.564723  0.564723  0.934998  1
  Lu  Lu15  1  0.935650  0.935650  0.564463  1
  Ni  Ni16  1  0.142864  0.142864  0.142864  1
  Ni  Ni17  1  0.141847  0.141847  0.572446  1
  Ni  Ni18  1  0.141847  0.572446  0.141847  1
  Ni  Ni19  1  0.572446  0.141847  0.141847  1
  Ag  Ag20  1  0.582570  0.582570  0.582570  1
  Ag  Ag21  1  0.583017  0.583017  0.252129  1
  Ag  Ag22  1  0.583017  0.252129  0.583017  1
  Ag  Ag23  1  0.252129  0.583017  0.583017  1
