# generated using pymatgen
data_Li4Ac3Ge4
_symmetry_space_group_name_H-M   'P 1'
_cell_length_a   4.66331732
_cell_length_b   7.16401660
_cell_length_c   8.85834916
_cell_angle_alpha   113.85135224
_cell_angle_beta   105.26097144
_cell_angle_gamma   90.00000155
_symmetry_Int_Tables_number   1
_chemical_formula_structural   Li4Ac3Ge4
_chemical_formula_sum   'Li4 Ac3 Ge4'
_cell_volume   259.21515265
_cell_formula_units_Z   1
loop_
 _symmetry_equiv_pos_site_id
 _symmetry_equiv_pos_as_xyz
  1  'x, y, z'
loop_
 _atom_site_type_symbol
 _atom_site_label
 _atom_site_symmetry_multiplicity
 _atom_site_fract_x
 _atom_site_fract_y
 _atom_site_fract_z
 _atom_site_occupancy
  Li  Li0  1  0.670783  0.981907  0.341565  1
  Li  Li1  1  0.329217  0.018093  0.658435  1
  Li  Li2  1  0.329217  0.640342  0.658435  1
  Li  Li3  1  0.670783  0.359658  0.341565  1
  Ac  Ac4  1  0.000000  0.000000  0.000000  1
  Ac  Ac5  1  0.133024  0.633024  0.266049  1
  Ac  Ac6  1  0.866976  0.366976  0.733951  1
  Ge  Ge7  1  0.500000  0.680788  0.000000  1
  Ge  Ge8  1  0.500000  0.319212  0.000000  1
  Ge  Ge9  1  0.786802  0.786802  0.573603  1
  Ge  Ge10  1  0.213198  0.213198  0.426397  1
