# generated using pymatgen
data_Sc12Si12Pt3Rh
_symmetry_space_group_name_H-M   'P 1'
_cell_length_a   4.03934700
_cell_length_b   10.25950890
_cell_length_c   11.72948716
_cell_angle_alpha   89.93033596
_cell_angle_beta   90.00000000
_cell_angle_gamma   90.00000000
_symmetry_Int_Tables_number   1
_chemical_formula_structural   Sc12Si12Pt3Rh
_chemical_formula_sum   'Sc12 Si12 Pt3 Rh1'
_cell_volume   486.08972235
_cell_formula_units_Z   1
loop_
 _symmetry_equiv_pos_site_id
 _symmetry_equiv_pos_as_xyz
  1  'x, y, z'
loop_
 _atom_site_type_symbol
 _atom_site_label
 _atom_site_symmetry_multiplicity
 _atom_site_fract_x
 _atom_site_fract_y
 _atom_site_fract_z
 _atom_site_occupancy
  Sc  Sc0  1  0.250000  0.875770  0.020164  1
  Sc  Sc1  1  0.250000  0.622972  0.521391  1
  Sc  Sc2  1  0.750000  0.123707  0.979094  1
  Sc  Sc3  1  0.750000  0.376294  0.480351  1
  Sc  Sc4  1  0.250000  0.920068  0.599727  1
  Sc  Sc5  1  0.250000  0.579852  0.098968  1
  Sc  Sc6  1  0.750000  0.079696  0.401129  1
  Sc  Sc7  1  0.750000  0.419933  0.900521  1
  Sc  Sc8  1  0.250000  0.656232  0.799849  1
  Sc  Sc9  1  0.250000  0.842066  0.300826  1
  Sc  Sc10  1  0.750000  0.342019  0.198936  1
  Sc  Sc11  1  0.750000  0.157956  0.698793  1
  Si  Si12  1  0.250000  0.017727  0.824351  1
  Si  Si13  1  0.250000  0.483060  0.323274  1
  Si  Si14  1  0.750000  0.982942  0.175852  1
  Si  Si15  1  0.750000  0.512970  0.677324  1
  Si  Si16  1  0.250000  0.249757  0.841388  1
  Si  Si17  1  0.250000  0.252895  0.344771  1
  Si  Si18  1  0.750000  0.752736  0.155540  1
  Si  Si19  1  0.750000  0.746127  0.655653  1
  Si  Si20  1  0.250000  0.193011  0.544664  1
  Si  Si21  1  0.250000  0.309993  0.042287  1
  Si  Si22  1  0.750000  0.811421  0.457454  1
  Si  Si23  1  0.750000  0.688752  0.956628  1
  Pt  Pt24  1  0.250000  0.113085  0.178928  1
  Pt  Pt25  1  0.750000  0.613201  0.322499  1
  Pt  Pt26  1  0.750000  0.887076  0.821612  1
  Rh  Rh27  1  0.250000  0.388680  0.678028  1
