# generated using pymatgen
data_Yb6Al16Rh7
_symmetry_space_group_name_H-M   'P 1'
_cell_length_a   8.96057800
_cell_length_b   8.96057767
_cell_length_c   8.96057800
_cell_angle_alpha   120.00000122
_cell_angle_beta   90.00000000
_cell_angle_gamma   120.00000122
_symmetry_Int_Tables_number   1
_chemical_formula_structural   Yb6Al16Rh7
_chemical_formula_sum   'Yb6 Al16 Rh7'
_cell_volume   508.73667130
_cell_formula_units_Z   1
loop_
 _symmetry_equiv_pos_site_id
 _symmetry_equiv_pos_as_xyz
  1  'x, y, z'
loop_
 _atom_site_type_symbol
 _atom_site_label
 _atom_site_symmetry_multiplicity
 _atom_site_fract_x
 _atom_site_fract_y
 _atom_site_fract_z
 _atom_site_occupancy
  Yb  Yb0  1  0.293262  0.000000  0.293262  1
  Yb  Yb1  1  0.706738  0.000000  0.293262  1
  Yb  Yb2  1  0.293262  0.586523  0.293262  1
  Yb  Yb3  1  0.706738  0.000000  0.706738  1
  Yb  Yb4  1  0.293262  0.000000  0.706738  1
  Yb  Yb5  1  0.706738  0.413477  0.706738  1
  Al  Al6  1  0.325850  0.651700  0.977549  1
  Al  Al7  1  0.881085  0.762168  0.118916  1
  Al  Al8  1  0.356748  0.237833  0.118916  1
  Al  Al9  1  0.881085  0.237833  0.118916  1
  Al  Al10  1  0.674151  0.348301  0.325850  1
  Al  Al11  1  0.977549  0.651700  0.325850  1
  Al  Al12  1  0.674151  0.651700  0.325850  1
  Al  Al13  1  0.118916  0.237833  0.356748  1
  Al  Al14  1  0.881085  0.762168  0.643252  1
  Al  Al15  1  0.325850  0.348301  0.674151  1
  Al  Al16  1  0.022451  0.348301  0.674151  1
  Al  Al17  1  0.325850  0.651700  0.674151  1
  Al  Al18  1  0.118916  0.237833  0.881085  1
  Al  Al19  1  0.118916  0.762168  0.881085  1
  Al  Al20  1  0.643252  0.762168  0.881085  1
  Al  Al21  1  0.674151  0.348301  0.022451  1
  Rh  Rh22  1  0.000000  0.000000  0.000000  1
  Rh  Rh23  1  0.500000  0.000000  0.000000  1
  Rh  Rh24  1  0.000000  0.500000  0.000000  1
  Rh  Rh25  1  0.500000  0.500000  0.000000  1
  Rh  Rh26  1  0.000000  0.000000  0.500000  1
  Rh  Rh27  1  0.000000  0.500000  0.500000  1
  Rh  Rh28  1  0.500000  0.500000  0.500000  1
