# generated using pymatgen
data_Dy3Cu4Ir
_symmetry_space_group_name_H-M   'P 1'
_cell_length_a   13.96192500
_cell_length_b   5.55847761
_cell_length_c   5.55847700
_cell_angle_alpha   44.35349064
_cell_angle_beta   90.00000000
_cell_angle_gamma   90.00000000
_symmetry_Int_Tables_number   1
_chemical_formula_structural   Dy3Cu4Ir
_chemical_formula_sum   'Dy6 Cu8 Ir2'
_cell_volume   301.56838117
_cell_formula_units_Z   2
loop_
 _symmetry_equiv_pos_site_id
 _symmetry_equiv_pos_as_xyz
  1  'x, y, z'
loop_
 _atom_site_type_symbol
 _atom_site_label
 _atom_site_symmetry_multiplicity
 _atom_site_fract_x
 _atom_site_fract_y
 _atom_site_fract_z
 _atom_site_occupancy
  Dy  Dy0  1  0.361682  0.011929  0.011929  1
  Dy  Dy1  1  0.638318  0.011929  0.011929  1
  Dy  Dy2  1  0.138242  0.192826  0.192826  1
  Dy  Dy3  1  0.861759  0.192826  0.192826  1
  Dy  Dy4  1  0.000000  0.471371  0.471371  1
  Dy  Dy5  1  0.500000  0.733388  0.733388  1
  Cu  Cu6  1  0.343884  0.308019  0.308019  1
  Cu  Cu7  1  0.656116  0.308019  0.308019  1
  Cu  Cu8  1  0.212746  0.491752  0.491752  1
  Cu  Cu9  1  0.787254  0.491752  0.491752  1
  Cu  Cu10  1  0.287147  0.713016  0.713016  1
  Cu  Cu11  1  0.712854  0.713016  0.713016  1
  Cu  Cu12  1  0.156077  0.896757  0.896757  1
  Cu  Cu13  1  0.843923  0.896757  0.896757  1
  Ir  Ir14  1  0.500000  0.450885  0.450885  1
  Ir  Ir15  1  0.000000  0.753766  0.753766  1
