# generated using pymatgen
data_Tb2YBiO7
_symmetry_space_group_name_H-M   'P 1'
_cell_length_a   6.57896443
_cell_length_b   6.56153512
_cell_length_c   7.73431300
_cell_angle_alpha   106.89499294
_cell_angle_beta   89.73867005
_cell_angle_gamma   98.71676721
_symmetry_Int_Tables_number   1
_chemical_formula_structural   Tb2YBiO7
_chemical_formula_sum   'Tb4 Y2 Bi2 O14'
_cell_volume   315.50000845
_cell_formula_units_Z   2
loop_
 _symmetry_equiv_pos_site_id
 _symmetry_equiv_pos_as_xyz
  1  'x, y, z'
loop_
 _atom_site_type_symbol
 _atom_site_label
 _atom_site_symmetry_multiplicity
 _atom_site_fract_x
 _atom_site_fract_y
 _atom_site_fract_z
 _atom_site_occupancy
  Tb  Tb0  1  0.272068  0.537855  0.882812  1
  Tb  Tb1  1  0.727932  0.462145  0.117188  1
  Tb  Tb2  1  0.733751  0.475270  0.612605  1
  Tb  Tb3  1  0.266249  0.524730  0.387395  1
  Y  Y4  1  0.461932  0.005271  0.251925  1
  Y  Y5  1  0.538068  0.994729  0.748075  1
  Bi  Bi6  1  0.000000  0.000000  0.500000  1
  Bi  Bi7  1  0.000000  0.000000  0.000000  1
  O  O8  1  0.445612  0.648875  0.167579  1
  O  O9  1  0.554388  0.351125  0.832421  1
  O  O10  1  0.301592  0.922469  0.951432  1
  O  O11  1  0.698408  0.077531  0.048568  1
  O  O12  1  0.298244  0.924170  0.512798  1
  O  O13  1  0.701756  0.075830  0.487202  1
  O  O14  1  0.545116  0.362680  0.344989  1
  O  O15  1  0.454884  0.637320  0.655011  1
  O  O16  1  0.925681  0.667280  0.960898  1
  O  O17  1  0.074319  0.332720  0.039102  1
  O  O18  1  0.069773  0.349283  0.620444  1
  O  O19  1  0.930227  0.650717  0.379556  1
  O  O20  1  0.874581  0.900793  0.724630  1
  O  O21  1  0.125419  0.099207  0.275370  1
