# generated using pymatgen
data_Ba6Co(IrO6)2
_symmetry_space_group_name_H-M   'P 1'
_cell_length_a   9.18077372
_cell_length_b   9.18077401
_cell_length_c   7.29861505
_cell_angle_alpha   67.86067394
_cell_angle_beta   67.86068195
_cell_angle_gamma   36.93210821
_symmetry_Int_Tables_number   1
_chemical_formula_structural   Ba6Co(IrO6)2
_chemical_formula_sum   'Ba6 Co1 Ir2 O12'
_cell_volume   339.21119998
_cell_formula_units_Z   1
loop_
 _symmetry_equiv_pos_site_id
 _symmetry_equiv_pos_as_xyz
  1  'x, y, z'
loop_
 _atom_site_type_symbol
 _atom_site_label
 _atom_site_symmetry_multiplicity
 _atom_site_fract_x
 _atom_site_fract_y
 _atom_site_fract_z
 _atom_site_occupancy
  Ba  Ba0  1  0.209580  0.209580  0.711477  1
  Ba  Ba1  1  0.886166  0.886166  0.709064  1
  Ba  Ba2  1  0.547605  0.547605  0.715271  1
  Ba  Ba3  1  0.790420  0.790420  0.288523  1
  Ba  Ba4  1  0.452395  0.452395  0.284729  1
  Ba  Ba5  1  0.113834  0.113834  0.290936  1
  Co  Co6  1  0.000000  0.000000  0.000000  1
  Ir  Ir7  1  0.668117  0.668117  0.000206  1
  Ir  Ir8  1  0.331883  0.331883  0.999794  1
  O  O9  1  0.281675  0.281675  0.304780  1
  O  O10  1  0.947894  0.947894  0.310122  1
  O  O11  1  0.617196  0.617196  0.304413  1
  O  O12  1  0.718325  0.718325  0.695220  1
  O  O13  1  0.382804  0.382804  0.695587  1
  O  O14  1  0.052106  0.052106  0.689878  1
  O  O15  1  0.000000  0.500000  0.000000  1
  O  O16  1  0.648435  0.175071  0.000278  1
  O  O17  1  0.351565  0.824929  0.999722  1
  O  O18  1  0.500000  0.000000  0.000000  1
  O  O19  1  0.175071  0.648435  0.000278  1
  O  O20  1  0.824929  0.351565  0.999722  1
