# generated using pymatgen
data_Mg3Co(BrO3)8
_symmetry_space_group_name_H-M   'P 1'
_cell_length_a   5.65911430
_cell_length_b   10.59122128
_cell_length_c   10.63287691
_cell_angle_alpha   119.15239806
_cell_angle_beta   90.00651077
_cell_angle_gamma   89.98985160
_symmetry_Int_Tables_number   1
_chemical_formula_structural   Mg3Co(BrO3)8
_chemical_formula_sum   'Mg3 Co1 Br8 O24'
_cell_volume   556.57311078
_cell_formula_units_Z   1
loop_
 _symmetry_equiv_pos_site_id
 _symmetry_equiv_pos_as_xyz
  1  'x, y, z'
loop_
 _atom_site_type_symbol
 _atom_site_label
 _atom_site_symmetry_multiplicity
 _atom_site_fract_x
 _atom_site_fract_y
 _atom_site_fract_z
 _atom_site_occupancy
  Mg  Mg0  1  0.639517  0.238758  0.494359  1
  Mg  Mg1  1  0.139673  0.260950  0.005282  1
  Mg  Mg2  1  0.637941  0.738704  0.994168  1
  Co  Co3  1  0.145092  0.761404  0.506103  1
  Br  Br4  1  0.261234  0.415729  0.348375  1
  Br  Br5  1  0.763167  0.584770  0.650601  1
  Br  Br6  1  0.258927  0.914925  0.848757  1
  Br  Br7  1  0.759020  0.084912  0.150528  1
  Br  Br8  1  0.786347  0.084602  0.687638  1
  Br  Br9  1  0.282603  0.914524  0.312680  1
  Br  Br10  1  0.285049  0.413855  0.811050  1
  Br  Br11  1  0.787489  0.587203  0.190238  1
  O  O12  1  0.428613  0.881655  0.959097  1
  O  O13  1  0.930634  0.118079  0.040868  1
  O  O14  1  0.368406  0.802724  0.682198  1
  O  O15  1  0.864708  0.195433  0.317721  1
  O  O16  1  0.366724  0.304117  0.181311  1
  O  O17  1  0.867108  0.696078  0.818077  1
  O  O18  1  0.929614  0.222597  0.825418  1
  O  O19  1  0.427259  0.777042  0.175415  1
  O  O20  1  0.931151  0.932433  0.658440  1
  O  O21  1  0.427063  0.066062  0.343331  1
  O  O22  1  0.355129  0.079907  0.882901  1
  O  O23  1  0.853552  0.919566  0.116377  1
  O  O24  1  0.428980  0.276629  0.673088  1
  O  O25  1  0.933170  0.726363  0.327437  1
  O  O26  1  0.351679  0.391155  0.953668  1
  O  O27  1  0.851453  0.609392  0.046969  1
  O  O28  1  0.428971  0.565917  0.842760  1
  O  O29  1  0.931451  0.435018  0.158327  1
  O  O30  1  0.358579  0.580555  0.379846  1
  O  O31  1  0.855852  0.419245  0.617072  1
  O  O32  1  0.432217  0.383138  0.458647  1
  O  O33  1  0.937750  0.614735  0.538760  1
  O  O34  1  0.852038  0.106566  0.544452  1
  O  O35  1  0.351441  0.895260  0.458040  1
