# generated using pymatgen
data_Pr3Sm(AuCl6)4
_symmetry_space_group_name_H-M   'P 1'
_cell_length_a   7.77431695
_cell_length_b   10.14022018
_cell_length_c   14.50814050
_cell_angle_alpha   103.70324285
_cell_angle_beta   96.49523081
_cell_angle_gamma   112.02189988
_symmetry_Int_Tables_number   1
_chemical_formula_structural   Pr3Sm(AuCl6)4
_chemical_formula_sum   'Pr3 Sm1 Au4 Cl24'
_cell_volume   1003.87058826
_cell_formula_units_Z   1
loop_
 _symmetry_equiv_pos_site_id
 _symmetry_equiv_pos_as_xyz
  1  'x, y, z'
loop_
 _atom_site_type_symbol
 _atom_site_label
 _atom_site_symmetry_multiplicity
 _atom_site_fract_x
 _atom_site_fract_y
 _atom_site_fract_z
 _atom_site_occupancy
  Pr  Pr0  1  0.580679  0.925661  0.622653  1
  Pr  Pr1  1  0.026616  0.686209  0.127563  1
  Pr  Pr2  1  0.420274  0.075338  0.378129  1
  Sm  Sm3  1  0.972807  0.313165  0.871647  1
  Au  Au4  1  0.293509  0.632554  0.764535  1
  Au  Au5  1  0.500060  0.500152  0.500091  1
  Au  Au6  1  0.705746  0.366649  0.235864  1
  Au  Au7  1  0.999880  0.000663  0.999446  1
  Cl  Cl8  1  0.779774  0.098245  0.969380  1
  Cl  Cl9  1  0.723619  0.154400  0.261065  1
  Cl  Cl10  1  0.276017  0.844947  0.738892  1
  Cl  Cl11  1  0.770603  0.796704  0.027329  1
  Cl  Cl12  1  0.619147  0.194692  0.746721  1
  Cl  Cl13  1  0.307007  0.416403  0.786192  1
  Cl  Cl14  1  0.689009  0.582082  0.214595  1
  Cl  Cl15  1  0.300749  0.622869  0.498592  1
  Cl  Cl16  1  0.227096  0.205033  0.971502  1
  Cl  Cl17  1  0.756843  0.726085  0.523451  1
  Cl  Cl18  1  0.222692  0.904953  0.029128  1
  Cl  Cl19  1  0.729995  0.050030  0.483282  1
  Cl  Cl20  1  0.606517  0.726635  0.747259  1
  Cl  Cl21  1  0.954554  0.062488  0.733614  1
  Cl  Cl22  1  0.243319  0.274307  0.476749  1
  Cl  Cl23  1  0.386187  0.806952  0.254916  1
  Cl  Cl24  1  0.979217  0.538945  0.779256  1
  Cl  Cl25  1  0.762029  0.433540  0.976424  1
  Cl  Cl26  1  0.236274  0.559493  0.019126  1
  Cl  Cl27  1  0.020788  0.458254  0.222091  1
  Cl  Cl28  1  0.392754  0.272887  0.252667  1
  Cl  Cl29  1  0.270642  0.950247  0.517252  1
  Cl  Cl30  1  0.699463  0.377369  0.501538  1
  Cl  Cl31  1  0.046134  0.942049  0.269052  1
