# generated using pymatgen
data_ErTm15MgIn3Rh4
_symmetry_space_group_name_H-M   'P 1'
_cell_length_a   9.53973336
_cell_length_b   9.53973429
_cell_length_c   9.53916939
_cell_angle_alpha   59.98999308
_cell_angle_beta   59.98999012
_cell_angle_gamma   59.97962491
_symmetry_Int_Tables_number   1
_chemical_formula_structural   ErTm15MgIn3Rh4
_chemical_formula_sum   'Er1 Tm15 Mg1 In3 Rh4'
_cell_volume   613.67080570
_cell_formula_units_Z   1
loop_
 _symmetry_equiv_pos_site_id
 _symmetry_equiv_pos_as_xyz
  1  'x, y, z'
loop_
 _atom_site_type_symbol
 _atom_site_label
 _atom_site_symmetry_multiplicity
 _atom_site_fract_x
 _atom_site_fract_y
 _atom_site_fract_z
 _atom_site_occupancy
  Er  Er0  1  0.061417  0.061417  0.438334  1
  Tm  Tm1  1  0.435979  0.064210  0.435807  1
  Tm  Tm2  1  0.061415  0.438521  0.061210  1
  Tm  Tm3  1  0.047769  0.649908  0.650134  1
  Tm  Tm4  1  0.435826  0.435826  0.064166  1
  Tm  Tm5  1  0.649908  0.047769  0.650134  1
  Tm  Tm6  1  0.187353  0.812303  0.187239  1
  Tm  Tm7  1  0.187322  0.187322  0.812378  1
  Tm  Tm8  1  0.810032  0.810032  0.190220  1
  Tm  Tm9  1  0.438521  0.061415  0.061210  1
  Tm  Tm10  1  0.812303  0.187353  0.187239  1
  Tm  Tm11  1  0.064210  0.435979  0.435807  1
  Tm  Tm12  1  0.809955  0.190181  0.810174  1
  Tm  Tm13  1  0.190181  0.809955  0.810174  1
  Tm  Tm14  1  0.650017  0.650017  0.047708  1
  Tm  Tm15  1  0.651674  0.651674  0.651733  1
  Mg  Mg16  1  0.422536  0.422536  0.422544  1
  In  In17  1  0.748354  0.417632  0.417430  1
  In  In18  1  0.417632  0.748354  0.417430  1
  In  In19  1  0.417416  0.417416  0.748625  1
  Rh  Rh20  1  0.858401  0.858401  0.426276  1
  Rh  Rh21  1  0.856963  0.856963  0.857146  1
  Rh  Rh22  1  0.426377  0.858441  0.858443  1
  Rh  Rh23  1  0.858441  0.426377  0.858443  1
