# generated using pymatgen
data_Dy2FeCoI2
_symmetry_space_group_name_H-M   'P 1'
_cell_length_a   3.96136300
_cell_length_b   3.96136276
_cell_length_c   12.41509200
_cell_angle_alpha   90.00000000
_cell_angle_beta   90.00000000
_cell_angle_gamma   119.99999368
_symmetry_Int_Tables_number   1
_chemical_formula_structural   Dy2FeCoI2
_chemical_formula_sum   'Dy2 Fe1 Co1 I2'
_cell_volume   168.72127811
_cell_formula_units_Z   1
loop_
 _symmetry_equiv_pos_site_id
 _symmetry_equiv_pos_as_xyz
  1  'x, y, z'
loop_
 _atom_site_type_symbol
 _atom_site_label
 _atom_site_symmetry_multiplicity
 _atom_site_fract_x
 _atom_site_fract_y
 _atom_site_fract_z
 _atom_site_occupancy
  Dy  Dy0  1  0.000000  0.000000  0.152943  1
  Dy  Dy1  1  0.000000  0.000000  0.847726  1
  Fe  Fe2  1  0.666667  0.333332  0.004836  1
  Co  Co3  1  0.333333  0.666667  0.994186  1
  I  I4  1  0.333333  0.666667  0.327219  1
  I  I5  1  0.666667  0.333332  0.673093  1
