# generated using pymatgen
data_Ca7Eu(HgPb)4
_symmetry_space_group_name_H-M   'P 1'
_cell_length_a   7.73244309
_cell_length_b   5.54035200
_cell_length_c   11.08218006
_cell_angle_alpha   90.00000000
_cell_angle_beta   89.99734061
_cell_angle_gamma   90.00000000
_symmetry_Int_Tables_number   1
_chemical_formula_structural   Ca7Eu(HgPb)4
_chemical_formula_sum   'Ca7 Eu1 Hg4 Pb4'
_cell_volume   474.76565300
_cell_formula_units_Z   1
loop_
 _symmetry_equiv_pos_site_id
 _symmetry_equiv_pos_as_xyz
  1  'x, y, z'
loop_
 _atom_site_type_symbol
 _atom_site_label
 _atom_site_symmetry_multiplicity
 _atom_site_fract_x
 _atom_site_fract_y
 _atom_site_fract_z
 _atom_site_occupancy
  Ca  Ca0  1  0.000218  0.750000  0.125421  1
  Ca  Ca1  1  0.499972  0.250001  0.375658  1
  Ca  Ca2  1  0.999918  0.250001  0.374523  1
  Ca  Ca3  1  0.999745  0.750000  0.625382  1
  Ca  Ca4  1  0.500276  0.750000  0.625425  1
  Ca  Ca5  1  0.999997  0.250001  0.874675  1
  Ca  Ca6  1  0.500047  0.250001  0.873595  1
  Eu  Eu7  1  0.499715  0.750000  0.125361  1
  Hg  Hg8  1  0.751627  0.250001  0.124400  1
  Hg  Hg9  1  0.249153  0.750000  0.376370  1
  Hg  Hg10  1  0.750038  0.250001  0.624408  1
  Hg  Hg11  1  0.249202  0.750000  0.874815  1
  Pb  Pb12  1  0.246770  0.250001  0.124515  1
  Pb  Pb13  1  0.751533  0.750000  0.376664  1
  Pb  Pb14  1  0.249961  0.250001  0.624543  1
  Pb  Pb15  1  0.751731  0.750000  0.874245  1
