# generated using pymatgen
data_Nd2RuWC3
_symmetry_space_group_name_H-M   'P 1'
_cell_length_a   6.31677042
_cell_length_b   6.31676941
_cell_length_c   5.88209783
_cell_angle_alpha   64.91176215
_cell_angle_beta   64.91176680
_cell_angle_gamma   31.44717827
_symmetry_Int_Tables_number   1
_chemical_formula_structural   Nd2RuWC3
_chemical_formula_sum   'Nd2 Ru1 W1 C3'
_cell_volume   109.92864357
_cell_formula_units_Z   1
loop_
 _symmetry_equiv_pos_site_id
 _symmetry_equiv_pos_as_xyz
  1  'x, y, z'
loop_
 _atom_site_type_symbol
 _atom_site_label
 _atom_site_symmetry_multiplicity
 _atom_site_fract_x
 _atom_site_fract_y
 _atom_site_fract_z
 _atom_site_occupancy
  Nd  Nd0  1  0.605856  0.605856  0.193601  1
  Nd  Nd1  1  0.393935  0.393935  0.821562  1
  Ru  Ru2  1  0.841263  0.841263  0.312934  1
  W  W3  1  0.161441  0.161441  0.677734  1
  C  C4  1  0.748930  0.748930  0.723788  1
  C  C5  1  0.248347  0.248347  0.278151  1
  C  C6  1  0.000229  0.000229  0.992231  1
