# generated using pymatgen
data_Tb2Sm(MgHg)3
_symmetry_space_group_name_H-M   'P 1'
_cell_length_a   7.80347100
_cell_length_b   7.82694559
_cell_length_c   4.29285800
_cell_angle_alpha   90.00000000
_cell_angle_beta   90.00000000
_cell_angle_gamma   119.90083246
_symmetry_Int_Tables_number   1
_chemical_formula_structural   Tb2Sm(MgHg)3
_chemical_formula_sum   'Tb2 Sm1 Mg3 Hg3'
_cell_volume   227.29527332
_cell_formula_units_Z   1
loop_
 _symmetry_equiv_pos_site_id
 _symmetry_equiv_pos_as_xyz
  1  'x, y, z'
loop_
 _atom_site_type_symbol
 _atom_site_label
 _atom_site_symmetry_multiplicity
 _atom_site_fract_x
 _atom_site_fract_y
 _atom_site_fract_z
 _atom_site_occupancy
  Tb  Tb0  1  0.000022  0.411133  0.000000  1
  Tb  Tb1  1  0.588888  0.588867  0.000000  1
  Sm  Sm2  1  0.412295  0.000000  0.000000  1
  Mg  Mg3  1  0.751270  0.000000  0.500000  1
  Mg  Mg4  1  0.248925  0.249716  0.500000  1
  Mg  Mg5  1  0.999208  0.750284  0.500000  1
  Hg  Hg6  1  0.998505  0.000000  0.000000  1
  Hg  Hg7  1  0.668332  0.335778  0.500000  1
  Hg  Hg8  1  0.332555  0.664222  0.500000  1
