# generated using pymatgen
data_SrTlPd4
_symmetry_space_group_name_H-M   'P 1'
_cell_length_a   5.53450182
_cell_length_b   5.65717343
_cell_length_c   4.61329100
_cell_angle_alpha   90.00000000
_cell_angle_beta   90.00000000
_cell_angle_gamma   120.73594728
_symmetry_Int_Tables_number   1
_chemical_formula_structural   SrTlPd4
_chemical_formula_sum   'Sr1 Tl1 Pd4'
_cell_volume   124.15117112
_cell_formula_units_Z   1
loop_
 _symmetry_equiv_pos_site_id
 _symmetry_equiv_pos_as_xyz
  1  'x, y, z'
loop_
 _atom_site_type_symbol
 _atom_site_label
 _atom_site_symmetry_multiplicity
 _atom_site_fract_x
 _atom_site_fract_y
 _atom_site_fract_z
 _atom_site_occupancy
  Sr  Sr0  1  0.000000  0.000000  0.000000  1
  Tl  Tl1  1  0.000000  0.500000  0.500000  1
  Pd  Pd2  1  0.653779  0.326889  0.000000  1
  Pd  Pd3  1  0.500000  0.000000  0.500000  1
  Pd  Pd4  1  0.500000  0.500000  0.500000  1
  Pd  Pd5  1  0.346221  0.673111  0.000000  1
