# generated using pymatgen
data_Yb5Tm3(OsC2)4
_symmetry_space_group_name_H-M   'P 1'
_cell_length_a   5.09291700
_cell_length_b   6.40545426
_cell_length_c   10.02777900
_cell_angle_alpha   90.29110395
_cell_angle_beta   90.00000000
_cell_angle_gamma   90.00000000
_symmetry_Int_Tables_number   1
_chemical_formula_structural   Yb5Tm3(OsC2)4
_chemical_formula_sum   'Yb5 Tm3 Os4 C8'
_cell_volume   327.12646576
_cell_formula_units_Z   1
loop_
 _symmetry_equiv_pos_site_id
 _symmetry_equiv_pos_as_xyz
  1  'x, y, z'
loop_
 _atom_site_type_symbol
 _atom_site_label
 _atom_site_symmetry_multiplicity
 _atom_site_fract_x
 _atom_site_fract_y
 _atom_site_fract_z
 _atom_site_occupancy
  Yb  Yb0  1  0.250000  0.193978  0.947710  1
  Yb  Yb1  1  0.250000  0.531464  0.223361  1
  Yb  Yb2  1  0.750000  0.466189  0.778399  1
  Yb  Yb3  1  0.750000  0.967431  0.723716  1
  Yb  Yb4  1  0.250000  0.032419  0.277193  1
  Tm  Tm5  1  0.250000  0.683125  0.554074  1
  Tm  Tm6  1  0.750000  0.318295  0.441742  1
  Tm  Tm7  1  0.750000  0.816023  0.059431  1
  Os  Os8  1  0.250000  0.726883  0.856298  1
  Os  Os9  1  0.750000  0.274023  0.141370  1
  Os  Os10  1  0.750000  0.776206  0.362126  1
  Os  Os11  1  0.250000  0.225395  0.639864  1
  C  C12  1  0.250000  0.465040  0.754042  1
  C  C13  1  0.750000  0.540168  0.241689  1
  C  C14  1  0.750000  0.039171  0.260520  1
  C  C15  1  0.250000  0.959628  0.735497  1
  C  C16  1  0.250000  0.802466  0.037733  1
  C  C17  1  0.750000  0.181767  0.964975  1
  C  C18  1  0.750000  0.681410  0.540460  1
  C  C19  1  0.250000  0.318919  0.459798  1
