# generated using pymatgen
data_Pr5Be3P9Ir19
_symmetry_space_group_name_H-M   'P 1'
_cell_length_a   12.73706500
_cell_length_b   12.73706537
_cell_length_c   3.99823100
_cell_angle_alpha   90.00000000
_cell_angle_beta   90.00000000
_cell_angle_gamma   120.00000163
_symmetry_Int_Tables_number   1
_chemical_formula_structural   Pr5Be3P9Ir19
_chemical_formula_sum   'Pr5 Be3 P9 Ir19'
_cell_volume   561.74245710
_cell_formula_units_Z   1
loop_
 _symmetry_equiv_pos_site_id
 _symmetry_equiv_pos_as_xyz
  1  'x, y, z'
loop_
 _atom_site_type_symbol
 _atom_site_label
 _atom_site_symmetry_multiplicity
 _atom_site_fract_x
 _atom_site_fract_y
 _atom_site_fract_z
 _atom_site_occupancy
  Pr  Pr0  1  0.666667  0.333333  0.000000  1
  Pr  Pr1  1  0.333333  0.666667  0.000000  1
  Pr  Pr2  1  0.814465  0.809400  0.500000  1
  Pr  Pr3  1  0.190600  0.005064  0.500000  1
  Pr  Pr4  1  0.994936  0.185535  0.500000  1
  Be  Be5  1  0.683879  0.160937  0.500000  1
  Be  Be6  1  0.839063  0.522942  0.500000  1
  Be  Be7  1  0.477058  0.316121  0.500000  1
  P  P8  1  0.177228  0.697367  0.500000  1
  P  P9  1  0.520140  0.822772  0.500000  1
  P  P10  1  0.302633  0.479860  0.500000  1
  P  P11  1  0.637502  0.623716  0.000000  1
  P  P12  1  0.376284  0.013785  0.000000  1
  P  P13  1  0.986215  0.362498  0.000000  1
  P  P14  1  0.181467  0.184089  0.000000  1
  P  P15  1  0.815911  0.997379  0.000000  1
  P  P16  1  0.002621  0.818533  0.000000  1
  Ir  Ir17  1  0.799729  0.175513  0.000000  1
  Ir  Ir18  1  0.824487  0.624216  0.000000  1
  Ir  Ir19  1  0.375784  0.200271  0.000000  1
  Ir  Ir20  1  0.189071  0.809537  0.000000  1
  Ir  Ir21  1  0.620466  0.810929  0.000000  1
  Ir  Ir22  1  0.190463  0.379534  0.000000  1
  Ir  Ir23  1  0.454735  0.446229  0.000000  1
  Ir  Ir24  1  0.553771  0.008505  0.000000  1
  Ir  Ir25  1  0.991495  0.545265  0.000000  1
  Ir  Ir26  1  0.283669  0.289984  0.500000  1
  Ir  Ir27  1  0.710016  0.993685  0.500000  1
  Ir  Ir28  1  0.006315  0.716331  0.500000  1
  Ir  Ir29  1  0.873246  0.355014  0.500000  1
  Ir  Ir30  1  0.644986  0.518233  0.500000  1
  Ir  Ir31  1  0.481767  0.126754  0.500000  1
  Ir  Ir32  1  0.370046  0.872818  0.500000  1
  Ir  Ir33  1  0.502775  0.629954  0.500000  1
  Ir  Ir34  1  0.127182  0.497225  0.500000  1
  Ir  Ir35  1  0.000000  0.000000  0.000000  1
