# generated using pymatgen
data_Tb3Tm5(CdRu)2
_symmetry_space_group_name_H-M   'P 1'
_cell_length_a   9.56785706
_cell_length_b   9.56785833
_cell_length_c   9.56785800
_cell_angle_alpha   60.00000116
_cell_angle_beta   59.99999674
_cell_angle_gamma   60.00000424
_symmetry_Int_Tables_number   1
_chemical_formula_structural   Tb3Tm5(CdRu)2
_chemical_formula_sum   'Tb6 Tm10 Cd4 Ru4'
_cell_volume   619.34002193
_cell_formula_units_Z   2
loop_
 _symmetry_equiv_pos_site_id
 _symmetry_equiv_pos_as_xyz
  1  'x, y, z'
loop_
 _atom_site_type_symbol
 _atom_site_label
 _atom_site_symmetry_multiplicity
 _atom_site_fract_x
 _atom_site_fract_y
 _atom_site_fract_z
 _atom_site_occupancy
  Tb  Tb0  1  0.190239  0.809761  0.809761  1
  Tb  Tb1  1  0.809761  0.190239  0.190239  1
  Tb  Tb2  1  0.809761  0.190239  0.809761  1
  Tb  Tb3  1  0.190239  0.809761  0.190239  1
  Tb  Tb4  1  0.809761  0.809761  0.190239  1
  Tb  Tb5  1  0.190239  0.190239  0.809761  1
  Tm  Tm6  1  0.595574  0.595574  0.595574  1
  Tm  Tm7  1  0.595574  0.595574  0.213278  1
  Tm  Tm8  1  0.595574  0.213278  0.595574  1
  Tm  Tm9  1  0.213278  0.595574  0.595574  1
  Tm  Tm10  1  0.062437  0.437563  0.437563  1
  Tm  Tm11  1  0.437563  0.062437  0.062437  1
  Tm  Tm12  1  0.437563  0.062437  0.437563  1
  Tm  Tm13  1  0.062437  0.437563  0.062437  1
  Tm  Tm14  1  0.437563  0.437563  0.062437  1
  Tm  Tm15  1  0.062437  0.062437  0.437563  1
  Cd  Cd16  1  0.829998  0.829998  0.829998  1
  Cd  Cd17  1  0.829998  0.829998  0.510005  1
  Cd  Cd18  1  0.829998  0.510005  0.829998  1
  Cd  Cd19  1  0.510005  0.829998  0.829998  1
  Ru  Ru20  1  0.389564  0.389564  0.389564  1
  Ru  Ru21  1  0.389564  0.389564  0.831308  1
  Ru  Ru22  1  0.389564  0.831308  0.389564  1
  Ru  Ru23  1  0.831308  0.389564  0.389564  1
