# generated using pymatgen
data_Gd2Ga2PdPt
_symmetry_space_group_name_H-M   'P 1'
_cell_length_a   4.45079100
_cell_length_b   6.90471380
_cell_length_c   7.76719800
_cell_angle_alpha   89.29290374
_cell_angle_beta   90.00000000
_cell_angle_gamma   90.00000000
_symmetry_Int_Tables_number   1
_chemical_formula_structural   Gd2Ga2PdPt
_chemical_formula_sum   'Gd4 Ga4 Pd2 Pt2'
_cell_volume   238.67898707
_cell_formula_units_Z   2
loop_
 _symmetry_equiv_pos_site_id
 _symmetry_equiv_pos_as_xyz
  1  'x, y, z'
loop_
 _atom_site_type_symbol
 _atom_site_label
 _atom_site_symmetry_multiplicity
 _atom_site_fract_x
 _atom_site_fract_y
 _atom_site_fract_z
 _atom_site_occupancy
  Gd  Gd0  1  0.250000  0.480927  0.192627  1
  Gd  Gd1  1  0.750000  0.519073  0.807373  1
  Gd  Gd2  1  0.750000  0.024193  0.696042  1
  Gd  Gd3  1  0.250000  0.975807  0.303958  1
  Ga  Ga4  1  0.250000  0.835275  0.927160  1
  Ga  Ga5  1  0.750000  0.164725  0.072840  1
  Ga  Ga6  1  0.750000  0.667583  0.430944  1
  Ga  Ga7  1  0.250000  0.332417  0.569056  1
  Pd  Pd8  1  0.250000  0.721861  0.604189  1
  Pd  Pd9  1  0.750000  0.278139  0.395811  1
  Pt  Pt10  1  0.750000  0.774709  0.103743  1
  Pt  Pt11  1  0.250000  0.225291  0.896257  1
