# generated using pymatgen
data_Ho3Tm(Ni5Sn)4
_symmetry_space_group_name_H-M   'P 1'
_cell_length_a   4.85034800
_cell_length_b   8.00744767
_cell_length_c   10.19212670
_cell_angle_alpha   89.95532857
_cell_angle_beta   90.00000000
_cell_angle_gamma   90.00000000
_symmetry_Int_Tables_number   1
_chemical_formula_structural   Ho3Tm(Ni5Sn)4
_chemical_formula_sum   'Ho3 Tm1 Ni20 Sn4'
_cell_volume   395.85094877
_cell_formula_units_Z   1
loop_
 _symmetry_equiv_pos_site_id
 _symmetry_equiv_pos_as_xyz
  1  'x, y, z'
loop_
 _atom_site_type_symbol
 _atom_site_label
 _atom_site_symmetry_multiplicity
 _atom_site_fract_x
 _atom_site_fract_y
 _atom_site_fract_z
 _atom_site_occupancy
  Ho  Ho0  1  0.750000  0.247512  0.559444  1
  Ho  Ho1  1  0.250000  0.252235  0.059912  1
  Ho  Ho2  1  0.750000  0.747750  0.940337  1
  Tm  Tm3  1  0.250000  0.752605  0.439985  1
  Ni  Ni4  1  0.750000  0.912119  0.482053  1
  Ni  Ni5  1  0.250000  0.585985  0.982591  1
  Ni  Ni6  1  0.750000  0.413857  0.017872  1
  Ni  Ni7  1  0.250000  0.084604  0.517280  1
  Ni  Ni8  1  0.250000  0.188177  0.743204  1
  Ni  Ni9  1  0.750000  0.312195  0.244271  1
  Ni  Ni10  1  0.250000  0.688011  0.756371  1
  Ni  Ni11  1  0.750000  0.812015  0.256252  1
  Ni  Ni12  1  0.750000  0.550838  0.400918  1
  Ni  Ni13  1  0.250000  0.951101  0.900717  1
  Ni  Ni14  1  0.750000  0.049446  0.099309  1
  Ni  Ni15  1  0.250000  0.452093  0.598820  1
  Ni  Ni16  1  0.498850  0.065830  0.309673  1
  Ni  Ni17  1  0.501116  0.433756  0.809450  1
  Ni  Ni18  1  0.001241  0.566385  0.190812  1
  Ni  Ni19  1  0.998953  0.933582  0.690323  1
  Ni  Ni20  1  0.501047  0.933582  0.690323  1
  Ni  Ni21  1  0.498759  0.566385  0.190812  1
  Ni  Ni22  1  0.998884  0.433756  0.809450  1
  Ni  Ni23  1  0.001150  0.065830  0.309673  1
  Sn  Sn24  1  0.750000  0.640314  0.639748  1
  Sn  Sn25  1  0.250000  0.859703  0.140088  1
  Sn  Sn26  1  0.750000  0.140165  0.859997  1
  Sn  Sn27  1  0.250000  0.360166  0.360315  1
