# generated using pymatgen
data_Eu2PdO6
_symmetry_space_group_name_H-M   'P 1'
_cell_length_a   9.28112500
_cell_length_b   9.28112473
_cell_length_c   5.34738300
_cell_angle_alpha   90.00000000
_cell_angle_beta   90.00000000
_cell_angle_gamma   119.99999741
_symmetry_Int_Tables_number   1
_chemical_formula_structural   Eu2PdO6
_chemical_formula_sum   'Eu6 Pd3 O18'
_cell_volume   398.90838489
_cell_formula_units_Z   3
loop_
 _symmetry_equiv_pos_site_id
 _symmetry_equiv_pos_as_xyz
  1  'x, y, z'
loop_
 _atom_site_type_symbol
 _atom_site_label
 _atom_site_symmetry_multiplicity
 _atom_site_fract_x
 _atom_site_fract_y
 _atom_site_fract_z
 _atom_site_occupancy
  Eu  Eu0  1  0.290606  0.000000  0.500000  1
  Eu  Eu1  1  0.000000  0.290606  0.500000  1
  Eu  Eu2  1  0.709394  0.709394  0.500000  1
  Eu  Eu3  1  0.627890  0.000000  0.000000  1
  Eu  Eu4  1  0.000000  0.627890  0.000000  1
  Eu  Eu5  1  0.372110  0.372110  0.000000  1
  Pd  Pd6  1  0.333333  0.666667  0.494725  1
  Pd  Pd7  1  0.666667  0.333333  0.505275  1
  Pd  Pd8  1  0.000000  0.000000  0.000000  1
  O  O9  1  0.462989  0.242557  0.288362  1
  O  O10  1  0.757443  0.220432  0.288362  1
  O  O11  1  0.242557  0.462989  0.711638  1
  O  O12  1  0.779568  0.537011  0.288362  1
  O  O13  1  0.220432  0.757443  0.711638  1
  O  O14  1  0.537011  0.779568  0.711638  1
  O  O15  1  0.120789  0.204145  0.211904  1
  O  O16  1  0.795855  0.916644  0.211904  1
  O  O17  1  0.204145  0.120789  0.788096  1
  O  O18  1  0.083356  0.879211  0.211904  1
  O  O19  1  0.916644  0.795855  0.788096  1
  O  O20  1  0.879211  0.083356  0.788096  1
  O  O21  1  0.129872  0.539050  0.280791  1
  O  O22  1  0.460950  0.590824  0.280791  1
  O  O23  1  0.539050  0.129872  0.719209  1
  O  O24  1  0.409176  0.870128  0.280791  1
  O  O25  1  0.590824  0.460950  0.719209  1
  O  O26  1  0.870128  0.409176  0.719209  1
