# generated using pymatgen
data_AcDy2Cu2Ir7
_symmetry_space_group_name_H-M   'P 1'
_cell_length_a   5.45414032
_cell_length_b   5.45413988
_cell_length_c   9.00194000
_cell_angle_alpha   107.75876329
_cell_angle_beta   107.75876178
_cell_angle_gamma   59.65039841
_symmetry_Int_Tables_number   1
_chemical_formula_structural   AcDy2Cu2Ir7
_chemical_formula_sum   'Ac1 Dy2 Cu2 Ir7'
_cell_volume   216.33564905
_cell_formula_units_Z   1
loop_
 _symmetry_equiv_pos_site_id
 _symmetry_equiv_pos_as_xyz
  1  'x, y, z'
loop_
 _atom_site_type_symbol
 _atom_site_label
 _atom_site_symmetry_multiplicity
 _atom_site_fract_x
 _atom_site_fract_y
 _atom_site_fract_z
 _atom_site_occupancy
  Ac  Ac0  1  0.000000  0.000000  0.000000  1
  Dy  Dy1  1  0.141644  0.141644  0.425377  1
  Dy  Dy2  1  0.858355  0.858355  0.574622  1
  Cu  Cu3  1  0.333597  0.333597  0.003274  1
  Cu  Cu4  1  0.666404  0.666404  0.996727  1
  Ir  Ir5  1  0.586802  0.586802  0.251556  1
  Ir  Ir6  1  0.587162  0.076637  0.251105  1
  Ir  Ir7  1  0.076637  0.587162  0.251105  1
  Ir  Ir8  1  0.500000  0.500000  0.500000  1
  Ir  Ir9  1  0.923362  0.412837  0.748894  1
  Ir  Ir10  1  0.412837  0.923362  0.748894  1
  Ir  Ir11  1  0.413198  0.413198  0.748445  1
