# generated using pymatgen
data_Nb4Tc(NiP)4
_symmetry_space_group_name_H-M   'P 1'
_cell_length_a   7.18596334
_cell_length_b   7.18596338
_cell_length_c   7.18596338
_cell_angle_alpha   93.54676240
_cell_angle_beta   93.54676560
_cell_angle_gamma   151.19608173
_symmetry_Int_Tables_number   1
_chemical_formula_structural   Nb4Tc(NiP)4
_chemical_formula_sum   'Nb4 Tc1 Ni4 P4'
_cell_volume   173.16779643
_cell_formula_units_Z   1
loop_
 _symmetry_equiv_pos_site_id
 _symmetry_equiv_pos_as_xyz
  1  'x, y, z'
loop_
 _atom_site_type_symbol
 _atom_site_label
 _atom_site_symmetry_multiplicity
 _atom_site_fract_x
 _atom_site_fract_y
 _atom_site_fract_z
 _atom_site_occupancy
  Nb  Nb0  1  0.804134  0.129244  0.933378  1
  Nb  Nb1  1  0.129244  0.195866  0.325110  1
  Nb  Nb2  1  0.870756  0.804134  0.674890  1
  Nb  Nb3  1  0.195866  0.870756  0.066622  1
  Tc  Tc4  1  0.500000  0.500000  0.000000  1
  Ni  Ni5  1  0.914420  0.390749  0.305169  1
  Ni  Ni6  1  0.085580  0.609251  0.694831  1
  Ni  Ni7  1  0.609251  0.914420  0.523670  1
  Ni  Ni8  1  0.390749  0.085580  0.476330  1
  P  P9  1  0.556075  0.245252  0.801328  1
  P  P10  1  0.245252  0.443925  0.689176  1
  P  P11  1  0.754748  0.556075  0.310824  1
  P  P12  1  0.443925  0.754748  0.198672  1
