# generated using pymatgen
data_Y13Tm3(ZnCo)4
_symmetry_space_group_name_H-M   'P 1'
_cell_length_a   9.35615510
_cell_length_b   9.35834382
_cell_length_c   9.35892602
_cell_angle_alpha   59.99549166
_cell_angle_beta   59.98852643
_cell_angle_gamma   59.98570317
_symmetry_Int_Tables_number   1
_chemical_formula_structural   Y13Tm3(ZnCo)4
_chemical_formula_sum   'Y13 Tm3 Zn4 Co4'
_cell_volume   579.30599299
_cell_formula_units_Z   1
loop_
 _symmetry_equiv_pos_site_id
 _symmetry_equiv_pos_as_xyz
  1  'x, y, z'
loop_
 _atom_site_type_symbol
 _atom_site_label
 _atom_site_symmetry_multiplicity
 _atom_site_fract_x
 _atom_site_fract_y
 _atom_site_fract_z
 _atom_site_occupancy
  Y  Y0  1  0.200281  0.599894  0.599933  1
  Y  Y1  1  0.058386  0.441146  0.441119  1
  Y  Y2  1  0.441596  0.058417  0.058426  1
  Y  Y3  1  0.441597  0.058386  0.441571  1
  Y  Y4  1  0.058408  0.441150  0.059325  1
  Y  Y5  1  0.441590  0.441587  0.058385  1
  Y  Y6  1  0.058429  0.059317  0.441129  1
  Y  Y7  1  0.188673  0.811764  0.811699  1
  Y  Y8  1  0.810901  0.188897  0.188942  1
  Y  Y9  1  0.810897  0.188899  0.811255  1
  Y  Y10  1  0.188676  0.811762  0.187868  1
  Y  Y11  1  0.810801  0.811224  0.188987  1
  Y  Y12  1  0.188630  0.187773  0.811800  1
  Tm  Tm13  1  0.599233  0.599037  0.599066  1
  Tm  Tm14  1  0.599269  0.599071  0.202627  1
  Tm  Tm15  1  0.599221  0.202757  0.599044  1
  Zn  Zn16  1  0.826104  0.827121  0.827079  1
  Zn  Zn17  1  0.826102  0.827119  0.519701  1
  Zn  Zn18  1  0.826121  0.519663  0.827108  1
  Zn  Zn19  1  0.519832  0.826751  0.826708  1
  Co  Co20  1  0.395279  0.391653  0.391631  1
  Co  Co21  1  0.395282  0.391653  0.821427  1
  Co  Co22  1  0.395283  0.821421  0.391647  1
  Co  Co23  1  0.819407  0.393542  0.393525  1
