# generated using pymatgen
data_Nd4ZnI5
_symmetry_space_group_name_H-M   'P 1'
_cell_length_a   9.93620515
_cell_length_b   9.93620496
_cell_length_c   9.37554296
_cell_angle_alpha   78.16168218
_cell_angle_beta   78.16168174
_cell_angle_gamma   24.49458741
_symmetry_Int_Tables_number   1
_chemical_formula_structural   Nd4ZnI5
_chemical_formula_sum   'Nd4 Zn1 I5'
_cell_volume   375.22131730
_cell_formula_units_Z   1
loop_
 _symmetry_equiv_pos_site_id
 _symmetry_equiv_pos_as_xyz
  1  'x, y, z'
loop_
 _atom_site_type_symbol
 _atom_site_label
 _atom_site_symmetry_multiplicity
 _atom_site_fract_x
 _atom_site_fract_y
 _atom_site_fract_z
 _atom_site_occupancy
  Nd  Nd0  1  0.846221  0.846221  0.077709  1
  Nd  Nd1  1  0.153779  0.153779  0.922291  1
  Nd  Nd2  1  0.501435  0.501435  0.221954  1
  Nd  Nd3  1  0.498565  0.498565  0.778046  1
  Zn  Zn4  1  0.000000  0.000000  0.000000  1
  I  I5  1  0.672586  0.672586  0.174467  1
  I  I6  1  0.327414  0.327414  0.825533  1
  I  I7  1  0.665500  0.665500  0.661056  1
  I  I8  1  0.334500  0.334500  0.338944  1
  I  I9  1  0.000000  0.000000  0.500000  1
