# generated using pymatgen
data_Nd2Ta3Co9As7
_symmetry_space_group_name_H-M   'P 1'
_cell_length_a   3.87453800
_cell_length_b   9.61573767
_cell_length_c   9.61573700
_cell_angle_alpha   120.00000114
_cell_angle_beta   90.00000000
_cell_angle_gamma   90.00000000
_symmetry_Int_Tables_number   1
_chemical_formula_structural   Nd2Ta3Co9As7
_chemical_formula_sum   'Nd2 Ta3 Co9 As7'
_cell_volume   310.25281764
_cell_formula_units_Z   1
loop_
 _symmetry_equiv_pos_site_id
 _symmetry_equiv_pos_as_xyz
  1  'x, y, z'
loop_
 _atom_site_type_symbol
 _atom_site_label
 _atom_site_symmetry_multiplicity
 _atom_site_fract_x
 _atom_site_fract_y
 _atom_site_fract_z
 _atom_site_occupancy
  Nd  Nd0  1  0.000000  0.666667  0.333333  1
  Nd  Nd1  1  0.500000  0.333333  0.666667  1
  Ta  Ta2  1  0.500000  0.777422  0.894885  1
  Ta  Ta3  1  0.500000  0.117463  0.222578  1
  Ta  Ta4  1  0.500000  0.105115  0.882537  1
  Co  Co5  1  0.000000  0.574225  0.938312  1
  Co  Co6  1  0.000000  0.364087  0.425775  1
  Co  Co7  1  0.000000  0.061688  0.635913  1
  Co  Co8  1  0.000000  0.878210  0.156280  1
  Co  Co9  1  0.000000  0.278070  0.121790  1
  Co  Co10  1  0.000000  0.843720  0.721930  1
  Co  Co11  1  0.500000  0.948989  0.382039  1
  Co  Co12  1  0.500000  0.433049  0.051011  1
  Co  Co13  1  0.500000  0.617961  0.566951  1
  As  As14  1  0.000000  0.000000  0.000000  1
  As  As15  1  0.500000  0.706861  0.119134  1
  As  As16  1  0.500000  0.412273  0.293139  1
  As  As17  1  0.500000  0.880866  0.587727  1
  As  As18  1  0.000000  0.583525  0.690679  1
  As  As19  1  0.000000  0.107155  0.416475  1
  As  As20  1  0.000000  0.309321  0.892845  1
