# generated using pymatgen
data_Pr2Er3Si4
_symmetry_space_group_name_H-M   'P 1'
_cell_length_a   7.47738700
_cell_length_b   7.77730000
_cell_length_c   14.78088000
_cell_angle_alpha   90.00000000
_cell_angle_beta   90.00000000
_cell_angle_gamma   90.00000000
_symmetry_Int_Tables_number   1
_chemical_formula_structural   Pr2Er3Si4
_chemical_formula_sum   'Pr8 Er12 Si16'
_cell_volume   859.56555012
_cell_formula_units_Z   4
loop_
 _symmetry_equiv_pos_site_id
 _symmetry_equiv_pos_as_xyz
  1  'x, y, z'
loop_
 _atom_site_type_symbol
 _atom_site_label
 _atom_site_symmetry_multiplicity
 _atom_site_fract_x
 _atom_site_fract_y
 _atom_site_fract_z
 _atom_site_occupancy
  Pr  Pr0  1  0.017402  0.177264  0.402122  1
  Pr  Pr1  1  0.517402  0.322736  0.402122  1
  Pr  Pr2  1  0.482598  0.677264  0.902122  1
  Pr  Pr3  1  0.482598  0.677264  0.597878  1
  Pr  Pr4  1  0.982598  0.822736  0.597878  1
  Pr  Pr5  1  0.982598  0.822736  0.902122  1
  Pr  Pr6  1  0.517402  0.322736  0.097878  1
  Pr  Pr7  1  0.017402  0.177264  0.097878  1
  Er  Er8  1  0.325942  0.177938  0.623339  1
  Er  Er9  1  0.674058  0.822062  0.376661  1
  Er  Er10  1  0.659026  0.990657  0.750000  1
  Er  Er11  1  0.174058  0.677938  0.376661  1
  Er  Er12  1  0.825942  0.322062  0.876661  1
  Er  Er13  1  0.825942  0.322062  0.623339  1
  Er  Er14  1  0.840974  0.490657  0.250000  1
  Er  Er15  1  0.340974  0.009343  0.250000  1
  Er  Er16  1  0.325942  0.177938  0.876661  1
  Er  Er17  1  0.174058  0.677938  0.123339  1
  Er  Er18  1  0.674058  0.822062  0.123339  1
  Er  Er19  1  0.159026  0.509343  0.750000  1
  Si  Si20  1  0.278523  0.879420  0.750000  1
  Si  Si21  1  0.467143  0.615641  0.250000  1
  Si  Si22  1  0.032857  0.115641  0.750000  1
  Si  Si23  1  0.532857  0.384359  0.750000  1
  Si  Si24  1  0.149173  0.467104  0.539106  1
  Si  Si25  1  0.967143  0.884359  0.250000  1
  Si  Si26  1  0.721477  0.120580  0.250000  1
  Si  Si27  1  0.850827  0.532896  0.039106  1
  Si  Si28  1  0.350827  0.967104  0.039106  1
  Si  Si29  1  0.149173  0.467104  0.960894  1
  Si  Si30  1  0.649173  0.032896  0.539106  1
  Si  Si31  1  0.350827  0.967104  0.460894  1
  Si  Si32  1  0.850827  0.532896  0.460894  1
  Si  Si33  1  0.778523  0.620580  0.750000  1
  Si  Si34  1  0.221477  0.379420  0.250000  1
  Si  Si35  1  0.649173  0.032896  0.960894  1
