# generated using pymatgen
data_La5Nd3(CdPd)2
_symmetry_space_group_name_H-M   'P 1'
_cell_length_a   10.15536382
_cell_length_b   10.15536399
_cell_length_c   10.15536400
_cell_angle_alpha   59.99999998
_cell_angle_beta   59.99999941
_cell_angle_gamma   60.00000017
_symmetry_Int_Tables_number   1
_chemical_formula_structural   La5Nd3(CdPd)2
_chemical_formula_sum   'La10 Nd6 Cd4 Pd4'
_cell_volume   740.57914192
_cell_formula_units_Z   2
loop_
 _symmetry_equiv_pos_site_id
 _symmetry_equiv_pos_as_xyz
  1  'x, y, z'
loop_
 _atom_site_type_symbol
 _atom_site_label
 _atom_site_symmetry_multiplicity
 _atom_site_fract_x
 _atom_site_fract_y
 _atom_site_fract_z
 _atom_site_occupancy
  La  La0  1  0.351030  0.351030  0.351030  1
  La  La1  1  0.351030  0.351030  0.946911  1
  La  La2  1  0.351030  0.946911  0.351030  1
  La  La3  1  0.946911  0.351030  0.351030  1
  La  La4  1  0.806997  0.193003  0.193003  1
  La  La5  1  0.193003  0.806997  0.806997  1
  La  La6  1  0.193003  0.806997  0.193003  1
  La  La7  1  0.806997  0.193003  0.806997  1
  La  La8  1  0.193003  0.193003  0.806997  1
  La  La9  1  0.806997  0.806997  0.193003  1
  Nd  Nd10  1  0.934142  0.565858  0.565858  1
  Nd  Nd11  1  0.565858  0.934142  0.934142  1
  Nd  Nd12  1  0.565858  0.934142  0.565858  1
  Nd  Nd13  1  0.934142  0.565858  0.934142  1
  Nd  Nd14  1  0.565858  0.565858  0.934142  1
  Nd  Nd15  1  0.934142  0.934142  0.565858  1
  Cd  Cd16  1  0.580415  0.580415  0.580415  1
  Cd  Cd17  1  0.580415  0.580415  0.258755  1
  Cd  Cd18  1  0.580415  0.258755  0.580415  1
  Cd  Cd19  1  0.258755  0.580415  0.580415  1
  Pd  Pd20  1  0.143155  0.143155  0.143155  1
  Pd  Pd21  1  0.143155  0.143155  0.570533  1
  Pd  Pd22  1  0.143155  0.570533  0.143155  1
  Pd  Pd23  1  0.570533  0.143155  0.143155  1
