# generated using pymatgen
data_La2B6IrRh8
_symmetry_space_group_name_H-M   'P 1'
_cell_length_a   5.69529500
_cell_length_b   5.69825199
_cell_length_c   8.57062901
_cell_angle_alpha   89.99983921
_cell_angle_beta   90.00034186
_cell_angle_gamma   119.98284130
_symmetry_Int_Tables_number   1
_chemical_formula_structural   La2B6IrRh8
_chemical_formula_sum   'La2 B6 Ir1 Rh8'
_cell_volume   240.92189345
_cell_formula_units_Z   1
loop_
 _symmetry_equiv_pos_site_id
 _symmetry_equiv_pos_as_xyz
  1  'x, y, z'
loop_
 _atom_site_type_symbol
 _atom_site_label
 _atom_site_symmetry_multiplicity
 _atom_site_fract_x
 _atom_site_fract_y
 _atom_site_fract_z
 _atom_site_occupancy
  La  La0  1  0.000000  0.000000  0.287509  1
  La  La1  1  0.999987  0.000000  0.712630  1
  B  B2  1  0.333333  0.666692  0.999986  1
  B  B3  1  0.666641  0.333308  0.999986  1
  B  B4  1  0.333663  0.667340  0.333304  1
  B  B5  1  0.666322  0.332660  0.333304  1
  B  B6  1  0.666319  0.332658  0.666679  1
  B  B7  1  0.333662  0.667342  0.666679  1
  Ir  Ir8  1  0.500008  0.000000  0.499996  1
  Rh  Rh9  1  0.499979  0.000000  0.162931  1
  Rh  Rh10  1  0.499976  0.499988  0.163292  1
  Rh  Rh11  1  0.999989  0.500012  0.163292  1
  Rh  Rh12  1  0.499995  0.000000  0.837058  1
  Rh  Rh13  1  0.500006  0.500010  0.836680  1
  Rh  Rh14  1  0.999996  0.499990  0.836680  1
  Rh  Rh15  1  0.500013  0.500004  0.499997  1
  Rh  Rh16  1  0.000009  0.499996  0.499997  1
