# generated using pymatgen
data_Pr3Nd3IrI10
_symmetry_space_group_name_H-M   'P 1'
_cell_length_a   8.02857953
_cell_length_b   10.02617942
_cell_length_c   10.08997081
_cell_angle_alpha   107.48025527
_cell_angle_beta   105.19390425
_cell_angle_gamma   96.94561220
_symmetry_Int_Tables_number   1
_chemical_formula_structural   Pr3Nd3IrI10
_chemical_formula_sum   'Pr3 Nd3 Ir1 I10'
_cell_volume   729.81721649
_cell_formula_units_Z   1
loop_
 _symmetry_equiv_pos_site_id
 _symmetry_equiv_pos_as_xyz
  1  'x, y, z'
loop_
 _atom_site_type_symbol
 _atom_site_label
 _atom_site_symmetry_multiplicity
 _atom_site_fract_x
 _atom_site_fract_y
 _atom_site_fract_z
 _atom_site_occupancy
  Pr  Pr0  1  0.969594  0.088790  0.292528  1
  Pr  Pr1  1  0.115773  0.760650  0.041264  1
  Pr  Pr2  1  0.884281  0.239162  0.958286  1
  Nd  Nd3  1  0.645570  0.828959  0.870855  1
  Nd  Nd4  1  0.354562  0.170981  0.128677  1
  Nd  Nd5  1  0.029716  0.911366  0.708572  1
  Ir  Ir6  1  0.000106  0.999760  0.999208  1
  I  I7  1  0.643851  0.727170  0.545489  1
  I  I8  1  0.357704  0.273498  0.454905  1
  I  I9  1  0.213613  0.649670  0.739427  1
  I  I10  1  0.785749  0.351192  0.260276  1
  I  I11  1  0.452964  0.090843  0.817444  1
  I  I12  1  0.546214  0.908751  0.182236  1
  I  I13  1  0.261036  0.461240  0.088201  1
  I  I14  1  0.738949  0.538771  0.911794  1
  I  I15  1  0.086227  0.818540  0.370082  1
  I  I16  1  0.914089  0.180657  0.630756  1
