# generated using pymatgen
data_Gd3Dy(CrB4)4
_symmetry_space_group_name_H-M   'P 1'
_cell_length_a   5.95317225
_cell_length_b   11.51333348
_cell_length_c   3.46293600
_cell_angle_alpha   90.00000000
_cell_angle_beta   90.00000000
_cell_angle_gamma   89.96689924
_symmetry_Int_Tables_number   1
_chemical_formula_structural   Gd3Dy(CrB4)4
_chemical_formula_sum   'Gd3 Dy1 Cr4 B16'
_cell_volume   237.35256282
_cell_formula_units_Z   1
loop_
 _symmetry_equiv_pos_site_id
 _symmetry_equiv_pos_as_xyz
  1  'x, y, z'
loop_
 _atom_site_type_symbol
 _atom_site_label
 _atom_site_symmetry_multiplicity
 _atom_site_fract_x
 _atom_site_fract_y
 _atom_site_fract_z
 _atom_site_occupancy
  Gd  Gd0  1  0.624532  0.348892  0.000000  1
  Gd  Gd1  1  0.375757  0.651054  0.000000  1
  Gd  Gd2  1  0.124132  0.150710  0.000000  1
  Dy  Dy3  1  0.875634  0.849140  0.000000  1
  Cr  Cr4  1  0.623612  0.080267  0.000000  1
  Cr  Cr5  1  0.376556  0.919348  0.000000  1
  Cr  Cr6  1  0.123773  0.419345  0.000000  1
  Cr  Cr7  1  0.876235  0.580971  0.000000  1
  B  B8  1  0.780237  0.183468  0.500000  1
  B  B9  1  0.218768  0.816336  0.500000  1
  B  B10  1  0.280508  0.316212  0.500000  1
  B  B11  1  0.719642  0.684214  0.500000  1
  B  B12  1  0.862132  0.032182  0.500000  1
  B  B13  1  0.137675  0.967221  0.500000  1
  B  B14  1  0.361901  0.467575  0.500000  1
  B  B15  1  0.638171  0.532801  0.500000  1
  B  B16  1  0.887118  0.453650  0.500000  1
  B  B17  1  0.112564  0.546769  0.500000  1
  B  B18  1  0.387315  0.046356  0.500000  1
  B  B19  1  0.613462  0.953177  0.500000  1
  B  B20  1  0.975429  0.309128  0.500000  1
  B  B21  1  0.024229  0.691413  0.500000  1
  B  B22  1  0.475586  0.190673  0.500000  1
  B  B23  1  0.525033  0.809097  0.500000  1
