# generated using pymatgen
data_Tb4Al4CoPd3
_symmetry_space_group_name_H-M   'P 1'
_cell_length_a   4.40513100
_cell_length_b   6.85584189
_cell_length_c   7.82373946
_cell_angle_alpha   89.74131596
_cell_angle_beta   90.00000000
_cell_angle_gamma   90.00000000
_symmetry_Int_Tables_number   1
_chemical_formula_structural   Tb4Al4CoPd3
_chemical_formula_sum   'Tb4 Al4 Co1 Pd3'
_cell_volume   236.28142120
_cell_formula_units_Z   1
loop_
 _symmetry_equiv_pos_site_id
 _symmetry_equiv_pos_as_xyz
  1  'x, y, z'
loop_
 _atom_site_type_symbol
 _atom_site_label
 _atom_site_symmetry_multiplicity
 _atom_site_fract_x
 _atom_site_fract_y
 _atom_site_fract_z
 _atom_site_occupancy
  Tb  Tb0  1  0.250000  0.539605  0.813611  1
  Tb  Tb1  1  0.750000  0.465473  0.178652  1
  Tb  Tb2  1  0.250000  0.021215  0.679232  1
  Tb  Tb3  1  0.750000  0.957342  0.327503  1
  Al  Al4  1  0.250000  0.647392  0.445337  1
  Al  Al5  1  0.750000  0.371755  0.562750  1
  Al  Al6  1  0.250000  0.141704  0.060949  1
  Al  Al7  1  0.750000  0.852173  0.931356  1
  Co  Co8  1  0.750000  0.731655  0.619209  1
  Pd  Pd9  1  0.250000  0.273116  0.381501  1
  Pd  Pd10  1  0.750000  0.227562  0.879841  1
  Pd  Pd11  1  0.250000  0.771009  0.120060  1
