# generated using pymatgen
data_Nd17Dy2ErSn16
_symmetry_space_group_name_H-M   'P 1'
_cell_length_a   8.25476500
_cell_length_b   8.40903227
_cell_length_c   15.95243900
_cell_angle_alpha   90.00000000
_cell_angle_beta   90.00000000
_cell_angle_gamma   89.96845985
_symmetry_Int_Tables_number   1
_chemical_formula_structural   Nd17Dy2ErSn16
_chemical_formula_sum   'Nd17 Dy2 Er1 Sn16'
_cell_volume   1107.33176993
_cell_formula_units_Z   1
loop_
 _symmetry_equiv_pos_site_id
 _symmetry_equiv_pos_as_xyz
  1  'x, y, z'
loop_
 _atom_site_type_symbol
 _atom_site_label
 _atom_site_symmetry_multiplicity
 _atom_site_fract_x
 _atom_site_fract_y
 _atom_site_fract_z
 _atom_site_occupancy
  Nd  Nd0  1  0.017908  0.181094  0.401371  1
  Nd  Nd1  1  0.367263  0.837809  0.120844  1
  Nd  Nd2  1  0.133367  0.336940  0.620603  1
  Nd  Nd3  1  0.481439  0.681825  0.902051  1
  Nd  Nd4  1  0.867041  0.662215  0.122019  1
  Nd  Nd5  1  0.133367  0.336940  0.879397  1
  Nd  Nd6  1  0.481439  0.681825  0.597949  1
  Nd  Nd7  1  0.631814  0.162228  0.620138  1
  Nd  Nd8  1  0.803297  0.498088  0.750000  1
  Nd  Nd9  1  0.867041  0.662215  0.377981  1
  Nd  Nd10  1  0.017908  0.181094  0.098629  1
  Nd  Nd11  1  0.982383  0.819662  0.901930  1
  Nd  Nd12  1  0.631814  0.162228  0.879862  1
  Nd  Nd13  1  0.518193  0.318978  0.099194  1
  Nd  Nd14  1  0.367263  0.837809  0.379156  1
  Nd  Nd15  1  0.982383  0.819662  0.598070  1
  Nd  Nd16  1  0.518193  0.318978  0.400806  1
  Dy  Dy17  1  0.198629  0.502270  0.250000  1
  Dy  Dy18  1  0.698909  0.997897  0.250000  1
  Er  Er19  1  0.301287  0.002946  0.750000  1
  Sn  Sn20  1  0.792306  0.463554  0.541527  1
  Sn  Sn21  1  0.708050  0.964871  0.455762  1
  Sn  Sn22  1  0.674284  0.857864  0.750000  1
  Sn  Sn23  1  0.207479  0.534530  0.455795  1
  Sn  Sn24  1  0.292255  0.034711  0.955772  1
  Sn  Sn25  1  0.824601  0.352404  0.250000  1
  Sn  Sn26  1  0.792306  0.463554  0.958473  1
  Sn  Sn27  1  0.563616  0.616882  0.250000  1
  Sn  Sn28  1  0.207479  0.534530  0.044205  1
  Sn  Sn29  1  0.432374  0.382228  0.750000  1
  Sn  Sn30  1  0.178194  0.648523  0.750000  1
  Sn  Sn31  1  0.937187  0.114271  0.750000  1
  Sn  Sn32  1  0.292255  0.034711  0.544228  1
  Sn  Sn33  1  0.708050  0.964871  0.044238  1
  Sn  Sn34  1  0.324019  0.146411  0.250000  1
  Sn  Sn35  1  0.064612  0.883383  0.250000  1
