# generated using pymatgen
data_Hf18Nb2FeRe6Se
_symmetry_space_group_name_H-M   'P 1'
_cell_length_a   8.63824545
_cell_length_b   8.67111241
_cell_length_c   8.61523100
_cell_angle_alpha   90.00000000
_cell_angle_beta   90.00000000
_cell_angle_gamma   120.12593001
_symmetry_Int_Tables_number   1
_chemical_formula_structural   Hf18Nb2FeRe6Se
_chemical_formula_sum   'Hf18 Nb2 Fe1 Re6 Se1'
_cell_volume   558.14291319
_cell_formula_units_Z   1
loop_
 _symmetry_equiv_pos_site_id
 _symmetry_equiv_pos_as_xyz
  1  'x, y, z'
loop_
 _atom_site_type_symbol
 _atom_site_label
 _atom_site_symmetry_multiplicity
 _atom_site_fract_x
 _atom_site_fract_y
 _atom_site_fract_z
 _atom_site_occupancy
  Hf  Hf0  1  0.194166  0.808362  0.456489  1
  Hf  Hf1  1  0.194166  0.385804  0.456489  1
  Hf  Hf2  1  0.612190  0.806094  0.458725  1
  Hf  Hf3  1  0.798943  0.200947  0.562117  1
  Hf  Hf4  1  0.798943  0.597995  0.562117  1
  Hf  Hf5  1  0.400693  0.200347  0.560293  1
  Hf  Hf6  1  0.798943  0.200947  0.937883  1
  Hf  Hf7  1  0.798943  0.597995  0.937883  1
  Hf  Hf8  1  0.400693  0.200347  0.939707  1
  Hf  Hf9  1  0.194166  0.808362  0.043511  1
  Hf  Hf10  1  0.194166  0.385804  0.043511  1
  Hf  Hf11  1  0.612190  0.806094  0.041275  1
  Hf  Hf12  1  0.539094  0.452865  0.250000  1
  Hf  Hf13  1  0.539094  0.086228  0.250000  1
  Hf  Hf14  1  0.915317  0.457659  0.250000  1
  Hf  Hf15  1  0.458416  0.540239  0.750000  1
  Hf  Hf16  1  0.458416  0.918177  0.750000  1
  Hf  Hf17  1  0.083514  0.541757  0.750000  1
  Nb  Nb18  1  0.891869  0.113033  0.250000  1
  Nb  Nb19  1  0.891869  0.778836  0.250000  1
  Fe  Fe20  1  0.664409  0.332204  0.750000  1
  Re  Re21  1  0.225381  0.112690  0.250000  1
  Re  Re22  1  0.110519  0.890037  0.750000  1
  Re  Re23  1  0.110519  0.220482  0.750000  1
  Re  Re24  1  0.779467  0.889733  0.750000  1
  Re  Re25  1  0.001117  0.000558  0.501841  1
  Re  Re26  1  0.001117  0.000558  0.998159  1
  Se  Se27  1  0.331684  0.665843  0.250000  1
