# generated using pymatgen
data_SmDy3(ZrPt)4
_symmetry_space_group_name_H-M   'P 1'
_cell_length_a   4.69812900
_cell_length_b   7.11855337
_cell_length_c   8.24335900
_cell_angle_alpha   89.93650304
_cell_angle_beta   90.00000000
_cell_angle_gamma   90.00000000
_symmetry_Int_Tables_number   1
_chemical_formula_structural   SmDy3(ZrPt)4
_chemical_formula_sum   'Sm1 Dy3 Zr4 Pt4'
_cell_volume   275.68975665
_cell_formula_units_Z   1
loop_
 _symmetry_equiv_pos_site_id
 _symmetry_equiv_pos_as_xyz
  1  'x, y, z'
loop_
 _atom_site_type_symbol
 _atom_site_label
 _atom_site_symmetry_multiplicity
 _atom_site_fract_x
 _atom_site_fract_y
 _atom_site_fract_z
 _atom_site_occupancy
  Sm  Sm0  1  0.250000  0.013961  0.320531  1
  Dy  Dy1  1  0.250000  0.514738  0.178187  1
  Dy  Dy2  1  0.750000  0.984717  0.679706  1
  Dy  Dy3  1  0.750000  0.485117  0.821339  1
  Zr  Zr4  1  0.250000  0.149144  0.918170  1
  Zr  Zr5  1  0.250000  0.648337  0.581525  1
  Zr  Zr6  1  0.750000  0.850306  0.078980  1
  Zr  Zr7  1  0.750000  0.352259  0.419824  1
  Pt  Pt8  1  0.250000  0.273743  0.595291  1
  Pt  Pt9  1  0.250000  0.771481  0.907074  1
  Pt  Pt10  1  0.750000  0.726638  0.408228  1
  Pt  Pt11  1  0.750000  0.229559  0.091144  1
