# generated using pymatgen
data_Ho3Sn3Ru2Au
_symmetry_space_group_name_H-M   'P 1'
_cell_length_a   7.73375900
_cell_length_b   7.73375946
_cell_length_c   3.77193100
_cell_angle_alpha   90.00000000
_cell_angle_beta   90.00000000
_cell_angle_gamma   120.00000232
_symmetry_Int_Tables_number   1
_chemical_formula_structural   Ho3Sn3Ru2Au
_chemical_formula_sum   'Ho3 Sn3 Ru2 Au1'
_cell_volume   195.37799822
_cell_formula_units_Z   1
loop_
 _symmetry_equiv_pos_site_id
 _symmetry_equiv_pos_as_xyz
  1  'x, y, z'
loop_
 _atom_site_type_symbol
 _atom_site_label
 _atom_site_symmetry_multiplicity
 _atom_site_fract_x
 _atom_site_fract_y
 _atom_site_fract_z
 _atom_site_occupancy
  Ho  Ho0  1  0.980184  0.391458  0.500000  1
  Ho  Ho1  1  0.608542  0.588726  0.500000  1
  Ho  Ho2  1  0.411274  0.019816  0.500000  1
  Sn  Sn3  1  0.995692  0.736090  0.000000  1
  Sn  Sn4  1  0.263910  0.259601  0.000000  1
  Sn  Sn5  1  0.740399  0.004308  0.000000  1
  Ru  Ru6  1  0.666667  0.333333  0.000000  1
  Ru  Ru7  1  0.000000  0.000000  0.500000  1
  Au  Au8  1  0.333333  0.666667  0.000000  1
