# generated using pymatgen
data_Nd2MnFe3O10
_symmetry_space_group_name_H-M   'P 1'
_cell_length_a   5.88563100
_cell_length_b   7.61872600
_cell_length_c   8.72910700
_cell_angle_alpha   90.00000000
_cell_angle_beta   90.00000000
_cell_angle_gamma   90.00000000
_symmetry_Int_Tables_number   1
_chemical_formula_structural   Nd2MnFe3O10
_chemical_formula_sum   'Nd4 Mn2 Fe6 O20'
_cell_volume   391.42197363
_cell_formula_units_Z   2
loop_
 _symmetry_equiv_pos_site_id
 _symmetry_equiv_pos_as_xyz
  1  'x, y, z'
loop_
 _atom_site_type_symbol
 _atom_site_label
 _atom_site_symmetry_multiplicity
 _atom_site_fract_x
 _atom_site_fract_y
 _atom_site_fract_z
 _atom_site_occupancy
  Nd  Nd0  1  0.999129  0.360826  0.671364  1
  Nd  Nd1  1  0.999129  0.639174  0.328636  1
  Nd  Nd2  1  0.000871  0.860826  0.828636  1
  Nd  Nd3  1  0.000871  0.139174  0.171364  1
  Mn  Mn4  1  0.747715  0.500000  0.000000  1
  Mn  Mn5  1  0.252285  0.000000  0.500000  1
  Fe  Fe6  1  0.500291  0.109438  0.856288  1
  Fe  Fe7  1  0.500291  0.890562  0.143712  1
  Fe  Fe8  1  0.499709  0.609438  0.643712  1
  Fe  Fe9  1  0.499709  0.390562  0.356288  1
  Fe  Fe10  1  0.253056  0.500000  0.000000  1
  Fe  Fe11  1  0.746944  0.000000  0.500000  1
  O  O12  1  0.247359  0.900161  0.292990  1
  O  O13  1  0.247359  0.099839  0.707010  1
  O  O14  1  0.752641  0.400161  0.207010  1
  O  O15  1  0.752641  0.599839  0.792990  1
  O  O16  1  0.752022  0.097522  0.708360  1
  O  O17  1  0.752022  0.902478  0.291640  1
  O  O18  1  0.247978  0.597522  0.791640  1
  O  O19  1  0.247978  0.402478  0.208360  1
  O  O20  1  0.508314  0.344515  0.931651  1
  O  O21  1  0.508314  0.655485  0.068349  1
  O  O22  1  0.491686  0.844515  0.568349  1
  O  O23  1  0.491686  0.155485  0.431651  1
  O  O24  1  0.276439  0.000000  0.000000  1
  O  O25  1  0.723561  0.500000  0.500000  1
  O  O26  1  0.723693  0.000000  0.000000  1
  O  O27  1  0.276307  0.500000  0.500000  1
  O  O28  1  0.009548  0.160152  0.446812  1
  O  O29  1  0.009548  0.839848  0.553188  1
  O  O30  1  0.990452  0.660152  0.053188  1
  O  O31  1  0.990452  0.339848  0.946812  1
