# generated using pymatgen
data_Dy8Y2AlSb5
_symmetry_space_group_name_H-M   'P 1'
_cell_length_a   6.37559400
_cell_length_b   8.95956019
_cell_length_c   8.94240024
_cell_angle_alpha   120.06349795
_cell_angle_beta   90.00000132
_cell_angle_gamma   90.00001260
_symmetry_Int_Tables_number   1
_chemical_formula_structural   Dy8Y2AlSb5
_chemical_formula_sum   'Dy8 Y2 Al1 Sb5'
_cell_volume   442.09320751
_cell_formula_units_Z   1
loop_
 _symmetry_equiv_pos_site_id
 _symmetry_equiv_pos_as_xyz
  1  'x, y, z'
loop_
 _atom_site_type_symbol
 _atom_site_label
 _atom_site_symmetry_multiplicity
 _atom_site_fract_x
 _atom_site_fract_y
 _atom_site_fract_z
 _atom_site_occupancy
  Dy  Dy0  1  0.500829  0.338138  0.672941  1
  Dy  Dy1  1  0.500829  0.665197  0.327059  1
  Dy  Dy2  1  0.999170  0.665199  0.327063  1
  Dy  Dy3  1  0.999170  0.338136  0.672937  1
  Dy  Dy4  1  0.749998  0.248126  0.000000  1
  Dy  Dy5  1  0.249999  0.757055  0.000000  1
  Dy  Dy6  1  0.250003  0.245937  0.244976  1
  Dy  Dy7  1  0.250003  0.000961  0.755024  1
  Y  Y8  1  0.750000  0.753290  0.762013  1
  Y  Y9  1  0.750000  0.991277  0.237987  1
  Al  Al10  1  0.750001  0.604123  0.000000  1
  Sb  Sb11  1  0.750001  0.388157  0.389883  1
  Sb  Sb12  1  0.750001  0.998273  0.610117  1
  Sb  Sb13  1  0.249997  0.392213  0.000000  1
  Sb  Sb14  1  0.250001  0.611251  0.608582  1
  Sb  Sb15  1  0.250001  0.002669  0.391418  1
