# generated using pymatgen
data_K2Rb3As2Au
_symmetry_space_group_name_H-M   'P 1'
_cell_length_a   5.92614700
_cell_length_b   5.92614652
_cell_length_c   20.13670400
_cell_angle_alpha   90.00000000
_cell_angle_beta   90.00000000
_cell_angle_gamma   120.00000829
_symmetry_Int_Tables_number   1
_chemical_formula_structural   K2Rb3As2Au
_chemical_formula_sum   'K4 Rb6 As4 Au2'
_cell_volume   612.44033626
_cell_formula_units_Z   2
loop_
 _symmetry_equiv_pos_site_id
 _symmetry_equiv_pos_as_xyz
  1  'x, y, z'
loop_
 _atom_site_type_symbol
 _atom_site_label
 _atom_site_symmetry_multiplicity
 _atom_site_fract_x
 _atom_site_fract_y
 _atom_site_fract_z
 _atom_site_occupancy
  K  K0  1  0.000000  0.000000  0.145461  1
  K  K1  1  0.000000  0.000000  0.645461  1
  K  K2  1  0.000000  0.000000  0.854539  1
  K  K3  1  0.000000  0.000000  0.354539  1
  Rb  Rb4  1  0.333333  0.666667  0.549582  1
  Rb  Rb5  1  0.666667  0.333333  0.049582  1
  Rb  Rb6  1  0.666667  0.333333  0.450418  1
  Rb  Rb7  1  0.333333  0.666667  0.950418  1
  Rb  Rb8  1  0.333333  0.666667  0.750000  1
  Rb  Rb9  1  0.666667  0.333333  0.250000  1
  As  As10  1  0.333333  0.666667  0.124563  1
  As  As11  1  0.666667  0.333333  0.624563  1
  As  As12  1  0.333333  0.666667  0.375437  1
  As  As13  1  0.666667  0.333333  0.875437  1
  Au  Au14  1  0.666667  0.333333  0.750000  1
  Au  Au15  1  0.333333  0.666667  0.250000  1
