# generated using pymatgen
data_Ho8Zr7Sc5Ga16
_symmetry_space_group_name_H-M   'P 1'
_cell_length_a   7.18634905
_cell_length_b   7.57385114
_cell_length_c   14.41217520
_cell_angle_alpha   90.01857749
_cell_angle_beta   90.00329348
_cell_angle_gamma   89.98742452
_symmetry_Int_Tables_number   1
_chemical_formula_structural   Ho8Zr7Sc5Ga16
_chemical_formula_sum   'Ho8 Zr7 Sc5 Ga16'
_cell_volume   784.43068076
_cell_formula_units_Z   1
loop_
 _symmetry_equiv_pos_site_id
 _symmetry_equiv_pos_as_xyz
  1  'x, y, z'
loop_
 _atom_site_type_symbol
 _atom_site_label
 _atom_site_symmetry_multiplicity
 _atom_site_fract_x
 _atom_site_fract_y
 _atom_site_fract_z
 _atom_site_occupancy
  Ho  Ho0  1  0.010021  0.177725  0.092508  1
  Ho  Ho1  1  0.990573  0.822825  0.907307  1
  Ho  Ho2  1  0.490943  0.676543  0.906706  1
  Ho  Ho3  1  0.990443  0.823215  0.592544  1
  Ho  Ho4  1  0.510019  0.322185  0.092936  1
  Ho  Ho5  1  0.009683  0.177229  0.407173  1
  Ho  Ho6  1  0.509409  0.323361  0.406892  1
  Ho  Ho7  1  0.490811  0.676680  0.592809  1
  Zr  Zr8  1  0.326851  0.174526  0.623501  1
  Zr  Zr9  1  0.672264  0.825085  0.376121  1
  Zr  Zr10  1  0.172269  0.674796  0.376553  1
  Zr  Zr11  1  0.672183  0.827133  0.124093  1
  Zr  Zr12  1  0.827329  0.325392  0.623432  1
  Zr  Zr13  1  0.326916  0.173622  0.876923  1
  Zr  Zr14  1  0.828043  0.326682  0.876912  1
  Sc  Sc15  1  0.160903  0.506348  0.749939  1
  Sc  Sc16  1  0.839237  0.494207  0.249391  1
  Sc  Sc17  1  0.338593  0.005100  0.249547  1
  Sc  Sc18  1  0.660615  0.993809  0.750098  1
  Sc  Sc19  1  0.173383  0.672797  0.122964  1
  Ga  Ga20  1  0.029683  0.120151  0.749944  1
  Ga  Ga21  1  0.970419  0.880839  0.250660  1
  Ga  Ga22  1  0.470459  0.619683  0.250750  1
  Ga  Ga23  1  0.529812  0.379573  0.749997  1
  Ga  Ga24  1  0.284111  0.873038  0.749709  1
  Ga  Ga25  1  0.716252  0.127064  0.250562  1
  Ga  Ga26  1  0.216130  0.371780  0.251097  1
  Ga  Ga27  1  0.783805  0.626978  0.749776  1
  Ga  Ga28  1  0.162022  0.462618  0.540143  1
  Ga  Ga29  1  0.837222  0.538364  0.459935  1
  Ga  Ga30  1  0.338112  0.962387  0.459717  1
  Ga  Ga31  1  0.836121  0.537744  0.040309  1
  Ga  Ga32  1  0.661930  0.037867  0.539982  1
  Ga  Ga33  1  0.161344  0.462145  0.958563  1
  Ga  Ga34  1  0.662805  0.037155  0.959728  1
  Ga  Ga35  1  0.339288  0.963351  0.040779  1
