# generated using pymatgen
data_Hf3(ThSn2)2
_symmetry_space_group_name_H-M   'P 1'
_cell_length_a   7.82257900
_cell_length_b   7.86455900
_cell_length_c   14.83889200
_cell_angle_alpha   90.00000000
_cell_angle_beta   90.00000000
_cell_angle_gamma   90.00000000
_symmetry_Int_Tables_number   1
_chemical_formula_structural   Hf3(ThSn2)2
_chemical_formula_sum   'Hf12 Th8 Sn16'
_cell_volume   912.90546430
_cell_formula_units_Z   4
loop_
 _symmetry_equiv_pos_site_id
 _symmetry_equiv_pos_as_xyz
  1  'x, y, z'
loop_
 _atom_site_type_symbol
 _atom_site_label
 _atom_site_symmetry_multiplicity
 _atom_site_fract_x
 _atom_site_fract_y
 _atom_site_fract_z
 _atom_site_occupancy
  Hf  Hf0  1  0.343295  0.840718  0.872947  1
  Hf  Hf1  1  0.843295  0.659282  0.627053  1
  Hf  Hf2  1  0.656705  0.159282  0.372947  1
  Hf  Hf3  1  0.156705  0.340718  0.127053  1
  Hf  Hf4  1  0.656705  0.159282  0.127053  1
  Hf  Hf5  1  0.156705  0.340718  0.372947  1
  Hf  Hf6  1  0.343295  0.840718  0.627053  1
  Hf  Hf7  1  0.843295  0.659282  0.872947  1
  Hf  Hf8  1  0.169408  0.504594  0.750000  1
  Hf  Hf9  1  0.669408  0.995406  0.750000  1
  Hf  Hf10  1  0.830592  0.495406  0.250000  1
  Hf  Hf11  1  0.330592  0.004594  0.250000  1
  Th  Th12  1  0.512478  0.327873  0.907775  1
  Th  Th13  1  0.012478  0.172127  0.592225  1
  Th  Th14  1  0.487522  0.672127  0.407775  1
  Th  Th15  1  0.987522  0.827873  0.092225  1
  Th  Th16  1  0.487522  0.672127  0.092225  1
  Th  Th17  1  0.987522  0.827873  0.407775  1
  Th  Th18  1  0.512478  0.327873  0.592225  1
  Th  Th19  1  0.012478  0.172127  0.907775  1
  Sn  Sn20  1  0.318841  0.046457  0.045150  1
  Sn  Sn21  1  0.818841  0.453543  0.454850  1
  Sn  Sn22  1  0.681159  0.953543  0.545150  1
  Sn  Sn23  1  0.181159  0.546457  0.954850  1
  Sn  Sn24  1  0.681159  0.953543  0.954850  1
  Sn  Sn25  1  0.181159  0.546457  0.545150  1
  Sn  Sn26  1  0.318841  0.046457  0.454850  1
  Sn  Sn27  1  0.818841  0.453543  0.045150  1
  Sn  Sn28  1  0.539381  0.628007  0.750000  1
  Sn  Sn29  1  0.039381  0.871993  0.750000  1
  Sn  Sn30  1  0.460619  0.371993  0.250000  1
  Sn  Sn31  1  0.960619  0.128007  0.250000  1
  Sn  Sn32  1  0.312981  0.146995  0.750000  1
  Sn  Sn33  1  0.812981  0.353005  0.750000  1
  Sn  Sn34  1  0.687019  0.853005  0.250000  1
  Sn  Sn35  1  0.187019  0.646995  0.250000  1
