# generated using pymatgen
data_Tb4Al18IrPtRh4
_symmetry_space_group_name_H-M   'P 1'
_cell_length_a   7.57726123
_cell_length_b   7.57719485
_cell_length_c   9.48233148
_cell_angle_alpha   90.01702063
_cell_angle_beta   90.01788596
_cell_angle_gamma   119.49373882
_symmetry_Int_Tables_number   1
_chemical_formula_structural   Tb4Al18IrPtRh4
_chemical_formula_sum   'Tb4 Al18 Ir1 Pt1 Rh4'
_cell_volume   473.87019399
_cell_formula_units_Z   1
loop_
 _symmetry_equiv_pos_site_id
 _symmetry_equiv_pos_as_xyz
  1  'x, y, z'
loop_
 _atom_site_type_symbol
 _atom_site_label
 _atom_site_symmetry_multiplicity
 _atom_site_fract_x
 _atom_site_fract_y
 _atom_site_fract_z
 _atom_site_occupancy
  Tb  Tb0  1  0.994281  0.670307  0.249724  1
  Tb  Tb1  1  0.004777  0.329140  0.750451  1
  Tb  Tb2  1  0.670864  0.995237  0.249547  1
  Tb  Tb3  1  0.329721  0.005688  0.750273  1
  Al  Al4  1  0.127915  0.126986  0.250201  1
  Al  Al5  1  0.872945  0.872053  0.749800  1
  Al  Al6  1  0.003829  0.334806  0.076350  1
  Al  Al7  1  0.001825  0.668427  0.923705  1
  Al  Al8  1  0.999712  0.664838  0.574616  1
  Al  Al9  1  0.335159  0.000294  0.425316  1
  Al  Al10  1  0.000935  0.334921  0.424992  1
  Al  Al11  1  0.665079  0.999067  0.574978  1
  Al  Al12  1  0.665192  0.996171  0.923680  1
  Al  Al13  1  0.331575  0.998185  0.076364  1
  Al  Al14  1  0.332766  0.332742  0.550125  1
  Al  Al15  1  0.667259  0.667235  0.449856  1
  Al  Al16  1  0.667179  0.669805  0.051746  1
  Al  Al17  1  0.330195  0.332820  0.948273  1
  Al  Al18  1  0.340443  0.549449  0.250879  1
  Al  Al19  1  0.659998  0.453088  0.746920  1
  Al  Al20  1  0.546972  0.339984  0.253074  1
  Al  Al21  1  0.450588  0.659575  0.749121  1
  Ir  Ir22  1  0.327918  0.672073  0.999983  1
  Pt  Pt23  1  0.672387  0.327615  0.999974  1
  Rh  Rh24  1  0.328268  0.671729  0.500014  1
  Rh  Rh25  1  0.672163  0.327831  0.500031  1
  Rh  Rh26  1  0.999932  0.000075  0.999978  1
  Rh  Rh27  1  0.000122  0.999859  0.500030  1
