# generated using pymatgen
data_Pr2Zr(ScPb2)2
_symmetry_space_group_name_H-M   'P 1'
_cell_length_a   8.08096169
_cell_length_b   8.23626965
_cell_length_c   15.40259200
_cell_angle_alpha   89.98109218
_cell_angle_beta   90.03708893
_cell_angle_gamma   90.01260354
_symmetry_Int_Tables_number   1
_chemical_formula_structural   Pr2Zr(ScPb2)2
_chemical_formula_sum   'Pr8 Zr4 Sc8 Pb16'
_cell_volume   1025.14970485
_cell_formula_units_Z   4
loop_
 _symmetry_equiv_pos_site_id
 _symmetry_equiv_pos_as_xyz
  1  'x, y, z'
loop_
 _atom_site_type_symbol
 _atom_site_label
 _atom_site_symmetry_multiplicity
 _atom_site_fract_x
 _atom_site_fract_y
 _atom_site_fract_z
 _atom_site_occupancy
  Pr  Pr0  1  0.512567  0.325828  0.906297  1
  Pr  Pr1  1  0.011166  0.174227  0.594672  1
  Pr  Pr2  1  0.489134  0.675246  0.405681  1
  Pr  Pr3  1  0.988503  0.824831  0.093742  1
  Pr  Pr4  1  0.489646  0.674834  0.093926  1
  Pr  Pr5  1  0.988497  0.825018  0.405197  1
  Pr  Pr6  1  0.510987  0.322875  0.594597  1
  Pr  Pr7  1  0.010527  0.173830  0.906049  1
  Zr  Zr8  1  0.842869  0.662506  0.870948  1
  Zr  Zr9  1  0.669710  0.991645  0.750486  1
  Zr  Zr10  1  0.832488  0.492397  0.249321  1
  Zr  Zr11  1  0.331514  0.005975  0.250263  1
  Sc  Sc12  1  0.342699  0.842997  0.873040  1
  Sc  Sc13  1  0.842202  0.658498  0.627793  1
  Sc  Sc14  1  0.656465  0.158687  0.371222  1
  Sc  Sc15  1  0.156353  0.340710  0.128863  1
  Sc  Sc16  1  0.655952  0.159633  0.128538  1
  Sc  Sc17  1  0.155491  0.341397  0.371159  1
  Sc  Sc18  1  0.345421  0.842310  0.627859  1
  Sc  Sc19  1  0.168910  0.506287  0.750325  1
  Pb  Pb20  1  0.317233  0.045171  0.046187  1
  Pb  Pb21  1  0.817704  0.454294  0.454333  1
  Pb  Pb22  1  0.682668  0.954748  0.546130  1
  Pb  Pb23  1  0.180653  0.545842  0.955222  1
  Pb  Pb24  1  0.684243  0.954586  0.954482  1
  Pb  Pb25  1  0.182141  0.546476  0.544465  1
  Pb  Pb26  1  0.316470  0.044925  0.453973  1
  Pb  Pb27  1  0.817851  0.455661  0.044856  1
  Pb  Pb28  1  0.532027  0.631415  0.750760  1
  Pb  Pb29  1  0.035106  0.870322  0.748861  1
  Pb  Pb30  1  0.466086  0.369848  0.250224  1
  Pb  Pb31  1  0.966487  0.129667  0.249740  1
  Pb  Pb32  1  0.318510  0.148900  0.750680  1
  Pb  Pb33  1  0.815243  0.349599  0.750436  1
  Pb  Pb34  1  0.683198  0.849139  0.249927  1
  Pb  Pb35  1  0.183279  0.649677  0.249747  1
