# generated using pymatgen
data_TbTa2B2Ru5
_symmetry_space_group_name_H-M   'P 1'
_cell_length_a   9.56409248
_cell_length_b   9.56409248
_cell_length_c   3.09484300
_cell_angle_alpha   90.00000000
_cell_angle_beta   90.00000000
_cell_angle_gamma   90.63852996
_symmetry_Int_Tables_number   1
_chemical_formula_structural   TbTa2B2Ru5
_chemical_formula_sum   'Tb2 Ta4 B4 Ru10'
_cell_volume   283.07348143
_cell_formula_units_Z   2
loop_
 _symmetry_equiv_pos_site_id
 _symmetry_equiv_pos_as_xyz
  1  'x, y, z'
loop_
 _atom_site_type_symbol
 _atom_site_label
 _atom_site_symmetry_multiplicity
 _atom_site_fract_x
 _atom_site_fract_y
 _atom_site_fract_z
 _atom_site_occupancy
  Tb  Tb0  1  0.823829  0.676171  0.000000  1
  Tb  Tb1  1  0.176171  0.323829  0.000000  1
  Ta  Ta2  1  0.324333  0.824333  0.000000  1
  Ta  Ta3  1  0.675667  0.175667  0.000000  1
  Ta  Ta4  1  0.500000  0.500000  0.000000  1
  Ta  Ta5  1  0.000000  0.000000  0.000000  1
  B  B6  1  0.619974  0.880026  0.000000  1
  B  B7  1  0.380026  0.119974  0.000000  1
  B  B8  1  0.121565  0.621565  0.000000  1
  B  B9  1  0.878435  0.378435  0.000000  1
  Ru  Ru10  1  0.558608  0.723533  0.500000  1
  Ru  Ru11  1  0.441392  0.276467  0.500000  1
  Ru  Ru12  1  0.082838  0.785791  0.500000  1
  Ru  Ru13  1  0.917162  0.214209  0.500000  1
  Ru  Ru14  1  0.285791  0.582838  0.500000  1
  Ru  Ru15  1  0.714209  0.417162  0.500000  1
  Ru  Ru16  1  0.223533  0.058608  0.500000  1
  Ru  Ru17  1  0.776467  0.941392  0.500000  1
  Ru  Ru18  1  0.500000  0.000000  0.500000  1
  Ru  Ru19  1  0.000000  0.500000  0.500000  1
