# generated using pymatgen
data_Dy3Mg(ZnPt)4
_symmetry_space_group_name_H-M   'P 1'
_cell_length_a   4.20451100
_cell_length_b   6.81261453
_cell_length_c   8.05619265
_cell_angle_alpha   88.37262813
_cell_angle_beta   90.00000000
_cell_angle_gamma   90.00000000
_symmetry_Int_Tables_number   1
_chemical_formula_structural   Dy3Mg(ZnPt)4
_chemical_formula_sum   'Dy3 Mg1 Zn4 Pt4'
_cell_volume   230.66619408
_cell_formula_units_Z   1
loop_
 _symmetry_equiv_pos_site_id
 _symmetry_equiv_pos_as_xyz
  1  'x, y, z'
loop_
 _atom_site_type_symbol
 _atom_site_label
 _atom_site_symmetry_multiplicity
 _atom_site_fract_x
 _atom_site_fract_y
 _atom_site_fract_z
 _atom_site_occupancy
  Dy  Dy0  1  0.250000  0.537712  0.190000  1
  Dy  Dy1  1  0.750000  0.964203  0.674397  1
  Dy  Dy2  1  0.750000  0.458070  0.818962  1
  Mg  Mg3  1  0.250000  0.039558  0.317109  1
  Zn  Zn4  1  0.250000  0.643116  0.559729  1
  Zn  Zn5  1  0.250000  0.136868  0.944045  1
  Zn  Zn6  1  0.750000  0.355557  0.436553  1
  Zn  Zn7  1  0.750000  0.865767  0.061388  1
  Pt  Pt8  1  0.250000  0.255174  0.620154  1
  Pt  Pt9  1  0.250000  0.753502  0.874905  1
  Pt  Pt10  1  0.750000  0.749696  0.375437  1
  Pt  Pt11  1  0.750000  0.240777  0.127321  1
