# generated using pymatgen
data_Y2Er3Tm3(WO6)4
_symmetry_space_group_name_H-M   'P 1'
_cell_length_a   5.37303208
_cell_length_b   7.67120660
_cell_length_c   11.41332726
_cell_angle_alpha   75.40380584
_cell_angle_beta   90.00354831
_cell_angle_gamma   90.02029108
_symmetry_Int_Tables_number   1
_chemical_formula_structural   Y2Er3Tm3(WO6)4
_chemical_formula_sum   'Y2 Er3 Tm3 W4 O24'
_cell_volume   455.24766403
_cell_formula_units_Z   1
loop_
 _symmetry_equiv_pos_site_id
 _symmetry_equiv_pos_as_xyz
  1  'x, y, z'
loop_
 _atom_site_type_symbol
 _atom_site_label
 _atom_site_symmetry_multiplicity
 _atom_site_fract_x
 _atom_site_fract_y
 _atom_site_fract_z
 _atom_site_occupancy
  Y  Y0  1  0.684449  0.499705  0.750255  1
  Y  Y1  1  0.315692  0.499901  0.249962  1
  Er  Er2  1  0.740289  0.000205  0.750314  1
  Er  Er3  1  0.259783  0.000155  0.249743  1
  Er  Er4  1  0.185521  0.796288  0.577947  1
  Tm  Tm5  1  0.814748  0.795894  0.078156  1
  Tm  Tm6  1  0.185181  0.204135  0.921757  1
  Tm  Tm7  1  0.814613  0.204397  0.421653  1
  W  W8  1  0.254939  0.723943  0.885860  1
  W  W9  1  0.745371  0.723860  0.385258  1
  W  W10  1  0.254783  0.275842  0.614406  1
  W  W11  1  0.745241  0.275964  0.114412  1
  O  O12  1  0.042064  0.941260  0.896194  1
  O  O13  1  0.534753  0.847604  0.931754  1
  O  O14  1  0.957782  0.941517  0.395733  1
  O  O15  1  0.459381  0.791725  0.727034  1
  O  O16  1  0.466281  0.848193  0.430563  1
  O  O17  1  0.981677  0.712923  0.770609  1
  O  O18  1  0.541751  0.791816  0.226074  1
  O  O19  1  0.852206  0.635360  0.548683  1
  O  O20  1  0.358207  0.488573  0.887005  1
  O  O21  1  0.018249  0.713102  0.269887  1
  O  O22  1  0.359403  0.510748  0.613099  1
  O  O23  1  0.853826  0.363875  0.951233  1
  O  O24  1  0.146180  0.635996  0.048948  1
  O  O25  1  0.641377  0.488459  0.386729  1
  O  O26  1  0.982233  0.287147  0.730234  1
  O  O27  1  0.641729  0.511282  0.113017  1
  O  O28  1  0.146295  0.364046  0.451162  1
  O  O29  1  0.458201  0.207733  0.773788  1
  O  O30  1  0.017921  0.286914  0.230017  1
  O  O31  1  0.534432  0.152169  0.568587  1
  O  O32  1  0.541658  0.208021  0.273652  1
  O  O33  1  0.040552  0.059877  0.603882  1
  O  O34  1  0.465164  0.152570  0.068578  1
  O  O35  1  0.958069  0.058805  0.103813  1
