# generated using pymatgen
data_Tb17Y2HoSn16
_symmetry_space_group_name_H-M   'P 1'
_cell_length_a   8.06966400
_cell_length_b   8.21885417
_cell_length_c   15.53983700
_cell_angle_alpha   90.00000000
_cell_angle_beta   90.00000000
_cell_angle_gamma   89.98850439
_symmetry_Int_Tables_number   1
_chemical_formula_structural   Tb17Y2HoSn16
_chemical_formula_sum   'Tb17 Y2 Ho1 Sn16'
_cell_volume   1030.65467370
_cell_formula_units_Z   1
loop_
 _symmetry_equiv_pos_site_id
 _symmetry_equiv_pos_as_xyz
  1  'x, y, z'
loop_
 _atom_site_type_symbol
 _atom_site_label
 _atom_site_symmetry_multiplicity
 _atom_site_fract_x
 _atom_site_fract_y
 _atom_site_fract_z
 _atom_site_occupancy
  Tb  Tb0  1  0.367491  0.836215  0.878389  1
  Tb  Tb1  1  0.867510  0.663781  0.621518  1
  Tb  Tb2  1  0.632576  0.163937  0.378233  1
  Tb  Tb3  1  0.132342  0.336227  0.121757  1
  Tb  Tb4  1  0.632576  0.163937  0.121767  1
  Tb  Tb5  1  0.132342  0.336227  0.378243  1
  Tb  Tb6  1  0.367491  0.836215  0.621611  1
  Tb  Tb7  1  0.867510  0.663781  0.878482  1
  Tb  Tb8  1  0.520065  0.320132  0.902287  1
  Tb  Tb9  1  0.020116  0.179844  0.597768  1
  Tb  Tb10  1  0.480076  0.679778  0.402099  1
  Tb  Tb11  1  0.979910  0.820034  0.097898  1
  Tb  Tb12  1  0.480076  0.679778  0.097901  1
  Tb  Tb13  1  0.979910  0.820034  0.402102  1
  Tb  Tb14  1  0.520065  0.320132  0.597713  1
  Tb  Tb15  1  0.020116  0.179844  0.902232  1
  Tb  Tb16  1  0.301359  0.002223  0.250000  1
  Y  Y17  1  0.198516  0.502005  0.750000  1
  Y  Y18  1  0.698412  0.998012  0.750000  1
  Ho  Ho19  1  0.801149  0.497593  0.250000  1
  Sn  Sn20  1  0.292560  0.035443  0.041942  1
  Sn  Sn21  1  0.792536  0.464662  0.457698  1
  Sn  Sn22  1  0.707517  0.964786  0.541959  1
  Sn  Sn23  1  0.207550  0.535302  0.958042  1
  Sn  Sn24  1  0.707517  0.964786  0.958041  1
  Sn  Sn25  1  0.207550  0.535302  0.541958  1
  Sn  Sn26  1  0.292560  0.035443  0.458058  1
  Sn  Sn27  1  0.792536  0.464662  0.042302  1
  Sn  Sn28  1  0.565462  0.618170  0.750000  1
  Sn  Sn29  1  0.065305  0.881799  0.750000  1
  Sn  Sn30  1  0.435173  0.381756  0.250000  1
  Sn  Sn31  1  0.934281  0.119053  0.250000  1
  Sn  Sn32  1  0.328462  0.146522  0.750000  1
  Sn  Sn33  1  0.828309  0.353615  0.750000  1
  Sn  Sn34  1  0.671879  0.852887  0.250000  1
  Sn  Sn35  1  0.171200  0.646083  0.250000  1
