# generated using pymatgen
data_DyMgGa3Ir
_symmetry_space_group_name_H-M   'P 1'
_cell_length_a   5.32140706
_cell_length_b   5.32082720
_cell_length_c   8.76731700
_cell_angle_alpha   89.98306161
_cell_angle_beta   89.99133254
_cell_angle_gamma   120.00538576
_symmetry_Int_Tables_number   1
_chemical_formula_structural   DyMgGa3Ir
_chemical_formula_sum   'Dy2 Mg2 Ga6 Ir2'
_cell_volume   214.97074455
_cell_formula_units_Z   2
loop_
 _symmetry_equiv_pos_site_id
 _symmetry_equiv_pos_as_xyz
  1  'x, y, z'
loop_
 _atom_site_type_symbol
 _atom_site_label
 _atom_site_symmetry_multiplicity
 _atom_site_fract_x
 _atom_site_fract_y
 _atom_site_fract_z
 _atom_site_occupancy
  Dy  Dy0  1  0.333433  0.666801  0.551947  1
  Dy  Dy1  1  0.333234  0.666485  0.948033  1
  Mg  Mg2  1  0.666435  0.333247  0.058681  1
  Mg  Mg3  1  0.666940  0.333578  0.441360  1
  Ga  Ga4  1  0.166726  0.333288  0.249931  1
  Ga  Ga5  1  0.166600  0.833309  0.250123  1
  Ga  Ga6  1  0.666749  0.833429  0.249933  1
  Ga  Ga7  1  0.332902  0.166405  0.749994  1
  Ga  Ga8  1  0.833582  0.166560  0.749883  1
  Ga  Ga9  1  0.833439  0.667071  0.750113  1
  Ir  Ir10  1  0.999986  0.999792  0.006613  1
  Ir  Ir11  1  0.999975  0.000032  0.493386  1
