# generated using pymatgen
data_DyTmCr2(Fe4P3)2
_symmetry_space_group_name_H-M   'P 1'
_cell_length_a   3.65521100
_cell_length_b   10.35737400
_cell_length_c   11.84208700
_cell_angle_alpha   90.00000000
_cell_angle_beta   90.00000000
_cell_angle_gamma   90.00000000
_symmetry_Int_Tables_number   1
_chemical_formula_structural   DyTmCr2(Fe4P3)2
_chemical_formula_sum   'Dy2 Tm2 Cr4 Fe16 P12'
_cell_volume   448.32231699
_cell_formula_units_Z   2
loop_
 _symmetry_equiv_pos_site_id
 _symmetry_equiv_pos_as_xyz
  1  'x, y, z'
loop_
 _atom_site_type_symbol
 _atom_site_label
 _atom_site_symmetry_multiplicity
 _atom_site_fract_x
 _atom_site_fract_y
 _atom_site_fract_z
 _atom_site_occupancy
  Dy  Dy0  1  0.750000  0.418808  0.295223  1
  Dy  Dy1  1  0.750000  0.081192  0.795223  1
  Tm  Tm2  1  0.250000  0.581238  0.704652  1
  Tm  Tm3  1  0.250000  0.918762  0.204652  1
  Cr  Cr4  1  0.250000  0.703034  0.989260  1
  Cr  Cr5  1  0.250000  0.796966  0.489260  1
  Cr  Cr6  1  0.750000  0.297031  0.011175  1
  Cr  Cr7  1  0.750000  0.202969  0.511175  1
  Fe  Fe8  1  0.250000  0.405454  0.491438  1
  Fe  Fe9  1  0.250000  0.094546  0.991438  1
  Fe  Fe10  1  0.750000  0.594833  0.509902  1
  Fe  Fe11  1  0.750000  0.905167  0.009902  1
  Fe  Fe12  1  0.250000  0.217638  0.176017  1
  Fe  Fe13  1  0.250000  0.282362  0.676017  1
  Fe  Fe14  1  0.750000  0.781364  0.823912  1
  Fe  Fe15  1  0.750000  0.718636  0.323912  1
  Fe  Fe16  1  0.250000  0.873830  0.701784  1
  Fe  Fe17  1  0.250000  0.626170  0.201784  1
  Fe  Fe18  1  0.750000  0.124509  0.297605  1
  Fe  Fe19  1  0.750000  0.375491  0.797605  1
  Fe  Fe20  1  0.250000  0.464051  0.931788  1
  Fe  Fe21  1  0.250000  0.035949  0.431788  1
  Fe  Fe22  1  0.750000  0.537155  0.067250  1
  Fe  Fe23  1  0.750000  0.962845  0.567250  1
  P  P24  1  0.250000  0.423343  0.112545  1
  P  P25  1  0.250000  0.076657  0.612545  1
  P  P26  1  0.750000  0.577133  0.886128  1
  P  P27  1  0.750000  0.922867  0.386128  1
  P  P28  1  0.250000  0.265431  0.871046  1
  P  P29  1  0.250000  0.234569  0.371046  1
  P  P30  1  0.750000  0.735785  0.129653  1
  P  P31  1  0.750000  0.764215  0.629653  1
  P  P32  1  0.250000  0.597511  0.394625  1
  P  P33  1  0.250000  0.902489  0.894625  1
  P  P34  1  0.750000  0.404021  0.605997  1
  P  P35  1  0.750000  0.095979  0.105997  1
