# generated using pymatgen
data_Ce2NdY(AlRh)4
_symmetry_space_group_name_H-M   'P 1'
_cell_length_a   4.22463400
_cell_length_b   7.06517422
_cell_length_c   16.04362133
_cell_angle_alpha   90.46531889
_cell_angle_beta   90.00000000
_cell_angle_gamma   90.00000000
_symmetry_Int_Tables_number   1
_chemical_formula_structural   Ce2NdY(AlRh)4
_chemical_formula_sum   'Ce4 Nd2 Y2 Al8 Rh8'
_cell_volume   478.85061146
_cell_formula_units_Z   2
loop_
 _symmetry_equiv_pos_site_id
 _symmetry_equiv_pos_as_xyz
  1  'x, y, z'
loop_
 _atom_site_type_symbol
 _atom_site_label
 _atom_site_symmetry_multiplicity
 _atom_site_fract_x
 _atom_site_fract_y
 _atom_site_fract_z
 _atom_site_occupancy
  Ce  Ce0  1  0.250000  0.030418  0.781169  1
  Ce  Ce1  1  0.750000  0.969582  0.218831  1
  Ce  Ce2  1  0.250000  0.530427  0.721736  1
  Ce  Ce3  1  0.750000  0.469573  0.278264  1
  Nd  Nd4  1  0.250000  0.156622  0.561263  1
  Nd  Nd5  1  0.750000  0.843378  0.438737  1
  Y  Y6  1  0.250000  0.657788  0.941018  1
  Y  Y7  1  0.750000  0.342212  0.058982  1
  Al  Al8  1  0.250000  0.143972  0.349607  1
  Al  Al9  1  0.750000  0.856028  0.650393  1
  Al  Al10  1  0.250000  0.639223  0.146131  1
  Al  Al11  1  0.750000  0.360777  0.853869  1
  Al  Al12  1  0.250000  0.008171  0.060934  1
  Al  Al13  1  0.750000  0.991829  0.939066  1
  Al  Al14  1  0.250000  0.505092  0.437229  1
  Al  Al15  1  0.750000  0.494908  0.562771  1
  Rh  Rh16  1  0.750000  0.286331  0.423287  1
  Rh  Rh17  1  0.250000  0.713669  0.576713  1
  Rh  Rh18  1  0.750000  0.777206  0.072178  1
  Rh  Rh19  1  0.250000  0.222794  0.927822  1
  Rh  Rh20  1  0.750000  0.743164  0.813690  1
  Rh  Rh21  1  0.250000  0.256836  0.186310  1
  Rh  Rh22  1  0.750000  0.245525  0.690098  1
  Rh  Rh23  1  0.250000  0.754475  0.309902  1
