# generated using pymatgen
data_Tb4DyYIrI10
_symmetry_space_group_name_H-M   'P 1'
_cell_length_a   7.77117158
_cell_length_b   9.72909873
_cell_length_c   9.82250236
_cell_angle_alpha   107.22809268
_cell_angle_beta   96.92838467
_cell_angle_gamma   104.56875978
_symmetry_Int_Tables_number   1
_chemical_formula_structural   Tb4DyYIrI10
_chemical_formula_sum   'Tb4 Dy1 Y1 Ir1 I10'
_cell_volume   671.04917875
_cell_formula_units_Z   1
loop_
 _symmetry_equiv_pos_site_id
 _symmetry_equiv_pos_as_xyz
  1  'x, y, z'
loop_
 _atom_site_type_symbol
 _atom_site_label
 _atom_site_symmetry_multiplicity
 _atom_site_fract_x
 _atom_site_fract_y
 _atom_site_fract_z
 _atom_site_occupancy
  Tb  Tb0  1  0.115023  0.042542  0.758518  1
  Tb  Tb1  1  0.885075  0.957620  0.241561  1
  Tb  Tb2  1  0.969348  0.279681  0.082641  1
  Tb  Tb3  1  0.030716  0.720326  0.917489  1
  Dy  Dy4  1  0.350088  0.125522  0.166906  1
  Y  Y5  1  0.648894  0.874207  0.832720  1
  Ir  Ir6  1  0.000483  0.000188  0.000232  1
  I  I7  1  0.350405  0.451377  0.272412  1
  I  I8  1  0.649736  0.548471  0.727572  1
  I  I9  1  0.258654  0.088006  0.462439  1
  I  I10  1  0.741474  0.912036  0.537456  1
  I  I11  1  0.085635  0.372432  0.821478  1
  I  I12  1  0.914332  0.627573  0.178512  1
  I  I13  1  0.453196  0.815456  0.090952  1
  I  I14  1  0.546873  0.184625  0.909205  1
  I  I15  1  0.780614  0.257921  0.345351  1
  I  I16  1  0.219455  0.742016  0.654556  1
