# generated using pymatgen
data_Ac8Ho9Mg3Sn16
_symmetry_space_group_name_H-M   'P 1'
_cell_length_a   8.23404100
_cell_length_b   8.53093610
_cell_length_c   16.03799600
_cell_angle_alpha   90.00000000
_cell_angle_beta   90.00000000
_cell_angle_gamma   89.99119501
_symmetry_Int_Tables_number   1
_chemical_formula_structural   Ac8Ho9Mg3Sn16
_chemical_formula_sum   'Ac8 Ho9 Mg3 Sn16'
_cell_volume   1126.57422262
_cell_formula_units_Z   1
loop_
 _symmetry_equiv_pos_site_id
 _symmetry_equiv_pos_as_xyz
  1  'x, y, z'
loop_
 _atom_site_type_symbol
 _atom_site_label
 _atom_site_symmetry_multiplicity
 _atom_site_fract_x
 _atom_site_fract_y
 _atom_site_fract_z
 _atom_site_occupancy
  Ac  Ac0  1  0.496950  0.678374  0.596842  1
  Ac  Ac1  1  0.004504  0.828325  0.903853  1
  Ac  Ac2  1  0.498213  0.324373  0.098885  1
  Ac  Ac3  1  0.996315  0.178019  0.402006  1
  Ac  Ac4  1  0.498213  0.324373  0.401115  1
  Ac  Ac5  1  0.996315  0.178019  0.097994  1
  Ac  Ac6  1  0.496950  0.678374  0.903158  1
  Ac  Ac7  1  0.004504  0.828325  0.596147  1
  Ho  Ho8  1  0.660741  0.165516  0.626281  1
  Ho  Ho9  1  0.169158  0.327983  0.874897  1
  Ho  Ho10  1  0.336953  0.827314  0.126310  1
  Ho  Ho11  1  0.836553  0.668276  0.374711  1
  Ho  Ho12  1  0.336953  0.827314  0.373690  1
  Ho  Ho13  1  0.836553  0.668276  0.125289  1
  Ho  Ho14  1  0.660741  0.165516  0.873719  1
  Ho  Ho15  1  0.169158  0.327983  0.625103  1
  Ho  Ho16  1  0.832564  0.497369  0.750000  1
  Mg  Mg17  1  0.335380  0.004159  0.750000  1
  Mg  Mg18  1  0.163634  0.507538  0.250000  1
  Mg  Mg19  1  0.662420  0.990942  0.250000  1
  Sn  Sn20  1  0.671158  0.956639  0.460278  1
  Sn  Sn21  1  0.171606  0.541208  0.039829  1
  Sn  Sn22  1  0.332164  0.044145  0.962606  1
  Sn  Sn23  1  0.828649  0.460717  0.543282  1
  Sn  Sn24  1  0.332164  0.044145  0.537394  1
  Sn  Sn25  1  0.828649  0.460717  0.956718  1
  Sn  Sn26  1  0.671158  0.956639  0.039722  1
  Sn  Sn27  1  0.171606  0.541208  0.460171  1
  Sn  Sn28  1  0.470685  0.378164  0.750000  1
  Sn  Sn29  1  0.967359  0.132579  0.750000  1
  Sn  Sn30  1  0.532344  0.624328  0.250000  1
  Sn  Sn31  1  0.031315  0.874630  0.250000  1
  Sn  Sn32  1  0.704310  0.864047  0.750000  1
  Sn  Sn33  1  0.190721  0.626532  0.750000  1
  Sn  Sn34  1  0.300010  0.123257  0.250000  1
  Sn  Sn35  1  0.803330  0.374678  0.250000  1
