# generated using pymatgen
data_CsRb4BaTaAs4
_symmetry_space_group_name_H-M   'P 1'
_cell_length_a   11.00489215
_cell_length_b   10.99961251
_cell_length_c   8.35896210
_cell_angle_alpha   88.89386500
_cell_angle_beta   88.30814067
_cell_angle_gamma   121.20019075
_symmetry_Int_Tables_number   1
_chemical_formula_structural   CsRb4BaTaAs4
_chemical_formula_sum   'Cs2 Rb8 Ba2 Ta2 As8'
_cell_volume   864.41143603
_cell_formula_units_Z   2
loop_
 _symmetry_equiv_pos_site_id
 _symmetry_equiv_pos_as_xyz
  1  'x, y, z'
loop_
 _atom_site_type_symbol
 _atom_site_label
 _atom_site_symmetry_multiplicity
 _atom_site_fract_x
 _atom_site_fract_y
 _atom_site_fract_z
 _atom_site_occupancy
  Cs  Cs0  1  0.724740  0.859292  0.158986  1
  Cs  Cs1  1  0.150379  0.288089  0.222537  1
  Rb  Rb2  1  0.465645  0.526229  0.496862  1
  Rb  Rb3  1  0.059867  0.528609  0.499689  1
  Rb  Rb4  1  0.526582  0.465400  0.998015  1
  Rb  Rb5  1  0.527953  0.060697  0.000948  1
  Rb  Rb6  1  0.862080  0.143783  0.677945  1
  Rb  Rb7  1  0.295475  0.153116  0.715216  1
  Rb  Rb8  1  0.854044  0.712090  0.656431  1
  Rb  Rb9  1  0.143666  0.862766  0.180231  1
  Ba  Ba10  1  0.463798  0.935614  0.492153  1
  Ba  Ba11  1  0.934843  0.464834  0.994418  1
  Ta  Ta12  1  0.668640  0.331347  0.397019  1
  Ta  Ta13  1  0.329514  0.669631  0.888454  1
  As  As14  1  0.685121  0.337998  0.697589  1
  As  As15  1  0.336088  0.684835  0.188562  1
  As  As16  1  0.787215  0.203740  0.291640  1
  As  As17  1  0.411981  0.193113  0.323491  1
  As  As18  1  0.797496  0.579458  0.274044  1
  As  As19  1  0.201122  0.790950  0.789111  1
  As  As20  1  0.578975  0.796916  0.768079  1
  As  As21  1  0.194776  0.411492  0.817156  1
