# generated using pymatgen
data_GaCo2Mo3N
_symmetry_space_group_name_H-M   'P 1'
_cell_length_a   7.89071090
_cell_length_b   7.89092504
_cell_length_c   7.89068518
_cell_angle_alpha   60.00242601
_cell_angle_beta   59.99948515
_cell_angle_gamma   59.99868366
_symmetry_Int_Tables_number   1
_chemical_formula_structural   GaCo2Mo3N
_chemical_formula_sum   'Ga4 Co8 Mo12 N4'
_cell_volume   347.41272390
_cell_formula_units_Z   4
loop_
 _symmetry_equiv_pos_site_id
 _symmetry_equiv_pos_as_xyz
  1  'x, y, z'
loop_
 _atom_site_type_symbol
 _atom_site_label
 _atom_site_symmetry_multiplicity
 _atom_site_fract_x
 _atom_site_fract_y
 _atom_site_fract_z
 _atom_site_occupancy
  Ga  Ga0  1  0.624983  0.125082  0.125005  1
  Ga  Ga1  1  0.124979  0.125177  0.624789  1
  Ga  Ga2  1  0.125002  0.624762  0.125157  1
  Ga  Ga3  1  0.124954  0.125147  0.125088  1
  Co  Co4  1  0.251841  0.916023  0.916070  1
  Co  Co5  1  0.916140  0.251649  0.916110  1
  Co  Co6  1  0.916138  0.916078  0.916123  1
  Co  Co7  1  0.916105  0.916039  0.251786  1
  Co  Co8  1  0.998099  0.333973  0.333977  1
  Co  Co9  1  0.334048  0.334032  0.997955  1
  Co  Co10  1  0.334005  0.998078  0.333982  1
  Co  Co11  1  0.334046  0.334023  0.334010  1
  Mo  Mo12  1  0.694137  0.305871  0.694097  1
  Mo  Mo13  1  0.556096  0.555908  0.943988  1
  Mo  Mo14  1  0.555974  0.944077  0.555880  1
  Mo  Mo15  1  0.943925  0.943956  0.556057  1
  Mo  Mo16  1  0.943959  0.555983  0.556075  1
  Mo  Mo17  1  0.943882  0.556061  0.943897  1
  Mo  Mo18  1  0.694173  0.305844  0.305878  1
  Mo  Mo19  1  0.305804  0.694209  0.305847  1
  Mo  Mo20  1  0.305796  0.305798  0.694216  1
  Mo  Mo21  1  0.305833  0.694174  0.694127  1
  Mo  Mo22  1  0.694093  0.694095  0.305912  1
  Mo  Mo23  1  0.556067  0.943994  0.943969  1
  N  N24  1  0.624926  0.624998  0.624989  1
  N  N25  1  0.125219  0.624903  0.624907  1
  N  N26  1  0.624894  0.125115  0.624961  1
  N  N27  1  0.624883  0.624952  0.125149  1
