# generated using pymatgen
data_CeSmN2Cl
_symmetry_space_group_name_H-M   'P 1'
_cell_length_a   3.90483300
_cell_length_b   3.90483189
_cell_length_c   7.38347800
_cell_angle_alpha   90.00000000
_cell_angle_beta   90.00000000
_cell_angle_gamma   120.00001791
_symmetry_Int_Tables_number   1
_chemical_formula_structural   CeSmN2Cl
_chemical_formula_sum   'Ce1 Sm1 N2 Cl1'
_cell_volume   97.49814309
_cell_formula_units_Z   1
loop_
 _symmetry_equiv_pos_site_id
 _symmetry_equiv_pos_as_xyz
  1  'x, y, z'
loop_
 _atom_site_type_symbol
 _atom_site_label
 _atom_site_symmetry_multiplicity
 _atom_site_fract_x
 _atom_site_fract_y
 _atom_site_fract_z
 _atom_site_occupancy
  Ce  Ce0  1  0.333333  0.666667  0.320574  1
  Sm  Sm1  1  0.666667  0.333333  0.697614  1
  N  N2  1  0.666667  0.333333  0.364564  1
  N  N3  1  0.333333  0.666667  0.618317  1
  Cl  Cl4  1  0.000000  0.000000  0.998931  1
