# generated using pymatgen
data_Rb8TiSiSe8
_symmetry_space_group_name_H-M   'P 1'
_cell_length_a   8.76948855
_cell_length_b   10.32384600
_cell_length_c   15.35013056
_cell_angle_alpha   90.00000000
_cell_angle_beta   89.68326020
_cell_angle_gamma   90.00000000
_symmetry_Int_Tables_number   1
_chemical_formula_structural   Rb8TiSiSe8
_chemical_formula_sum   'Rb16 Ti2 Si2 Se16'
_cell_volume   1389.70052076
_cell_formula_units_Z   2
loop_
 _symmetry_equiv_pos_site_id
 _symmetry_equiv_pos_as_xyz
  1  'x, y, z'
loop_
 _atom_site_type_symbol
 _atom_site_label
 _atom_site_symmetry_multiplicity
 _atom_site_fract_x
 _atom_site_fract_y
 _atom_site_fract_z
 _atom_site_occupancy
  Rb  Rb0  1  0.000000  0.000000  0.000000  1
  Rb  Rb1  1  0.500000  0.000000  0.500000  1
  Rb  Rb2  1  0.000000  0.500000  0.000000  1
  Rb  Rb3  1  0.500000  0.500000  0.500000  1
  Rb  Rb4  1  0.985825  0.750000  0.425351  1
  Rb  Rb5  1  0.486535  0.250000  0.074168  1
  Rb  Rb6  1  0.014175  0.250000  0.574649  1
  Rb  Rb7  1  0.513465  0.750000  0.925832  1
  Rb  Rb8  1  0.839186  0.054492  0.278187  1
  Rb  Rb9  1  0.339062  0.948796  0.222690  1
  Rb  Rb10  1  0.160814  0.554492  0.721813  1
  Rb  Rb11  1  0.660938  0.448796  0.777310  1
  Rb  Rb12  1  0.160814  0.945508  0.721813  1
  Rb  Rb13  1  0.660938  0.051204  0.777310  1
  Rb  Rb14  1  0.839186  0.445508  0.278187  1
  Rb  Rb15  1  0.339062  0.551204  0.222690  1
  Ti  Ti16  1  0.741480  0.750000  0.166145  1
  Ti  Ti17  1  0.258520  0.250000  0.833855  1
  Si  Si18  1  0.760119  0.750000  0.666054  1
  Si  Si19  1  0.239881  0.250000  0.333946  1
  Se  Se20  1  0.983031  0.250000  0.825241  1
  Se  Se21  1  0.504992  0.250000  0.324788  1
  Se  Se22  1  0.495008  0.750000  0.675212  1
  Se  Se23  1  0.016969  0.750000  0.174759  1
  Se  Se24  1  0.657567  0.558848  0.091296  1
  Se  Se25  1  0.157474  0.432850  0.406780  1
  Se  Se26  1  0.342433  0.058848  0.908704  1
  Se  Se27  1  0.842526  0.932850  0.593220  1
  Se  Se28  1  0.342433  0.441152  0.908704  1
  Se  Se29  1  0.842526  0.567150  0.593220  1
  Se  Se30  1  0.657567  0.941152  0.091296  1
  Se  Se31  1  0.157474  0.067150  0.406780  1
  Se  Se32  1  0.633687  0.750000  0.312286  1
  Se  Se33  1  0.139118  0.250000  0.193375  1
  Se  Se34  1  0.366313  0.250000  0.687714  1
  Se  Se35  1  0.860882  0.750000  0.806625  1
