# generated using pymatgen
data_Tb3Ce2Er5Al3ZnRu6
_symmetry_space_group_name_H-M   'P 1'
_cell_length_a   8.43430765
_cell_length_b   8.34943092
_cell_length_c   8.31557000
_cell_angle_alpha   109.98044067
_cell_angle_beta   109.32784251
_cell_angle_gamma   110.25889348
_symmetry_Int_Tables_number   1
_chemical_formula_structural   Tb3Ce2Er5Al3ZnRu6
_chemical_formula_sum   'Tb3 Ce2 Er5 Al3 Zn1 Ru6'
_cell_volume   444.23595251
_cell_formula_units_Z   1
loop_
 _symmetry_equiv_pos_site_id
 _symmetry_equiv_pos_as_xyz
  1  'x, y, z'
loop_
 _atom_site_type_symbol
 _atom_site_label
 _atom_site_symmetry_multiplicity
 _atom_site_fract_x
 _atom_site_fract_y
 _atom_site_fract_z
 _atom_site_occupancy
  Tb  Tb0  1  0.778191  0.783773  0.775808  1
  Tb  Tb1  1  0.317201  0.564151  0.753347  1
  Tb  Tb2  1  0.749489  0.317219  0.566877  1
  Ce  Ce3  1  0.944638  0.254079  0.195758  1
  Ce  Ce4  1  0.198703  0.944244  0.254759  1
  Er  Er5  1  0.566263  0.745008  0.313415  1
  Er  Er6  1  0.722198  0.504382  0.000680  1
  Er  Er7  1  0.999216  0.719756  0.505398  1
  Er  Er8  1  0.500900  0.993841  0.717410  1
  Er  Er9  1  0.255286  0.187691  0.931339  1
  Al  Al10  1  0.091992  0.493937  0.996672  1
  Al  Al11  1  0.994888  0.087297  0.501381  1
  Al  Al12  1  0.502788  0.008219  0.092641  1
  Zn  Zn13  1  0.422081  0.417577  0.414534  1
  Ru  Ru14  1  0.868571  0.117937  0.741658  1
  Ru  Ru15  1  0.754185  0.900723  0.123108  1
  Ru  Ru16  1  0.127940  0.766011  0.908082  1
  Ru  Ru17  1  0.220064  0.594604  0.362828  1
  Ru  Ru18  1  0.355690  0.216013  0.598302  1
  Ru  Ru19  1  0.629716  0.383538  0.245999  1
