# generated using pymatgen
data_Pm4HgAu3
_symmetry_space_group_name_H-M   'P 1'
_cell_length_a   7.46044823
_cell_length_b   5.92365139
_cell_length_c   4.82295600
_cell_angle_alpha   90.00000000
_cell_angle_beta   90.00000000
_cell_angle_gamma   88.78160262
_symmetry_Int_Tables_number   1
_chemical_formula_structural   Pm4HgAu3
_chemical_formula_sum   'Pm4 Hg1 Au3'
_cell_volume   213.09316075
_cell_formula_units_Z   1
loop_
 _symmetry_equiv_pos_site_id
 _symmetry_equiv_pos_as_xyz
  1  'x, y, z'
loop_
 _atom_site_type_symbol
 _atom_site_label
 _atom_site_symmetry_multiplicity
 _atom_site_fract_x
 _atom_site_fract_y
 _atom_site_fract_z
 _atom_site_occupancy
  Pm  Pm0  1  0.106024  0.507741  0.000000  1
  Pm  Pm1  1  0.591826  0.733413  0.000000  1
  Pm  Pm2  1  0.235621  0.028687  0.499999  1
  Pm  Pm3  1  0.728800  0.228866  0.499999  1
  Hg  Hg4  1  0.879342  0.717901  0.499999  1
  Au  Au5  1  0.461284  0.224965  0.000000  1
  Au  Au6  1  0.957708  0.023278  0.000000  1
  Au  Au7  1  0.372728  0.535152  0.499999  1
