# generated using pymatgen
data_K2Sr2US6
_symmetry_space_group_name_H-M   'P 1'
_cell_length_a   8.45377474
_cell_length_b   8.51554254
_cell_length_c   8.45377600
_cell_angle_alpha   87.49257655
_cell_angle_beta   88.16213841
_cell_angle_gamma   87.49258741
_symmetry_Int_Tables_number   1
_chemical_formula_structural   K2Sr2US6
_chemical_formula_sum   'K4 Sr4 U2 S12'
_cell_volume   607.13235782
_cell_formula_units_Z   2
loop_
 _symmetry_equiv_pos_site_id
 _symmetry_equiv_pos_as_xyz
  1  'x, y, z'
loop_
 _atom_site_type_symbol
 _atom_site_label
 _atom_site_symmetry_multiplicity
 _atom_site_fract_x
 _atom_site_fract_y
 _atom_site_fract_z
 _atom_site_occupancy
  K  K0  1  0.884137  0.615829  0.250113  1
  K  K1  1  0.249887  0.884171  0.615863  1
  K  K2  1  0.243619  0.250000  0.256381  1
  K  K3  1  0.750457  0.750000  0.749543  1
  Sr  Sr4  1  0.618759  0.250000  0.881241  1
  Sr  Sr5  1  0.748408  0.119426  0.375901  1
  Sr  Sr6  1  0.379468  0.750000  0.120532  1
  Sr  Sr7  1  0.124099  0.380574  0.751592  1
  U  U8  1  0.505413  0.500601  0.502050  1
  U  U9  1  0.997950  0.999399  0.994587  1
  S  S10  1  0.217429  0.561052  0.435835  1
  S  S11  1  0.443268  0.212073  0.571146  1
  S  S12  1  0.562366  0.423751  0.212605  1
  S  S13  1  0.922150  0.072873  0.707857  1
  S  S14  1  0.702011  0.943316  0.063345  1
  S  S15  1  0.072242  0.713608  0.930871  1
  S  S16  1  0.792143  0.427127  0.577850  1
  S  S17  1  0.569129  0.786392  0.427758  1
  S  S18  1  0.436655  0.556684  0.797989  1
  S  S19  1  0.064165  0.938948  0.282571  1
  S  S20  1  0.287395  0.076249  0.937634  1
  S  S21  1  0.928854  0.287927  0.056732  1
