# generated using pymatgen
data_Ho4Ga3SiNi4
_symmetry_space_group_name_H-M   'P 1'
_cell_length_a   4.25990600
_cell_length_b   6.84951123
_cell_length_c   7.22196842
_cell_angle_alpha   91.50983565
_cell_angle_beta   90.00000000
_cell_angle_gamma   90.00000000
_symmetry_Int_Tables_number   1
_chemical_formula_structural   Ho4Ga3SiNi4
_chemical_formula_sum   'Ho4 Ga3 Si1 Ni4'
_cell_volume   210.65141311
_cell_formula_units_Z   1
loop_
 _symmetry_equiv_pos_site_id
 _symmetry_equiv_pos_as_xyz
  1  'x, y, z'
loop_
 _atom_site_type_symbol
 _atom_site_label
 _atom_site_symmetry_multiplicity
 _atom_site_fract_x
 _atom_site_fract_y
 _atom_site_fract_z
 _atom_site_occupancy
  Ho  Ho0  1  0.750000  0.016910  0.298601  1
  Ho  Ho1  1  0.250000  0.984923  0.701137  1
  Ho  Ho2  1  0.250000  0.481414  0.800375  1
  Ho  Ho3  1  0.750000  0.511063  0.197170  1
  Ga  Ga4  1  0.750000  0.682404  0.583364  1
  Ga  Ga5  1  0.250000  0.313951  0.417033  1
  Ga  Ga6  1  0.250000  0.809976  0.084793  1
  Si  Si7  1  0.750000  0.182323  0.916938  1
  Ni  Ni8  1  0.750000  0.816140  0.914591  1
  Ni  Ni9  1  0.250000  0.205773  0.075815  1
  Ni  Ni10  1  0.250000  0.703310  0.410927  1
  Ni  Ni11  1  0.750000  0.291813  0.599255  1
