# generated using pymatgen
data_SmY11(GaRh)8
_symmetry_space_group_name_H-M   'P 1'
_cell_length_a   5.60512020
_cell_length_b   7.84816149
_cell_length_c   13.63749300
_cell_angle_alpha   90.00000000
_cell_angle_beta   90.00000000
_cell_angle_gamma   89.87750969
_symmetry_Int_Tables_number   1
_chemical_formula_structural   SmY11(GaRh)8
_chemical_formula_sum   'Sm1 Y11 Ga8 Rh8'
_cell_volume   599.91042532
_cell_formula_units_Z   1
loop_
 _symmetry_equiv_pos_site_id
 _symmetry_equiv_pos_as_xyz
  1  'x, y, z'
loop_
 _atom_site_type_symbol
 _atom_site_label
 _atom_site_symmetry_multiplicity
 _atom_site_fract_x
 _atom_site_fract_y
 _atom_site_fract_z
 _atom_site_occupancy
  Sm  Sm0  1  0.630737  0.263639  0.250000  1
  Y  Y1  1  0.369664  0.736419  0.750000  1
  Y  Y2  1  0.370612  0.762903  0.250000  1
  Y  Y3  1  0.630490  0.236473  0.750000  1
  Y  Y4  1  0.151378  0.400865  0.097091  1
  Y  Y5  1  0.848153  0.600023  0.902041  1
  Y  Y6  1  0.848153  0.600023  0.597959  1
  Y  Y7  1  0.848354  0.899364  0.402988  1
  Y  Y8  1  0.151378  0.400865  0.402909  1
  Y  Y9  1  0.151671  0.099693  0.597555  1
  Y  Y10  1  0.151671  0.099693  0.902445  1
  Y  Y11  1  0.848354  0.899364  0.097012  1
  Ga  Ga12  1  0.125281  0.107129  0.250000  1
  Ga  Ga13  1  0.873916  0.890690  0.750000  1
  Ga  Ga14  1  0.876059  0.611891  0.250000  1
  Ga  Ga15  1  0.125700  0.390211  0.750000  1
  Ga  Ga16  1  0.648440  0.249982  0.999508  1
  Ga  Ga17  1  0.351330  0.750047  0.999841  1
  Ga  Ga18  1  0.351330  0.750047  0.500159  1
  Ga  Ga19  1  0.648440  0.249982  0.500492  1
  Rh  Rh20  1  0.360318  0.037959  0.093309  1
  Rh  Rh21  1  0.638157  0.961220  0.905878  1
  Rh  Rh22  1  0.638157  0.961220  0.594122  1
  Rh  Rh23  1  0.639876  0.539395  0.406556  1
  Rh  Rh24  1  0.360318  0.037959  0.406691  1
  Rh  Rh25  1  0.361094  0.461774  0.593931  1
  Rh  Rh26  1  0.361094  0.461774  0.906069  1
  Rh  Rh27  1  0.639876  0.539395  0.093444  1
