# generated using pymatgen
data_Y4ZrSc3Pt4
_symmetry_space_group_name_H-M   'P 1'
_cell_length_a   4.66890000
_cell_length_b   7.06246771
_cell_length_c   8.35342400
_cell_angle_alpha   90.69052398
_cell_angle_beta   90.00000000
_cell_angle_gamma   90.00000000
_symmetry_Int_Tables_number   1
_chemical_formula_structural   Y4ZrSc3Pt4
_chemical_formula_sum   'Y4 Zr1 Sc3 Pt4'
_cell_volume   275.42542724
_cell_formula_units_Z   1
loop_
 _symmetry_equiv_pos_site_id
 _symmetry_equiv_pos_as_xyz
  1  'x, y, z'
loop_
 _atom_site_type_symbol
 _atom_site_label
 _atom_site_symmetry_multiplicity
 _atom_site_fract_x
 _atom_site_fract_y
 _atom_site_fract_z
 _atom_site_occupancy
  Y  Y0  1  0.250000  0.016561  0.678523  1
  Y  Y1  1  0.250000  0.518294  0.824045  1
  Y  Y2  1  0.750000  0.980654  0.321242  1
  Y  Y3  1  0.750000  0.480850  0.175241  1
  Zr  Zr4  1  0.750000  0.359423  0.573600  1
  Sc  Sc5  1  0.250000  0.142430  0.074369  1
  Sc  Sc6  1  0.250000  0.642409  0.424156  1
  Sc  Sc7  1  0.750000  0.859238  0.927343  1
  Pt  Pt8  1  0.250000  0.262073  0.407186  1
  Pt  Pt9  1  0.250000  0.761267  0.099089  1
  Pt  Pt10  1  0.750000  0.738041  0.596219  1
  Pt  Pt11  1  0.750000  0.238759  0.898986  1
