# generated using pymatgen
data_V12Ga6CoCuN4
_symmetry_space_group_name_H-M   'P 1'
_cell_length_a   6.56012037
_cell_length_b   6.56289797
_cell_length_c   6.56164073
_cell_angle_alpha   90.03931165
_cell_angle_beta   89.96280815
_cell_angle_gamma   90.16981669
_symmetry_Int_Tables_number   1
_chemical_formula_structural   V12Ga6CoCuN4
_chemical_formula_sum   'V12 Ga6 Co1 Cu1 N4'
_cell_volume   282.49958095
_cell_formula_units_Z   1
loop_
 _symmetry_equiv_pos_site_id
 _symmetry_equiv_pos_as_xyz
  1  'x, y, z'
loop_
 _atom_site_type_symbol
 _atom_site_label
 _atom_site_symmetry_multiplicity
 _atom_site_fract_x
 _atom_site_fract_y
 _atom_site_fract_z
 _atom_site_occupancy
  V  V0  1  0.793390  0.960116  0.374871  1
  V  V1  1  0.709727  0.039537  0.876011  1
  V  V2  1  0.210337  0.461886  0.126972  1
  V  V3  1  0.289075  0.544001  0.623847  1
  V  V4  1  0.959484  0.377056  0.790262  1
  V  V5  1  0.040280  0.872662  0.706855  1
  V  V6  1  0.457505  0.124059  0.212426  1
  V  V7  1  0.537177  0.624629  0.289177  1
  V  V8  1  0.375310  0.788009  0.962800  1
  V  V9  1  0.875537  0.711387  0.042662  1
  V  V10  1  0.123804  0.207496  0.458523  1
  V  V11  1  0.626810  0.291267  0.539569  1
  Ga  Ga12  1  0.823078  0.319203  0.178339  1
  Ga  Ga13  1  0.677709  0.680690  0.677971  1
  Ga  Ga14  1  0.560903  0.420980  0.926764  1
  Ga  Ga15  1  0.417622  0.934411  0.567831  1
  Ga  Ga16  1  0.941404  0.580402  0.425850  1
  Ga  Ga17  1  0.081748  0.062159  0.071736  1
  Co  Co18  1  0.182464  0.822424  0.319067  1
  Cu  Cu19  1  0.316930  0.177519  0.818807  1
  N  N20  1  0.877798  0.123264  0.626297  1
  N  N21  1  0.623427  0.876922  0.127411  1
  N  N22  1  0.125134  0.625418  0.877271  1
  N  N23  1  0.373346  0.374504  0.378676  1
