# generated using pymatgen
data_Nd3Tm3TcSn2
_symmetry_space_group_name_H-M   'P 1'
_cell_length_a   8.12403700
_cell_length_b   8.12403638
_cell_length_c   4.47818400
_cell_angle_alpha   90.00000000
_cell_angle_beta   90.00000000
_cell_angle_gamma   119.99999844
_symmetry_Int_Tables_number   1
_chemical_formula_structural   Nd3Tm3TcSn2
_chemical_formula_sum   'Nd3 Tm3 Tc1 Sn2'
_cell_volume   255.96248914
_cell_formula_units_Z   1
loop_
 _symmetry_equiv_pos_site_id
 _symmetry_equiv_pos_as_xyz
  1  'x, y, z'
loop_
 _atom_site_type_symbol
 _atom_site_label
 _atom_site_symmetry_multiplicity
 _atom_site_fract_x
 _atom_site_fract_y
 _atom_site_fract_z
 _atom_site_occupancy
  Nd  Nd0  1  0.402908  0.000000  0.000000  1
  Nd  Nd1  1  0.000000  0.402908  0.000000  1
  Nd  Nd2  1  0.597092  0.597091  0.000000  1
  Tm  Tm3  1  0.763336  0.000000  0.500000  1
  Tm  Tm4  1  0.236664  0.236664  0.500000  1
  Tm  Tm5  1  0.000000  0.763337  0.500000  1
  Tc  Tc6  1  0.000000  0.000000  0.000000  1
  Sn  Sn7  1  0.666666  0.333334  0.500000  1
  Sn  Sn8  1  0.333334  0.666667  0.500000  1
