# generated using pymatgen
data_Sc4FeB8Ru9
_symmetry_space_group_name_H-M   'P 1'
_cell_length_a   3.00035300
_cell_length_b   8.47915144
_cell_length_c   9.97531630
_cell_angle_alpha   90.58973147
_cell_angle_beta   90.00000000
_cell_angle_gamma   90.00000000
_symmetry_Int_Tables_number   1
_chemical_formula_structural   Sc4FeB8Ru9
_chemical_formula_sum   'Sc4 Fe1 B8 Ru9'
_cell_volume   253.76306783
_cell_formula_units_Z   1
loop_
 _symmetry_equiv_pos_site_id
 _symmetry_equiv_pos_as_xyz
  1  'x, y, z'
loop_
 _atom_site_type_symbol
 _atom_site_label
 _atom_site_symmetry_multiplicity
 _atom_site_fract_x
 _atom_site_fract_y
 _atom_site_fract_z
 _atom_site_occupancy
  Sc  Sc0  1  0.500000  0.843415  0.172677  1
  Sc  Sc1  1  0.500000  0.156585  0.827323  1
  Sc  Sc2  1  0.500000  0.658490  0.684553  1
  Sc  Sc3  1  0.500000  0.341510  0.315447  1
  Fe  Fe4  1  0.000000  0.000000  0.000000  1
  B  B5  1  0.500000  0.964934  0.591015  1
  B  B6  1  0.500000  0.035066  0.408985  1
  B  B7  1  0.500000  0.862920  0.906517  1
  B  B8  1  0.500000  0.137080  0.093483  1
  B  B9  1  0.500000  0.648088  0.398175  1
  B  B10  1  0.500000  0.351912  0.601825  1
  B  B11  1  0.500000  0.465590  0.912644  1
  B  B12  1  0.500000  0.534410  0.087356  1
  Ru  Ru13  1  0.000000  0.667744  0.952416  1
  Ru  Ru14  1  0.000000  0.332256  0.047584  1
  Ru  Ru15  1  0.000000  0.841477  0.453686  1
  Ru  Ru16  1  0.000000  0.158523  0.546314  1
  Ru  Ru17  1  0.000000  0.403563  0.762954  1
  Ru  Ru18  1  0.000000  0.596437  0.237046  1
  Ru  Ru19  1  0.000000  0.500000  0.500000  1
  Ru  Ru20  1  0.000000  0.907303  0.742709  1
  Ru  Ru21  1  0.000000  0.092697  0.257291  1
