# generated using pymatgen
data_KI16Br3
_symmetry_space_group_name_H-M   'P 1'
_cell_length_a   10.39550135
_cell_length_b   11.49020324
_cell_length_c   10.26904448
_cell_angle_alpha   68.04860357
_cell_angle_beta   76.75592053
_cell_angle_gamma   88.93645560
_symmetry_Int_Tables_number   1
_chemical_formula_structural   KI16Br3
_chemical_formula_sum   'K1 I16 Br3'
_cell_volume   1104.35390298
_cell_formula_units_Z   1
loop_
 _symmetry_equiv_pos_site_id
 _symmetry_equiv_pos_as_xyz
  1  'x, y, z'
loop_
 _atom_site_type_symbol
 _atom_site_label
 _atom_site_symmetry_multiplicity
 _atom_site_fract_x
 _atom_site_fract_y
 _atom_site_fract_z
 _atom_site_occupancy
  K  K0  1  0.869649  0.663727  0.238908  1
  I  I1  1  0.346514  0.497534  0.554204  1
  I  I2  1  0.867307  0.472468  0.020668  1
  I  I3  1  0.612938  0.428504  0.532343  1
  I  I4  1  0.118229  0.576025  0.994353  1
  I  I5  1  0.042145  0.631607  0.516937  1
  I  I6  1  0.593782  0.340518  0.024935  1
  I  I7  1  0.900929  0.332629  0.497206  1
  I  I8  1  0.444618  0.685627  0.967018  1
  I  I9  1  0.141615  0.865108  0.518582  1
  I  I10  1  0.738624  0.116310  0.976758  1
  I  I11  1  0.806239  0.135809  0.427525  1
  I  I12  1  0.316295  0.894562  0.022790  1
  I  I13  1  0.239584  0.092273  0.551151  1
  I  I14  1  0.876581  0.924455  0.909944  1
  I  I15  1  0.677116  0.929083  0.378186  1
  I  I16  1  0.174343  0.099946  0.084050  1
  Br  Br17  1  0.568568  0.804191  0.661692  1
  Br  Br18  1  0.248401  0.290968  0.825842  1
  Br  Br19  1  0.416522  0.218654  0.296911  1
