# generated using pymatgen
data_Zr3Tc3AsP2
_symmetry_space_group_name_H-M   'P 1'
_cell_length_a   6.85401000
_cell_length_b   6.85400933
_cell_length_c   3.55799300
_cell_angle_alpha   90.00000000
_cell_angle_beta   90.00000000
_cell_angle_gamma   120.00000325
_symmetry_Int_Tables_number   1
_chemical_formula_structural   Zr3Tc3AsP2
_chemical_formula_sum   'Zr3 Tc3 As1 P2'
_cell_volume   144.75218618
_cell_formula_units_Z   1
loop_
 _symmetry_equiv_pos_site_id
 _symmetry_equiv_pos_as_xyz
  1  'x, y, z'
loop_
 _atom_site_type_symbol
 _atom_site_label
 _atom_site_symmetry_multiplicity
 _atom_site_fract_x
 _atom_site_fract_y
 _atom_site_fract_z
 _atom_site_occupancy
  Zr  Zr0  1  0.398085  0.409906  0.500000  1
  Zr  Zr1  1  0.590094  0.988179  0.500000  1
  Zr  Zr2  1  0.011821  0.601915  0.500000  1
  Tc  Tc3  1  0.005397  0.244907  0.000000  1
  Tc  Tc4  1  0.239509  0.994603  0.000000  1
  Tc  Tc5  1  0.755093  0.760491  0.000000  1
  As  As6  1  0.666667  0.333333  0.000000  1
  P  P7  1  0.333333  0.666667  0.000000  1
  P  P8  1  0.000000  0.000000  0.500000  1
