# generated using pymatgen
data_Th2Ag3Au
_symmetry_space_group_name_H-M   'P 1'
_cell_length_a   4.86992800
_cell_length_b   4.86992905
_cell_length_c   6.80175200
_cell_angle_alpha   90.00000000
_cell_angle_beta   90.00000000
_cell_angle_gamma   120.00000644
_symmetry_Int_Tables_number   1
_chemical_formula_structural   Th2Ag3Au
_chemical_formula_sum   'Th2 Ag3 Au1'
_cell_volume   139.70005307
_cell_formula_units_Z   1
loop_
 _symmetry_equiv_pos_site_id
 _symmetry_equiv_pos_as_xyz
  1  'x, y, z'
loop_
 _atom_site_type_symbol
 _atom_site_label
 _atom_site_symmetry_multiplicity
 _atom_site_fract_x
 _atom_site_fract_y
 _atom_site_fract_z
 _atom_site_occupancy
  Th  Th0  1  0.000000  0.000000  0.254020  1
  Th  Th1  1  0.000000  0.000000  0.746124  1
  Ag  Ag2  1  0.333333  0.666667  0.000204  1
  Ag  Ag3  1  0.666667  0.333333  0.502570  1
  Ag  Ag4  1  0.666667  0.333333  0.998655  1
  Au  Au5  1  0.333333  0.666667  0.498425  1
