# generated using pymatgen
data_Ho4Ga4NiRu3
_symmetry_space_group_name_H-M   'P 1'
_cell_length_a   4.23433300
_cell_length_b   6.87536511
_cell_length_c   7.71956038
_cell_angle_alpha   89.64121951
_cell_angle_beta   90.00000000
_cell_angle_gamma   90.00000000
_symmetry_Int_Tables_number   1
_chemical_formula_structural   Ho4Ga4NiRu3
_chemical_formula_sum   'Ho4 Ga4 Ni1 Ru3'
_cell_volume   224.73195445
_cell_formula_units_Z   1
loop_
 _symmetry_equiv_pos_site_id
 _symmetry_equiv_pos_as_xyz
  1  'x, y, z'
loop_
 _atom_site_type_symbol
 _atom_site_label
 _atom_site_symmetry_multiplicity
 _atom_site_fract_x
 _atom_site_fract_y
 _atom_site_fract_z
 _atom_site_occupancy
  Ho  Ho0  1  0.250000  0.519987  0.689319  1
  Ho  Ho1  1  0.250000  0.016949  0.810887  1
  Ho  Ho2  1  0.750000  0.987864  0.194332  1
  Ho  Ho3  1  0.750000  0.481957  0.307553  1
  Ga  Ga4  1  0.750000  0.328614  0.917325  1
  Ga  Ga5  1  0.250000  0.169324  0.433355  1
  Ga  Ga6  1  0.750000  0.835034  0.574939  1
  Ga  Ga7  1  0.250000  0.667417  0.075539  1
  Ni  Ni8  1  0.750000  0.212675  0.601963  1
  Ru  Ru9  1  0.250000  0.281734  0.104821  1
  Ru  Ru10  1  0.250000  0.778406  0.395811  1
  Ru  Ru11  1  0.750000  0.720037  0.894156  1
