# generated using pymatgen
data_Y4Sn4Sb2Rh7
_symmetry_space_group_name_H-M   'P 1'
_cell_length_a   7.60867718
_cell_length_b   7.61608178
_cell_length_c   7.60867706
_cell_angle_alpha   109.54191252
_cell_angle_beta   109.29041022
_cell_angle_gamma   109.54191157
_symmetry_Int_Tables_number   1
_chemical_formula_structural   Y4Sn4Sb2Rh7
_chemical_formula_sum   'Y4 Sn4 Sb2 Rh7'
_cell_volume   339.57606421
_cell_formula_units_Z   1
loop_
 _symmetry_equiv_pos_site_id
 _symmetry_equiv_pos_as_xyz
  1  'x, y, z'
loop_
 _atom_site_type_symbol
 _atom_site_label
 _atom_site_symmetry_multiplicity
 _atom_site_fract_x
 _atom_site_fract_y
 _atom_site_fract_z
 _atom_site_occupancy
  Y  Y0  1  0.498962  0.997924  0.998962  1
  Y  Y1  1  0.999157  0.493595  0.999157  1
  Y  Y2  1  0.998962  0.997924  0.498962  1
  Y  Y3  1  0.494437  0.493595  0.494437  1
  Sn  Sn4  1  0.314872  0.995047  0.314872  1
  Sn  Sn5  1  0.997263  0.686484  0.689220  1
  Sn  Sn6  1  0.689220  0.686484  0.997263  1
  Sn  Sn7  1  0.680174  0.995047  0.680174  1
  Sb  Sb8  1  0.997684  0.319203  0.321519  1
  Sb  Sb9  1  0.321519  0.319203  0.997684  1
  Rh  Rh10  1  0.251043  0.502086  0.751043  1
  Rh  Rh11  1  0.501206  0.250525  0.749319  1
  Rh  Rh12  1  0.749319  0.250525  0.501206  1
  Rh  Rh13  1  0.501115  0.748359  0.247243  1
  Rh  Rh14  1  0.006779  0.013557  0.006779  1
  Rh  Rh15  1  0.247243  0.748359  0.501115  1
  Rh  Rh16  1  0.751043  0.502086  0.251043  1
