# generated using pymatgen
data_Nd2Ho18AlBi11
_symmetry_space_group_name_H-M   'P 1'
_cell_length_a   8.21012671
_cell_length_b   9.47472200
_cell_length_c   12.00208400
_cell_angle_alpha   90.00000000
_cell_angle_beta   90.28237216
_cell_angle_gamma   90.00000000
_symmetry_Int_Tables_number   1
_chemical_formula_structural   Nd2Ho18AlBi11
_chemical_formula_sum   'Nd2 Ho18 Al1 Bi11'
_cell_volume   933.61479087
_cell_formula_units_Z   1
loop_
 _symmetry_equiv_pos_site_id
 _symmetry_equiv_pos_as_xyz
  1  'x, y, z'
loop_
 _atom_site_type_symbol
 _atom_site_label
 _atom_site_symmetry_multiplicity
 _atom_site_fract_x
 _atom_site_fract_y
 _atom_site_fract_z
 _atom_site_occupancy
  Nd  Nd0  1  0.315057  0.250000  0.220843  1
  Nd  Nd1  1  0.813163  0.250000  0.279400  1
  Ho  Ho2  1  0.354160  0.750000  0.206698  1
  Ho  Ho3  1  0.851202  0.750000  0.285280  1
  Ho  Ho4  1  0.648815  0.250000  0.782845  1
  Ho  Ho5  1  0.150314  0.250000  0.717787  1
  Ho  Ho6  1  0.685076  0.569279  0.055215  1
  Ho  Ho7  1  0.193240  0.936035  0.440009  1
  Ho  Ho8  1  0.307473  0.051954  0.940324  1
  Ho  Ho9  1  0.806136  0.436643  0.560198  1
  Ho  Ho10  1  0.307473  0.448046  0.940324  1
  Ho  Ho11  1  0.806136  0.063357  0.560198  1
  Ho  Ho12  1  0.685076  0.930721  0.055215  1
  Ho  Ho13  1  0.193240  0.563965  0.440009  1
  Ho  Ho14  1  0.475478  0.250000  0.489373  1
  Ho  Ho15  1  0.978480  0.250000  0.009874  1
  Ho  Ho16  1  0.525792  0.750000  0.512910  1
  Ho  Ho17  1  0.034467  0.750000  0.988632  1
  Ho  Ho18  1  0.677983  0.750000  0.786622  1
  Ho  Ho19  1  0.190722  0.750000  0.722591  1
  Al  Al20  1  0.408031  0.750000  0.957971  1
  Bi  Bi21  1  0.909397  0.750000  0.544311  1
  Bi  Bi22  1  0.594032  0.250000  0.037779  1
  Bi  Bi23  1  0.093447  0.250000  0.462253  1
  Bi  Bi24  1  0.563708  0.990916  0.327737  1
  Bi  Bi25  1  0.062359  0.508027  0.173876  1
  Bi  Bi26  1  0.435978  0.496483  0.675491  1
  Bi  Bi27  1  0.935761  0.003100  0.824565  1
  Bi  Bi28  1  0.435978  0.003517  0.675491  1
  Bi  Bi29  1  0.935761  0.496900  0.824565  1
  Bi  Bi30  1  0.563708  0.509084  0.327737  1
  Bi  Bi31  1  0.062359  0.991973  0.173876  1
