# generated using pymatgen
data_TmLu9Cd3Ru
_symmetry_space_group_name_H-M   'P 1'
_cell_length_a   9.36775903
_cell_length_b   9.36772822
_cell_length_c   9.68326500
_cell_angle_alpha   90.00000000
_cell_angle_beta   90.00000000
_cell_angle_gamma   119.98619776
_symmetry_Int_Tables_number   1
_chemical_formula_structural   TmLu9Cd3Ru
_chemical_formula_sum   'Tm2 Lu18 Cd6 Ru2'
_cell_volume   736.00849526
_cell_formula_units_Z   2
loop_
 _symmetry_equiv_pos_site_id
 _symmetry_equiv_pos_as_xyz
  1  'x, y, z'
loop_
 _atom_site_type_symbol
 _atom_site_label
 _atom_site_symmetry_multiplicity
 _atom_site_fract_x
 _atom_site_fract_y
 _atom_site_fract_z
 _atom_site_occupancy
  Tm  Tm0  1  0.459865  0.918965  0.750000  1
  Tm  Tm1  1  0.081018  0.540134  0.750000  1
  Lu  Lu2  1  0.999793  0.000240  0.499664  1
  Lu  Lu3  1  0.999793  0.000240  0.000336  1
  Lu  Lu4  1  0.209614  0.790372  0.441245  1
  Lu  Lu5  1  0.210748  0.420070  0.441297  1
  Lu  Lu6  1  0.579922  0.789255  0.441292  1
  Lu  Lu7  1  0.789486  0.210527  0.557537  1
  Lu  Lu8  1  0.789397  0.579827  0.557368  1
  Lu  Lu9  1  0.420158  0.210615  0.557363  1
  Lu  Lu10  1  0.789486  0.210527  0.942463  1
  Lu  Lu11  1  0.789397  0.579827  0.942632  1
  Lu  Lu12  1  0.420158  0.210615  0.942637  1
  Lu  Lu13  1  0.209614  0.790372  0.058755  1
  Lu  Lu14  1  0.210748  0.420070  0.058703  1
  Lu  Lu15  1  0.579922  0.789255  0.058708  1
  Lu  Lu16  1  0.541247  0.458729  0.250000  1
  Lu  Lu17  1  0.540683  0.080812  0.250000  1
  Lu  Lu18  1  0.919202  0.459270  0.250000  1
  Lu  Lu19  1  0.460627  0.539394  0.750000  1
  Cd  Cd20  1  0.886130  0.113867  0.250000  1
  Cd  Cd21  1  0.885500  0.772212  0.250000  1
  Cd  Cd22  1  0.227831  0.114499  0.250000  1
  Cd  Cd23  1  0.113382  0.886603  0.750000  1
  Cd  Cd24  1  0.114937  0.227203  0.750000  1
  Cd  Cd25  1  0.772792  0.885092  0.750000  1
  Ru  Ru26  1  0.332595  0.667385  0.250000  1
  Ru  Ru27  1  0.665952  0.334026  0.750000  1
