# generated using pymatgen
data_Pr3IrAu3
_symmetry_space_group_name_H-M   'P 1'
_cell_length_a   8.36326785
_cell_length_b   8.36326783
_cell_length_c   8.36326777
_cell_angle_alpha   114.34586284
_cell_angle_beta   114.34586252
_cell_angle_gamma   114.34585480
_symmetry_Int_Tables_number   1
_chemical_formula_structural   Pr3IrAu3
_chemical_formula_sum   'Pr6 Ir2 Au6'
_cell_volume   346.09216014
_cell_formula_units_Z   2
loop_
 _symmetry_equiv_pos_site_id
 _symmetry_equiv_pos_as_xyz
  1  'x, y, z'
loop_
 _atom_site_type_symbol
 _atom_site_label
 _atom_site_symmetry_multiplicity
 _atom_site_fract_x
 _atom_site_fract_y
 _atom_site_fract_z
 _atom_site_occupancy
  Pr  Pr0  1  0.042337  0.393215  0.282068  1
  Pr  Pr1  1  0.393215  0.282068  0.042337  1
  Pr  Pr2  1  0.717932  0.957663  0.606785  1
  Pr  Pr3  1  0.282068  0.042337  0.393215  1
  Pr  Pr4  1  0.606785  0.717932  0.957663  1
  Pr  Pr5  1  0.957663  0.606785  0.717932  1
  Ir  Ir6  1  0.000000  0.000000  0.000000  1
  Ir  Ir7  1  0.500000  0.500000  0.500000  1
  Au  Au8  1  0.433198  0.940635  0.774446  1
  Au  Au9  1  0.940635  0.774446  0.433198  1
  Au  Au10  1  0.225554  0.566802  0.059365  1
  Au  Au11  1  0.774446  0.433198  0.940635  1
  Au  Au12  1  0.059365  0.225554  0.566802  1
  Au  Au13  1  0.566802  0.059365  0.225554  1
