# generated using pymatgen
data_U4Si4Tc7As2
_symmetry_space_group_name_H-M   'P 1'
_cell_length_a   7.16225193
_cell_length_b   7.16175049
_cell_length_c   7.16174961
_cell_angle_alpha   109.71049773
_cell_angle_beta   109.35030378
_cell_angle_gamma   109.35030558
_symmetry_Int_Tables_number   1
_chemical_formula_structural   U4Si4Tc7As2
_chemical_formula_sum   'U4 Si4 Tc7 As2'
_cell_volume   282.79740466
_cell_formula_units_Z   1
loop_
 _symmetry_equiv_pos_site_id
 _symmetry_equiv_pos_as_xyz
  1  'x, y, z'
loop_
 _atom_site_type_symbol
 _atom_site_label
 _atom_site_symmetry_multiplicity
 _atom_site_fract_x
 _atom_site_fract_y
 _atom_site_fract_z
 _atom_site_occupancy
  U  U0  1  0.497948  0.495489  0.495489  1
  U  U1  1  0.005204  0.502602  0.002602  1
  U  U2  1  0.497948  0.002459  0.002459  1
  U  U3  1  0.005204  0.002602  0.502602  1
  Si  Si4  1  0.310888  0.310376  0.000511  1
  Si  Si5  1  0.001054  0.687632  0.687632  1
  Si  Si6  1  0.001054  0.313422  0.313422  1
  Si  Si7  1  0.310888  0.000511  0.310376  1
  Tc  Tc8  1  0.494133  0.747067  0.247067  1
  Tc  Tc9  1  0.747570  0.250227  0.497343  1
  Tc  Tc10  1  0.245720  0.748337  0.497382  1
  Tc  Tc11  1  0.245720  0.497382  0.748337  1
  Tc  Tc12  1  0.008579  0.004289  0.004289  1
  Tc  Tc13  1  0.494133  0.247067  0.747067  1
  Tc  Tc14  1  0.747570  0.497343  0.250227  1
  As  As15  1  0.693194  0.000608  0.692585  1
  As  As16  1  0.693194  0.692585  0.000608  1
