# generated using pymatgen
data_Dy3Ho3(GaC3)2
_symmetry_space_group_name_H-M   'P 1'
_cell_length_a   3.56188500
_cell_length_b   7.04574816
_cell_length_c   9.85555723
_cell_angle_alpha   89.97552726
_cell_angle_beta   90.00000000
_cell_angle_gamma   90.00000000
_symmetry_Int_Tables_number   1
_chemical_formula_structural   Dy3Ho3(GaC3)2
_chemical_formula_sum   'Dy3 Ho3 Ga2 C6'
_cell_volume   247.33646753
_cell_formula_units_Z   1
loop_
 _symmetry_equiv_pos_site_id
 _symmetry_equiv_pos_as_xyz
  1  'x, y, z'
loop_
 _atom_site_type_symbol
 _atom_site_label
 _atom_site_symmetry_multiplicity
 _atom_site_fract_x
 _atom_site_fract_y
 _atom_site_fract_z
 _atom_site_occupancy
  Dy  Dy0  1  0.500000  0.510971  0.196617  1
  Dy  Dy1  1  0.000000  0.750235  0.458794  1
  Dy  Dy2  1  0.000000  0.250129  0.541241  1
  Ho  Ho3  1  0.500000  0.487596  0.803322  1
  Ho  Ho4  1  0.500000  0.988044  0.197037  1
  Ho  Ho5  1  0.500000  0.011898  0.802715  1
  Ga  Ga6  1  0.000000  0.751171  0.999394  1
  Ga  Ga7  1  0.000000  0.248545  0.000018  1
  C  C8  1  0.500000  0.509293  0.567674  1
  C  C9  1  0.500000  0.491178  0.433590  1
  C  C10  1  0.500000  0.991179  0.566967  1
  C  C11  1  0.500000  0.009103  0.432902  1
  C  C12  1  0.000000  0.750826  0.208404  1
  C  C13  1  0.000000  0.249832  0.791325  1
