# generated using pymatgen
data_Gd3(As3Pd10)2
_symmetry_space_group_name_H-M   'P 1'
_cell_length_a   8.90743029
_cell_length_b   8.90743001
_cell_length_c   8.90743000
_cell_angle_alpha   60.00000005
_cell_angle_beta   60.00000109
_cell_angle_gamma   59.99999755
_symmetry_Int_Tables_number   1
_chemical_formula_structural   Gd3(As3Pd10)2
_chemical_formula_sum   'Gd3 As6 Pd20'
_cell_volume   499.73787653
_cell_formula_units_Z   1
loop_
 _symmetry_equiv_pos_site_id
 _symmetry_equiv_pos_as_xyz
  1  'x, y, z'
loop_
 _atom_site_type_symbol
 _atom_site_label
 _atom_site_symmetry_multiplicity
 _atom_site_fract_x
 _atom_site_fract_y
 _atom_site_fract_z
 _atom_site_occupancy
  Gd  Gd0  1  0.249905  0.249928  0.250136  1
  Gd  Gd1  1  0.750095  0.750072  0.749864  1
  Gd  Gd2  1  0.000000  0.000000  0.000000  1
  As  As3  1  0.735164  0.264854  0.264745  1
  As  As4  1  0.264836  0.735146  0.735255  1
  As  As5  1  0.264831  0.735183  0.264736  1
  As  As6  1  0.735169  0.264817  0.735264  1
  As  As7  1  0.264777  0.264844  0.735215  1
  As  As8  1  0.735223  0.735156  0.264785  1
  Pd  Pd9  1  0.382149  0.382246  0.382059  1
  Pd  Pd10  1  0.617851  0.617754  0.617941  1
  Pd  Pd11  1  0.382222  0.382343  0.853462  1
  Pd  Pd12  1  0.381973  0.853609  0.382248  1
  Pd  Pd13  1  0.617778  0.617657  0.146538  1
  Pd  Pd14  1  0.618027  0.146391  0.617752  1
  Pd  Pd15  1  0.853649  0.382066  0.382184  1
  Pd  Pd16  1  0.146351  0.617934  0.617816  1
  Pd  Pd17  1  0.348242  0.999858  0.999924  1
  Pd  Pd18  1  0.651758  0.000142  0.000076  1
  Pd  Pd19  1  0.999940  0.348324  0.651597  1
  Pd  Pd20  1  0.000060  0.651676  0.348403  1
  Pd  Pd21  1  0.999872  0.348426  0.000005  1
  Pd  Pd22  1  0.651740  0.000178  0.348164  1
  Pd  Pd23  1  0.000128  0.651574  0.999995  1
  Pd  Pd24  1  0.348260  0.999822  0.651836  1
  Pd  Pd25  1  0.999961  0.000036  0.348229  1
  Pd  Pd26  1  0.000039  0.999964  0.651771  1
  Pd  Pd27  1  0.651733  0.348227  0.000036  1
  Pd  Pd28  1  0.348267  0.651773  0.999964  1
