# generated using pymatgen
data_Gd9Er(Al2Ru3)2
_symmetry_space_group_name_H-M   'P 1'
_cell_length_a   8.36777022
_cell_length_b   8.36776960
_cell_length_c   8.36777100
_cell_angle_alpha   109.47026537
_cell_angle_beta   109.47026386
_cell_angle_gamma   109.47026167
_symmetry_Int_Tables_number   1
_chemical_formula_structural   Gd9Er(Al2Ru3)2
_chemical_formula_sum   'Gd9 Er1 Al4 Ru6'
_cell_volume   451.04798014
_cell_formula_units_Z   1
loop_
 _symmetry_equiv_pos_site_id
 _symmetry_equiv_pos_as_xyz
  1  'x, y, z'
loop_
 _atom_site_type_symbol
 _atom_site_label
 _atom_site_symmetry_multiplicity
 _atom_site_fract_x
 _atom_site_fract_y
 _atom_site_fract_z
 _atom_site_occupancy
  Gd  Gd0  1  0.317440  0.567639  0.749877  1
  Gd  Gd1  1  0.749877  0.317440  0.567639  1
  Gd  Gd2  1  0.567639  0.749877  0.317440  1
  Gd  Gd3  1  0.715248  0.500425  0.999246  1
  Gd  Gd4  1  0.999246  0.715248  0.500425  1
  Gd  Gd5  1  0.500425  0.999246  0.715248  1
  Gd  Gd6  1  0.248925  0.182134  0.933477  1
  Gd  Gd7  1  0.933477  0.248925  0.182134  1
  Gd  Gd8  1  0.182134  0.933477  0.248925  1
  Er  Er9  1  0.785047  0.785047  0.785047  1
  Al  Al10  1  0.412671  0.412671  0.412671  1
  Al  Al11  1  0.089692  0.499924  0.999951  1
  Al  Al12  1  0.999951  0.089692  0.499924  1
  Al  Al13  1  0.499924  0.999951  0.089692  1
  Ru  Ru14  1  0.877945  0.125968  0.749904  1
  Ru  Ru15  1  0.749904  0.877945  0.125968  1
  Ru  Ru16  1  0.125968  0.749904  0.877945  1
  Ru  Ru17  1  0.250205  0.622293  0.371989  1
  Ru  Ru18  1  0.371989  0.250205  0.622293  1
  Ru  Ru19  1  0.622293  0.371989  0.250205  1
