# generated using pymatgen
data_TbYbDy6(B6Ru)4
_symmetry_space_group_name_H-M   'P 1'
_cell_length_a   3.66776600
_cell_length_b   9.15205163
_cell_length_c   11.53564390
_cell_angle_alpha   89.89982489
_cell_angle_beta   90.00000000
_cell_angle_gamma   90.00000000
_symmetry_Int_Tables_number   1
_chemical_formula_structural   TbYbDy6(B6Ru)4
_chemical_formula_sum   'Tb1 Yb1 Dy6 B24 Ru4'
_cell_volume   387.22310138
_cell_formula_units_Z   1
loop_
 _symmetry_equiv_pos_site_id
 _symmetry_equiv_pos_as_xyz
  1  'x, y, z'
loop_
 _atom_site_type_symbol
 _atom_site_label
 _atom_site_symmetry_multiplicity
 _atom_site_fract_x
 _atom_site_fract_y
 _atom_site_fract_z
 _atom_site_occupancy
  Tb  Tb0  1  0.000000  0.324304  0.415210  1
  Yb  Yb1  1  0.000000  0.676440  0.586079  1
  Dy  Dy2  1  0.000000  0.822209  0.085149  1
  Dy  Dy3  1  0.000000  0.177280  0.913850  1
  Dy  Dy4  1  0.000000  0.941626  0.371602  1
  Dy  Dy5  1  0.000000  0.056207  0.629252  1
  Dy  Dy6  1  0.000000  0.443590  0.128234  1
  Dy  Dy7  1  0.000000  0.557388  0.870069  1
  B  B8  1  0.500000  0.554654  0.432650  1
  B  B9  1  0.500000  0.446126  0.567806  1
  B  B10  1  0.500000  0.054115  0.067408  1
  B  B11  1  0.500000  0.946480  0.933175  1
  B  B12  1  0.500000  0.747658  0.418945  1
  B  B13  1  0.500000  0.252030  0.581370  1
  B  B14  1  0.500000  0.247977  0.080613  1
  B  B15  1  0.500000  0.752613  0.919098  1
  B  B16  1  0.500000  0.789850  0.265698  1
  B  B17  1  0.500000  0.209174  0.734215  1
  B  B18  1  0.500000  0.290001  0.233727  1
  B  B19  1  0.500000  0.710545  0.766075  1
  B  B20  1  0.500000  0.631505  0.184893  1
  B  B21  1  0.500000  0.368275  0.814181  1
  B  B22  1  0.500000  0.131062  0.314597  1
  B  B23  1  0.500000  0.868701  0.685947  1
  B  B24  1  0.500000  0.983517  0.212299  1
  B  B25  1  0.500000  0.016269  0.788379  1
  B  B26  1  0.500000  0.484198  0.287569  1
  B  B27  1  0.500000  0.516037  0.711976  1
  B  B28  1  0.500000  0.607719  0.029324  1
  B  B29  1  0.500000  0.392278  0.970016  1
  B  B30  1  0.500000  0.104871  0.471053  1
  B  B31  1  0.500000  0.895667  0.528930  1
  Ru  Ru32  1  0.000000  0.638001  0.319996  1
  Ru  Ru33  1  0.000000  0.360867  0.679553  1
  Ru  Ru34  1  0.000000  0.137404  0.178695  1
  Ru  Ru35  1  0.000000  0.863362  0.822366  1
