# generated using pymatgen
data_DySc3(MoN2)4
_symmetry_space_group_name_H-M   'P 1'
_cell_length_a   3.10155200
_cell_length_b   5.56118370
_cell_length_c   10.37959308
_cell_angle_alpha   90.31927526
_cell_angle_beta   90.00000000
_cell_angle_gamma   90.00000000
_symmetry_Int_Tables_number   1
_chemical_formula_structural   DySc3(MoN2)4
_chemical_formula_sum   'Dy1 Sc3 Mo4 N8'
_cell_volume   179.02756007
_cell_formula_units_Z   1
loop_
 _symmetry_equiv_pos_site_id
 _symmetry_equiv_pos_as_xyz
  1  'x, y, z'
loop_
 _atom_site_type_symbol
 _atom_site_label
 _atom_site_symmetry_multiplicity
 _atom_site_fract_x
 _atom_site_fract_y
 _atom_site_fract_z
 _atom_site_occupancy
  Dy  Dy0  1  0.750000  0.418640  0.353609  1
  Sc  Sc1  1  0.250000  0.077216  0.854079  1
  Sc  Sc2  1  0.250000  0.576383  0.649523  1
  Sc  Sc3  1  0.750000  0.922390  0.144995  1
  Mo  Mo4  1  0.250000  0.430860  0.091318  1
  Mo  Mo5  1  0.250000  0.926365  0.405481  1
  Mo  Mo6  1  0.750000  0.572021  0.904530  1
  Mo  Mo7  1  0.750000  0.068874  0.597264  1
  N  N8  1  0.250000  0.155209  0.242939  1
  N  N9  1  0.250000  0.671677  0.247205  1
  N  N10  1  0.750000  0.839457  0.755322  1
  N  N11  1  0.750000  0.340966  0.746870  1
  N  N12  1  0.250000  0.773492  0.995040  1
  N  N13  1  0.250000  0.267108  0.509837  1
  N  N14  1  0.750000  0.227843  0.000761  1
  N  N15  1  0.750000  0.731499  0.501228  1
