# generated using pymatgen
data_ErTmCo2(SiRh)4
_symmetry_space_group_name_H-M   'P 1'
_cell_length_a   6.45118527
_cell_length_b   6.58457201
_cell_length_c   6.45118611
_cell_angle_alpha   131.16721753
_cell_angle_beta   113.40664889
_cell_angle_gamma   86.11676494
_symmetry_Int_Tables_number   1
_chemical_formula_structural   ErTmCo2(SiRh)4
_chemical_formula_sum   'Er1 Tm1 Co2 Si4 Rh4'
_cell_volume   181.71595582
_cell_formula_units_Z   1
loop_
 _symmetry_equiv_pos_site_id
 _symmetry_equiv_pos_as_xyz
  1  'x, y, z'
loop_
 _atom_site_type_symbol
 _atom_site_label
 _atom_site_symmetry_multiplicity
 _atom_site_fract_x
 _atom_site_fract_y
 _atom_site_fract_z
 _atom_site_occupancy
  Er  Er0  1  0.245508  0.958418  0.712910  1
  Tm  Tm1  1  0.754568  0.042417  0.287851  1
  Co  Co2  1  0.218674  0.499677  0.718636  1
  Co  Co3  1  0.781040  0.499677  0.281003  1
  Si  Si4  1  0.575730  0.387673  0.811943  1
  Si  Si5  1  0.926014  0.715343  0.789329  1
  Si  Si6  1  0.424380  0.612585  0.188205  1
  Si  Si7  1  0.073760  0.284567  0.210807  1
  Rh  Rh8  1  0.500228  0.499892  0.500121  1
  Rh  Rh9  1  0.999770  0.499892  0.999664  1
  Rh  Rh10  1  0.716866  0.999930  0.716468  1
  Rh  Rh11  1  0.283462  0.999930  0.283064  1
