# generated using pymatgen
data_Li2Ho16InHgRh4
_symmetry_space_group_name_H-M   'P 1'
_cell_length_a   9.60380493
_cell_length_b   9.60272803
_cell_length_c   9.60380525
_cell_angle_alpha   59.82973604
_cell_angle_beta   60.03979414
_cell_angle_gamma   59.82973766
_symmetry_Int_Tables_number   1
_chemical_formula_structural   Li2Ho16InHgRh4
_chemical_formula_sum   'Li2 Ho16 In1 Hg1 Rh4'
_cell_volume   624.84686392
_cell_formula_units_Z   1
loop_
 _symmetry_equiv_pos_site_id
 _symmetry_equiv_pos_as_xyz
  1  'x, y, z'
loop_
 _atom_site_type_symbol
 _atom_site_label
 _atom_site_symmetry_multiplicity
 _atom_site_fract_x
 _atom_site_fract_y
 _atom_site_fract_z
 _atom_site_occupancy
  Li  Li0  1  0.825845  0.822481  0.530759  1
  Li  Li1  1  0.530759  0.822481  0.825845  1
  Ho  Ho2  1  0.186327  0.186200  0.813151  1
  Ho  Ho3  1  0.602022  0.599585  0.199097  1
  Ho  Ho4  1  0.433385  0.065477  0.433385  1
  Ho  Ho5  1  0.439405  0.437267  0.060143  1
  Ho  Ho6  1  0.815610  0.180871  0.815610  1
  Ho  Ho7  1  0.187764  0.812117  0.187764  1
  Ho  Ho8  1  0.435577  0.063595  0.061359  1
  Ho  Ho9  1  0.186404  0.813217  0.813705  1
  Ho  Ho10  1  0.058264  0.442245  0.058264  1
  Ho  Ho11  1  0.813705  0.813217  0.186404  1
  Ho  Ho12  1  0.199097  0.599585  0.602022  1
  Ho  Ho13  1  0.060143  0.437267  0.439405  1
  Ho  Ho14  1  0.061359  0.063595  0.435577  1
  Ho  Ho15  1  0.813151  0.186200  0.186327  1
  Ho  Ho16  1  0.599180  0.207846  0.599180  1
  Ho  Ho17  1  0.597865  0.595019  0.597865  1
  In  In18  1  0.828975  0.505972  0.828975  1
  Hg  Hg19  1  0.830116  0.839842  0.830116  1
  Rh  Rh20  1  0.391350  0.822042  0.391350  1
  Rh  Rh21  1  0.390684  0.394285  0.390684  1
  Rh  Rh22  1  0.823024  0.394796  0.389989  1
  Rh  Rh23  1  0.389989  0.394796  0.823024  1
