# generated using pymatgen
data_Tb7Y9(AlNi)4
_symmetry_space_group_name_H-M   'P 1'
_cell_length_a   9.50237036
_cell_length_b   9.49854876
_cell_length_c   9.48584694
_cell_angle_alpha   60.06910219
_cell_angle_beta   59.97128105
_cell_angle_gamma   59.89632726
_symmetry_Int_Tables_number   1
_chemical_formula_structural   Tb7Y9(AlNi)4
_chemical_formula_sum   'Tb7 Y9 Al4 Ni4'
_cell_volume   605.11864131
_cell_formula_units_Z   1
loop_
 _symmetry_equiv_pos_site_id
 _symmetry_equiv_pos_as_xyz
  1  'x, y, z'
loop_
 _atom_site_type_symbol
 _atom_site_label
 _atom_site_symmetry_multiplicity
 _atom_site_fract_x
 _atom_site_fract_y
 _atom_site_fract_z
 _atom_site_occupancy
  Tb  Tb0  1  0.058112  0.441887  0.058125  1
  Tb  Tb1  1  0.442488  0.441134  0.059168  1
  Tb  Tb2  1  0.059185  0.057203  0.442486  1
  Tb  Tb3  1  0.599225  0.600918  0.599720  1
  Tb  Tb4  1  0.599528  0.600930  0.197993  1
  Tb  Tb5  1  0.599731  0.200140  0.599226  1
  Tb  Tb6  1  0.197989  0.601566  0.599526  1
  Y  Y7  1  0.186213  0.813343  0.814219  1
  Y  Y8  1  0.814229  0.186217  0.186212  1
  Y  Y9  1  0.813945  0.186052  0.813939  1
  Y  Y10  1  0.186111  0.813893  0.186104  1
  Y  Y11  1  0.814282  0.813864  0.185968  1
  Y  Y12  1  0.185967  0.185867  0.814288  1
  Y  Y13  1  0.058046  0.441763  0.443204  1
  Y  Y14  1  0.443215  0.056964  0.058065  1
  Y  Y15  1  0.442400  0.057596  0.442391  1
  Al  Al16  1  0.826984  0.827364  0.827213  1
  Al  Al17  1  0.826766  0.826641  0.519372  1
  Al  Al18  1  0.827219  0.518443  0.826974  1
  Al  Al19  1  0.519372  0.827228  0.826762  1
  Ni  Ni20  1  0.393138  0.393860  0.392006  1
  Ni  Ni21  1  0.391623  0.393839  0.822247  1
  Ni  Ni22  1  0.391999  0.820978  0.393155  1
  Ni  Ni23  1  0.822235  0.392310  0.391638  1
