# generated using pymatgen
data_Dy7YGa3Co
_symmetry_space_group_name_H-M   'P 1'
_cell_length_a   10.04053306
_cell_length_b   10.04053298
_cell_length_c   6.95622400
_cell_angle_alpha   90.00000000
_cell_angle_beta   90.00000000
_cell_angle_gamma   119.99879134
_symmetry_Int_Tables_number   1
_chemical_formula_structural   Dy7YGa3Co
_chemical_formula_sum   'Dy14 Y2 Ga6 Co2'
_cell_volume   607.32759856
_cell_formula_units_Z   2
loop_
 _symmetry_equiv_pos_site_id
 _symmetry_equiv_pos_as_xyz
  1  'x, y, z'
loop_
 _atom_site_type_symbol
 _atom_site_label
 _atom_site_symmetry_multiplicity
 _atom_site_fract_x
 _atom_site_fract_y
 _atom_site_fract_z
 _atom_site_occupancy
  Dy  Dy0  1  0.172913  0.827086  0.989850  1
  Dy  Dy1  1  0.827087  0.172914  0.489850  1
  Dy  Dy2  1  0.172898  0.345801  0.989734  1
  Dy  Dy3  1  0.654199  0.827103  0.989734  1
  Dy  Dy4  1  0.345801  0.172897  0.489735  1
  Dy  Dy5  1  0.827102  0.654198  0.489735  1
  Dy  Dy6  1  0.463049  0.536951  0.292150  1
  Dy  Dy7  1  0.536952  0.463049  0.792149  1
  Dy  Dy8  1  0.463113  0.926085  0.292120  1
  Dy  Dy9  1  0.073916  0.536887  0.292120  1
  Dy  Dy10  1  0.926084  0.463114  0.792120  1
  Dy  Dy11  1  0.536886  0.073915  0.792120  1
  Dy  Dy12  1  0.333341  0.666660  0.673039  1
  Dy  Dy13  1  0.666659  0.333340  0.173038  1
  Y  Y14  1  0.999978  0.000020  0.268193  1
  Y  Y15  1  0.000022  0.999981  0.768195  1
  Ga  Ga16  1  0.163533  0.836468  0.540171  1
  Ga  Ga17  1  0.836467  0.163532  0.040172  1
  Ga  Ga18  1  0.163584  0.327056  0.539971  1
  Ga  Ga19  1  0.672946  0.836417  0.539971  1
  Ga  Ga20  1  0.327054  0.163583  0.039970  1
  Ga  Ga21  1  0.836417  0.672945  0.039970  1
  Co  Co22  1  0.333356  0.666646  0.055946  1
  Co  Co23  1  0.666645  0.333355  0.555947  1
