# generated using pymatgen
data_LiHo2ErAg2Pb3
_symmetry_space_group_name_H-M   'P 1'
_cell_length_a   7.42186849
_cell_length_b   7.42637597
_cell_length_c   4.61157000
_cell_angle_alpha   90.00000000
_cell_angle_beta   90.00000000
_cell_angle_gamma   120.32828748
_symmetry_Int_Tables_number   1
_chemical_formula_structural   LiHo2ErAg2Pb3
_chemical_formula_sum   'Li1 Ho2 Er1 Ag2 Pb3'
_cell_volume   219.39333669
_cell_formula_units_Z   1
loop_
 _symmetry_equiv_pos_site_id
 _symmetry_equiv_pos_as_xyz
  1  'x, y, z'
loop_
 _atom_site_type_symbol
 _atom_site_label
 _atom_site_symmetry_multiplicity
 _atom_site_fract_x
 _atom_site_fract_y
 _atom_site_fract_z
 _atom_site_occupancy
  Li  Li0  1  0.770113  0.770081  0.000000  1
  Ho  Ho1  1  0.562937  0.004717  0.500000  1
  Ho  Ho2  1  0.421078  0.421124  0.500000  1
  Er  Er3  1  0.004669  0.562937  0.500000  1
  Ag  Ag4  1  0.999253  0.242022  0.000000  1
  Ag  Ag5  1  0.241897  0.999220  0.000000  1
  Pb  Pb6  1  0.982018  0.981828  0.500000  1
  Pb  Pb7  1  0.347905  0.669679  0.000000  1
  Pb  Pb8  1  0.670131  0.348392  0.000000  1
