# generated using pymatgen
data_Hf17Ta(NiP2)4
_symmetry_space_group_name_H-M   'P 1'
_cell_length_a   11.89253700
_cell_length_b   11.89253700
_cell_length_c   3.63717100
_cell_angle_alpha   90.00000000
_cell_angle_beta   90.00000000
_cell_angle_gamma   90.00000000
_symmetry_Int_Tables_number   1
_chemical_formula_structural   Hf17Ta(NiP2)4
_chemical_formula_sum   'Hf17 Ta1 Ni4 P8'
_cell_volume   514.41395576
_cell_formula_units_Z   1
loop_
 _symmetry_equiv_pos_site_id
 _symmetry_equiv_pos_as_xyz
  1  'x, y, z'
loop_
 _atom_site_type_symbol
 _atom_site_label
 _atom_site_symmetry_multiplicity
 _atom_site_fract_x
 _atom_site_fract_y
 _atom_site_fract_z
 _atom_site_occupancy
  Hf  Hf0  1  0.500000  0.500000  0.000000  1
  Hf  Hf1  1  0.099883  0.179070  0.500000  1
  Hf  Hf2  1  0.179070  0.900117  0.500000  1
  Hf  Hf3  1  0.820930  0.099883  0.500000  1
  Hf  Hf4  1  0.900117  0.820930  0.500000  1
  Hf  Hf5  1  0.396755  0.682985  0.500000  1
  Hf  Hf6  1  0.603245  0.317015  0.500000  1
  Hf  Hf7  1  0.682985  0.603245  0.500000  1
  Hf  Hf8  1  0.317015  0.396755  0.500000  1
  Hf  Hf9  1  0.094261  0.405013  0.000000  1
  Hf  Hf10  1  0.405013  0.905739  0.000000  1
  Hf  Hf11  1  0.594987  0.094261  0.000000  1
  Hf  Hf12  1  0.905739  0.594987  0.000000  1
  Hf  Hf13  1  0.379058  0.119128  0.500000  1
  Hf  Hf14  1  0.119128  0.620942  0.500000  1
  Hf  Hf15  1  0.880872  0.379058  0.500000  1
  Hf  Hf16  1  0.620942  0.880872  0.500000  1
  Ta  Ta17  1  0.000000  0.000000  0.000000  1
  Ni  Ni18  1  0.252302  0.246969  0.000000  1
  Ni  Ni19  1  0.246969  0.747698  0.000000  1
  Ni  Ni20  1  0.753031  0.252302  0.000000  1
  Ni  Ni21  1  0.747698  0.753031  0.000000  1
  P  P22  1  0.221287  0.056219  0.000000  1
  P  P23  1  0.056219  0.778713  0.000000  1
  P  P24  1  0.943781  0.221287  0.000000  1
  P  P25  1  0.778713  0.943781  0.000000  1
  P  P26  1  0.276626  0.556246  0.000000  1
  P  P27  1  0.723374  0.443754  0.000000  1
  P  P28  1  0.556246  0.723374  0.000000  1
  P  P29  1  0.443754  0.276626  0.000000  1
