# generated using pymatgen
data_Ho20IrPd7Rh4
_symmetry_space_group_name_H-M   'P 1'
_cell_length_a   11.07113321
_cell_length_b   11.07113303
_cell_length_c   6.27539194
_cell_angle_alpha   89.83276275
_cell_angle_beta   89.83276231
_cell_angle_gamma   90.48089589
_symmetry_Int_Tables_number   1
_chemical_formula_structural   Ho20IrPd7Rh4
_chemical_formula_sum   'Ho20 Ir1 Pd7 Rh4'
_cell_volume   769.14101808
_cell_formula_units_Z   1
loop_
 _symmetry_equiv_pos_site_id
 _symmetry_equiv_pos_as_xyz
  1  'x, y, z'
loop_
 _atom_site_type_symbol
 _atom_site_label
 _atom_site_symmetry_multiplicity
 _atom_site_fract_x
 _atom_site_fract_y
 _atom_site_fract_z
 _atom_site_occupancy
  Ho  Ho0  1  0.294808  0.085448  0.369074  1
  Ho  Ho1  1  0.294981  0.905979  0.870068  1
  Ho  Ho2  1  0.704350  0.086535  0.868372  1
  Ho  Ho3  1  0.704554  0.911728  0.367358  1
  Ho  Ho4  1  0.581134  0.790854  0.867348  1
  Ho  Ho5  1  0.587363  0.206106  0.370234  1
  Ho  Ho6  1  0.409959  0.790088  0.377089  1
  Ho  Ho7  1  0.411880  0.203793  0.869694  1
  Ho  Ho8  1  0.209146  0.418866  0.632652  1
  Ho  Ho9  1  0.209912  0.590041  0.122911  1
  Ho  Ho10  1  0.793894  0.412637  0.129766  1
  Ho  Ho11  1  0.796207  0.588120  0.630306  1
  Ho  Ho12  1  0.914552  0.705192  0.130926  1
  Ho  Ho13  1  0.913465  0.295650  0.631628  1
  Ho  Ho14  1  0.094021  0.705019  0.629932  1
  Ho  Ho15  1  0.088272  0.295446  0.132642  1
  Ho  Ho16  1  0.999168  0.000440  0.500739  1
  Ho  Ho17  1  0.999560  0.000832  0.999261  1
  Ho  Ho18  1  0.497283  0.500662  0.999873  1
  Ho  Ho19  1  0.499338  0.502717  0.500127  1
  Ir  Ir20  1  0.346314  0.653686  0.750000  1
  Pd  Pd21  1  0.844978  0.155022  0.250000  1
  Pd  Pd22  1  0.843609  0.845244  0.750914  1
  Pd  Pd23  1  0.154756  0.156391  0.749086  1
  Pd  Pd24  1  0.153450  0.846550  0.250000  1
  Pd  Pd25  1  0.654182  0.345818  0.750000  1
  Pd  Pd26  1  0.656461  0.655986  0.250208  1
  Pd  Pd27  1  0.344014  0.343539  0.249792  1
  Rh  Rh28  1  0.500068  0.000470  0.121522  1
  Rh  Rh29  1  0.499891  0.001100  0.619379  1
  Rh  Rh30  1  0.998900  0.500109  0.880621  1
  Rh  Rh31  1  0.999530  0.499932  0.378478  1
