# generated using pymatgen
data_U4Ni3Ge2Ir3
_symmetry_space_group_name_H-M   'P 1'
_cell_length_a   5.33051703
_cell_length_b   5.28869456
_cell_length_c   7.94023800
_cell_angle_alpha   90.00000000
_cell_angle_beta   90.00000000
_cell_angle_gamma   117.85274807
_symmetry_Int_Tables_number   1
_chemical_formula_structural   U4Ni3Ge2Ir3
_chemical_formula_sum   'U4 Ni3 Ge2 Ir3'
_cell_volume   197.91462957
_cell_formula_units_Z   1
loop_
 _symmetry_equiv_pos_site_id
 _symmetry_equiv_pos_as_xyz
  1  'x, y, z'
loop_
 _atom_site_type_symbol
 _atom_site_label
 _atom_site_symmetry_multiplicity
 _atom_site_fract_x
 _atom_site_fract_y
 _atom_site_fract_z
 _atom_site_occupancy
  U  U0  1  0.343248  0.659639  0.421591  1
  U  U1  1  0.655335  0.338302  0.924597  1
  U  U2  1  0.655335  0.338302  0.575403  1
  U  U3  1  0.343248  0.659639  0.078409  1
  Ni  Ni4  1  0.847262  0.175388  0.250000  1
  Ni  Ni5  1  0.844196  0.656172  0.250000  1
  Ni  Ni6  1  0.157526  0.837880  0.750000  1
  Ge  Ge7  1  0.993470  0.989185  0.494040  1
  Ge  Ge8  1  0.993470  0.989185  0.005960  1
  Ir  Ir9  1  0.648070  0.839888  0.750000  1
  Ir  Ir10  1  0.362147  0.171220  0.250000  1
  Ir  Ir11  1  0.156693  0.345199  0.750000  1
