# generated using pymatgen
data_Ho2Er8Ga3NiBi2
_symmetry_space_group_name_H-M   'P 1'
_cell_length_a   8.51185364
_cell_length_b   8.51262361
_cell_length_c   8.70576361
_cell_angle_alpha   124.29454027
_cell_angle_beta   124.29193511
_cell_angle_gamma   81.22955823
_symmetry_Int_Tables_number   1
_chemical_formula_structural   Ho2Er8Ga3NiBi2
_chemical_formula_sum   'Ho2 Er8 Ga3 Ni1 Bi2'
_cell_volume   417.78810327
_cell_formula_units_Z   1
loop_
 _symmetry_equiv_pos_site_id
 _symmetry_equiv_pos_as_xyz
  1  'x, y, z'
loop_
 _atom_site_type_symbol
 _atom_site_label
 _atom_site_symmetry_multiplicity
 _atom_site_fract_x
 _atom_site_fract_y
 _atom_site_fract_z
 _atom_site_occupancy
  Ho  Ho0  1  0.458942  0.304449  0.500000  1
  Ho  Ho1  1  0.793308  0.984700  0.500000  1
  Er  Er2  1  0.997009  0.994272  0.991482  1
  Er  Er3  1  0.505527  0.502789  0.008518  1
  Er  Er4  1  0.016118  0.498176  0.794338  1
  Er  Er5  1  0.721780  0.203837  0.205662  1
  Er  Er6  1  0.515231  0.707472  0.500000  1
  Er  Er7  1  0.195956  0.041238  0.500000  1
  Er  Er8  1  0.001934  0.484101  0.205734  1
  Er  Er9  1  0.296200  0.778367  0.794266  1
  Ga  Ga10  1  0.351537  0.854557  0.206542  1
  Ga  Ga11  1  0.644995  0.148015  0.793458  1
  Ga  Ga12  1  0.865205  0.634552  0.500000  1
  Ni  Ni13  1  0.124037  0.375710  0.500000  1
  Bi  Bi14  1  0.756112  0.743885  0.000005  1
  Bi  Bi15  1  0.256107  0.243881  0.999995  1
