# generated using pymatgen
data_Ho(TmCu6)2
_symmetry_space_group_name_H-M   'P 1'
_cell_length_a   4.97991198
_cell_length_b   4.97991193
_cell_length_c   10.49475200
_cell_angle_alpha   94.82478609
_cell_angle_beta   94.82478604
_cell_angle_gamma   119.86674040
_symmetry_Int_Tables_number   1
_chemical_formula_structural   Ho(TmCu6)2
_chemical_formula_sum   'Ho1 Tm2 Cu12'
_cell_volume   222.49479623
_cell_formula_units_Z   1
loop_
 _symmetry_equiv_pos_site_id
 _symmetry_equiv_pos_as_xyz
  1  'x, y, z'
loop_
 _atom_site_type_symbol
 _atom_site_label
 _atom_site_symmetry_multiplicity
 _atom_site_fract_x
 _atom_site_fract_y
 _atom_site_fract_z
 _atom_site_occupancy
  Ho  Ho0  1  0.000000  0.000000  0.000000  1
  Tm  Tm1  1  0.133611  0.133611  0.357659  1
  Tm  Tm2  1  0.866389  0.866389  0.642341  1
  Cu  Cu3  1  0.663342  0.336659  0.000000  1
  Cu  Cu4  1  0.336659  0.663342  0.000000  1
  Cu  Cu5  1  0.569788  0.068393  0.196817  1
  Cu  Cu6  1  0.068393  0.569788  0.196817  1
  Cu  Cu7  1  0.571630  0.571630  0.202490  1
  Cu  Cu8  1  0.808556  0.472426  0.406334  1
  Cu  Cu9  1  0.472426  0.808556  0.406334  1
  Cu  Cu10  1  0.527576  0.191445  0.593666  1
  Cu  Cu11  1  0.191445  0.527576  0.593666  1
  Cu  Cu12  1  0.428369  0.428369  0.797510  1
  Cu  Cu13  1  0.931606  0.430211  0.803184  1
  Cu  Cu14  1  0.430211  0.931606  0.803184  1
