# generated using pymatgen
data_Yb2DyY17(Tl3Ru)2
_symmetry_space_group_name_H-M   'P 1'
_cell_length_a   9.84242034
_cell_length_b   9.84241985
_cell_length_c   9.77563803
_cell_angle_alpha   90.04047973
_cell_angle_beta   89.95951649
_cell_angle_gamma   120.02205571
_symmetry_Int_Tables_number   1
_chemical_formula_structural   Yb2DyY17(Tl3Ru)2
_chemical_formula_sum   'Yb2 Dy1 Y17 Tl6 Ru2'
_cell_volume   819.94142954
_cell_formula_units_Z   1
loop_
 _symmetry_equiv_pos_site_id
 _symmetry_equiv_pos_as_xyz
  1  'x, y, z'
loop_
 _atom_site_type_symbol
 _atom_site_label
 _atom_site_symmetry_multiplicity
 _atom_site_fract_x
 _atom_site_fract_y
 _atom_site_fract_z
 _atom_site_occupancy
  Yb  Yb0  1  0.000229  0.999771  0.499936  1
  Yb  Yb1  1  0.999958  0.000042  0.000078  1
  Dy  Dy2  1  0.210966  0.789034  0.435274  1
  Y  Y3  1  0.210213  0.420345  0.436093  1
  Y  Y4  1  0.579655  0.789787  0.436093  1
  Y  Y5  1  0.789923  0.210077  0.563903  1
  Y  Y6  1  0.790208  0.579779  0.563858  1
  Y  Y7  1  0.420221  0.209792  0.563858  1
  Y  Y8  1  0.789839  0.210161  0.936116  1
  Y  Y9  1  0.789932  0.579687  0.936192  1
  Y  Y10  1  0.420313  0.210068  0.936192  1
  Y  Y11  1  0.209827  0.790173  0.063924  1
  Y  Y12  1  0.210473  0.420696  0.064090  1
  Y  Y13  1  0.579304  0.789527  0.064090  1
  Y  Y14  1  0.539816  0.460184  0.250272  1
  Y  Y15  1  0.539244  0.078599  0.250144  1
  Y  Y16  1  0.921401  0.460756  0.250144  1
  Y  Y17  1  0.460545  0.539455  0.749998  1
  Y  Y18  1  0.460246  0.920637  0.749684  1
  Y  Y19  1  0.079363  0.539754  0.749684  1
  Tl  Tl20  1  0.882082  0.117918  0.250008  1
  Tl  Tl21  1  0.881790  0.764194  0.249833  1
  Tl  Tl22  1  0.235806  0.118210  0.249833  1
  Tl  Tl23  1  0.117812  0.882188  0.750123  1
  Tl  Tl24  1  0.117752  0.235794  0.750110  1
  Tl  Tl25  1  0.764206  0.882248  0.750110  1
  Ru  Ru26  1  0.332288  0.667712  0.250444  1
  Ru  Ru27  1  0.666588  0.333412  0.749916  1
