# generated using pymatgen
data_Ba2PaCrS6
_symmetry_space_group_name_H-M   'P 1'
_cell_length_a   7.05279189
_cell_length_b   7.05279133
_cell_length_c   7.05344500
_cell_angle_alpha   120.00550287
_cell_angle_beta   120.00549806
_cell_angle_gamma   89.98515751
_symmetry_Int_Tables_number   1
_chemical_formula_structural   Ba2PaCrS6
_chemical_formula_sum   'Ba2 Pa1 Cr1 S6'
_cell_volume   248.08037721
_cell_formula_units_Z   1
loop_
 _symmetry_equiv_pos_site_id
 _symmetry_equiv_pos_as_xyz
  1  'x, y, z'
loop_
 _atom_site_type_symbol
 _atom_site_label
 _atom_site_symmetry_multiplicity
 _atom_site_fract_x
 _atom_site_fract_y
 _atom_site_fract_z
 _atom_site_occupancy
  Ba  Ba0  1  0.749999  0.250000  0.499999  1
  Ba  Ba1  1  0.250000  0.749999  0.499999  1
  Pa  Pa2  1  0.500000  0.500000  0.000000  1
  Cr  Cr3  1  0.000000  0.000000  0.000000  1
  S  S4  1  0.760675  0.239325  0.000000  1
  S  S5  1  0.239329  0.239329  0.000000  1
  S  S6  1  0.760671  0.760671  0.000000  1
  S  S7  1  0.239325  0.760675  0.000000  1
  S  S8  1  0.239327  0.239327  0.478653  1
  S  S9  1  0.760670  0.760670  0.521341  1
