# generated using pymatgen
data_YTm3(Sc4Bi3)4
_symmetry_space_group_name_H-M   'P 1'
_cell_length_a   7.86978123
_cell_length_b   9.05059000
_cell_length_c   11.53615334
_cell_angle_alpha   90.00000000
_cell_angle_beta   89.97227611
_cell_angle_gamma   90.00000000
_symmetry_Int_Tables_number   1
_chemical_formula_structural   YTm3(Sc4Bi3)4
_chemical_formula_sum   'Y1 Tm3 Sc16 Bi12'
_cell_volume   821.67584535
_cell_formula_units_Z   1
loop_
 _symmetry_equiv_pos_site_id
 _symmetry_equiv_pos_as_xyz
  1  'x, y, z'
loop_
 _atom_site_type_symbol
 _atom_site_label
 _atom_site_symmetry_multiplicity
 _atom_site_fract_x
 _atom_site_fract_y
 _atom_site_fract_z
 _atom_site_occupancy
  Y  Y0  1  0.184404  0.250000  0.781065  1
  Tm  Tm1  1  0.815176  0.750000  0.218391  1
  Tm  Tm2  1  0.315163  0.750000  0.281643  1
  Tm  Tm3  1  0.684768  0.250000  0.718379  1
  Sc  Sc4  1  0.018865  0.250000  0.510854  1
  Sc  Sc5  1  0.980685  0.750000  0.488589  1
  Sc  Sc6  1  0.480881  0.750000  0.011537  1
  Sc  Sc7  1  0.519665  0.250000  0.988987  1
  Sc  Sc8  1  0.351188  0.250000  0.279971  1
  Sc  Sc9  1  0.649068  0.750000  0.719870  1
  Sc  Sc10  1  0.148896  0.750000  0.780010  1
  Sc  Sc11  1  0.851042  0.250000  0.220098  1
  Sc  Sc12  1  0.193754  0.067214  0.062239  1
  Sc  Sc13  1  0.806269  0.932629  0.937972  1
  Sc  Sc14  1  0.306092  0.932548  0.561903  1
  Sc  Sc15  1  0.806269  0.567371  0.937972  1
  Sc  Sc16  1  0.693919  0.067291  0.438042  1
  Sc  Sc17  1  0.193754  0.432786  0.062239  1
  Sc  Sc18  1  0.693919  0.432709  0.438042  1
  Sc  Sc19  1  0.306092  0.567452  0.561903  1
  Bi  Bi20  1  0.403522  0.250000  0.534243  1
  Bi  Bi21  1  0.596862  0.750000  0.465307  1
  Bi  Bi22  1  0.096942  0.750000  0.034667  1
  Bi  Bi23  1  0.902142  0.250000  0.966192  1
  Bi  Bi24  1  0.064975  0.008662  0.327934  1
  Bi  Bi25  1  0.934335  0.990649  0.671705  1
  Bi  Bi26  1  0.436101  0.990452  0.828180  1
  Bi  Bi27  1  0.934335  0.509351  0.671705  1
  Bi  Bi28  1  0.564922  0.008676  0.172123  1
  Bi  Bi29  1  0.064975  0.491338  0.327934  1
  Bi  Bi30  1  0.564922  0.491324  0.172123  1
  Bi  Bi31  1  0.436101  0.509548  0.828180  1
