# generated using pymatgen
data_YHg3(Pt2O7)2
_symmetry_space_group_name_H-M   'P 1'
_cell_length_a   7.35069090
_cell_length_b   7.35069038
_cell_length_c   7.35069122
_cell_angle_alpha   59.34063981
_cell_angle_beta   59.34064706
_cell_angle_gamma   59.34064106
_symmetry_Int_Tables_number   1
_chemical_formula_structural   YHg3(Pt2O7)2
_chemical_formula_sum   'Y1 Hg3 Pt4 O14'
_cell_volume   276.63129333
_cell_formula_units_Z   1
loop_
 _symmetry_equiv_pos_site_id
 _symmetry_equiv_pos_as_xyz
  1  'x, y, z'
loop_
 _atom_site_type_symbol
 _atom_site_label
 _atom_site_symmetry_multiplicity
 _atom_site_fract_x
 _atom_site_fract_y
 _atom_site_fract_z
 _atom_site_occupancy
  Y  Y0  1  0.125000  0.125000  0.125000  1
  Hg  Hg1  1  0.625000  0.125000  0.125000  1
  Hg  Hg2  1  0.125000  0.625000  0.125000  1
  Hg  Hg3  1  0.125000  0.125000  0.625000  1
  Pt  Pt4  1  0.625000  0.625000  0.125000  1
  Pt  Pt5  1  0.625000  0.625000  0.625000  1
  Pt  Pt6  1  0.625000  0.125000  0.625000  1
  Pt  Pt7  1  0.125000  0.625000  0.625000  1
  O  O8  1  0.724184  0.292296  0.292296  1
  O  O9  1  0.703445  0.294500  0.703445  1
  O  O10  1  0.996253  0.996253  0.996253  1
  O  O11  1  0.292296  0.724184  0.292296  1
  O  O12  1  0.703445  0.703445  0.294500  1
  O  O13  1  0.955500  0.546555  0.546555  1
  O  O14  1  0.294500  0.703445  0.703445  1
  O  O15  1  0.253747  0.253747  0.253747  1
  O  O16  1  0.957704  0.525816  0.957704  1
  O  O17  1  0.546555  0.955500  0.546555  1
  O  O18  1  0.546555  0.546555  0.955500  1
  O  O19  1  0.957704  0.957704  0.525816  1
  O  O20  1  0.525816  0.957704  0.957704  1
  O  O21  1  0.292296  0.292296  0.724184  1
