# generated using pymatgen
data_Zr5TiSe8
_symmetry_space_group_name_H-M   'P 1'
_cell_length_a   10.47458572
_cell_length_b   10.38562989
_cell_length_c   3.71665000
_cell_angle_alpha   90.00000000
_cell_angle_beta   90.00000000
_cell_angle_gamma   119.32398205
_symmetry_Int_Tables_number   1
_chemical_formula_structural   Zr5TiSe8
_chemical_formula_sum   'Zr5 Ti1 Se8'
_cell_volume   352.50906170
_cell_formula_units_Z   1
loop_
 _symmetry_equiv_pos_site_id
 _symmetry_equiv_pos_as_xyz
  1  'x, y, z'
loop_
 _atom_site_type_symbol
 _atom_site_label
 _atom_site_symmetry_multiplicity
 _atom_site_fract_x
 _atom_site_fract_y
 _atom_site_fract_z
 _atom_site_occupancy
  Zr  Zr0  1  0.511241  0.640220  0.750000  1
  Zr  Zr1  1  0.870095  0.510401  0.250000  1
  Zr  Zr2  1  0.640004  0.132459  0.250000  1
  Zr  Zr3  1  0.356832  0.873801  0.750000  1
  Zr  Zr4  1  0.130226  0.483835  0.750000  1
  Ti  Ti5  1  0.491288  0.360825  0.250000  1
  Se  Se6  1  0.645855  0.946979  0.750000  1
  Se  Se7  1  0.695034  0.639982  0.250000  1
  Se  Se8  1  0.947193  0.294833  0.250000  1
  Se  Se9  1  0.052292  0.699998  0.750000  1
  Se  Se10  1  0.311978  0.351048  0.750000  1
  Se  Se11  1  0.354475  0.062381  0.250000  1
  Se  Se12  1  0.332239  0.666620  0.250000  1
  Se  Se13  1  0.661247  0.336616  0.750000  1
