# generated using pymatgen
data_DyY3(Ga5Ni3)2
_symmetry_space_group_name_H-M   'P 1'
_cell_length_a   8.31909021
_cell_length_b   8.32040473
_cell_length_c   8.32040475
_cell_angle_alpha   141.26171454
_cell_angle_beta   107.74312241
_cell_angle_gamma   85.13963653
_symmetry_Int_Tables_number   1
_chemical_formula_structural   DyY3(Ga5Ni3)2
_chemical_formula_sum   'Dy1 Y3 Ga10 Ni6'
_cell_volume   331.74902643
_cell_formula_units_Z   1
loop_
 _symmetry_equiv_pos_site_id
 _symmetry_equiv_pos_as_xyz
  1  'x, y, z'
loop_
 _atom_site_type_symbol
 _atom_site_label
 _atom_site_symmetry_multiplicity
 _atom_site_fract_x
 _atom_site_fract_y
 _atom_site_fract_z
 _atom_site_occupancy
  Dy  Dy0  1  0.366192  0.642571  0.723620  1
  Y  Y1  1  0.633484  0.357624  0.275862  1
  Y  Y2  1  0.081713  0.857555  0.224159  1
  Y  Y3  1  0.918216  0.142369  0.775847  1
  Ga  Ga4  1  0.000193  0.750009  0.750233  1
  Ga  Ga5  1  0.000193  0.249960  0.250183  1
  Ga  Ga6  1  0.709628  0.459973  0.749954  1
  Ga  Ga7  1  0.290177  0.040125  0.750094  1
  Ga  Ga8  1  0.290177  0.540083  0.250052  1
  Ga  Ga9  1  0.709628  0.959674  0.249655  1
  Ga  Ga10  1  0.238899  0.411310  0.827591  1
  Ga  Ga11  1  0.761396  0.589077  0.172317  1
  Ga  Ga12  1  0.583035  0.910784  0.672251  1
  Ga  Ga13  1  0.416710  0.089032  0.327678  1
  Ni  Ni14  1  0.051709  0.644759  0.406950  1
  Ni  Ni15  1  0.238678  0.144809  0.093870  1
  Ni  Ni16  1  0.500022  0.750091  0.250033  1
  Ni  Ni17  1  0.500022  0.249989  0.749932  1
  Ni  Ni18  1  0.948597  0.355195  0.593402  1
  Ni  Ni19  1  0.761330  0.855014  0.906316  1
