# generated using pymatgen
data_Yb2SmTl(Ru2O7)2
_symmetry_space_group_name_H-M   'P 1'
_cell_length_a   7.21257169
_cell_length_b   7.33425952
_cell_length_c   7.33425866
_cell_angle_alpha   60.03174513
_cell_angle_beta   59.40982314
_cell_angle_gamma   59.40983028
_symmetry_Int_Tables_number   1
_chemical_formula_structural   Yb2SmTl(Ru2O7)2
_chemical_formula_sum   'Yb2 Sm1 Tl1 Ru4 O14'
_cell_volume   271.93027158
_cell_formula_units_Z   1
loop_
 _symmetry_equiv_pos_site_id
 _symmetry_equiv_pos_as_xyz
  1  'x, y, z'
loop_
 _atom_site_type_symbol
 _atom_site_label
 _atom_site_symmetry_multiplicity
 _atom_site_fract_x
 _atom_site_fract_y
 _atom_site_fract_z
 _atom_site_occupancy
  Yb  Yb0  1  0.625000  0.625000  0.125000  1
  Yb  Yb1  1  0.625000  0.125000  0.625000  1
  Sm  Sm2  1  0.625000  0.625000  0.625000  1
  Tl  Tl3  1  0.125000  0.625000  0.625000  1
  Ru  Ru4  1  0.125000  0.125000  0.125000  1
  Ru  Ru5  1  0.625000  0.125000  0.125000  1
  Ru  Ru6  1  0.125000  0.125000  0.625000  1
  Ru  Ru7  1  0.125000  0.625000  0.125000  1
  O  O8  1  0.482385  0.504695  0.504695  1
  O  O9  1  0.767615  0.745305  0.745305  1
  O  O10  1  0.053095  0.057158  0.445061  1
  O  O11  1  0.793365  0.795441  0.206109  1
  O  O12  1  0.456635  0.043891  0.454559  1
  O  O13  1  0.455906  0.045696  0.045696  1
  O  O14  1  0.047455  0.451391  0.451391  1
  O  O15  1  0.053095  0.445061  0.057158  1
  O  O16  1  0.456635  0.454559  0.043891  1
  O  O17  1  0.202545  0.798609  0.798609  1
  O  O18  1  0.794094  0.204304  0.204304  1
  O  O19  1  0.196905  0.192842  0.804939  1
  O  O20  1  0.196905  0.804939  0.192842  1
  O  O21  1  0.793365  0.206109  0.795441  1
