# generated using pymatgen
data_Nd8Be4ZnSi11
_symmetry_space_group_name_H-M   'P 1'
_cell_length_a   7.98697082
_cell_length_b   7.98697037
_cell_length_c   8.54372401
_cell_angle_alpha   90.00548863
_cell_angle_beta   89.99451214
_cell_angle_gamma   119.92274924
_symmetry_Int_Tables_number   1
_chemical_formula_structural   Nd8Be4ZnSi11
_chemical_formula_sum   'Nd8 Be4 Zn1 Si11'
_cell_volume   472.36700340
_cell_formula_units_Z   1
loop_
 _symmetry_equiv_pos_site_id
 _symmetry_equiv_pos_as_xyz
  1  'x, y, z'
loop_
 _atom_site_type_symbol
 _atom_site_label
 _atom_site_symmetry_multiplicity
 _atom_site_fract_x
 _atom_site_fract_y
 _atom_site_fract_z
 _atom_site_occupancy
  Nd  Nd0  1  0.000942  0.999058  0.748873  1
  Nd  Nd1  1  0.000857  0.999143  0.251092  1
  Nd  Nd2  1  0.499775  0.500225  0.751041  1
  Nd  Nd3  1  0.497495  0.998140  0.748934  1
  Nd  Nd4  1  0.001860  0.502505  0.748934  1
  Nd  Nd5  1  0.500436  0.499564  0.248936  1
  Nd  Nd6  1  0.000630  0.501851  0.251145  1
  Nd  Nd7  1  0.498149  0.999370  0.251145  1
  Be  Be8  1  0.665606  0.334394  0.997553  1
  Be  Be9  1  0.666506  0.333494  0.502501  1
  Be  Be10  1  0.333503  0.666497  0.497465  1
  Be  Be11  1  0.334984  0.665016  0.002397  1
  Zn  Zn12  1  0.827595  0.172405  0.999351  1
  Si  Si13  1  0.824872  0.653761  0.999611  1
  Si  Si14  1  0.346239  0.175128  0.999611  1
  Si  Si15  1  0.828229  0.171771  0.500495  1
  Si  Si16  1  0.827545  0.655341  0.500477  1
  Si  Si17  1  0.344659  0.172455  0.500477  1
  Si  Si18  1  0.172044  0.827956  0.499503  1
  Si  Si19  1  0.655385  0.827405  0.499566  1
  Si  Si20  1  0.172595  0.344615  0.499566  1
  Si  Si21  1  0.171863  0.828137  0.000406  1
  Si  Si22  1  0.658181  0.829949  0.000460  1
  Si  Si23  1  0.170051  0.341819  0.000460  1
