# generated using pymatgen
data_Pr4ErGa2Sn
_symmetry_space_group_name_H-M   'P 1'
_cell_length_a   8.03851100
_cell_length_b   8.03851100
_cell_length_c   14.61394700
_cell_angle_alpha   90.00000000
_cell_angle_beta   90.00000000
_cell_angle_gamma   90.00000000
_symmetry_Int_Tables_number   1
_chemical_formula_structural   Pr4ErGa2Sn
_chemical_formula_sum   'Pr16 Er4 Ga8 Sn4'
_cell_volume   944.31904531
_cell_formula_units_Z   4
loop_
 _symmetry_equiv_pos_site_id
 _symmetry_equiv_pos_as_xyz
  1  'x, y, z'
loop_
 _atom_site_type_symbol
 _atom_site_label
 _atom_site_symmetry_multiplicity
 _atom_site_fract_x
 _atom_site_fract_y
 _atom_site_fract_z
 _atom_site_occupancy
  Pr  Pr0  1  0.824875  0.839412  0.606723  1
  Pr  Pr1  1  0.175125  0.839412  0.106723  1
  Pr  Pr2  1  0.160588  0.824875  0.393277  1
  Pr  Pr3  1  0.839412  0.175125  0.393277  1
  Pr  Pr4  1  0.675125  0.660588  0.393277  1
  Pr  Pr5  1  0.660588  0.324875  0.606723  1
  Pr  Pr6  1  0.339412  0.675125  0.606723  1
  Pr  Pr7  1  0.660588  0.675125  0.106723  1
  Pr  Pr8  1  0.675125  0.339412  0.893277  1
  Pr  Pr9  1  0.839412  0.824875  0.893277  1
  Pr  Pr10  1  0.324875  0.339412  0.393277  1
  Pr  Pr11  1  0.175125  0.160588  0.606723  1
  Pr  Pr12  1  0.824875  0.160588  0.106723  1
  Pr  Pr13  1  0.324875  0.660588  0.893277  1
  Pr  Pr14  1  0.339412  0.324875  0.106723  1
  Pr  Pr15  1  0.160588  0.175125  0.893277  1
  Er  Er16  1  0.000000  0.500000  0.731312  1
  Er  Er17  1  0.000000  0.500000  0.231312  1
  Er  Er18  1  0.500000  0.000000  0.268688  1
  Er  Er19  1  0.500000  0.000000  0.768688  1
  Ga  Ga20  1  0.626234  0.373766  0.250000  1
  Ga  Ga21  1  0.126234  0.873766  0.750000  1
  Ga  Ga22  1  0.373766  0.373766  0.750000  1
  Ga  Ga23  1  0.373766  0.626234  0.250000  1
  Ga  Ga24  1  0.873766  0.873766  0.250000  1
  Ga  Ga25  1  0.626234  0.626234  0.750000  1
  Ga  Ga26  1  0.873766  0.126234  0.750000  1
  Ga  Ga27  1  0.126234  0.126234  0.250000  1
  Sn  Sn28  1  0.000000  0.500000  0.507382  1
  Sn  Sn29  1  0.500000  0.000000  0.492618  1
  Sn  Sn30  1  0.500000  0.000000  0.992618  1
  Sn  Sn31  1  0.000000  0.500000  0.007382  1
