# generated using pymatgen
data_Hf17Zr3(BeAs3)4
_symmetry_space_group_name_H-M   'P 1'
_cell_length_a   3.64622500
_cell_length_b   10.31843920
_cell_length_c   17.44669834
_cell_angle_alpha   90.02249876
_cell_angle_beta   90.00000000
_cell_angle_gamma   90.00000000
_symmetry_Int_Tables_number   1
_chemical_formula_structural   Hf17Zr3(BeAs3)4
_chemical_formula_sum   'Hf17 Zr3 Be4 As12'
_cell_volume   656.40320413
_cell_formula_units_Z   1
loop_
 _symmetry_equiv_pos_site_id
 _symmetry_equiv_pos_as_xyz
  1  'x, y, z'
loop_
 _atom_site_type_symbol
 _atom_site_label
 _atom_site_symmetry_multiplicity
 _atom_site_fract_x
 _atom_site_fract_y
 _atom_site_fract_z
 _atom_site_occupancy
  Hf  Hf0  1  0.250000  0.312794  0.870080  1
  Hf  Hf1  1  0.250000  0.876851  0.477943  1
  Hf  Hf2  1  0.750000  0.123177  0.522155  1
  Hf  Hf3  1  0.750000  0.376675  0.021698  1
  Hf  Hf4  1  0.250000  0.622495  0.977650  1
  Hf  Hf5  1  0.250000  0.940220  0.080223  1
  Hf  Hf6  1  0.750000  0.060504  0.919575  1
  Hf  Hf7  1  0.750000  0.439903  0.419651  1
  Hf  Hf8  1  0.250000  0.560056  0.580423  1
  Hf  Hf9  1  0.250000  0.242794  0.167481  1
  Hf  Hf10  1  0.750000  0.756741  0.832426  1
  Hf  Hf11  1  0.750000  0.742706  0.332288  1
  Hf  Hf12  1  0.250000  0.257534  0.668065  1
  Hf  Hf13  1  0.250000  0.518407  0.273066  1
  Hf  Hf14  1  0.750000  0.481272  0.727101  1
  Hf  Hf15  1  0.750000  0.018573  0.226754  1
  Hf  Hf16  1  0.250000  0.982087  0.773514  1
  Zr  Zr17  1  0.250000  0.186839  0.369751  1
  Zr  Zr18  1  0.750000  0.813254  0.630302  1
  Zr  Zr19  1  0.750000  0.686809  0.130114  1
  Be  Be20  1  0.250000  0.626598  0.413758  1
  Be  Be21  1  0.750000  0.373470  0.586301  1
  Be  Be22  1  0.750000  0.126869  0.085918  1
  Be  Be23  1  0.250000  0.873342  0.913880  1
  As  As24  1  0.250000  0.489281  0.116533  1
  As  As25  1  0.750000  0.508650  0.882883  1
  As  As26  1  0.750000  0.989434  0.383232  1
  As  As27  1  0.250000  0.010754  0.616920  1
  As  As28  1  0.250000  0.812165  0.222280  1
  As  As29  1  0.750000  0.189803  0.778454  1
  As  As30  1  0.750000  0.312035  0.277551  1
  As  As31  1  0.250000  0.687739  0.722422  1
  As  As32  1  0.250000  0.182175  0.010058  1
  As  As33  1  0.750000  0.818060  0.989382  1
  As  As34  1  0.750000  0.681719  0.489510  1
  As  As35  1  0.250000  0.318212  0.510659  1
