# generated using pymatgen
data_Tm2LuSc3MnSb2
_symmetry_space_group_name_H-M   'P 1'
_cell_length_a   7.76881628
_cell_length_b   7.76881466
_cell_length_c   4.17206400
_cell_angle_alpha   90.00000000
_cell_angle_beta   90.00000000
_cell_angle_gamma   119.96380069
_symmetry_Int_Tables_number   1
_chemical_formula_structural   Tm2LuSc3MnSb2
_chemical_formula_sum   'Tm2 Lu1 Sc3 Mn1 Sb2'
_cell_volume   218.14713170
_cell_formula_units_Z   1
loop_
 _symmetry_equiv_pos_site_id
 _symmetry_equiv_pos_as_xyz
  1  'x, y, z'
loop_
 _atom_site_type_symbol
 _atom_site_label
 _atom_site_symmetry_multiplicity
 _atom_site_fract_x
 _atom_site_fract_y
 _atom_site_fract_z
 _atom_site_occupancy
  Tm  Tm0  1  0.607119  0.999638  0.000000  1
  Tm  Tm1  1  0.999638  0.607119  0.000000  1
  Lu  Lu2  1  0.391120  0.391120  0.000000  1
  Sc  Sc3  1  0.229231  0.999995  0.500000  1
  Sc  Sc4  1  0.999995  0.229231  0.500000  1
  Sc  Sc5  1  0.771245  0.771245  0.500000  1
  Mn  Mn6  1  0.002268  0.002268  0.000000  1
  Sb  Sb7  1  0.333603  0.665781  0.500000  1
  Sb  Sb8  1  0.665781  0.333603  0.500000  1
