# generated using pymatgen
data_TmZr2ReF15
_symmetry_space_group_name_H-M   'P 1'
_cell_length_a   8.09066486
_cell_length_b   8.09066498
_cell_length_c   8.09586800
_cell_angle_alpha   79.85748135
_cell_angle_beta   79.85747400
_cell_angle_gamma   99.63793363
_symmetry_Int_Tables_number   1
_chemical_formula_structural   TmZr2ReF15
_chemical_formula_sum   'Tm2 Zr4 Re2 F30'
_cell_volume   502.62993101
_cell_formula_units_Z   2
loop_
 _symmetry_equiv_pos_site_id
 _symmetry_equiv_pos_as_xyz
  1  'x, y, z'
loop_
 _atom_site_type_symbol
 _atom_site_label
 _atom_site_symmetry_multiplicity
 _atom_site_fract_x
 _atom_site_fract_y
 _atom_site_fract_z
 _atom_site_occupancy
  Tm  Tm0  1  0.177502  0.822498  0.250000  1
  Tm  Tm1  1  0.822498  0.177502  0.750000  1
  Zr  Zr2  1  0.748990  0.677973  0.673895  1
  Zr  Zr3  1  0.322027  0.251010  0.826105  1
  Zr  Zr4  1  0.251010  0.322027  0.326105  1
  Zr  Zr5  1  0.677973  0.748990  0.173895  1
  Re  Re6  1  0.750120  0.249880  0.250000  1
  Re  Re7  1  0.249880  0.750120  0.750000  1
  F  F8  1  0.315259  0.351338  0.053396  1
  F  F9  1  0.938705  0.813332  0.151988  1
  F  F10  1  0.844571  0.457155  0.685138  1
  F  F11  1  0.457155  0.844571  0.185138  1
  F  F12  1  0.813332  0.938705  0.651988  1
  F  F13  1  0.351338  0.315259  0.553395  1
  F  F14  1  0.684741  0.648662  0.946604  1
  F  F15  1  0.061295  0.186668  0.848012  1
  F  F16  1  0.155429  0.542845  0.314862  1
  F  F17  1  0.542845  0.155429  0.814862  1
  F  F18  1  0.186668  0.061295  0.348012  1
  F  F19  1  0.648662  0.684741  0.446604  1
  F  F20  1  0.773582  0.283212  0.998987  1
  F  F21  1  0.002710  0.274539  0.214226  1
  F  F22  1  0.783901  0.503829  0.224346  1
  F  F23  1  0.503829  0.783901  0.724346  1
  F  F24  1  0.274539  0.002710  0.714226  1
  F  F25  1  0.283212  0.773582  0.498987  1
  F  F26  1  0.226418  0.716788  0.001013  1
  F  F27  1  0.997290  0.725461  0.785774  1
  F  F28  1  0.216099  0.496171  0.775654  1
  F  F29  1  0.496171  0.216099  0.275654  1
  F  F30  1  0.725461  0.997290  0.285774  1
  F  F31  1  0.716788  0.226418  0.501013  1
  F  F32  1  0.469830  0.530170  0.250000  1
  F  F33  1  0.746754  0.958089  0.970921  1
  F  F34  1  0.041911  0.253246  0.529079  1
  F  F35  1  0.253246  0.041911  0.029079  1
  F  F36  1  0.958089  0.746754  0.470921  1
  F  F37  1  0.530170  0.469830  0.750000  1
