# generated using pymatgen
data_Nd7Y3(In3Cl)2
_symmetry_space_group_name_H-M   'P 1'
_cell_length_a   9.30141400
_cell_length_b   9.30148912
_cell_length_c   6.73085200
_cell_angle_alpha   89.99859555
_cell_angle_beta   90.00162621
_cell_angle_gamma   120.00056508
_symmetry_Int_Tables_number   1
_chemical_formula_structural   Nd7Y3(In3Cl)2
_chemical_formula_sum   'Nd7 Y3 In6 Cl2'
_cell_volume   504.31241226
_cell_formula_units_Z   1
loop_
 _symmetry_equiv_pos_site_id
 _symmetry_equiv_pos_as_xyz
  1  'x, y, z'
loop_
 _atom_site_type_symbol
 _atom_site_label
 _atom_site_symmetry_multiplicity
 _atom_site_fract_x
 _atom_site_fract_y
 _atom_site_fract_z
 _atom_site_occupancy
  Nd  Nd0  1  0.666669  0.333329  0.999997  1
  Nd  Nd1  1  0.741311  0.742264  0.250472  1
  Nd  Nd2  1  0.257738  0.999034  0.250487  1
  Nd  Nd3  1  0.000954  0.258697  0.250473  1
  Nd  Nd4  1  0.257738  0.258689  0.749516  1
  Nd  Nd5  1  0.741307  0.999041  0.749525  1
  Nd  Nd6  1  0.000966  0.742257  0.749525  1
  Y  Y7  1  0.333320  0.666666  0.000000  1
  Y  Y8  1  0.666669  0.333335  0.499997  1
  Y  Y9  1  0.333344  0.666673  0.500000  1
  In  In10  1  0.602176  0.997777  0.250709  1
  In  In11  1  0.002206  0.604371  0.250727  1
  In  In12  1  0.395611  0.397854  0.250755  1
  In  In13  1  0.395625  0.997801  0.749268  1
  In  In14  1  0.002213  0.397828  0.749270  1
  In  In15  1  0.602143  0.604397  0.749278  1
  Cl  Cl16  1  0.000002  0.999995  0.999998  1
  Cl  Cl17  1  0.000008  0.999990  0.500000  1
