# generated using pymatgen
data_Nd4Pd3Au
_symmetry_space_group_name_H-M   'P 1'
_cell_length_a   7.35958913
_cell_length_b   4.75931300
_cell_length_c   5.75946484
_cell_angle_alpha   90.00000000
_cell_angle_beta   89.60631687
_cell_angle_gamma   90.00000000
_symmetry_Int_Tables_number   1
_chemical_formula_structural   Nd4Pd3Au
_chemical_formula_sum   'Nd4 Pd3 Au1'
_cell_volume   201.72964124
_cell_formula_units_Z   1
loop_
 _symmetry_equiv_pos_site_id
 _symmetry_equiv_pos_as_xyz
  1  'x, y, z'
loop_
 _atom_site_type_symbol
 _atom_site_label
 _atom_site_symmetry_multiplicity
 _atom_site_fract_x
 _atom_site_fract_y
 _atom_site_fract_z
 _atom_site_occupancy
  Nd  Nd0  1  0.188392  0.250000  0.136128  1
  Nd  Nd1  1  0.318947  0.750001  0.641681  1
  Nd  Nd2  1  0.678821  0.250000  0.360073  1
  Nd  Nd3  1  0.813079  0.750001  0.859058  1
  Pd  Pd4  1  0.041184  0.250000  0.648789  1
  Pd  Pd5  1  0.458464  0.750001  0.148742  1
  Pd  Pd6  1  0.541811  0.250000  0.851566  1
  Au  Au7  1  0.959301  0.750001  0.353963  1
