# generated using pymatgen
data_Tb7ZnPd2
_symmetry_space_group_name_H-M   'P 1'
_cell_length_a   3.76543200
_cell_length_b   11.95060000
_cell_length_c   11.95060000
_cell_angle_alpha   90.00000000
_cell_angle_beta   90.00000000
_cell_angle_gamma   90.00000000
_symmetry_Int_Tables_number   1
_chemical_formula_structural   Tb7ZnPd2
_chemical_formula_sum   'Tb14 Zn2 Pd4'
_cell_volume   537.76710083
_cell_formula_units_Z   2
loop_
 _symmetry_equiv_pos_site_id
 _symmetry_equiv_pos_as_xyz
  1  'x, y, z'
loop_
 _atom_site_type_symbol
 _atom_site_label
 _atom_site_symmetry_multiplicity
 _atom_site_fract_x
 _atom_site_fract_y
 _atom_site_fract_z
 _atom_site_occupancy
  Tb  Tb0  1  0.500000  0.000000  0.500000  1
  Tb  Tb1  1  0.500000  0.500000  0.000000  1
  Tb  Tb2  1  0.000000  0.317592  0.817592  1
  Tb  Tb3  1  0.000000  0.682408  0.182408  1
  Tb  Tb4  1  0.000000  0.182408  0.317592  1
  Tb  Tb5  1  0.000000  0.817592  0.682408  1
  Tb  Tb6  1  0.500000  0.556184  0.698169  1
  Tb  Tb7  1  0.500000  0.443816  0.301831  1
  Tb  Tb8  1  0.500000  0.943816  0.198169  1
  Tb  Tb9  1  0.500000  0.056184  0.801831  1
  Tb  Tb10  1  0.500000  0.698169  0.443816  1
  Tb  Tb11  1  0.500000  0.301831  0.556184  1
  Tb  Tb12  1  0.500000  0.198169  0.056184  1
  Tb  Tb13  1  0.500000  0.801831  0.943816  1
  Zn  Zn14  1  0.000000  0.500000  0.500000  1
  Zn  Zn15  1  0.000000  0.000000  0.000000  1
  Pd  Pd16  1  0.000000  0.131771  0.631771  1
  Pd  Pd17  1  0.000000  0.868229  0.368229  1
  Pd  Pd18  1  0.000000  0.368229  0.131771  1
  Pd  Pd19  1  0.000000  0.631771  0.868229  1
