# generated using pymatgen
data_LuFe4P3Ru
_symmetry_space_group_name_H-M   'P 1'
_cell_length_a   3.68839500
_cell_length_b   10.30390100
_cell_length_c   11.76963400
_cell_angle_alpha   90.00000000
_cell_angle_beta   90.00000000
_cell_angle_gamma   90.00000000
_symmetry_Int_Tables_number   1
_chemical_formula_structural   LuFe4P3Ru
_chemical_formula_sum   'Lu4 Fe16 P12 Ru4'
_cell_volume   447.30325628
_cell_formula_units_Z   4
loop_
 _symmetry_equiv_pos_site_id
 _symmetry_equiv_pos_as_xyz
  1  'x, y, z'
loop_
 _atom_site_type_symbol
 _atom_site_label
 _atom_site_symmetry_multiplicity
 _atom_site_fract_x
 _atom_site_fract_y
 _atom_site_fract_z
 _atom_site_occupancy
  Lu  Lu0  1  0.250000  0.581567  0.704157  1
  Lu  Lu1  1  0.250000  0.918433  0.204157  1
  Lu  Lu2  1  0.750000  0.418433  0.295843  1
  Lu  Lu3  1  0.750000  0.081567  0.795843  1
  Fe  Fe4  1  0.250000  0.406020  0.488810  1
  Fe  Fe5  1  0.250000  0.093980  0.988810  1
  Fe  Fe6  1  0.750000  0.593980  0.511190  1
  Fe  Fe7  1  0.750000  0.906020  0.011190  1
  Fe  Fe8  1  0.250000  0.219744  0.176215  1
  Fe  Fe9  1  0.250000  0.280256  0.676215  1
  Fe  Fe10  1  0.750000  0.780256  0.823785  1
  Fe  Fe11  1  0.750000  0.719744  0.323785  1
  Fe  Fe12  1  0.250000  0.877999  0.703614  1
  Fe  Fe13  1  0.250000  0.622001  0.203614  1
  Fe  Fe14  1  0.750000  0.122001  0.296386  1
  Fe  Fe15  1  0.750000  0.377999  0.796386  1
  Fe  Fe16  1  0.250000  0.462559  0.932269  1
  Fe  Fe17  1  0.250000  0.037441  0.432269  1
  Fe  Fe18  1  0.750000  0.537441  0.067731  1
  Fe  Fe19  1  0.750000  0.962559  0.567731  1
  P  P20  1  0.250000  0.424020  0.115496  1
  P  P21  1  0.250000  0.075980  0.615496  1
  P  P22  1  0.750000  0.575980  0.884504  1
  P  P23  1  0.750000  0.924020  0.384504  1
  P  P24  1  0.250000  0.264645  0.867580  1
  P  P25  1  0.250000  0.235355  0.367580  1
  P  P26  1  0.750000  0.735355  0.132420  1
  P  P27  1  0.750000  0.764645  0.632420  1
  P  P28  1  0.250000  0.594720  0.393811  1
  P  P29  1  0.250000  0.905280  0.893811  1
  P  P30  1  0.750000  0.405280  0.606189  1
  P  P31  1  0.750000  0.094720  0.106189  1
  Ru  Ru32  1  0.250000  0.708271  0.987910  1
  Ru  Ru33  1  0.250000  0.791729  0.487910  1
  Ru  Ru34  1  0.750000  0.291729  0.012090  1
  Ru  Ru35  1  0.750000  0.208271  0.512090  1
