# generated using pymatgen
data_Y4TmIr3
_symmetry_space_group_name_H-M   'P 1'
_cell_length_a   10.89569500
_cell_length_b   10.89569500
_cell_length_c   6.35816800
_cell_angle_alpha   90.00000000
_cell_angle_beta   90.00000000
_cell_angle_gamma   90.00000000
_symmetry_Int_Tables_number   1
_chemical_formula_structural   Y4TmIr3
_chemical_formula_sum   'Y16 Tm4 Ir12'
_cell_volume   754.81735021
_cell_formula_units_Z   4
loop_
 _symmetry_equiv_pos_site_id
 _symmetry_equiv_pos_as_xyz
  1  'x, y, z'
loop_
 _atom_site_type_symbol
 _atom_site_label
 _atom_site_symmetry_multiplicity
 _atom_site_fract_x
 _atom_site_fract_y
 _atom_site_fract_z
 _atom_site_occupancy
  Y  Y0  1  0.290557  0.087663  0.377238  1
  Y  Y1  1  0.290557  0.912337  0.877238  1
  Y  Y2  1  0.709443  0.087663  0.877238  1
  Y  Y3  1  0.709443  0.912337  0.377238  1
  Y  Y4  1  0.587663  0.790557  0.877238  1
  Y  Y5  1  0.587663  0.209443  0.377238  1
  Y  Y6  1  0.412337  0.790557  0.377238  1
  Y  Y7  1  0.412337  0.209443  0.877238  1
  Y  Y8  1  0.209443  0.412337  0.622762  1
  Y  Y9  1  0.209443  0.587663  0.122762  1
  Y  Y10  1  0.790557  0.412337  0.122762  1
  Y  Y11  1  0.790557  0.587663  0.622762  1
  Y  Y12  1  0.912337  0.709443  0.122762  1
  Y  Y13  1  0.912337  0.290557  0.622762  1
  Y  Y14  1  0.087663  0.709443  0.622762  1
  Y  Y15  1  0.087663  0.290557  0.122762  1
  Tm  Tm16  1  0.000000  0.000000  0.500000  1
  Tm  Tm17  1  0.000000  0.000000  0.000000  1
  Tm  Tm18  1  0.500000  0.500000  0.000000  1
  Tm  Tm19  1  0.500000  0.500000  0.500000  1
  Ir  Ir20  1  0.848109  0.151891  0.250000  1
  Ir  Ir21  1  0.848109  0.848109  0.750000  1
  Ir  Ir22  1  0.151891  0.151891  0.750000  1
  Ir  Ir23  1  0.151891  0.848109  0.250000  1
  Ir  Ir24  1  0.651891  0.348109  0.750000  1
  Ir  Ir25  1  0.651891  0.651891  0.250000  1
  Ir  Ir26  1  0.348109  0.348109  0.250000  1
  Ir  Ir27  1  0.348109  0.651891  0.750000  1
  Ir  Ir28  1  0.500000  0.000000  0.122128  1
  Ir  Ir29  1  0.500000  0.000000  0.622128  1
  Ir  Ir30  1  0.000000  0.500000  0.877872  1
  Ir  Ir31  1  0.000000  0.500000  0.377872  1
