# generated using pymatgen
data_PmZnSiF
_symmetry_space_group_name_H-M   'P 1'
_cell_length_a   3.97858400
_cell_length_b   3.97858400
_cell_length_c   8.69470900
_cell_angle_alpha   90.00000000
_cell_angle_beta   90.00000000
_cell_angle_gamma   90.00000000
_symmetry_Int_Tables_number   1
_chemical_formula_structural   PmZnSiF
_chemical_formula_sum   'Pm2 Zn2 Si2 F2'
_cell_volume   137.62968468
_cell_formula_units_Z   2
loop_
 _symmetry_equiv_pos_site_id
 _symmetry_equiv_pos_as_xyz
  1  'x, y, z'
loop_
 _atom_site_type_symbol
 _atom_site_label
 _atom_site_symmetry_multiplicity
 _atom_site_fract_x
 _atom_site_fract_y
 _atom_site_fract_z
 _atom_site_occupancy
  Pm  Pm0  1  0.250000  0.250000  0.182653  1
  Pm  Pm1  1  0.750001  0.750001  0.817351  1
  Zn  Zn2  1  0.750001  0.250000  0.500000  1
  Zn  Zn3  1  0.250000  0.750001  0.500000  1
  Si  Si4  1  0.750001  0.750001  0.319137  1
  Si  Si5  1  0.250000  0.250000  0.680861  1
  F  F6  1  0.750001  0.250000  0.999999  1
  F  F7  1  0.250000  0.750001  0.999999  1
