# generated using pymatgen
data_Yb4Ga5Tc3
_symmetry_space_group_name_H-M   'P 1'
_cell_length_a   5.45624826
_cell_length_b   5.61414281
_cell_length_c   8.67804500
_cell_angle_alpha   90.00000000
_cell_angle_beta   90.00000000
_cell_angle_gamma   120.96198180
_symmetry_Int_Tables_number   1
_chemical_formula_structural   Yb4Ga5Tc3
_chemical_formula_sum   'Yb4 Ga5 Tc3'
_cell_volume   227.94921084
_cell_formula_units_Z   1
loop_
 _symmetry_equiv_pos_site_id
 _symmetry_equiv_pos_as_xyz
  1  'x, y, z'
loop_
 _atom_site_type_symbol
 _atom_site_label
 _atom_site_symmetry_multiplicity
 _atom_site_fract_x
 _atom_site_fract_y
 _atom_site_fract_z
 _atom_site_occupancy
  Yb  Yb0  1  0.327506  0.663753  0.442662  1
  Yb  Yb1  1  0.665655  0.332827  0.552097  1
  Yb  Yb2  1  0.665655  0.332827  0.947903  1
  Yb  Yb3  1  0.327506  0.663753  0.057338  1
  Ga  Ga4  1  0.835161  0.157865  0.250000  1
  Ga  Ga5  1  0.835161  0.677296  0.250000  1
  Ga  Ga6  1  0.322294  0.161147  0.250000  1
  Ga  Ga7  1  0.197596  0.854355  0.750000  1
  Ga  Ga8  1  0.197596  0.343241  0.750000  1
  Tc  Tc9  1  0.971068  0.985534  0.512745  1
  Tc  Tc10  1  0.971068  0.985534  0.987255  1
  Tc  Tc11  1  0.683734  0.841867  0.750000  1
