# generated using pymatgen
data_CsDy5Er5(C2I9)2
_symmetry_space_group_name_H-M   'P 1'
_cell_length_a   11.48569917
_cell_length_b   11.49301524
_cell_length_c   11.47712719
_cell_angle_alpha   113.22002493
_cell_angle_beta   86.60872155
_cell_angle_gamma   120.19490125
_symmetry_Int_Tables_number   1
_chemical_formula_structural   CsDy5Er5(C2I9)2
_chemical_formula_sum   'Cs1 Dy5 Er5 C4 I18'
_cell_volume   1184.80272412
_cell_formula_units_Z   1
loop_
 _symmetry_equiv_pos_site_id
 _symmetry_equiv_pos_as_xyz
  1  'x, y, z'
loop_
 _atom_site_type_symbol
 _atom_site_label
 _atom_site_symmetry_multiplicity
 _atom_site_fract_x
 _atom_site_fract_y
 _atom_site_fract_z
 _atom_site_occupancy
  Cs  Cs0  1  0.499864  0.999400  0.499696  1
  Dy  Dy1  1  0.103992  0.945480  0.000869  1
  Dy  Dy2  1  0.035913  0.962677  0.676348  1
  Dy  Dy3  1  0.319249  0.273653  0.286587  1
  Dy  Dy4  1  0.723401  0.648008  0.985114  1
  Dy  Dy5  1  0.896350  0.055061  0.999554  1
  Er  Er6  1  0.682368  0.727182  0.714747  1
  Er  Er7  1  0.275113  0.350243  0.015461  1
  Er  Er8  1  0.093252  0.385671  0.288755  1
  Er  Er9  1  0.964528  0.037779  0.321961  1
  Er  Er10  1  0.906992  0.614362  0.711335  1
  C  C11  1  0.151287  0.218859  0.119565  1
  C  C12  1  0.848392  0.780817  0.880071  1
  C  C13  1  0.924695  0.857307  0.803643  1
  C  C14  1  0.074818  0.142302  0.196014  1
  I  I15  1  0.451399  0.531421  0.831944  1
  I  I16  1  0.382278  0.040252  0.157457  1
  I  I17  1  0.778091  0.855348  0.502667  1
  I  I18  1  0.840530  0.309742  0.154240  1
  I  I19  1  0.547261  0.469032  0.166652  1
  I  I20  1  0.219169  0.144168  0.497146  1
  I  I21  1  0.317195  0.099081  0.830428  1
  I  I22  1  0.684285  0.903580  0.171793  1
  I  I23  1  0.973558  0.758084  0.171278  1
  I  I24  1  0.935112  0.296001  0.498220  1
  I  I25  1  0.028153  0.244775  0.831234  1
  I  I26  1  0.065106  0.701198  0.500946  1
  I  I27  1  0.259541  0.617348  0.181696  1
  I  I28  1  0.741551  0.380895  0.816255  1
  I  I29  1  0.645734  0.440552  0.505043  1
  I  I30  1  0.159397  0.690186  0.845659  1
  I  I31  1  0.617888  0.957515  0.841470  1
  I  I32  1  0.353538  0.562021  0.496153  1
