# generated using pymatgen
data_PtRh3(Pb2O7)2
_symmetry_space_group_name_H-M   'P 1'
_cell_length_a   7.35536033
_cell_length_b   7.31502113
_cell_length_c   7.35536000
_cell_angle_alpha   59.81741268
_cell_angle_beta   60.00000150
_cell_angle_gamma   59.81740956
_symmetry_Int_Tables_number   1
_chemical_formula_structural   PtRh3(Pb2O7)2
_chemical_formula_sum   'Pt1 Rh3 Pb4 O14'
_cell_volume   279.06435702
_cell_formula_units_Z   1
loop_
 _symmetry_equiv_pos_site_id
 _symmetry_equiv_pos_as_xyz
  1  'x, y, z'
loop_
 _atom_site_type_symbol
 _atom_site_label
 _atom_site_symmetry_multiplicity
 _atom_site_fract_x
 _atom_site_fract_y
 _atom_site_fract_z
 _atom_site_occupancy
  Pt  Pt0  1  0.125000  0.625000  0.125000  1
  Rh  Rh1  1  0.125000  0.125000  0.625000  1
  Rh  Rh2  1  0.625000  0.125000  0.125000  1
  Rh  Rh3  1  0.125000  0.125000  0.125000  1
  Pb  Pb4  1  0.625000  0.625000  0.125000  1
  Pb  Pb5  1  0.625000  0.125000  0.625000  1
  Pb  Pb6  1  0.125000  0.625000  0.625000  1
  Pb  Pb7  1  0.625000  0.625000  0.625000  1
  O  O8  1  0.498469  0.504594  0.498469  1
  O  O9  1  0.751531  0.745406  0.751531  1
  O  O10  1  0.457316  0.042321  0.457316  1
  O  O11  1  0.207171  0.792637  0.207171  1
  O  O12  1  0.456979  0.457363  0.042829  1
  O  O13  1  0.042829  0.457363  0.456979  1
  O  O14  1  0.457316  0.042321  0.043045  1
  O  O15  1  0.043045  0.042321  0.457316  1
  O  O16  1  0.042829  0.457363  0.042829  1
  O  O17  1  0.792684  0.207679  0.206955  1
  O  O18  1  0.207171  0.792637  0.793021  1
  O  O19  1  0.792684  0.207679  0.792684  1
  O  O20  1  0.206955  0.207679  0.792684  1
  O  O21  1  0.793021  0.792637  0.207171  1
