# generated using pymatgen
data_Li3Fe2RhO6
_symmetry_space_group_name_H-M   'P 1'
_cell_length_a   5.16770099
_cell_length_b   5.16690182
_cell_length_c   9.96028229
_cell_angle_alpha   94.92287437
_cell_angle_beta   85.06946643
_cell_angle_gamma   60.06228216
_symmetry_Int_Tables_number   1
_chemical_formula_structural   Li3Fe2RhO6
_chemical_formula_sum   'Li6 Fe4 Rh2 O12'
_cell_volume   227.04488866
_cell_formula_units_Z   2
loop_
 _symmetry_equiv_pos_site_id
 _symmetry_equiv_pos_as_xyz
  1  'x, y, z'
loop_
 _atom_site_type_symbol
 _atom_site_label
 _atom_site_symmetry_multiplicity
 _atom_site_fract_x
 _atom_site_fract_y
 _atom_site_fract_z
 _atom_site_occupancy
  Li  Li0  1  0.669936  0.663298  0.999178  1
  Li  Li1  1  0.163423  0.170039  0.500825  1
  Li  Li2  1  0.324901  0.330415  0.000515  1
  Li  Li3  1  0.829888  0.825545  0.499375  1
  Li  Li4  1  0.508438  0.503045  0.499510  1
  Li  Li5  1  0.003569  0.007817  0.000595  1
  Fe  Fe6  1  0.249350  0.749597  0.250040  1
  Fe  Fe7  1  0.749592  0.249693  0.750015  1
  Fe  Fe8  1  0.584003  0.083773  0.249962  1
  Fe  Fe9  1  0.083710  0.583593  0.749991  1
  Rh  Rh10  1  0.416657  0.916643  0.749999  1
  Rh  Rh11  1  0.916656  0.416669  0.249999  1
  O  O12  1  0.293059  0.040287  0.133365  1
  O  O13  1  0.793646  0.539673  0.633305  1
  O  O14  1  0.540279  0.793070  0.366635  1
  O  O15  1  0.039660  0.293605  0.866699  1
  O  O16  1  0.616028  0.379503  0.133607  1
  O  O17  1  0.116995  0.877962  0.633643  1
  O  O18  1  0.953863  0.717377  0.133547  1
  O  O19  1  0.455350  0.216463  0.633592  1
  O  O20  1  0.217315  0.453812  0.366367  1
  O  O21  1  0.716318  0.955296  0.866350  1
  O  O22  1  0.879450  0.115983  0.366470  1
  O  O23  1  0.377917  0.616843  0.866418  1
