# generated using pymatgen
data_Zr6Ta3Al13Co7
_symmetry_space_group_name_H-M   'P 1'
_cell_length_a   8.62351926
_cell_length_b   8.62351828
_cell_length_c   8.62351881
_cell_angle_alpha   59.83250488
_cell_angle_beta   59.83250887
_cell_angle_gamma   59.83250836
_symmetry_Int_Tables_number   1
_chemical_formula_structural   Zr6Ta3Al13Co7
_chemical_formula_sum   'Zr6 Ta3 Al13 Co7'
_cell_volume   451.73573249
_cell_formula_units_Z   1
loop_
 _symmetry_equiv_pos_site_id
 _symmetry_equiv_pos_as_xyz
  1  'x, y, z'
loop_
 _atom_site_type_symbol
 _atom_site_label
 _atom_site_symmetry_multiplicity
 _atom_site_fract_x
 _atom_site_fract_y
 _atom_site_fract_z
 _atom_site_occupancy
  Zr  Zr0  1  0.695382  0.307211  0.307211  1
  Zr  Zr1  1  0.691273  0.309110  0.691273  1
  Zr  Zr2  1  0.691273  0.691273  0.309110  1
  Zr  Zr3  1  0.309110  0.691273  0.691273  1
  Zr  Zr4  1  0.307211  0.695382  0.307211  1
  Zr  Zr5  1  0.307211  0.307211  0.695382  1
  Ta  Ta6  1  0.642016  0.119175  0.119175  1
  Ta  Ta7  1  0.119175  0.642016  0.119175  1
  Ta  Ta8  1  0.119175  0.119175  0.642016  1
  Al  Al9  1  0.117853  0.117853  0.117853  1
  Al  Al10  1  0.359435  0.881208  0.881208  1
  Al  Al11  1  0.881208  0.359435  0.881208  1
  Al  Al12  1  0.881208  0.881208  0.359435  1
  Al  Al13  1  0.879111  0.879111  0.879111  1
  Al  Al14  1  0.995258  0.332515  0.332515  1
  Al  Al15  1  0.332515  0.995258  0.332515  1
  Al  Al16  1  0.332515  0.332515  0.995258  1
  Al  Al17  1  0.337453  0.337453  0.337453  1
  Al  Al18  1  0.003976  0.664972  0.664972  1
  Al  Al19  1  0.664972  0.003976  0.664972  1
  Al  Al20  1  0.664972  0.664972  0.003976  1
  Al  Al21  1  0.665381  0.665381  0.665381  1
  Co  Co22  1  0.997645  0.997645  0.997645  1
  Co  Co23  1  0.505152  0.002269  0.002269  1
  Co  Co24  1  0.495540  0.003903  0.495540  1
  Co  Co25  1  0.495540  0.495540  0.003903  1
  Co  Co26  1  0.003903  0.495540  0.495540  1
  Co  Co27  1  0.002269  0.505152  0.002269  1
  Co  Co28  1  0.002269  0.002269  0.505152  1
