# generated using pymatgen
data_Tb7Nd5(SiPd)12
_symmetry_space_group_name_H-M   'P 1'
_cell_length_a   4.40597000
_cell_length_b   7.48802614
_cell_length_c   21.44899638
_cell_angle_alpha   90.02179763
_cell_angle_beta   90.00000000
_cell_angle_gamma   90.00000000
_symmetry_Int_Tables_number   1
_chemical_formula_structural   Tb7Nd5(SiPd)12
_chemical_formula_sum   'Tb7 Nd5 Si12 Pd12'
_cell_volume   707.64563469
_cell_formula_units_Z   1
loop_
 _symmetry_equiv_pos_site_id
 _symmetry_equiv_pos_as_xyz
  1  'x, y, z'
loop_
 _atom_site_type_symbol
 _atom_site_label
 _atom_site_symmetry_multiplicity
 _atom_site_fract_x
 _atom_site_fract_y
 _atom_site_fract_z
 _atom_site_occupancy
  Tb  Tb0  1  0.750000  0.207986  0.834219  1
  Tb  Tb1  1  0.750000  0.292250  0.335366  1
  Tb  Tb2  1  0.250000  0.707616  0.665372  1
  Tb  Tb3  1  0.250000  0.709899  0.000519  1
  Tb  Tb4  1  0.750000  0.290124  0.997929  1
  Tb  Tb5  1  0.750000  0.211298  0.499194  1
  Tb  Tb6  1  0.250000  0.789163  0.501307  1
  Nd  Nd7  1  0.250000  0.703594  0.333652  1
  Nd  Nd8  1  0.750000  0.295183  0.667056  1
  Nd  Nd9  1  0.750000  0.206103  0.166992  1
  Nd  Nd10  1  0.250000  0.795464  0.832786  1
  Nd  Nd11  1  0.250000  0.795574  0.165623  1
  Si  Si12  1  0.250000  0.089068  0.067596  1
  Si  Si13  1  0.750000  0.913253  0.929782  1
  Si  Si14  1  0.750000  0.587508  0.430521  1
  Si  Si15  1  0.250000  0.412718  0.570036  1
  Si  Si16  1  0.250000  0.087515  0.274662  1
  Si  Si17  1  0.750000  0.912572  0.727035  1
  Si  Si18  1  0.750000  0.583742  0.228743  1
  Si  Si19  1  0.250000  0.412980  0.772802  1
  Si  Si20  1  0.250000  0.088509  0.396739  1
  Si  Si21  1  0.750000  0.911426  0.603926  1
  Si  Si22  1  0.750000  0.585807  0.102946  1
  Si  Si23  1  0.250000  0.411548  0.895556  1
  Pd  Pd24  1  0.250000  0.415389  0.238438  1
  Pd  Pd25  1  0.750000  0.581699  0.762234  1
  Pd  Pd26  1  0.750000  0.919927  0.264671  1
  Pd  Pd27  1  0.250000  0.081623  0.737372  1
  Pd  Pd28  1  0.250000  0.414591  0.439082  1
  Pd  Pd29  1  0.750000  0.585652  0.561442  1
  Pd  Pd30  1  0.750000  0.915791  0.059027  1
  Pd  Pd31  1  0.250000  0.085930  0.938146  1
  Pd  Pd32  1  0.250000  0.420655  0.090785  1
  Pd  Pd33  1  0.750000  0.577958  0.907842  1
  Pd  Pd34  1  0.750000  0.922629  0.408816  1
  Pd  Pd35  1  0.250000  0.077255  0.591785  1
