# generated using pymatgen
data_V11Si3TcGe
_symmetry_space_group_name_H-M   'P 1'
_cell_length_a   4.74188200
_cell_length_b   4.71602600
_cell_length_c   9.42467500
_cell_angle_alpha   90.00000000
_cell_angle_beta   90.00000000
_cell_angle_gamma   90.00000000
_symmetry_Int_Tables_number   1
_chemical_formula_structural   V11Si3TcGe
_chemical_formula_sum   'V11 Si3 Tc1 Ge1'
_cell_volume   210.76248778
_cell_formula_units_Z   1
loop_
 _symmetry_equiv_pos_site_id
 _symmetry_equiv_pos_as_xyz
  1  'x, y, z'
loop_
 _atom_site_type_symbol
 _atom_site_label
 _atom_site_symmetry_multiplicity
 _atom_site_fract_x
 _atom_site_fract_y
 _atom_site_fract_z
 _atom_site_occupancy
  V  V0  1  0.999477  0.500000  0.130117  1
  V  V1  1  0.000208  0.500000  0.625081  1
  V  V2  1  0.499788  0.247566  0.746618  1
  V  V3  1  0.499788  0.247566  0.253382  1
  V  V4  1  0.755598  0.000000  0.000000  1
  V  V5  1  0.999477  0.500000  0.869883  1
  V  V6  1  0.000208  0.500000  0.374919  1
  V  V7  1  0.499788  0.752434  0.746618  1
  V  V8  1  0.499788  0.752434  0.253382  1
  V  V9  1  0.245480  0.000000  0.000000  1
  V  V10  1  0.248716  0.000000  0.500000  1
  Si  Si11  1  0.496682  0.500000  0.500000  1
  Si  Si12  1  0.002672  0.000000  0.751499  1
  Si  Si13  1  0.002672  0.000000  0.248501  1
  Tc  Tc14  1  0.750853  0.000000  0.500000  1
  Ge  Ge15  1  0.498805  0.500000  0.000000  1
