# generated using pymatgen
data_TaBe8AlFe2
_symmetry_space_group_name_H-M   'P 1'
_cell_length_a   4.28189000
_cell_length_b   4.28188992
_cell_length_c   7.06426700
_cell_angle_alpha   90.00000000
_cell_angle_beta   90.00000000
_cell_angle_gamma   119.99998517
_symmetry_Int_Tables_number   1
_chemical_formula_structural   TaBe8AlFe2
_chemical_formula_sum   'Ta1 Be8 Al1 Fe2'
_cell_volume   112.16795609
_cell_formula_units_Z   1
loop_
 _symmetry_equiv_pos_site_id
 _symmetry_equiv_pos_as_xyz
  1  'x, y, z'
loop_
 _atom_site_type_symbol
 _atom_site_label
 _atom_site_symmetry_multiplicity
 _atom_site_fract_x
 _atom_site_fract_y
 _atom_site_fract_z
 _atom_site_occupancy
  Ta  Ta0  1  0.666667  0.333333  0.562763  1
  Be  Be1  1  0.000000  0.000000  0.001458  1
  Be  Be2  1  0.000000  0.000000  0.492495  1
  Be  Be3  1  0.830774  0.661550  0.244103  1
  Be  Be4  1  0.167100  0.832900  0.758420  1
  Be  Be5  1  0.665800  0.832900  0.758420  1
  Be  Be6  1  0.338450  0.169226  0.244103  1
  Be  Be7  1  0.830774  0.169226  0.244103  1
  Be  Be8  1  0.167100  0.334200  0.758420  1
  Al  Al9  1  0.333333  0.666667  0.061847  1
  Fe  Fe10  1  0.666667  0.333333  0.932448  1
  Fe  Fe11  1  0.333333  0.666667  0.441420  1
