# generated using pymatgen
data_Yb3C3Br2
_symmetry_space_group_name_H-M   'P 1'
_cell_length_a   7.17893499
_cell_length_b   7.17893471
_cell_length_c   11.69022700
_cell_angle_alpha   90.00000000
_cell_angle_beta   90.00000000
_cell_angle_gamma   148.65075051
_symmetry_Int_Tables_number   1
_chemical_formula_structural   Yb3C3Br2
_chemical_formula_sum   'Yb6 C6 Br4'
_cell_volume   313.44249965
_cell_formula_units_Z   2
loop_
 _symmetry_equiv_pos_site_id
 _symmetry_equiv_pos_as_xyz
  1  'x, y, z'
loop_
 _atom_site_type_symbol
 _atom_site_label
 _atom_site_symmetry_multiplicity
 _atom_site_fract_x
 _atom_site_fract_y
 _atom_site_fract_z
 _atom_site_occupancy
  Yb  Yb0  1  0.661650  0.338350  0.559809  1
  Yb  Yb1  1  0.338350  0.661650  0.440191  1
  Yb  Yb2  1  0.338350  0.661650  0.059809  1
  Yb  Yb3  1  0.661650  0.338350  0.940191  1
  Yb  Yb4  1  0.126473  0.873527  0.250000  1
  Yb  Yb5  1  0.873527  0.126473  0.750000  1
  C  C6  1  0.267056  0.732944  0.636216  1
  C  C7  1  0.732944  0.267056  0.363784  1
  C  C8  1  0.732944  0.267056  0.136216  1
  C  C9  1  0.267056  0.732944  0.863784  1
  C  C10  1  0.742638  0.257362  0.250000  1
  C  C11  1  0.257362  0.742638  0.750000  1
  Br  Br12  1  0.529665  0.470335  0.750000  1
  Br  Br13  1  0.470335  0.529665  0.250000  1
  Br  Br14  1  0.000000  0.000000  0.000000  1
  Br  Br15  1  0.000000  0.000000  0.500000  1
