# generated using pymatgen
data_Li4Ce(P3Pd2)2
_symmetry_space_group_name_H-M   'P 1'
_cell_length_a   8.14413334
_cell_length_b   8.14413332
_cell_length_c   8.14413394
_cell_angle_alpha   151.51348377
_cell_angle_beta   112.01783830
_cell_angle_gamma   75.29605149
_symmetry_Int_Tables_number   1
_chemical_formula_structural   Li4Ce(P3Pd2)2
_chemical_formula_sum   'Li4 Ce1 P6 Pd4'
_cell_volume   235.32270535
_cell_formula_units_Z   1
loop_
 _symmetry_equiv_pos_site_id
 _symmetry_equiv_pos_as_xyz
  1  'x, y, z'
loop_
 _atom_site_type_symbol
 _atom_site_label
 _atom_site_symmetry_multiplicity
 _atom_site_fract_x
 _atom_site_fract_y
 _atom_site_fract_z
 _atom_site_occupancy
  Li  Li0  1  0.720173  0.720173  0.000000  1
  Li  Li1  1  0.675985  0.500000  0.175985  1
  Li  Li2  1  0.324015  0.500000  0.824015  1
  Li  Li3  1  0.279827  0.279827  0.000000  1
  Ce  Ce4  1  0.000000  0.000000  0.000000  1
  P  P5  1  0.974613  0.352107  0.622505  1
  P  P6  1  0.729601  0.352107  0.377495  1
  P  P7  1  0.582473  0.082473  0.500000  1
  P  P8  1  0.417527  0.917527  0.500000  1
  P  P9  1  0.270399  0.647893  0.622505  1
  P  P10  1  0.025387  0.647893  0.377495  1
  Pd  Pd11  1  0.898117  0.169435  0.728682  1
  Pd  Pd12  1  0.559247  0.830565  0.728682  1
  Pd  Pd13  1  0.440753  0.169435  0.271318  1
  Pd  Pd14  1  0.101883  0.830565  0.271318  1
