# generated using pymatgen
data_RbTmSiS4
_symmetry_space_group_name_H-M   'P 1'
_cell_length_a   6.65434300
_cell_length_b   6.37644320
_cell_length_c   9.00149099
_cell_angle_alpha   72.26873217
_cell_angle_beta   90.00000000
_cell_angle_gamma   90.00000000
_symmetry_Int_Tables_number   1
_chemical_formula_structural   RbTmSiS4
_chemical_formula_sum   'Rb2 Tm2 Si2 S8'
_cell_volume   363.79860177
_cell_formula_units_Z   2
loop_
 _symmetry_equiv_pos_site_id
 _symmetry_equiv_pos_as_xyz
  1  'x, y, z'
loop_
 _atom_site_type_symbol
 _atom_site_label
 _atom_site_symmetry_multiplicity
 _atom_site_fract_x
 _atom_site_fract_y
 _atom_site_fract_z
 _atom_site_occupancy
  Rb  Rb0  1  0.977155  0.730331  0.065430  1
  Rb  Rb1  1  0.477155  0.269669  0.934570  1
  Tm  Tm2  1  0.501125  0.229204  0.453266  1
  Tm  Tm3  1  0.001125  0.770796  0.546734  1
  Si  Si4  1  0.462444  0.779356  0.334025  1
  Si  Si5  1  0.962444  0.220644  0.665975  1
  S  S6  1  0.467803  0.580678  0.184214  1
  S  S7  1  0.231249  0.023819  0.289841  1
  S  S8  1  0.727517  0.978154  0.311020  1
  S  S9  1  0.899708  0.427095  0.435581  1
  S  S10  1  0.399708  0.572905  0.564419  1
  S  S11  1  0.227517  0.021846  0.688980  1
  S  S12  1  0.731249  0.976181  0.710159  1
  S  S13  1  0.967803  0.419322  0.815786  1
