# generated using pymatgen
data_Y8Ti11Si16Mo
_symmetry_space_group_name_H-M   'P 1'
_cell_length_a   7.04936472
_cell_length_b   7.04936398
_cell_length_c   12.96002100
_cell_angle_alpha   90.02356152
_cell_angle_beta   89.97644279
_cell_angle_gamma   90.00830834
_symmetry_Int_Tables_number   1
_chemical_formula_structural   Y8Ti11Si16Mo
_chemical_formula_sum   'Y8 Ti11 Si16 Mo1'
_cell_volume   644.02917734
_cell_formula_units_Z   1
loop_
 _symmetry_equiv_pos_site_id
 _symmetry_equiv_pos_as_xyz
  1  'x, y, z'
loop_
 _atom_site_type_symbol
 _atom_site_label
 _atom_site_symmetry_multiplicity
 _atom_site_fract_x
 _atom_site_fract_y
 _atom_site_fract_z
 _atom_site_occupancy
  Y  Y0  1  0.996925  0.659935  0.032991  1
  Y  Y1  1  0.001343  0.341417  0.532916  1
  Y  Y2  1  0.659935  0.996925  0.967009  1
  Y  Y3  1  0.160046  0.502779  0.782630  1
  Y  Y4  1  0.840058  0.498875  0.284402  1
  Y  Y5  1  0.502779  0.160046  0.217370  1
  Y  Y6  1  0.498875  0.840058  0.715598  1
  Y  Y7  1  0.341417  0.001343  0.467084  1
  Ti  Ti8  1  0.348181  0.508400  0.375092  1
  Ti  Ti9  1  0.846348  0.990649  0.376876  1
  Ti  Ti10  1  0.007986  0.152064  0.123905  1
  Ti  Ti11  1  0.990649  0.846348  0.623124  1
  Ti  Ti12  1  0.508400  0.348181  0.624908  1
  Ti  Ti13  1  0.152064  0.007986  0.876095  1
  Ti  Ti14  1  0.826169  0.172591  0.749627  1
  Ti  Ti15  1  0.172591  0.826169  0.250373  1
  Ti  Ti16  1  0.327081  0.327081  0.000000  1
  Ti  Ti17  1  0.492262  0.651930  0.126663  1
  Ti  Ti18  1  0.651930  0.492262  0.873337  1
  Si  Si19  1  0.046609  0.709450  0.435107  1
  Si  Si20  1  0.952671  0.291164  0.934925  1
  Si  Si21  1  0.709450  0.046609  0.564893  1
  Si  Si22  1  0.208456  0.453696  0.185070  1
  Si  Si23  1  0.791415  0.547330  0.684617  1
  Si  Si24  1  0.453696  0.208456  0.814930  1
  Si  Si25  1  0.547330  0.791415  0.315383  1
  Si  Si26  1  0.291164  0.952671  0.065075  1
  Si  Si27  1  0.797972  0.870068  0.184885  1
  Si  Si28  1  0.298697  0.629374  0.565318  1
  Si  Si29  1  0.702469  0.370195  0.065346  1
  Si  Si30  1  0.629374  0.298697  0.434682  1
  Si  Si31  1  0.370195  0.702469  0.934654  1
  Si  Si32  1  0.129695  0.202110  0.315288  1
  Si  Si33  1  0.202110  0.129695  0.684712  1
  Si  Si34  1  0.870068  0.797972  0.815115  1
  Mo  Mo35  1  0.673588  0.673588  0.500000  1
