# generated using pymatgen
data_La2Zn3Ag4
_symmetry_space_group_name_H-M   'P 1'
_cell_length_a   5.50658513
_cell_length_b   5.50658434
_cell_length_c   14.35875900
_cell_angle_alpha   90.00000000
_cell_angle_beta   90.00000000
_cell_angle_gamma   119.93769799
_symmetry_Int_Tables_number   1
_chemical_formula_structural   La2Zn3Ag4
_chemical_formula_sum   'La4 Zn6 Ag8'
_cell_volume   377.29799483
_cell_formula_units_Z   2
loop_
 _symmetry_equiv_pos_site_id
 _symmetry_equiv_pos_as_xyz
  1  'x, y, z'
loop_
 _atom_site_type_symbol
 _atom_site_label
 _atom_site_symmetry_multiplicity
 _atom_site_fract_x
 _atom_site_fract_y
 _atom_site_fract_z
 _atom_site_occupancy
  La  La0  1  0.815536  0.815536  0.119338  1
  La  La1  1  0.184464  0.184464  0.880662  1
  La  La2  1  0.815536  0.815536  0.380662  1
  La  La3  1  0.184464  0.184464  0.619338  1
  Zn  Zn4  1  0.177620  0.681635  0.750000  1
  Zn  Zn5  1  0.681635  0.177620  0.750000  1
  Zn  Zn6  1  0.683914  0.683914  0.750000  1
  Zn  Zn7  1  0.318365  0.822380  0.250000  1
  Zn  Zn8  1  0.822380  0.318365  0.250000  1
  Zn  Zn9  1  0.316086  0.316086  0.250000  1
  Ag  Ag10  1  0.155910  0.485191  0.078228  1
  Ag  Ag11  1  0.514809  0.844090  0.921772  1
  Ag  Ag12  1  0.485191  0.155910  0.078228  1
  Ag  Ag13  1  0.844090  0.514809  0.578228  1
  Ag  Ag14  1  0.485191  0.155910  0.421772  1
  Ag  Ag15  1  0.844090  0.514809  0.921772  1
  Ag  Ag16  1  0.514809  0.844090  0.578228  1
  Ag  Ag17  1  0.155910  0.485191  0.421772  1
