# generated using pymatgen
data_Ca3(H6Pt)2
_symmetry_space_group_name_H-M   'P 1'
_cell_length_a   4.92039200
_cell_length_b   4.92039246
_cell_length_c   8.37659200
_cell_angle_alpha   90.00000000
_cell_angle_beta   90.00000000
_cell_angle_gamma   119.99999691
_symmetry_Int_Tables_number   1
_chemical_formula_structural   Ca3(H6Pt)2
_chemical_formula_sum   'Ca3 H12 Pt2'
_cell_volume   175.62949638
_cell_formula_units_Z   1
loop_
 _symmetry_equiv_pos_site_id
 _symmetry_equiv_pos_as_xyz
  1  'x, y, z'
loop_
 _atom_site_type_symbol
 _atom_site_label
 _atom_site_symmetry_multiplicity
 _atom_site_fract_x
 _atom_site_fract_y
 _atom_site_fract_z
 _atom_site_occupancy
  Ca  Ca0  1  0.000000  0.000000  0.000000  1
  Ca  Ca1  1  0.666667  0.333333  0.368651  1
  Ca  Ca2  1  0.333333  0.666667  0.631349  1
  H  H3  1  0.170034  0.829966  0.367915  1
  H  H4  1  0.659932  0.829966  0.367915  1
  H  H5  1  0.170034  0.340068  0.367915  1
  H  H6  1  0.829966  0.170034  0.632085  1
  H  H7  1  0.340068  0.170034  0.632085  1
  H  H8  1  0.829966  0.659932  0.632085  1
  H  H9  1  0.504925  0.009850  0.869226  1
  H  H10  1  0.504925  0.495075  0.869226  1
  H  H11  1  0.990150  0.495075  0.869226  1
  H  H12  1  0.495075  0.990150  0.130774  1
  H  H13  1  0.495075  0.504925  0.130774  1
  H  H14  1  0.009850  0.504925  0.130774  1
  Pt  Pt15  1  0.666667  0.333333  0.751231  1
  Pt  Pt16  1  0.333333  0.666667  0.248769  1
