# generated using pymatgen
data_Er9TmInSb5
_symmetry_space_group_name_H-M   'P 1'
_cell_length_a   8.89088402
_cell_length_b   8.88347720
_cell_length_c   6.32152705
_cell_angle_alpha   90.01471897
_cell_angle_beta   89.99553711
_cell_angle_gamma   120.02251325
_symmetry_Int_Tables_number   1
_chemical_formula_structural   Er9TmInSb5
_chemical_formula_sum   'Er9 Tm1 In1 Sb5'
_cell_volume   432.29676555
_cell_formula_units_Z   1
loop_
 _symmetry_equiv_pos_site_id
 _symmetry_equiv_pos_as_xyz
  1  'x, y, z'
loop_
 _atom_site_type_symbol
 _atom_site_label
 _atom_site_symmetry_multiplicity
 _atom_site_fract_x
 _atom_site_fract_y
 _atom_site_fract_z
 _atom_site_occupancy
  Er  Er0  1  0.003887  0.759241  0.750013  1
  Er  Er1  1  0.998241  0.243492  0.250014  1
  Er  Er2  1  0.754761  0.756429  0.249978  1
  Er  Er3  1  0.757194  0.000026  0.750001  1
  Er  Er4  1  0.244668  0.240782  0.749941  1
  Er  Er5  1  0.242159  0.000064  0.250086  1
  Er  Er6  1  0.664899  0.330948  0.000675  1
  Er  Er7  1  0.664931  0.331015  0.499224  1
  Er  Er8  1  0.333876  0.669030  0.000670  1
  Tm  Tm9  1  0.333849  0.669076  0.499484  1
  In  In10  1  0.394298  0.999662  0.749749  1
  Sb  Sb11  1  0.388918  0.390820  0.250195  1
  Sb  Sb12  1  0.998610  0.609449  0.250187  1
  Sb  Sb13  1  0.001073  0.390523  0.749769  1
  Sb  Sb14  1  0.610269  0.609687  0.749801  1
  Sb  Sb15  1  0.608365  0.999755  0.250214  1
