# generated using pymatgen
data_YbY3Ho4(B6Ru)4
_symmetry_space_group_name_H-M   'P 1'
_cell_length_a   3.65614400
_cell_length_b   9.13533880
_cell_length_c   11.52408500
_cell_angle_alpha   89.91319884
_cell_angle_beta   90.00000000
_cell_angle_gamma   90.00000000
_symmetry_Int_Tables_number   1
_chemical_formula_structural   YbY3Ho4(B6Ru)4
_chemical_formula_sum   'Yb1 Y3 Ho4 B24 Ru4'
_cell_volume   384.90531289
_cell_formula_units_Z   1
loop_
 _symmetry_equiv_pos_site_id
 _symmetry_equiv_pos_as_xyz
  1  'x, y, z'
loop_
 _atom_site_type_symbol
 _atom_site_label
 _atom_site_symmetry_multiplicity
 _atom_site_fract_x
 _atom_site_fract_y
 _atom_site_fract_z
 _atom_site_occupancy
  Yb  Yb0  1  0.000000  0.323704  0.413693  1
  Y  Y1  1  0.000000  0.675908  0.584948  1
  Y  Y2  1  0.000000  0.822501  0.086392  1
  Y  Y3  1  0.000000  0.177930  0.914518  1
  Ho  Ho4  1  0.000000  0.944057  0.371282  1
  Ho  Ho5  1  0.000000  0.058149  0.627839  1
  Ho  Ho6  1  0.000000  0.442823  0.129818  1
  Ho  Ho7  1  0.000000  0.556195  0.871954  1
  B  B8  1  0.500000  0.553765  0.432333  1
  B  B9  1  0.500000  0.445504  0.567297  1
  B  B10  1  0.500000  0.053560  0.066993  1
  B  B11  1  0.500000  0.945752  0.932299  1
  B  B12  1  0.500000  0.748257  0.419025  1
  B  B13  1  0.500000  0.252190  0.580754  1
  B  B14  1  0.500000  0.247671  0.080900  1
  B  B15  1  0.500000  0.751671  0.919335  1
  B  B16  1  0.500000  0.791234  0.266376  1
  B  B17  1  0.500000  0.209831  0.733777  1
  B  B18  1  0.500000  0.289984  0.233722  1
  B  B19  1  0.500000  0.709280  0.766425  1
  B  B20  1  0.500000  0.631728  0.186091  1
  B  B21  1  0.500000  0.368597  0.814918  1
  B  B22  1  0.500000  0.131407  0.314155  1
  B  B23  1  0.500000  0.868708  0.685223  1
  B  B24  1  0.500000  0.983693  0.212141  1
  B  B25  1  0.500000  0.016392  0.787075  1
  B  B26  1  0.500000  0.483803  0.287792  1
  B  B27  1  0.500000  0.516096  0.712744  1
  B  B28  1  0.500000  0.607643  0.029996  1
  B  B29  1  0.500000  0.392451  0.970686  1
  B  B30  1  0.500000  0.104698  0.470989  1
  B  B31  1  0.500000  0.894591  0.529081  1
  Ru  Ru32  1  0.000000  0.639250  0.320425  1
  Ru  Ru33  1  0.000000  0.361932  0.680116  1
  Ru  Ru34  1  0.000000  0.137067  0.178012  1
  Ru  Ru35  1  0.000000  0.861982  0.820876  1
