# generated using pymatgen
data_Nd2P7Ir5Ru7
_symmetry_space_group_name_H-M   'P 1'
_cell_length_a   9.57831178
_cell_length_b   9.55775980
_cell_length_c   3.92788000
_cell_angle_alpha   90.00000000
_cell_angle_beta   90.00000000
_cell_angle_gamma   119.74932586
_symmetry_Int_Tables_number   1
_chemical_formula_structural   Nd2P7Ir5Ru7
_chemical_formula_sum   'Nd2 P7 Ir5 Ru7'
_cell_volume   312.19461056
_cell_formula_units_Z   1
loop_
 _symmetry_equiv_pos_site_id
 _symmetry_equiv_pos_as_xyz
  1  'x, y, z'
loop_
 _atom_site_type_symbol
 _atom_site_label
 _atom_site_symmetry_multiplicity
 _atom_site_fract_x
 _atom_site_fract_y
 _atom_site_fract_z
 _atom_site_occupancy
  Nd  Nd0  1  0.001017  0.999203  0.000000  1
  Nd  Nd1  1  0.332913  0.668821  0.500000  1
  P  P2  1  0.781825  0.733249  0.500000  1
  P  P3  1  0.267247  0.042331  0.500000  1
  P  P4  1  0.952398  0.216401  0.500000  1
  P  P5  1  0.667513  0.331788  0.000000  1
  P  P6  1  0.073726  0.627288  0.000000  1
  P  P7  1  0.377039  0.449814  0.000000  1
  P  P8  1  0.547350  0.929958  0.000000  1
  Ir  Ir9  1  0.110065  0.400762  0.000000  1
  Ir  Ir10  1  0.598920  0.711035  0.000000  1
  Ir  Ir11  1  0.050053  0.773851  0.500000  1
  Ir  Ir12  1  0.221448  0.271216  0.500000  1
  Ir  Ir13  1  0.727297  0.947649  0.500000  1
  Ru  Ru14  1  0.289862  0.895302  0.000000  1
  Ru  Ru15  1  0.817819  0.599714  0.000000  1
  Ru  Ru16  1  0.400524  0.221588  0.000000  1
  Ru  Ru17  1  0.782574  0.178274  0.000000  1
  Ru  Ru18  1  0.910780  0.434533  0.500000  1
  Ru  Ru19  1  0.559954  0.475547  0.500000  1
  Ru  Ru20  1  0.529679  0.091671  0.500000  1
