# generated using pymatgen
data_Tb2Fe3Re11(WC)3
_symmetry_space_group_name_H-M   'P 1'
_cell_length_a   6.94799128
_cell_length_b   6.94799048
_cell_length_c   6.97948056
_cell_angle_alpha   82.47153699
_cell_angle_beta   82.47154221
_cell_angle_gamma   82.37030522
_symmetry_Int_Tables_number   1
_chemical_formula_structural   Tb2Fe3Re11(WC)3
_chemical_formula_sum   'Tb2 Fe3 Re11 W3 C3'
_cell_volume   328.84901192
_cell_formula_units_Z   1
loop_
 _symmetry_equiv_pos_site_id
 _symmetry_equiv_pos_as_xyz
  1  'x, y, z'
loop_
 _atom_site_type_symbol
 _atom_site_label
 _atom_site_symmetry_multiplicity
 _atom_site_fract_x
 _atom_site_fract_y
 _atom_site_fract_z
 _atom_site_occupancy
  Tb  Tb0  1  0.648484  0.648484  0.648134  1
  Tb  Tb1  1  0.350880  0.350880  0.351548  1
  Fe  Fe2  1  0.000456  0.000456  0.498163  1
  Fe  Fe3  1  0.498677  0.999856  0.000509  1
  Fe  Fe4  1  0.999856  0.498677  0.000509  1
  Re  Re5  1  0.719829  0.280234  0.000688  1
  Re  Re6  1  0.001294  0.721181  0.280129  1
  Re  Re7  1  0.278865  0.999613  0.719564  1
  Re  Re8  1  0.999613  0.278865  0.719564  1
  Re  Re9  1  0.721181  0.001294  0.280129  1
  Re  Re10  1  0.280234  0.719829  0.000688  1
  Re  Re11  1  0.862868  0.344688  0.345611  1
  Re  Re12  1  0.344688  0.862868  0.345611  1
  Re  Re13  1  0.139471  0.654334  0.653465  1
  Re  Re14  1  0.654334  0.139471  0.653465  1
  Re  Re15  1  0.102356  0.102356  0.103279  1
  W  W16  1  0.342107  0.342107  0.860602  1
  W  W17  1  0.656409  0.656409  0.142974  1
  W  W18  1  0.898742  0.898742  0.896009  1
  C  C19  1  0.499788  0.499788  0.999799  1
  C  C20  1  0.000071  0.499799  0.499779  1
  C  C21  1  0.499799  0.000071  0.499779  1
