# generated using pymatgen
data_In5Ni3(B2Ir3)2
_symmetry_space_group_name_H-M   'P 1'
_cell_length_a   5.53785348
_cell_length_b   5.61657400
_cell_length_c   10.36385062
_cell_angle_alpha   90.00766401
_cell_angle_beta   89.96301652
_cell_angle_gamma   121.88504683
_symmetry_Int_Tables_number   1
_chemical_formula_structural   In5Ni3(B2Ir3)2
_chemical_formula_sum   'In5 Ni3 B4 Ir6'
_cell_volume   273.71444899
_cell_formula_units_Z   1
loop_
 _symmetry_equiv_pos_site_id
 _symmetry_equiv_pos_as_xyz
  1  'x, y, z'
loop_
 _atom_site_type_symbol
 _atom_site_label
 _atom_site_symmetry_multiplicity
 _atom_site_fract_x
 _atom_site_fract_y
 _atom_site_fract_z
 _atom_site_occupancy
  In  In0  1  0.999031  0.000251  0.998768  1
  In  In1  1  0.661554  0.331675  0.500071  1
  In  In2  1  0.000915  0.999495  0.660059  1
  In  In3  1  0.000046  0.999791  0.340373  1
  In  In4  1  0.339304  0.668416  0.500096  1
  Ni  Ni5  1  0.000020  0.501496  0.269501  1
  Ni  Ni6  1  0.501180  0.999822  0.732497  1
  Ni  Ni7  1  0.999169  0.500235  0.000247  1
  B  B8  1  0.673062  0.340547  0.145462  1
  B  B9  1  0.334234  0.666916  0.854751  1
  B  B10  1  0.665601  0.332352  0.854621  1
  B  B11  1  0.326587  0.659766  0.145446  1
  Ir  Ir12  1  0.501089  0.000581  0.274070  1
  Ir  Ir13  1  0.500585  0.499822  0.726153  1
  Ir  Ir14  1  0.000230  0.499444  0.725264  1
  Ir  Ir15  1  0.499300  0.499864  0.000612  1
  Ir  Ir16  1  0.498958  0.999937  0.997682  1
  Ir  Ir17  1  0.499134  0.499590  0.274327  1
