# generated using pymatgen
data_Hf6CoAs4PRu6
_symmetry_space_group_name_H-M   'P 1'
_cell_length_a   7.62905850
_cell_length_b   7.63901139
_cell_length_c   7.62905973
_cell_angle_alpha   128.27954865
_cell_angle_beta   120.89602991
_cell_angle_gamma   82.32148940
_symmetry_Int_Tables_number   1
_chemical_formula_structural   Hf6CoAs4PRu6
_chemical_formula_sum   'Hf6 Co1 As4 P1 Ru6'
_cell_volume   288.04087808
_cell_formula_units_Z   1
loop_
 _symmetry_equiv_pos_site_id
 _symmetry_equiv_pos_as_xyz
  1  'x, y, z'
loop_
 _atom_site_type_symbol
 _atom_site_label
 _atom_site_symmetry_multiplicity
 _atom_site_fract_x
 _atom_site_fract_y
 _atom_site_fract_z
 _atom_site_occupancy
  Hf  Hf0  1  0.435798  0.626739  0.690940  1
  Hf  Hf1  1  0.537134  0.251521  0.214388  1
  Hf  Hf2  1  0.749657  0.850026  0.600369  1
  Hf  Hf3  1  0.249933  0.869701  0.119767  1
  Hf  Hf4  1  0.065571  0.254497  0.688927  1
  Hf  Hf5  1  0.960626  0.672811  0.212184  1
  Co  Co6  1  0.251916  0.245788  0.493874  1
  As  As7  1  0.333618  0.585881  0.252086  1
  As  As8  1  0.667276  0.918436  0.252705  1
  As  As9  1  0.165732  0.918436  0.751161  1
  As  As10  1  0.833795  0.585881  0.752263  1
  P  P11  1  0.748277  0.264675  0.016396  1
  Ru  Ru12  1  0.513540  0.491267  0.004890  1
  Ru  Ru13  1  0.986377  0.491267  0.477726  1
  Ru  Ru14  1  0.094958  0.252885  0.107589  1
  Ru  Ru15  1  0.858949  0.013452  0.111904  1
  Ru  Ru16  1  0.401548  0.013452  0.654504  1
  Ru  Ru17  1  0.645296  0.252885  0.657926  1
