# generated using pymatgen
data_NdScFeB6
_symmetry_space_group_name_H-M   'P 1'
_cell_length_a   3.50750400
_cell_length_b   9.01811900
_cell_length_c   11.44584000
_cell_angle_alpha   90.00000000
_cell_angle_beta   90.00000000
_cell_angle_gamma   90.00000000
_symmetry_Int_Tables_number   1
_chemical_formula_structural   NdScFeB6
_chemical_formula_sum   'Nd4 Sc4 Fe4 B24'
_cell_volume   362.04437760
_cell_formula_units_Z   4
loop_
 _symmetry_equiv_pos_site_id
 _symmetry_equiv_pos_as_xyz
  1  'x, y, z'
loop_
 _atom_site_type_symbol
 _atom_site_label
 _atom_site_symmetry_multiplicity
 _atom_site_fract_x
 _atom_site_fract_y
 _atom_site_fract_z
 _atom_site_occupancy
  Nd  Nd0  1  0.000000  0.323427  0.414905  1
  Nd  Nd1  1  0.000000  0.676573  0.585095  1
  Nd  Nd2  1  0.000000  0.823427  0.085095  1
  Nd  Nd3  1  0.000000  0.176573  0.914905  1
  Sc  Sc4  1  0.000000  0.944846  0.371492  1
  Sc  Sc5  1  0.000000  0.055154  0.628508  1
  Sc  Sc6  1  0.000000  0.444846  0.128508  1
  Sc  Sc7  1  0.000000  0.555154  0.871492  1
  Fe  Fe8  1  0.000000  0.642388  0.316224  1
  Fe  Fe9  1  0.000000  0.357612  0.683776  1
  Fe  Fe10  1  0.000000  0.142388  0.183776  1
  Fe  Fe11  1  0.000000  0.857612  0.816224  1
  B  B12  1  0.500000  0.558970  0.426929  1
  B  B13  1  0.500000  0.441030  0.573071  1
  B  B14  1  0.500000  0.058970  0.073071  1
  B  B15  1  0.500000  0.941030  0.926929  1
  B  B16  1  0.500000  0.753075  0.414870  1
  B  B17  1  0.500000  0.246925  0.585130  1
  B  B18  1  0.500000  0.253075  0.085130  1
  B  B19  1  0.500000  0.746925  0.914870  1
  B  B20  1  0.500000  0.792081  0.266436  1
  B  B21  1  0.500000  0.207919  0.733564  1
  B  B22  1  0.500000  0.292081  0.233564  1
  B  B23  1  0.500000  0.707919  0.766436  1
  B  B24  1  0.500000  0.629105  0.183840  1
  B  B25  1  0.500000  0.370895  0.816160  1
  B  B26  1  0.500000  0.129105  0.316160  1
  B  B27  1  0.500000  0.870895  0.683840  1
  B  B28  1  0.500000  0.986572  0.215698  1
  B  B29  1  0.500000  0.013428  0.784302  1
  B  B30  1  0.500000  0.486572  0.284302  1
  B  B31  1  0.500000  0.513428  0.715698  1
  B  B32  1  0.500000  0.597345  0.025736  1
  B  B33  1  0.500000  0.402655  0.974264  1
  B  B34  1  0.500000  0.097345  0.474264  1
  B  B35  1  0.500000  0.902655  0.525736  1
