# generated using pymatgen
data_Zr3AlAuO
_symmetry_space_group_name_H-M   'P 1'
_cell_length_a   7.40668900
_cell_length_b   7.40668900
_cell_length_c   7.40668900
_cell_angle_alpha   90.00000000
_cell_angle_beta   90.00000000
_cell_angle_gamma   90.00000000
_symmetry_Int_Tables_number   1
_chemical_formula_structural   Zr3AlAuO
_chemical_formula_sum   'Zr12 Al4 Au4 O4'
_cell_volume   406.32386251
_cell_formula_units_Z   4
loop_
 _symmetry_equiv_pos_site_id
 _symmetry_equiv_pos_as_xyz
  1  'x, y, z'
loop_
 _atom_site_type_symbol
 _atom_site_label
 _atom_site_symmetry_multiplicity
 _atom_site_fract_x
 _atom_site_fract_y
 _atom_site_fract_z
 _atom_site_occupancy
  Zr  Zr0  1  0.788213  0.954517  0.376374  1
  Zr  Zr1  1  0.711787  0.045483  0.876374  1
  Zr  Zr2  1  0.211787  0.454517  0.123626  1
  Zr  Zr3  1  0.288213  0.545483  0.623626  1
  Zr  Zr4  1  0.954517  0.376374  0.788213  1
  Zr  Zr5  1  0.045483  0.876374  0.711787  1
  Zr  Zr6  1  0.454517  0.123626  0.211787  1
  Zr  Zr7  1  0.545483  0.623626  0.288213  1
  Zr  Zr8  1  0.376374  0.788213  0.954517  1
  Zr  Zr9  1  0.876374  0.711787  0.045483  1
  Zr  Zr10  1  0.123626  0.211787  0.454517  1
  Zr  Zr11  1  0.623626  0.288213  0.545483  1
  Al  Al12  1  0.572647  0.427353  0.927353  1
  Al  Al13  1  0.427353  0.927353  0.572647  1
  Al  Al14  1  0.927353  0.572647  0.427353  1
  Al  Al15  1  0.072647  0.072647  0.072647  1
  Au  Au16  1  0.180614  0.819386  0.319386  1
  Au  Au17  1  0.319386  0.180614  0.819386  1
  Au  Au18  1  0.819386  0.319386  0.180614  1
  Au  Au19  1  0.680614  0.680614  0.680614  1
  O  O20  1  0.876136  0.123864  0.623864  1
  O  O21  1  0.623864  0.876136  0.123864  1
  O  O22  1  0.123864  0.623864  0.876136  1
  O  O23  1  0.376136  0.376136  0.376136  1
