# generated using pymatgen
data_LiTbCeAgAs4
_symmetry_space_group_name_H-M   'P 1'
_cell_length_a   3.99331013
_cell_length_b   3.99331011
_cell_length_c   20.69518596
_cell_angle_alpha   90.02494710
_cell_angle_beta   90.02494695
_cell_angle_gamma   89.99636720
_symmetry_Int_Tables_number   1
_chemical_formula_structural   LiTbCeAgAs4
_chemical_formula_sum   'Li2 Tb2 Ce2 Ag2 As8'
_cell_volume   330.01625204
_cell_formula_units_Z   2
loop_
 _symmetry_equiv_pos_site_id
 _symmetry_equiv_pos_as_xyz
  1  'x, y, z'
loop_
 _atom_site_type_symbol
 _atom_site_label
 _atom_site_symmetry_multiplicity
 _atom_site_fract_x
 _atom_site_fract_y
 _atom_site_fract_z
 _atom_site_occupancy
  Li  Li0  1  0.241370  0.741453  0.749114  1
  Li  Li1  1  0.258547  0.758630  0.250886  1
  Tb  Tb2  1  0.255098  0.255434  0.386845  1
  Tb  Tb3  1  0.744566  0.744902  0.613155  1
  Ce  Ce4  1  0.755228  0.754969  0.112051  1
  Ce  Ce5  1  0.245031  0.244772  0.887949  1
  Ag  Ag6  1  0.758381  0.258303  0.250424  1
  Ag  Ag7  1  0.741697  0.241619  0.749576  1
  As  As8  1  0.744068  0.743583  0.838844  1
  As  As9  1  0.256417  0.255932  0.161156  1
  As  As10  1  0.243371  0.243897  0.662236  1
  As  As11  1  0.756103  0.756629  0.337764  1
  As  As12  1  0.251800  0.748200  0.000000  1
  As  As13  1  0.247426  0.752574  0.500000  1
  As  As14  1  0.748263  0.251737  0.000000  1
  As  As15  1  0.752635  0.247365  0.500000  1
