# generated using pymatgen
data_Pr5Th(ScBi5)2
_symmetry_space_group_name_H-M   'P 1'
_cell_length_a   9.75675619
_cell_length_b   9.76503271
_cell_length_c   6.61019700
_cell_angle_alpha   90.00000000
_cell_angle_beta   90.00000000
_cell_angle_gamma   120.02806827
_symmetry_Int_Tables_number   1
_chemical_formula_structural   Pr5Th(ScBi5)2
_chemical_formula_sum   'Pr5 Th1 Sc2 Bi10'
_cell_volume   545.25704642
_cell_formula_units_Z   1
loop_
 _symmetry_equiv_pos_site_id
 _symmetry_equiv_pos_as_xyz
  1  'x, y, z'
loop_
 _atom_site_type_symbol
 _atom_site_label
 _atom_site_symmetry_multiplicity
 _atom_site_fract_x
 _atom_site_fract_y
 _atom_site_fract_z
 _atom_site_occupancy
  Pr  Pr0  1  0.000000  0.620928  0.250000  1
  Pr  Pr1  1  0.380955  0.381004  0.250000  1
  Pr  Pr2  1  0.378997  0.999078  0.750000  1
  Pr  Pr3  1  0.621003  0.620081  0.750000  1
  Pr  Pr4  1  0.619045  0.000048  0.250000  1
  Th  Th5  1  0.000000  0.381377  0.750000  1
  Sc  Sc6  1  0.000000  0.999323  0.001122  1
  Sc  Sc7  1  0.000000  0.999323  0.498878  1
  Bi  Bi8  1  0.000000  0.264763  0.250000  1
  Bi  Bi9  1  0.332721  0.665579  0.500715  1
  Bi  Bi10  1  0.667279  0.332857  0.999285  1
  Bi  Bi11  1  0.332721  0.665579  0.999285  1
  Bi  Bi12  1  0.261363  0.262232  0.750000  1
  Bi  Bi13  1  0.738637  0.000870  0.750000  1
  Bi  Bi14  1  0.000000  0.735944  0.750000  1
  Bi  Bi15  1  0.737394  0.737775  0.250000  1
  Bi  Bi16  1  0.262606  0.000380  0.250000  1
  Bi  Bi17  1  0.667279  0.332857  0.500715  1
