# generated using pymatgen
data_Ba4LaNd6DySe16
_symmetry_space_group_name_H-M   'P 1'
_cell_length_a   4.33798000
_cell_length_b   13.02105970
_cell_length_c   15.58324272
_cell_angle_alpha   89.48207497
_cell_angle_beta   90.00000000
_cell_angle_gamma   90.00000000
_symmetry_Int_Tables_number   1
_chemical_formula_structural   Ba4LaNd6DySe16
_chemical_formula_sum   'Ba4 La1 Nd6 Dy1 Se16'
_cell_volume   880.18500753
_cell_formula_units_Z   1
loop_
 _symmetry_equiv_pos_site_id
 _symmetry_equiv_pos_as_xyz
  1  'x, y, z'
loop_
 _atom_site_type_symbol
 _atom_site_label
 _atom_site_symmetry_multiplicity
 _atom_site_fract_x
 _atom_site_fract_y
 _atom_site_fract_z
 _atom_site_occupancy
  Ba  Ba0  1  0.250000  0.758304  0.339400  1
  Ba  Ba1  1  0.250000  0.255555  0.161630  1
  Ba  Ba2  1  0.750000  0.240984  0.659704  1
  Ba  Ba3  1  0.750000  0.743873  0.837735  1
  La  La4  1  0.250000  0.424485  0.393203  1
  Nd  Nd5  1  0.250000  0.931187  0.110727  1
  Nd  Nd6  1  0.750000  0.571337  0.610698  1
  Nd  Nd7  1  0.750000  0.070111  0.891538  1
  Nd  Nd8  1  0.250000  0.419979  0.899145  1
  Nd  Nd9  1  0.250000  0.924263  0.599247  1
  Nd  Nd10  1  0.750000  0.579452  0.100877  1
  Dy  Dy11  1  0.750000  0.077439  0.396751  1
  Se  Se12  1  0.250000  0.207874  0.825035  1
  Se  Se13  1  0.250000  0.710509  0.672975  1
  Se  Se14  1  0.750000  0.791951  0.174631  1
  Se  Se15  1  0.750000  0.284110  0.325228  1
  Se  Se16  1  0.250000  0.131852  0.516733  1
  Se  Se17  1  0.250000  0.629993  0.973693  1
  Se  Se18  1  0.750000  0.874314  0.472971  1
  Se  Se19  1  0.750000  0.370112  0.025738  1
  Se  Se20  1  0.250000  0.521264  0.217046  1
  Se  Se21  1  0.250000  0.023251  0.286342  1
  Se  Se22  1  0.750000  0.478097  0.784248  1
  Se  Se23  1  0.750000  0.978729  0.716097  1
  Se  Se24  1  0.250000  0.417380  0.584107  1
  Se  Se25  1  0.250000  0.917038  0.922409  1
  Se  Se26  1  0.750000  0.582802  0.422750  1
  Se  Se27  1  0.750000  0.083755  0.079341  1
