# generated using pymatgen
data_La7Re3OsC9
_symmetry_space_group_name_H-M   'P 1'
_cell_length_a   6.62391822
_cell_length_b   6.62391820
_cell_length_c   12.13910809
_cell_angle_alpha   71.14785490
_cell_angle_beta   71.14785582
_cell_angle_gamma   48.24042035
_symmetry_Int_Tables_number   1
_chemical_formula_structural   La7Re3OsC9
_chemical_formula_sum   'La7 Re3 Os1 C9'
_cell_volume   371.57201356
_cell_formula_units_Z   1
loop_
 _symmetry_equiv_pos_site_id
 _symmetry_equiv_pos_as_xyz
  1  'x, y, z'
loop_
 _atom_site_type_symbol
 _atom_site_label
 _atom_site_symmetry_multiplicity
 _atom_site_fract_x
 _atom_site_fract_y
 _atom_site_fract_z
 _atom_site_occupancy
  La  La0  1  0.375513  0.375513  0.841898  1
  La  La1  1  0.145121  0.145121  0.683912  1
  La  La2  1  0.855444  0.855444  0.316183  1
  La  La3  1  0.138481  0.138481  0.381063  1
  La  La4  1  0.860583  0.860583  0.619580  1
  La  La5  1  0.001201  0.001201  0.000032  1
  La  La6  1  0.627780  0.627780  0.157136  1
  Re  Re7  1  0.358111  0.358111  0.139262  1
  Re  Re8  1  0.567435  0.567435  0.571259  1
  Re  Re9  1  0.433606  0.433606  0.430138  1
  Os  Os10  1  0.642679  0.642679  0.859662  1
  C  C11  1  0.384183  0.384183  0.290051  1
  C  C12  1  0.920619  0.920619  0.820877  1
  C  C13  1  0.392689  0.392689  0.611211  1
  C  C14  1  0.194839  0.194839  0.142129  1
  C  C15  1  0.803635  0.803635  0.856203  1
  C  C16  1  0.499349  0.499349  0.999368  1
  C  C17  1  0.077287  0.077287  0.180660  1
  C  C18  1  0.614742  0.614742  0.710699  1
  C  C19  1  0.606703  0.606703  0.388678  1
