# generated using pymatgen
data_DyThSiI2
_symmetry_space_group_name_H-M   'P 1'
_cell_length_a   11.89422654
_cell_length_b   11.89422664
_cell_length_c   11.89422723
_cell_angle_alpha   20.64969652
_cell_angle_beta   20.64969630
_cell_angle_gamma   20.64969697
_symmetry_Int_Tables_number   1
_chemical_formula_structural   DyThSiI2
_chemical_formula_sum   'Dy1 Th1 Si1 I2'
_cell_volume   183.19335186
_cell_formula_units_Z   1
loop_
 _symmetry_equiv_pos_site_id
 _symmetry_equiv_pos_as_xyz
  1  'x, y, z'
loop_
 _atom_site_type_symbol
 _atom_site_label
 _atom_site_symmetry_multiplicity
 _atom_site_fract_x
 _atom_site_fract_y
 _atom_site_fract_z
 _atom_site_occupancy
  Dy  Dy0  1  0.621492  0.621492  0.621492  1
  Th  Th1  1  0.376808  0.376808  0.376808  1
  Si  Si2  1  0.998408  0.998408  0.998408  1
  I  I3  1  0.230857  0.230857  0.230857  1
  I  I4  1  0.772435  0.772435  0.772435  1
