# generated using pymatgen
data_Tb8TmMg(SiB4)4
_symmetry_space_group_name_H-M   'P 1'
_cell_length_a   7.20372100
_cell_length_b   7.20372100
_cell_length_c   8.03283700
_cell_angle_alpha   90.00000000
_cell_angle_beta   90.00000000
_cell_angle_gamma   90.00000000
_symmetry_Int_Tables_number   1
_chemical_formula_structural   Tb8TmMg(SiB4)4
_chemical_formula_sum   'Tb8 Tm1 Mg1 Si4 B16'
_cell_volume   416.85279999
_cell_formula_units_Z   1
loop_
 _symmetry_equiv_pos_site_id
 _symmetry_equiv_pos_as_xyz
  1  'x, y, z'
loop_
 _atom_site_type_symbol
 _atom_site_label
 _atom_site_symmetry_multiplicity
 _atom_site_fract_x
 _atom_site_fract_y
 _atom_site_fract_z
 _atom_site_occupancy
  Tb  Tb0  1  0.682045  0.180211  0.229131  1
  Tb  Tb1  1  0.317955  0.819789  0.770869  1
  Tb  Tb2  1  0.317955  0.819789  0.229131  1
  Tb  Tb3  1  0.819789  0.682045  0.229131  1
  Tb  Tb4  1  0.819789  0.682045  0.770869  1
  Tb  Tb5  1  0.682045  0.180211  0.770869  1
  Tb  Tb6  1  0.180211  0.317955  0.770869  1
  Tb  Tb7  1  0.180211  0.317955  0.229131  1
  Tm  Tm8  1  0.500000  0.500000  0.500000  1
  Mg  Mg9  1  0.000000  0.000000  0.500000  1
  Si  Si10  1  0.116086  0.614999  0.500000  1
  Si  Si11  1  0.883914  0.385001  0.500000  1
  Si  Si12  1  0.385001  0.116086  0.500000  1
  Si  Si13  1  0.614999  0.883914  0.500000  1
  B  B14  1  0.174438  0.038389  0.000000  1
  B  B15  1  0.825562  0.961611  0.000000  1
  B  B16  1  0.961611  0.174438  0.000000  1
  B  B17  1  0.327177  0.539431  0.000000  1
  B  B18  1  0.038389  0.825562  0.000000  1
  B  B19  1  0.672823  0.460569  0.000000  1
  B  B20  1  0.539431  0.672823  0.000000  1
  B  B21  1  0.460569  0.327177  0.000000  1
  B  B22  1  0.089624  0.588725  0.000000  1
  B  B23  1  0.910376  0.411275  0.000000  1
  B  B24  1  0.411275  0.089624  0.000000  1
  B  B25  1  0.588725  0.910376  0.000000  1
  B  B26  1  0.000000  0.000000  0.157504  1
  B  B27  1  0.000000  0.000000  0.842496  1
  B  B28  1  0.500000  0.500000  0.837488  1
  B  B29  1  0.500000  0.500000  0.162512  1
