# generated using pymatgen
data_Er6U(Al3Co8)2
_symmetry_space_group_name_H-M   'P 1'
_cell_length_a   8.43019952
_cell_length_b   8.43066867
_cell_length_c   8.43056500
_cell_angle_alpha   60.00415386
_cell_angle_beta   60.00235246
_cell_angle_gamma   60.00283659
_symmetry_Int_Tables_number   1
_chemical_formula_structural   Er6U(Al3Co8)2
_chemical_formula_sum   'Er6 U1 Al6 Co16'
_cell_volume   423.71342209
_cell_formula_units_Z   1
loop_
 _symmetry_equiv_pos_site_id
 _symmetry_equiv_pos_as_xyz
  1  'x, y, z'
loop_
 _atom_site_type_symbol
 _atom_site_label
 _atom_site_symmetry_multiplicity
 _atom_site_fract_x
 _atom_site_fract_y
 _atom_site_fract_z
 _atom_site_occupancy
  Er  Er0  1  0.707923  0.291938  0.292145  1
  Er  Er1  1  0.292077  0.708062  0.707855  1
  Er  Er2  1  0.292000  0.708017  0.292046  1
  Er  Er3  1  0.292095  0.291947  0.707915  1
  Er  Er4  1  0.708000  0.291983  0.707954  1
  Er  Er5  1  0.707905  0.708053  0.292085  1
  U  U6  1  0.000000  0.000000  0.000000  1
  Al  Al7  1  0.500000  0.000000  0.000000  1
  Al  Al8  1  0.000000  0.500000  0.500000  1
  Al  Al9  1  0.000000  0.500000  0.000000  1
  Al  Al10  1  0.000000  0.000000  0.500000  1
  Al  Al11  1  0.500000  0.000000  0.500000  1
  Al  Al12  1  0.500000  0.500000  0.000000  1
  Co  Co13  1  0.322241  0.322133  0.322196  1
  Co  Co14  1  0.322226  0.322116  0.033530  1
  Co  Co15  1  0.033677  0.322089  0.322145  1
  Co  Co16  1  0.322239  0.033430  0.322189  1
  Co  Co17  1  0.677759  0.677867  0.677804  1
  Co  Co18  1  0.677774  0.677884  0.966470  1
  Co  Co19  1  0.677761  0.966570  0.677811  1
  Co  Co20  1  0.966323  0.677911  0.677855  1
  Co  Co21  1  0.122932  0.122870  0.122907  1
  Co  Co22  1  0.122943  0.122898  0.631274  1
  Co  Co23  1  0.631299  0.122889  0.122922  1
  Co  Co24  1  0.122921  0.631295  0.122915  1
  Co  Co25  1  0.877068  0.877130  0.877093  1
  Co  Co26  1  0.877057  0.877102  0.368726  1
  Co  Co27  1  0.877079  0.368705  0.877085  1
  Co  Co28  1  0.368701  0.877111  0.877078  1
