# generated using pymatgen
data_Lu3In3AgIrRh
_symmetry_space_group_name_H-M   'P 1'
_cell_length_a   7.71522200
_cell_length_b   7.71522179
_cell_length_c   3.76989000
_cell_angle_alpha   90.00000000
_cell_angle_beta   90.00000000
_cell_angle_gamma   120.00000092
_symmetry_Int_Tables_number   1
_chemical_formula_structural   Lu3In3AgIrRh
_chemical_formula_sum   'Lu3 In3 Ag1 Ir1 Rh1'
_cell_volume   194.33729259
_cell_formula_units_Z   1
loop_
 _symmetry_equiv_pos_site_id
 _symmetry_equiv_pos_as_xyz
  1  'x, y, z'
loop_
 _atom_site_type_symbol
 _atom_site_label
 _atom_site_symmetry_multiplicity
 _atom_site_fract_x
 _atom_site_fract_y
 _atom_site_fract_z
 _atom_site_occupancy
  Lu  Lu0  1  0.380158  0.967658  0.500000  1
  Lu  Lu1  1  0.032342  0.412499  0.500000  1
  Lu  Lu2  1  0.587501  0.619842  0.500000  1
  In  In3  1  0.740951  0.005779  0.000000  1
  In  In4  1  0.994221  0.735170  0.000000  1
  In  In5  1  0.264830  0.259049  0.000000  1
  Ag  Ag6  1  0.666667  0.333333  0.000000  1
  Ir  Ir7  1  0.333333  0.666667  0.000000  1
  Rh  Rh8  1  0.000000  0.000000  0.500000  1
