# generated using pymatgen
data_Pm2Ga2PdPt3
_symmetry_space_group_name_H-M   'P 1'
_cell_length_a   6.88563621
_cell_length_b   5.62581170
_cell_length_c   4.29719000
_cell_angle_alpha   90.00000000
_cell_angle_beta   90.00000000
_cell_angle_gamma   110.55928636
_symmetry_Int_Tables_number   1
_chemical_formula_structural   Pm2Ga2PdPt3
_chemical_formula_sum   'Pm2 Ga2 Pd1 Pt3'
_cell_volume   155.85945938
_cell_formula_units_Z   1
loop_
 _symmetry_equiv_pos_site_id
 _symmetry_equiv_pos_as_xyz
  1  'x, y, z'
loop_
 _atom_site_type_symbol
 _atom_site_label
 _atom_site_symmetry_multiplicity
 _atom_site_fract_x
 _atom_site_fract_y
 _atom_site_fract_z
 _atom_site_occupancy
  Pm  Pm0  1  0.414858  0.704583  0.750000  1
  Pm  Pm1  1  0.588261  0.298258  0.250000  1
  Ga  Ga2  1  0.119015  0.856520  0.250000  1
  Ga  Ga3  1  0.879070  0.143808  0.750000  1
  Pd  Pd4  1  0.098861  0.382689  0.250000  1
  Pt  Pt5  1  0.748097  0.869969  0.250000  1
  Pt  Pt6  1  0.899925  0.611828  0.750000  1
  Pt  Pt7  1  0.251912  0.132345  0.750000  1
