# generated using pymatgen
data_Ho13Er5(LuPb8)2
_symmetry_space_group_name_H-M   'P 1'
_cell_length_a   8.16884200
_cell_length_b   15.55646201
_cell_length_c   8.23792100
_cell_angle_alpha   90.00317317
_cell_angle_beta   90.00236772
_cell_angle_gamma   90.00085506
_symmetry_Int_Tables_number   1
_chemical_formula_structural   Ho13Er5(LuPb8)2
_chemical_formula_sum   'Ho13 Er5 Lu2 Pb16'
_cell_volume   1046.86083144
_cell_formula_units_Z   1
loop_
 _symmetry_equiv_pos_site_id
 _symmetry_equiv_pos_as_xyz
  1  'x, y, z'
loop_
 _atom_site_type_symbol
 _atom_site_label
 _atom_site_symmetry_multiplicity
 _atom_site_fract_x
 _atom_site_fract_y
 _atom_site_fract_z
 _atom_site_occupancy
  Ho  Ho0  1  0.877137  0.379217  0.658418  1
  Ho  Ho1  1  0.377149  0.379199  0.841560  1
  Ho  Ho2  1  0.877152  0.120795  0.658433  1
  Ho  Ho3  1  0.622729  0.878503  0.158015  1
  Ho  Ho4  1  0.122730  0.621491  0.341991  1
  Ho  Ho5  1  0.463511  0.599923  0.675840  1
  Ho  Ho6  1  0.963505  0.900078  0.824153  1
  Ho  Ho7  1  0.536289  0.099638  0.324134  1
  Ho  Ho8  1  0.036290  0.400356  0.175848  1
  Ho  Ho9  1  0.536294  0.400376  0.324149  1
  Ho  Ho10  1  0.036304  0.099619  0.175840  1
  Ho  Ho11  1  0.463484  0.900091  0.675823  1
  Ho  Ho12  1  0.963495  0.599928  0.824185  1
  Er  Er13  1  0.622765  0.621483  0.157994  1
  Er  Er14  1  0.122752  0.878505  0.341997  1
  Er  Er15  1  0.377128  0.120790  0.841600  1
  Er  Er16  1  0.208886  0.249996  0.504237  1
  Er  Er17  1  0.708874  0.249997  0.995796  1
  Lu  Lu18  1  0.791072  0.750002  0.495384  1
  Lu  Lu19  1  0.291067  0.750006  0.004600  1
  Pb  Pb20  1  0.718854  0.457515  0.966953  1
  Pb  Pb21  1  0.218893  0.042498  0.533113  1
  Pb  Pb22  1  0.281170  0.956346  0.033113  1
  Pb  Pb23  1  0.781156  0.543688  0.466849  1
  Pb  Pb24  1  0.281258  0.543697  0.033103  1
  Pb  Pb25  1  0.781265  0.956306  0.466894  1
  Pb  Pb26  1  0.718843  0.042532  0.966888  1
  Pb  Pb27  1  0.218873  0.457477  0.533096  1
  Pb  Pb28  1  0.428956  0.749993  0.374046  1
  Pb  Pb29  1  0.928961  0.750001  0.125943  1
  Pb  Pb30  1  0.571887  0.249985  0.625839  1
  Pb  Pb31  1  0.071943  0.249977  0.874193  1
  Pb  Pb32  1  0.651387  0.749985  0.844221  1
  Pb  Pb33  1  0.151383  0.750013  0.655791  1
  Pb  Pb34  1  0.348285  0.249990  0.154112  1
  Pb  Pb35  1  0.848271  0.250004  0.345849  1
