# generated using pymatgen
data_Tb4YIn3Cl
_symmetry_space_group_name_H-M   'P 1'
_cell_length_a   9.19404600
_cell_length_b   9.19423090
_cell_length_c   6.65256000
_cell_angle_alpha   90.00111723
_cell_angle_beta   89.99944067
_cell_angle_gamma   120.00066712
_symmetry_Int_Tables_number   1
_chemical_formula_structural   Tb4YIn3Cl
_chemical_formula_sum   'Tb8 Y2 In6 Cl2'
_cell_volume   487.01079829
_cell_formula_units_Z   2
loop_
 _symmetry_equiv_pos_site_id
 _symmetry_equiv_pos_as_xyz
  1  'x, y, z'
loop_
 _atom_site_type_symbol
 _atom_site_label
 _atom_site_symmetry_multiplicity
 _atom_site_fract_x
 _atom_site_fract_y
 _atom_site_fract_z
 _atom_site_occupancy
  Tb  Tb0  1  0.741918  0.741913  0.250658  1
  Tb  Tb1  1  0.000000  0.741911  0.749341  1
  Tb  Tb2  1  0.741918  0.000006  0.749342  1
  Tb  Tb3  1  0.258082  0.258087  0.749342  1
  Tb  Tb4  1  0.000000  0.258089  0.250659  1
  Tb  Tb5  1  0.258082  0.999994  0.250658  1
  Tb  Tb6  1  0.333328  0.666664  0.000000  1
  Tb  Tb7  1  0.666672  0.333336  0.000000  1
  Y  Y8  1  0.333329  0.666665  0.500000  1
  Y  Y9  1  0.666671  0.333335  0.500000  1
  In  In10  1  0.394186  0.999999  0.747821  1
  In  In11  1  0.000000  0.605818  0.252177  1
  In  In12  1  0.605814  0.000001  0.252179  1
  In  In13  1  0.000000  0.394182  0.747823  1
  In  In14  1  0.394186  0.394188  0.252179  1
  In  In15  1  0.605814  0.605812  0.747821  1
  Cl  Cl16  1  0.000000  0.000000  0.500000  1
  Cl  Cl17  1  0.000000  0.000000  0.000000  1
