# generated using pymatgen
data_LiZn4NiRh2
_symmetry_space_group_name_H-M   'P 1'
_cell_length_a   5.92246803
_cell_length_b   5.92452900
_cell_length_c   6.13720403
_cell_angle_alpha   89.99992363
_cell_angle_beta   90.01112552
_cell_angle_gamma   90.00019346
_symmetry_Int_Tables_number   1
_chemical_formula_structural   LiZn4NiRh2
_chemical_formula_sum   'Li2 Zn8 Ni2 Rh4'
_cell_volume   215.34118957
_cell_formula_units_Z   2
loop_
 _symmetry_equiv_pos_site_id
 _symmetry_equiv_pos_as_xyz
  1  'x, y, z'
loop_
 _atom_site_type_symbol
 _atom_site_label
 _atom_site_symmetry_multiplicity
 _atom_site_fract_x
 _atom_site_fract_y
 _atom_site_fract_z
 _atom_site_occupancy
  Li  Li0  1  0.751301  0.249999  0.000004  1
  Li  Li1  1  0.248697  0.750000  0.999996  1
  Zn  Zn2  1  0.499978  0.500008  0.255253  1
  Zn  Zn3  1  0.499987  0.999997  0.255254  1
  Zn  Zn4  1  0.999986  0.500010  0.257495  1
  Zn  Zn5  1  0.999987  0.999987  0.257495  1
  Zn  Zn6  1  0.000014  0.499989  0.742507  1
  Zn  Zn7  1  0.000013  0.000013  0.742507  1
  Zn  Zn8  1  0.500022  0.499991  0.744747  1
  Zn  Zn9  1  0.500012  0.000003  0.744746  1
  Ni  Ni10  1  0.748755  0.249999  0.499971  1
  Ni  Ni11  1  0.251246  0.750000  0.500029  1
  Rh  Rh12  1  0.248913  0.250000  0.000008  1
  Rh  Rh13  1  0.751087  0.749999  0.999992  1
  Rh  Rh14  1  0.251323  0.250000  0.499994  1
  Rh  Rh15  1  0.748677  0.749999  0.500006  1
