# generated using pymatgen
data_Na5Ca(Si3Rh)8
_symmetry_space_group_name_H-M   'P 1'
_cell_length_a   10.11425852
_cell_length_b   10.11425793
_cell_length_c   8.16773200
_cell_angle_alpha   90.07863951
_cell_angle_beta   89.92137183
_cell_angle_gamma   132.42715706
_symmetry_Int_Tables_number   1
_chemical_formula_structural   Na5Ca(Si3Rh)8
_chemical_formula_sum   'Na5 Ca1 Si24 Rh8'
_cell_volume   616.74444653
_cell_formula_units_Z   1
loop_
 _symmetry_equiv_pos_site_id
 _symmetry_equiv_pos_as_xyz
  1  'x, y, z'
loop_
 _atom_site_type_symbol
 _atom_site_label
 _atom_site_symmetry_multiplicity
 _atom_site_fract_x
 _atom_site_fract_y
 _atom_site_fract_z
 _atom_site_occupancy
  Na  Na0  1  0.000426  0.500426  0.750000  1
  Na  Na1  1  0.500509  0.000509  0.750000  1
  Na  Na2  1  0.999300  0.499300  0.250000  1
  Na  Na3  1  0.500136  0.500087  0.499964  1
  Na  Na4  1  0.000087  0.000136  0.000036  1
  Ca  Ca5  1  0.499358  0.999358  0.250000  1
  Si  Si6  1  0.389729  0.157269  0.998940  1
  Si  Si7  1  0.657269  0.889729  0.501060  1
  Si  Si8  1  0.111663  0.344963  0.500122  1
  Si  Si9  1  0.844963  0.611663  0.999878  1
  Si  Si10  1  0.610080  0.842887  0.997168  1
  Si  Si11  1  0.342887  0.110080  0.502832  1
  Si  Si12  1  0.888289  0.654562  0.498325  1
  Si  Si13  1  0.154562  0.388289  0.001675  1
  Si  Si14  1  0.614750  0.382246  0.226652  1
  Si  Si15  1  0.882246  0.114750  0.273348  1
  Si  Si16  1  0.885369  0.118894  0.728559  1
  Si  Si17  1  0.618894  0.385369  0.771441  1
  Si  Si18  1  0.387300  0.620785  0.771120  1
  Si  Si19  1  0.120785  0.887300  0.728880  1
  Si  Si20  1  0.708621  0.297237  0.997046  1
  Si  Si21  1  0.797237  0.208621  0.502954  1
  Si  Si22  1  0.291195  0.702662  0.996964  1
  Si  Si23  1  0.202662  0.791195  0.503036  1
  Si  Si24  1  0.169022  0.167560  0.331275  1
  Si  Si25  1  0.667560  0.669022  0.168725  1
  Si  Si26  1  0.331239  0.333831  0.831033  1
  Si  Si27  1  0.833831  0.831239  0.668967  1
  Si  Si28  1  0.378134  0.611480  0.227021  1
  Si  Si29  1  0.111480  0.878134  0.272979  1
  Rh  Rh30  1  0.626263  0.625038  0.875268  1
  Rh  Rh31  1  0.125038  0.126263  0.624732  1
  Rh  Rh32  1  0.874702  0.875009  0.375751  1
  Rh  Rh33  1  0.375009  0.374702  0.124249  1
  Rh  Rh34  1  0.334500  0.668119  0.498908  1
  Rh  Rh35  1  0.168119  0.834500  0.001092  1
  Rh  Rh36  1  0.665272  0.331517  0.498323  1
  Rh  Rh37  1  0.831517  0.165272  0.001677  1
