# generated using pymatgen
data_Dy13Tm2Lu(InRh)4
_symmetry_space_group_name_H-M   'P 1'
_cell_length_a   9.63196863
_cell_length_b   9.63650799
_cell_length_c   9.64548716
_cell_angle_alpha   60.01494852
_cell_angle_beta   60.04635345
_cell_angle_gamma   60.01558432
_symmetry_Int_Tables_number   1
_chemical_formula_structural   Dy13Tm2Lu(InRh)4
_chemical_formula_sum   'Dy13 Tm2 Lu1 In4 Rh4'
_cell_volume   633.42626825
_cell_formula_units_Z   1
loop_
 _symmetry_equiv_pos_site_id
 _symmetry_equiv_pos_as_xyz
  1  'x, y, z'
loop_
 _atom_site_type_symbol
 _atom_site_label
 _atom_site_symmetry_multiplicity
 _atom_site_fract_x
 _atom_site_fract_y
 _atom_site_fract_z
 _atom_site_occupancy
  Dy  Dy0  1  0.937830  0.938606  0.560841  1
  Dy  Dy1  1  0.150450  0.151049  0.548049  1
  Dy  Dy2  1  0.562722  0.938606  0.560841  1
  Dy  Dy3  1  0.149047  0.149608  0.150981  1
  Dy  Dy4  1  0.311495  0.310996  0.687804  1
  Dy  Dy5  1  0.937971  0.562792  0.561265  1
  Dy  Dy6  1  0.561432  0.561100  0.940635  1
  Dy  Dy7  1  0.561246  0.937273  0.940234  1
  Dy  Dy8  1  0.936832  0.561100  0.940635  1
  Dy  Dy9  1  0.149464  0.549670  0.151400  1
  Dy  Dy10  1  0.310993  0.689824  0.688189  1
  Dy  Dy11  1  0.689706  0.310996  0.687804  1
  Dy  Dy12  1  0.550364  0.149608  0.150981  1
  Tm  Tm13  1  0.688724  0.688465  0.310087  1
  Tm  Tm14  1  0.312724  0.688465  0.310087  1
  Lu  Lu15  1  0.688658  0.312332  0.310352  1
  In  In16  1  0.917232  0.917080  0.248456  1
  In  In17  1  0.248668  0.916999  0.917342  1
  In  In18  1  0.917164  0.248478  0.917194  1
  In  In19  1  0.916990  0.916999  0.917342  1
  Rh  Rh20  1  0.359954  0.358731  0.357080  1
  Rh  Rh21  1  0.924235  0.358731  0.357080  1
  Rh  Rh22  1  0.357295  0.357603  0.927809  1
  Rh  Rh23  1  0.358805  0.924885  0.357507  1
