# generated using pymatgen
data_Ti3(NbSi2)2
_symmetry_space_group_name_H-M   'P 1'
_cell_length_a   6.70305414
_cell_length_b   6.69821960
_cell_length_c   12.27896245
_cell_angle_alpha   90.06361563
_cell_angle_beta   89.79975896
_cell_angle_gamma   90.05673353
_symmetry_Int_Tables_number   1
_chemical_formula_structural   Ti3(NbSi2)2
_chemical_formula_sum   'Ti12 Nb8 Si16'
_cell_volume   551.30337183
_cell_formula_units_Z   4
loop_
 _symmetry_equiv_pos_site_id
 _symmetry_equiv_pos_as_xyz
  1  'x, y, z'
loop_
 _atom_site_type_symbol
 _atom_site_label
 _atom_site_symmetry_multiplicity
 _atom_site_fract_x
 _atom_site_fract_y
 _atom_site_fract_z
 _atom_site_occupancy
  Ti  Ti0  1  0.331128  0.330721  0.000086  1
  Ti  Ti1  1  0.169270  0.830775  0.249821  1
  Ti  Ti2  1  0.831073  0.169334  0.750018  1
  Ti  Ti3  1  0.668683  0.669029  0.499938  1
  Ti  Ti4  1  0.153469  0.002999  0.871680  1
  Ti  Ti5  1  0.497050  0.652481  0.121500  1
  Ti  Ti6  1  0.502767  0.348177  0.621951  1
  Ti  Ti7  1  0.653410  0.496915  0.878875  1
  Ti  Ti8  1  0.346733  0.502914  0.378277  1
  Ti  Ti9  1  0.846678  0.997036  0.371436  1
  Ti  Ti10  1  0.003239  0.152403  0.128302  1
  Ti  Ti11  1  0.996371  0.848125  0.627972  1
  Nb  Nb12  1  0.341429  0.995477  0.471697  1
  Nb  Nb13  1  0.505429  0.841109  0.722225  1
  Nb  Nb14  1  0.495273  0.157831  0.221906  1
  Nb  Nb15  1  0.840995  0.504344  0.278058  1
  Nb  Nb16  1  0.158243  0.495983  0.778030  1
  Nb  Nb17  1  0.659722  0.004180  0.972186  1
  Nb  Nb18  1  0.993974  0.342054  0.527849  1
  Nb  Nb19  1  0.005200  0.658258  0.028207  1
  Si  Si20  1  0.363689  0.707335  0.922701  1
  Si  Si21  1  0.635657  0.292125  0.422798  1
  Si  Si22  1  0.707997  0.362850  0.077396  1
  Si  Si23  1  0.291757  0.637357  0.577246  1
  Si  Si24  1  0.792576  0.862825  0.172791  1
  Si  Si25  1  0.136350  0.207380  0.327220  1
  Si  Si26  1  0.864079  0.792162  0.827179  1
  Si  Si27  1  0.298514  0.956234  0.063314  1
  Si  Si28  1  0.543601  0.797484  0.313420  1
  Si  Si29  1  0.456921  0.202154  0.813606  1
  Si  Si30  1  0.797838  0.544257  0.686626  1
  Si  Si31  1  0.201874  0.456016  0.186587  1
  Si  Si32  1  0.701411  0.044034  0.563506  1
  Si  Si33  1  0.956844  0.297834  0.936587  1
  Si  Si34  1  0.043355  0.702333  0.436360  1
  Si  Si35  1  0.207402  0.137476  0.672653  1
