# generated using pymatgen
data_Tm2Al9Ir2Pt
_symmetry_space_group_name_H-M   'P 1'
_cell_length_a   7.55730513
_cell_length_b   7.55730453
_cell_length_c   9.41377780
_cell_angle_alpha   89.94202837
_cell_angle_beta   89.94202770
_cell_angle_gamma   119.66129377
_symmetry_Int_Tables_number   1
_chemical_formula_structural   Tm2Al9Ir2Pt
_chemical_formula_sum   'Tm4 Al18 Ir4 Pt2'
_cell_volume   467.19667103
_cell_formula_units_Z   2
loop_
 _symmetry_equiv_pos_site_id
 _symmetry_equiv_pos_as_xyz
  1  'x, y, z'
loop_
 _atom_site_type_symbol
 _atom_site_label
 _atom_site_symmetry_multiplicity
 _atom_site_fract_x
 _atom_site_fract_y
 _atom_site_fract_z
 _atom_site_occupancy
  Tm  Tm0  1  0.995311  0.670706  0.251476  1
  Tm  Tm1  1  0.004689  0.329294  0.748524  1
  Tm  Tm2  1  0.670706  0.995311  0.251476  1
  Tm  Tm3  1  0.329294  0.004689  0.748524  1
  Al  Al4  1  0.127091  0.127091  0.250655  1
  Al  Al5  1  0.872909  0.872909  0.749345  1
  Al  Al6  1  0.000111  0.331509  0.078032  1
  Al  Al7  1  0.999889  0.668491  0.921968  1
  Al  Al8  1  0.000236  0.665039  0.575141  1
  Al  Al9  1  0.334961  0.999764  0.424859  1
  Al  Al10  1  0.999764  0.334961  0.424859  1
  Al  Al11  1  0.665039  0.000236  0.575141  1
  Al  Al12  1  0.668491  0.999889  0.921968  1
  Al  Al13  1  0.331509  0.000111  0.078032  1
  Al  Al14  1  0.332235  0.332235  0.553556  1
  Al  Al15  1  0.667765  0.667765  0.446444  1
  Al  Al16  1  0.669336  0.669336  0.059040  1
  Al  Al17  1  0.330664  0.330664  0.940960  1
  Al  Al18  1  0.340092  0.547532  0.252811  1
  Al  Al19  1  0.659908  0.452468  0.747189  1
  Al  Al20  1  0.547532  0.340092  0.252811  1
  Al  Al21  1  0.452468  0.659908  0.747189  1
  Ir  Ir22  1  0.327746  0.672254  0.500000  1
  Ir  Ir23  1  0.672254  0.327746  0.500000  1
  Ir  Ir24  1  0.000000  0.000000  0.000000  1
  Ir  Ir25  1  0.000000  0.000000  0.500000  1
  Pt  Pt26  1  0.672257  0.327743  0.000000  1
  Pt  Pt27  1  0.327743  0.672257  0.000000  1
