# generated using pymatgen
data_Tb4Lu(GaSb)2
_symmetry_space_group_name_H-M   'P 1'
_cell_length_a   8.64439832
_cell_length_b   8.64439988
_cell_length_c   7.91186000
_cell_angle_alpha   90.00000000
_cell_angle_beta   90.00000000
_cell_angle_gamma   125.52933981
_symmetry_Int_Tables_number   1
_chemical_formula_structural   Tb4Lu(GaSb)2
_chemical_formula_sum   'Tb8 Lu2 Ga4 Sb4'
_cell_volume   481.14450382
_cell_formula_units_Z   2
loop_
 _symmetry_equiv_pos_site_id
 _symmetry_equiv_pos_as_xyz
  1  'x, y, z'
loop_
 _atom_site_type_symbol
 _atom_site_label
 _atom_site_symmetry_multiplicity
 _atom_site_fract_x
 _atom_site_fract_y
 _atom_site_fract_z
 _atom_site_occupancy
  Tb  Tb0  1  0.039792  0.302363  0.331055  1
  Tb  Tb1  1  0.960208  0.697637  0.668945  1
  Tb  Tb2  1  0.460208  0.197637  0.831055  1
  Tb  Tb3  1  0.802363  0.539792  0.168945  1
  Tb  Tb4  1  0.539792  0.802363  0.168945  1
  Tb  Tb5  1  0.197637  0.460208  0.831055  1
  Tb  Tb6  1  0.697637  0.960208  0.668945  1
  Tb  Tb7  1  0.302363  0.039792  0.331055  1
  Lu  Lu8  1  0.000000  0.000000  0.000000  1
  Lu  Lu9  1  0.500000  0.500000  0.500000  1
  Ga  Ga10  1  0.376268  0.376268  0.123250  1
  Ga  Ga11  1  0.623732  0.623732  0.876750  1
  Ga  Ga12  1  0.123732  0.123732  0.623250  1
  Ga  Ga13  1  0.876268  0.876268  0.376750  1
  Sb  Sb14  1  0.795040  0.204960  0.000000  1
  Sb  Sb15  1  0.204960  0.795040  0.000000  1
  Sb  Sb16  1  0.704960  0.295040  0.500000  1
  Sb  Sb17  1  0.295040  0.704960  0.500000  1
