# generated using pymatgen
data_YbHo(Ga4Ni)2
_symmetry_space_group_name_H-M   'P 1'
_cell_length_a   7.89755900
_cell_length_b   7.89755907
_cell_length_c   6.53802800
_cell_angle_alpha   90.00000000
_cell_angle_beta   90.00000000
_cell_angle_gamma   149.65400100
_symmetry_Int_Tables_number   1
_chemical_formula_structural   YbHo(Ga4Ni)2
_chemical_formula_sum   'Yb1 Ho1 Ga8 Ni2'
_cell_volume   206.02200515
_cell_formula_units_Z   1
loop_
 _symmetry_equiv_pos_site_id
 _symmetry_equiv_pos_as_xyz
  1  'x, y, z'
loop_
 _atom_site_type_symbol
 _atom_site_label
 _atom_site_symmetry_multiplicity
 _atom_site_fract_x
 _atom_site_fract_y
 _atom_site_fract_z
 _atom_site_occupancy
  Yb  Yb0  1  0.876400  0.123600  0.250000  1
  Ho  Ho1  1  0.122390  0.877610  0.750000  1
  Ga  Ga2  1  0.316379  0.683621  0.549036  1
  Ga  Ga3  1  0.068329  0.931671  0.250000  1
  Ga  Ga4  1  0.499443  0.500557  0.002315  1
  Ga  Ga5  1  0.685892  0.314108  0.448335  1
  Ga  Ga6  1  0.499443  0.500557  0.497685  1
  Ga  Ga7  1  0.685892  0.314108  0.051665  1
  Ga  Ga8  1  0.316379  0.683621  0.950964  1
  Ga  Ga9  1  0.930481  0.069519  0.750000  1
  Ni  Ni10  1  0.776413  0.223587  0.750000  1
  Ni  Ni11  1  0.222559  0.777441  0.250000  1
