# generated using pymatgen
data_Sc3Tl2
_symmetry_space_group_name_H-M   'P 1'
_cell_length_a   10.90994519
_cell_length_b   10.90994602
_cell_length_c   10.90994600
_cell_angle_alpha   95.18968764
_cell_angle_beta   117.05035021
_cell_angle_gamma   117.05035302
_symmetry_Int_Tables_number   1
_chemical_formula_structural   Sc3Tl2
_chemical_formula_sum   'Sc24 Tl16'
_cell_volume   954.93177369
_cell_formula_units_Z   8
loop_
 _symmetry_equiv_pos_site_id
 _symmetry_equiv_pos_as_xyz
  1  'x, y, z'
loop_
 _atom_site_type_symbol
 _atom_site_label
 _atom_site_symmetry_multiplicity
 _atom_site_fract_x
 _atom_site_fract_y
 _atom_site_fract_z
 _atom_site_occupancy
  Sc  Sc0  1  0.861246  0.701860  0.430987  1
  Sc  Sc1  1  0.138757  0.569745  0.840615  1
  Sc  Sc2  1  0.861242  0.659384  0.930254  1
  Sc  Sc3  1  0.270876  0.840615  0.701867  1
  Sc  Sc4  1  0.729126  0.430991  0.569737  1
  Sc  Sc5  1  0.270875  0.930263  0.069009  1
  Sc  Sc6  1  0.729125  0.798134  0.659386  1
  Sc  Sc7  1  0.138753  0.069013  0.798140  1
  Sc  Sc8  1  0.138754  0.298140  0.569013  1
  Sc  Sc9  1  0.861243  0.430255  0.159385  1
  Sc  Sc10  1  0.138758  0.340616  0.069746  1
  Sc  Sc11  1  0.729124  0.159385  0.298133  1
  Sc  Sc12  1  0.270874  0.569009  0.430263  1
  Sc  Sc13  1  0.729125  0.069737  0.930991  1
  Sc  Sc14  1  0.270875  0.201866  0.340614  1
  Sc  Sc15  1  0.861247  0.930987  0.201860  1
  Sc  Sc16  1  0.499999  0.147420  0.647420  1
  Sc  Sc17  1  0.500001  0.647403  0.147403  1
  Sc  Sc18  1  0.499999  0.352597  0.852597  1
  Sc  Sc19  1  0.500001  0.852580  0.352580  1
  Sc  Sc20  1  0.500000  0.330023  0.169978  1
  Sc  Sc21  1  0.839919  0.169961  0.669961  1
  Sc  Sc22  1  0.160081  0.830039  0.330039  1
  Sc  Sc23  1  0.500000  0.669977  0.830022  1
  Tl  Tl24  1  0.500001  0.525805  0.369248  1
  Tl  Tl25  1  0.500001  0.869249  0.025806  1
  Tl  Tl26  1  0.499999  0.474195  0.630752  1
  Tl  Tl27  1  0.156553  0.025796  0.525796  1
  Tl  Tl28  1  0.843446  0.369243  0.869243  1
  Tl  Tl29  1  0.156554  0.630757  0.130757  1
  Tl  Tl30  1  0.843447  0.974204  0.474204  1
  Tl  Tl31  1  0.499999  0.130751  0.974194  1
  Tl  Tl32  1  0.500000  0.119314  0.380686  1
  Tl  Tl33  1  0.261355  0.380677  0.880677  1
  Tl  Tl34  1  0.738645  0.619323  0.119323  1
  Tl  Tl35  1  0.500000  0.880686  0.619314  1
  Tl  Tl36  1  0.000000  0.500000  0.500000  1
  Tl  Tl37  1  0.000000  0.000000  0.000000  1
  Tl  Tl38  1  0.000000  0.750000  0.750000  1
  Tl  Tl39  1  0.000000  0.250000  0.250000  1
