# generated using pymatgen
data_CaNd4Sn3Sb
_symmetry_space_group_name_H-M   'P 1'
_cell_length_a   8.28753973
_cell_length_b   8.35855623
_cell_length_c   15.83970600
_cell_angle_alpha   89.77790567
_cell_angle_beta   90.88996028
_cell_angle_gamma   90.13617586
_symmetry_Int_Tables_number   1
_chemical_formula_structural   CaNd4Sn3Sb
_chemical_formula_sum   'Ca4 Nd16 Sn12 Sb4'
_cell_volume   1097.10245654
_cell_formula_units_Z   4
loop_
 _symmetry_equiv_pos_site_id
 _symmetry_equiv_pos_as_xyz
  1  'x, y, z'
loop_
 _atom_site_type_symbol
 _atom_site_label
 _atom_site_symmetry_multiplicity
 _atom_site_fract_x
 _atom_site_fract_y
 _atom_site_fract_z
 _atom_site_occupancy
  Ca  Ca0  1  0.209007  0.502040  0.247944  1
  Ca  Ca1  1  0.709139  0.997445  0.247730  1
  Ca  Ca2  1  0.290700  0.002555  0.750862  1
  Ca  Ca3  1  0.791039  0.498008  0.751474  1
  Nd  Nd4  1  0.035510  0.175216  0.396216  1
  Nd  Nd5  1  0.377716  0.835884  0.118903  1
  Nd  Nd6  1  0.117237  0.335938  0.617157  1
  Nd  Nd7  1  0.479803  0.679955  0.902083  1
  Nd  Nd8  1  0.876486  0.664121  0.121125  1
  Nd  Nd9  1  0.122500  0.335756  0.879491  1
  Nd  Nd10  1  0.466037  0.680393  0.603369  1
  Nd  Nd11  1  0.615741  0.162870  0.617787  1
  Nd  Nd12  1  0.884461  0.663656  0.383131  1
  Nd  Nd13  1  0.020193  0.182632  0.098419  1
  Nd  Nd14  1  0.975858  0.817842  0.900861  1
  Nd  Nd15  1  0.623063  0.164671  0.880752  1
  Nd  Nd16  1  0.523065  0.321275  0.099072  1
  Nd  Nd17  1  0.383079  0.836701  0.382202  1
  Nd  Nd18  1  0.969090  0.824398  0.603191  1
  Nd  Nd19  1  0.530312  0.317880  0.397823  1
  Sn  Sn20  1  0.668758  0.861743  0.750457  1
  Sn  Sn21  1  0.830033  0.360700  0.251089  1
  Sn  Sn22  1  0.788382  0.463949  0.959571  1
  Sn  Sn23  1  0.580207  0.612594  0.252598  1
  Sn  Sn24  1  0.212296  0.535233  0.040591  1
  Sn  Sn25  1  0.419652  0.387827  0.749179  1
  Sn  Sn26  1  0.169786  0.639552  0.750346  1
  Sn  Sn27  1  0.919266  0.112665  0.749406  1
  Sn  Sn28  1  0.277155  0.028331  0.542713  1
  Sn  Sn29  1  0.716634  0.964999  0.041151  1
  Sn  Sn30  1  0.331417  0.138318  0.249200  1
  Sn  Sn31  1  0.080488  0.887247  0.250517  1
  Sb  Sb32  1  0.774083  0.475384  0.544605  1
  Sb  Sb33  1  0.723914  0.973287  0.455919  1
  Sb  Sb34  1  0.224382  0.525244  0.455169  1
  Sb  Sb35  1  0.283511  0.033691  0.957896  1
