# generated using pymatgen
data_Ba4InGa(ReN4)2
_symmetry_space_group_name_H-M   'P 1'
_cell_length_a   5.97673700
_cell_length_b   7.23887390
_cell_length_c   8.67693088
_cell_angle_alpha   59.40302234
_cell_angle_beta   90.00000000
_cell_angle_gamma   90.00000000
_symmetry_Int_Tables_number   1
_chemical_formula_structural   Ba4InGa(ReN4)2
_chemical_formula_sum   'Ba4 In1 Ga1 Re2 N8'
_cell_volume   323.13786460
_cell_formula_units_Z   1
loop_
 _symmetry_equiv_pos_site_id
 _symmetry_equiv_pos_as_xyz
  1  'x, y, z'
loop_
 _atom_site_type_symbol
 _atom_site_label
 _atom_site_symmetry_multiplicity
 _atom_site_fract_x
 _atom_site_fract_y
 _atom_site_fract_z
 _atom_site_occupancy
  Ba  Ba0  1  0.250000  0.230998  0.077425  1
  Ba  Ba1  1  0.750000  0.771452  0.921008  1
  Ba  Ba2  1  0.750000  0.753278  0.380438  1
  Ba  Ba3  1  0.250000  0.235647  0.622853  1
  In  In4  1  0.750000  0.244644  0.371259  1
  Ga  Ga5  1  0.250000  0.727390  0.630562  1
  Re  Re6  1  0.250000  0.687059  0.195936  1
  Re  Re7  1  0.750000  0.320503  0.804387  1
  N  N8  1  0.492905  0.485381  0.748585  1
  N  N9  1  0.996536  0.523336  0.241187  1
  N  N10  1  0.503464  0.523336  0.241187  1
  N  N11  1  0.007095  0.485381  0.748585  1
  N  N12  1  0.750000  0.194258  0.665379  1
  N  N13  1  0.250000  0.798157  0.347175  1
  N  N14  1  0.750000  0.109947  0.036106  1
  N  N15  1  0.250000  0.909233  0.967929  1
