# generated using pymatgen
data_YTm3(GaNi)4
_symmetry_space_group_name_H-M   'P 1'
_cell_length_a   4.27575200
_cell_length_b   6.76948527
_cell_length_c   7.28540796
_cell_angle_alpha   90.20837132
_cell_angle_beta   90.00000000
_cell_angle_gamma   90.00000000
_symmetry_Int_Tables_number   1
_chemical_formula_structural   YTm3(GaNi)4
_chemical_formula_sum   'Y1 Tm3 Ga4 Ni4'
_cell_volume   210.87211749
_cell_formula_units_Z   1
loop_
 _symmetry_equiv_pos_site_id
 _symmetry_equiv_pos_as_xyz
  1  'x, y, z'
loop_
 _atom_site_type_symbol
 _atom_site_label
 _atom_site_symmetry_multiplicity
 _atom_site_fract_x
 _atom_site_fract_y
 _atom_site_fract_z
 _atom_site_occupancy
  Y  Y0  1  0.250000  0.016324  0.803694  1
  Tm  Tm1  1  0.250000  0.517003  0.696096  1
  Tm  Tm2  1  0.750000  0.982259  0.198896  1
  Tm  Tm3  1  0.750000  0.482679  0.302922  1
  Ga  Ga4  1  0.250000  0.180360  0.420508  1
  Ga  Ga5  1  0.250000  0.678269  0.079038  1
  Ga  Ga6  1  0.750000  0.818041  0.577414  1
  Ga  Ga7  1  0.750000  0.321619  0.922047  1
  Ni  Ni8  1  0.250000  0.788399  0.405660  1
  Ni  Ni9  1  0.250000  0.291792  0.095706  1
  Ni  Ni10  1  0.750000  0.214155  0.590690  1
  Ni  Ni11  1  0.750000  0.709099  0.907328  1
