# generated using pymatgen
data_CeDy5Fe2
_symmetry_space_group_name_H-M   'P 1'
_cell_length_a   6.31650600
_cell_length_b   6.95644300
_cell_length_c   9.36438100
_cell_angle_alpha   90.00000000
_cell_angle_beta   90.00000000
_cell_angle_gamma   90.00000000
_symmetry_Int_Tables_number   1
_chemical_formula_structural   CeDy5Fe2
_chemical_formula_sum   'Ce2 Dy10 Fe4'
_cell_volume   411.47477751
_cell_formula_units_Z   2
loop_
 _symmetry_equiv_pos_site_id
 _symmetry_equiv_pos_as_xyz
  1  'x, y, z'
loop_
 _atom_site_type_symbol
 _atom_site_label
 _atom_site_symmetry_multiplicity
 _atom_site_fract_x
 _atom_site_fract_y
 _atom_site_fract_z
 _atom_site_occupancy
  Ce  Ce0  1  0.869070  0.576036  0.250000  1
  Ce  Ce1  1  0.630930  0.076036  0.250000  1
  Dy  Dy2  1  0.333920  0.672772  0.062119  1
  Dy  Dy3  1  0.166080  0.172772  0.437881  1
  Dy  Dy4  1  0.677383  0.329002  0.570006  1
  Dy  Dy5  1  0.822617  0.829002  0.929994  1
  Dy  Dy6  1  0.677383  0.329002  0.929994  1
  Dy  Dy7  1  0.822617  0.829002  0.570006  1
  Dy  Dy8  1  0.333920  0.672772  0.437881  1
  Dy  Dy9  1  0.166080  0.172772  0.062119  1
  Dy  Dy10  1  0.139743  0.456147  0.750000  1
  Dy  Dy11  1  0.360257  0.956147  0.750000  1
  Fe  Fe12  1  0.008436  0.852208  0.250000  1
  Fe  Fe13  1  0.491564  0.352208  0.250000  1
  Fe  Fe14  1  0.962932  0.112059  0.750000  1
  Fe  Fe15  1  0.537068  0.612059  0.750000  1
