# generated using pymatgen
data_Y6Mn2Fe3Co13P12
_symmetry_space_group_name_H-M   'P 1'
_cell_length_a   3.70709400
_cell_length_b   10.61867606
_cell_length_c   12.12441607
_cell_angle_alpha   89.98801576
_cell_angle_beta   90.00000000
_cell_angle_gamma   90.00000000
_symmetry_Int_Tables_number   1
_chemical_formula_structural   Y6Mn2Fe3Co13P12
_chemical_formula_sum   'Y6 Mn2 Fe3 Co13 P12'
_cell_volume   477.27072077
_cell_formula_units_Z   1
loop_
 _symmetry_equiv_pos_site_id
 _symmetry_equiv_pos_as_xyz
  1  'x, y, z'
loop_
 _atom_site_type_symbol
 _atom_site_label
 _atom_site_symmetry_multiplicity
 _atom_site_fract_x
 _atom_site_fract_y
 _atom_site_fract_z
 _atom_site_occupancy
  Y  Y0  1  0.000000  0.499973  0.523113  1
  Y  Y1  1  0.500000  0.000052  0.476415  1
  Y  Y2  1  0.500000  0.819201  0.204124  1
  Y  Y3  1  0.500000  0.181158  0.204205  1
  Y  Y4  1  0.000000  0.680390  0.796091  1
  Y  Y5  1  0.000000  0.318872  0.796195  1
  Mn  Mn6  1  0.500000  0.500643  0.154982  1
  Mn  Mn7  1  0.000000  0.999576  0.843854  1
  Fe  Fe8  1  0.000000  0.501884  0.988628  1
  Fe  Fe9  1  0.500000  0.999420  0.011654  1
  Fe  Fe10  1  0.500000  0.332181  0.996073  1
  Co  Co11  1  0.500000  0.500253  0.701293  1
  Co  Co12  1  0.000000  0.000086  0.298661  1
  Co  Co13  1  0.500000  0.668783  0.994664  1
  Co  Co14  1  0.000000  0.165902  0.005116  1
  Co  Co15  1  0.000000  0.832142  0.005317  1
  Co  Co16  1  0.500000  0.296314  0.430390  1
  Co  Co17  1  0.500000  0.703888  0.430321  1
  Co  Co18  1  0.000000  0.203583  0.569828  1
  Co  Co19  1  0.000000  0.796419  0.569833  1
  Co  Co20  1  0.500000  0.879641  0.709340  1
  Co  Co21  1  0.500000  0.120131  0.709188  1
  Co  Co22  1  0.000000  0.620620  0.290862  1
  Co  Co23  1  0.000000  0.379523  0.290268  1
  P  P24  1  0.500000  0.498660  0.885328  1
  P  P25  1  0.000000  0.999745  0.115466  1
  P  P26  1  0.500000  0.499799  0.344648  1
  P  P27  1  0.000000  0.000035  0.655109  1
  P  P28  1  0.500000  0.310524  0.616635  1
  P  P29  1  0.500000  0.689518  0.616469  1
  P  P30  1  0.000000  0.189968  0.383614  1
  P  P31  1  0.000000  0.810413  0.383636  1
  P  P32  1  0.500000  0.847008  0.894147  1
  P  P33  1  0.500000  0.154090  0.895141  1
  P  P34  1  0.000000  0.653577  0.105971  1
  P  P35  1  0.000000  0.346026  0.103418  1
