# generated using pymatgen
data_FeBi4Pt3F28
_symmetry_space_group_name_H-M   'P 1'
_cell_length_a   5.62320529
_cell_length_b   9.17820080
_cell_length_c   12.27374127
_cell_angle_alpha   62.02545474
_cell_angle_beta   89.68080853
_cell_angle_gamma   90.07667086
_symmetry_Int_Tables_number   1
_chemical_formula_structural   FeBi4Pt3F28
_chemical_formula_sum   'Fe1 Bi4 Pt3 F28'
_cell_volume   559.42881666
_cell_formula_units_Z   1
loop_
 _symmetry_equiv_pos_site_id
 _symmetry_equiv_pos_as_xyz
  1  'x, y, z'
loop_
 _atom_site_type_symbol
 _atom_site_label
 _atom_site_symmetry_multiplicity
 _atom_site_fract_x
 _atom_site_fract_y
 _atom_site_fract_z
 _atom_site_occupancy
  Fe  Fe0  1  0.756430  0.278130  0.954057  1
  Bi  Bi1  1  0.764981  0.806650  0.769231  1
  Bi  Bi2  1  0.263266  0.183915  0.747887  1
  Bi  Bi3  1  0.244634  0.197737  0.218142  1
  Bi  Bi4  1  0.736037  0.832782  0.249135  1
  Pt  Pt5  1  0.259249  0.730027  0.540471  1
  Pt  Pt6  1  0.240992  0.728293  0.041998  1
  Pt  Pt7  1  0.742399  0.272595  0.457404  1
  F  F8  1  0.423198  0.703029  0.914497  1
  F  F9  1  0.922455  0.295111  0.584212  1
  F  F10  1  0.555394  0.285031  0.083404  1
  F  F11  1  0.077062  0.706512  0.415066  1
  F  F12  1  0.444611  0.277672  0.539156  1
  F  F13  1  0.936115  0.721520  0.964235  1
  F  F14  1  0.557364  0.725916  0.458171  1
  F  F15  1  0.052096  0.276097  0.043338  1
  F  F16  1  0.776058  0.514952  0.864088  1
  F  F17  1  0.271451  0.490407  0.635507  1
  F  F18  1  0.225912  0.487882  0.140400  1
  F  F19  1  0.731057  0.510756  0.362204  1
  F  F20  1  0.760656  0.031253  0.056582  1
  F  F21  1  0.259245  0.969418  0.450329  1
  F  F22  1  0.245389  0.971872  0.952874  1
  F  F23  1  0.744155  0.031239  0.549249  1
  F  F24  1  0.963240  0.729407  0.626149  1
  F  F25  1  0.476070  0.266378  0.865726  1
  F  F26  1  0.036027  0.271707  0.372653  1
  F  F27  1  0.537434  0.725625  0.126573  1
  F  F28  1  0.064745  0.742501  0.175650  1
  F  F29  1  0.565232  0.255712  0.326492  1
  F  F30  1  0.950190  0.247975  0.833255  1
  F  F31  1  0.436444  0.746738  0.671899  1
  F  F32  1  0.391571  0.965977  0.226110  1
  F  F33  1  0.904774  0.031269  0.272879  1
  F  F34  1  0.593373  0.023198  0.774773  1
  F  F35  1  0.090696  0.964718  0.736203  1
