# generated using pymatgen
data_La4Tb2OsI10
_symmetry_space_group_name_H-M   'P 1'
_cell_length_a   8.11259834
_cell_length_b   10.06086422
_cell_length_c   10.05852941
_cell_angle_alpha   106.58215542
_cell_angle_beta   96.97811540
_cell_angle_gamma   106.07357200
_symmetry_Int_Tables_number   1
_chemical_formula_structural   La4Tb2OsI10
_chemical_formula_sum   'La4 Tb2 Os1 I10'
_cell_volume   737.93498655
_cell_formula_units_Z   1
loop_
 _symmetry_equiv_pos_site_id
 _symmetry_equiv_pos_as_xyz
  1  'x, y, z'
loop_
 _atom_site_type_symbol
 _atom_site_label
 _atom_site_symmetry_multiplicity
 _atom_site_fract_x
 _atom_site_fract_y
 _atom_site_fract_z
 _atom_site_occupancy
  La  La0  1  0.860809  0.135578  0.677631  1
  La  La1  1  0.139191  0.864422  0.322369  1
  La  La2  1  0.384917  0.954462  0.725295  1
  La  La3  1  0.615083  0.045538  0.274705  1
  Tb  Tb4  1  0.469477  0.288407  0.584978  1
  Tb  Tb5  1  0.530523  0.711593  0.415022  1
  Os  Os6  1  0.500000  0.000000  0.500000  1
  I  I7  1  0.419673  0.623352  0.669796  1
  I  I8  1  0.580327  0.376648  0.330204  1
  I  I9  1  0.300496  0.265454  0.841878  1
  I  I10  1  0.699504  0.734546  0.158122  1
  I  I11  1  0.839624  0.458054  0.769145  1
  I  I12  1  0.160376  0.541946  0.230855  1
  I  I13  1  0.052860  0.185271  0.412712  1
  I  I14  1  0.242779  0.914486  0.038781  1
  I  I15  1  0.757221  0.085514  0.961219  1
  I  I16  1  0.947140  0.814729  0.587288  1
