# generated using pymatgen
data_YThGa2IrRh
_symmetry_space_group_name_H-M   'P 1'
_cell_length_a   4.37525000
_cell_length_b   6.92726200
_cell_length_c   7.93391400
_cell_angle_alpha   90.00000000
_cell_angle_beta   90.00000000
_cell_angle_gamma   90.00000000
_symmetry_Int_Tables_number   1
_chemical_formula_structural   YThGa2IrRh
_chemical_formula_sum   'Y2 Th2 Ga4 Ir2 Rh2'
_cell_volume   240.46505679
_cell_formula_units_Z   2
loop_
 _symmetry_equiv_pos_site_id
 _symmetry_equiv_pos_as_xyz
  1  'x, y, z'
loop_
 _atom_site_type_symbol
 _atom_site_label
 _atom_site_symmetry_multiplicity
 _atom_site_fract_x
 _atom_site_fract_y
 _atom_site_fract_z
 _atom_site_occupancy
  Y  Y0  1  0.750000  0.033856  0.692678  1
  Y  Y1  1  0.750000  0.533856  0.807322  1
  Th  Th2  1  0.250000  0.968856  0.319995  1
  Th  Th3  1  0.250000  0.468856  0.180005  1
  Ga  Ga4  1  0.250000  0.353352  0.575139  1
  Ga  Ga5  1  0.250000  0.853352  0.924861  1
  Ga  Ga6  1  0.750000  0.645149  0.441389  1
  Ga  Ga7  1  0.750000  0.145149  0.058611  1
  Ir  Ir8  1  0.750000  0.760362  0.119289  1
  Ir  Ir9  1  0.750000  0.260362  0.380711  1
  Rh  Rh10  1  0.250000  0.238425  0.891705  1
  Rh  Rh11  1  0.250000  0.738425  0.608295  1
