# generated using pymatgen
data_Pa2Si7(PdPt3)3
_symmetry_space_group_name_H-M   'P 1'
_cell_length_a   9.94444100
_cell_length_b   9.94444165
_cell_length_c   3.93334600
_cell_angle_alpha   90.00000000
_cell_angle_beta   90.00000000
_cell_angle_gamma   120.00000115
_symmetry_Int_Tables_number   1
_chemical_formula_structural   Pa2Si7(PdPt3)3
_chemical_formula_sum   'Pa2 Si7 Pd3 Pt9'
_cell_volume   336.86319028
_cell_formula_units_Z   1
loop_
 _symmetry_equiv_pos_site_id
 _symmetry_equiv_pos_as_xyz
  1  'x, y, z'
loop_
 _atom_site_type_symbol
 _atom_site_label
 _atom_site_symmetry_multiplicity
 _atom_site_fract_x
 _atom_site_fract_y
 _atom_site_fract_z
 _atom_site_occupancy
  Pa  Pa0  1  0.000000  0.000000  0.000000  1
  Pa  Pa1  1  0.333333  0.666667  0.500000  1
  Si  Si2  1  0.264803  0.221126  0.500000  1
  Si  Si3  1  0.778874  0.043678  0.500000  1
  Si  Si4  1  0.956322  0.735197  0.500000  1
  Si  Si5  1  0.557784  0.624060  0.000000  1
  Si  Si6  1  0.375940  0.933724  0.000000  1
  Si  Si7  1  0.066276  0.442216  0.000000  1
  Si  Si8  1  0.666667  0.333333  0.000000  1
  Pd  Pd9  1  0.881180  0.457012  0.500000  1
  Pd  Pd10  1  0.575833  0.118820  0.500000  1
  Pd  Pd11  1  0.542988  0.424167  0.500000  1
  Pt  Pt12  1  0.217030  0.946143  0.500000  1
  Pt  Pt13  1  0.053857  0.270889  0.500000  1
  Pt  Pt14  1  0.729111  0.782970  0.500000  1
  Pt  Pt15  1  0.298275  0.418907  0.000000  1
  Pt  Pt16  1  0.581093  0.879368  0.000000  1
  Pt  Pt17  1  0.120632  0.701725  0.000000  1
  Pt  Pt18  1  0.387985  0.180866  0.000000  1
  Pt  Pt19  1  0.819134  0.207119  0.000000  1
  Pt  Pt20  1  0.792881  0.612015  0.000000  1
