# generated using pymatgen
data_Cs4Ba2HfBi4
_symmetry_space_group_name_H-M   'P 1'
_cell_length_a   12.02560542
_cell_length_b   12.02560576
_cell_length_c   8.86710080
_cell_angle_alpha   87.85717985
_cell_angle_beta   87.85717827
_cell_angle_gamma   60.50663515
_symmetry_Int_Tables_number   1
_chemical_formula_structural   Cs4Ba2HfBi4
_chemical_formula_sum   'Cs8 Ba4 Hf2 Bi8'
_cell_volume   1115.09929684
_cell_formula_units_Z   2
loop_
 _symmetry_equiv_pos_site_id
 _symmetry_equiv_pos_as_xyz
  1  'x, y, z'
loop_
 _atom_site_type_symbol
 _atom_site_label
 _atom_site_symmetry_multiplicity
 _atom_site_fract_x
 _atom_site_fract_y
 _atom_site_fract_z
 _atom_site_occupancy
  Cs  Cs0  1  0.944672  0.528010  0.374341  1
  Cs  Cs1  1  0.528010  0.944672  0.374341  1
  Cs  Cs2  1  0.722600  0.131543  0.184846  1
  Cs  Cs3  1  0.131543  0.722600  0.184846  1
  Cs  Cs4  1  0.141603  0.141603  0.206093  1
  Cs  Cs5  1  0.273363  0.867369  0.687591  1
  Cs  Cs6  1  0.867369  0.273363  0.687591  1
  Cs  Cs7  1  0.853873  0.853873  0.639256  1
  Ba  Ba8  1  0.528801  0.528801  0.372625  1
  Ba  Ba9  1  0.058666  0.476280  0.882694  1
  Ba  Ba10  1  0.476280  0.058666  0.882694  1
  Ba  Ba11  1  0.477764  0.477764  0.871891  1
  Hf  Hf12  1  0.336482  0.336482  0.493525  1
  Hf  Hf13  1  0.663554  0.663554  0.978519  1
  Bi  Bi14  1  0.401759  0.793100  0.091505  1
  Bi  Bi15  1  0.793100  0.401759  0.091505  1
  Bi  Bi16  1  0.798360  0.798360  0.046801  1
  Bi  Bi17  1  0.593864  0.213783  0.603762  1
  Bi  Bi18  1  0.213783  0.593864  0.603762  1
  Bi  Bi19  1  0.208355  0.208355  0.628775  1
  Bi  Bi20  1  0.337433  0.337433  0.157837  1
  Bi  Bi21  1  0.649381  0.649381  0.658017  1
