# generated using pymatgen
data_TbAg6CO11
_symmetry_space_group_name_H-M   'P 1'
_cell_length_a   7.08258488
_cell_length_b   7.08258559
_cell_length_c   7.08258505
_cell_angle_alpha   61.33894270
_cell_angle_beta   61.33894463
_cell_angle_gamma   61.33894129
_symmetry_Int_Tables_number   1
_chemical_formula_structural   TbAg6CO11
_chemical_formula_sum   'Tb1 Ag6 C1 O11'
_cell_volume   258.78280550
_cell_formula_units_Z   1
loop_
 _symmetry_equiv_pos_site_id
 _symmetry_equiv_pos_as_xyz
  1  'x, y, z'
loop_
 _atom_site_type_symbol
 _atom_site_label
 _atom_site_symmetry_multiplicity
 _atom_site_fract_x
 _atom_site_fract_y
 _atom_site_fract_z
 _atom_site_occupancy
  Tb  Tb0  1  0.998930  0.998930  0.998930  1
  Ag  Ag1  1  0.499402  0.000428  0.000428  1
  Ag  Ag2  1  0.500389  0.500389  0.000734  1
  Ag  Ag3  1  0.500389  0.000734  0.500389  1
  Ag  Ag4  1  0.000428  0.000428  0.499402  1
  Ag  Ag5  1  0.000734  0.500389  0.500389  1
  Ag  Ag6  1  0.000428  0.499402  0.000428  1
  C  C7  1  0.499953  0.499953  0.499953  1
  O  O8  1  0.586546  0.143119  0.143119  1
  O  O9  1  0.143119  0.586546  0.143119  1
  O  O10  1  0.138727  0.138727  0.138727  1
  O  O11  1  0.143119  0.143119  0.586546  1
  O  O12  1  0.603009  0.603009  0.293749  1
  O  O13  1  0.603009  0.293749  0.603009  1
  O  O14  1  0.293749  0.603009  0.603009  1
  O  O15  1  0.858122  0.858122  0.410988  1
  O  O16  1  0.858122  0.410988  0.858122  1
  O  O17  1  0.860832  0.860832  0.860832  1
  O  O18  1  0.410988  0.858122  0.858122  1
