# generated using pymatgen
data_Pr4Dy(HoS4)3
_symmetry_space_group_name_H-M   'P 1'
_cell_length_a   3.99067000
_cell_length_b   10.55515436
_cell_length_c   10.87011600
_cell_angle_alpha   90.31286288
_cell_angle_beta   90.00000000
_cell_angle_gamma   90.00000000
_symmetry_Int_Tables_number   1
_chemical_formula_structural   Pr4Dy(HoS4)3
_chemical_formula_sum   'Pr4 Dy1 Ho3 S12'
_cell_volume   457.86569847
_cell_formula_units_Z   1
loop_
 _symmetry_equiv_pos_site_id
 _symmetry_equiv_pos_as_xyz
  1  'x, y, z'
loop_
 _atom_site_type_symbol
 _atom_site_label
 _atom_site_symmetry_multiplicity
 _atom_site_fract_x
 _atom_site_fract_y
 _atom_site_fract_z
 _atom_site_occupancy
  Pr  Pr0  1  0.750000  0.498792  0.694908  1
  Pr  Pr1  1  0.750000  0.002608  0.195270  1
  Pr  Pr2  1  0.250000  0.501275  0.305117  1
  Pr  Pr3  1  0.250000  0.997541  0.804359  1
  Dy  Dy4  1  0.750000  0.686708  0.008920  1
  Ho  Ho5  1  0.250000  0.187291  0.492312  1
  Ho  Ho6  1  0.250000  0.312687  0.991585  1
  Ho  Ho7  1  0.750000  0.813371  0.507597  1
  S  S8  1  0.250000  0.296753  0.731227  1
  S  S9  1  0.250000  0.203812  0.231636  1
  S  S10  1  0.750000  0.703238  0.268974  1
  S  S11  1  0.750000  0.795989  0.767938  1
  S  S12  1  0.750000  0.054226  0.612901  1
  S  S13  1  0.750000  0.444827  0.113308  1
  S  S14  1  0.250000  0.946384  0.387053  1
  S  S15  1  0.250000  0.553424  0.887449  1
  S  S16  1  0.250000  0.634131  0.543013  1
  S  S17  1  0.250000  0.867405  0.043273  1
  S  S18  1  0.750000  0.366260  0.456821  1
  S  S19  1  0.750000  0.133278  0.956341  1
