# generated using pymatgen
data_Sc22Tc3Hg2Os3
_symmetry_space_group_name_H-M   'P 1'
_cell_length_a   9.71613444
_cell_length_b   9.53958974
_cell_length_c   9.71678311
_cell_angle_alpha   60.25998040
_cell_angle_beta   58.67574754
_cell_angle_gamma   60.26039245
_symmetry_Int_Tables_number   1
_chemical_formula_structural   Sc22Tc3Hg2Os3
_chemical_formula_sum   'Sc22 Tc3 Hg2 Os3'
_cell_volume   632.64319251
_cell_formula_units_Z   1
loop_
 _symmetry_equiv_pos_site_id
 _symmetry_equiv_pos_as_xyz
  1  'x, y, z'
loop_
 _atom_site_type_symbol
 _atom_site_label
 _atom_site_symmetry_multiplicity
 _atom_site_fract_x
 _atom_site_fract_y
 _atom_site_fract_z
 _atom_site_occupancy
  Sc  Sc0  1  0.834819  0.858877  0.834830  1
  Sc  Sc1  1  0.528090  0.164691  0.141749  1
  Sc  Sc2  1  0.141757  0.164678  0.528083  1
  Sc  Sc3  1  0.165500  0.526369  0.165444  1
  Sc  Sc4  1  0.858243  0.835322  0.471917  1
  Sc  Sc5  1  0.834500  0.473631  0.834556  1
  Sc  Sc6  1  0.471910  0.835309  0.858251  1
  Sc  Sc7  1  0.165181  0.141123  0.165170  1
  Sc  Sc8  1  0.197437  0.801958  0.197444  1
  Sc  Sc9  1  0.193341  0.804976  0.806890  1
  Sc  Sc10  1  0.806659  0.195024  0.193110  1
  Sc  Sc11  1  0.806880  0.804993  0.193336  1
  Sc  Sc12  1  0.193120  0.195007  0.806664  1
  Sc  Sc13  1  0.802563  0.198042  0.802556  1
  Sc  Sc14  1  0.379764  0.393777  0.379755  1
  Sc  Sc15  1  0.154089  0.621475  0.607443  1
  Sc  Sc16  1  0.620783  0.151905  0.620788  1
  Sc  Sc17  1  0.607444  0.621480  0.154091  1
  Sc  Sc18  1  0.379217  0.848095  0.379212  1
  Sc  Sc19  1  0.392556  0.378520  0.845909  1
  Sc  Sc20  1  0.845911  0.378525  0.392557  1
  Sc  Sc21  1  0.620236  0.606223  0.620245  1
  Tc  Tc22  1  0.500000  0.500000  0.000000  1
  Tc  Tc23  1  0.000000  0.500000  0.500000  1
  Tc  Tc24  1  0.000000  0.000000  0.000000  1
  Hg  Hg25  1  0.500000  0.000000  0.500000  1
  Hg  Hg26  1  0.000000  0.500000  0.000000  1
  Os  Os27  1  0.000000  0.000000  0.500000  1
  Os  Os28  1  0.500000  0.000000  0.000000  1
  Os  Os29  1  0.500000  0.500000  0.500000  1
