# generated using pymatgen
data_Gd6Y3Er11Pb16
_symmetry_space_group_name_H-M   'P 1'
_cell_length_a   8.20476261
_cell_length_b   8.31485942
_cell_length_c   15.62544100
_cell_angle_alpha   90.11727409
_cell_angle_beta   89.72630506
_cell_angle_gamma   89.99911316
_symmetry_Int_Tables_number   1
_chemical_formula_structural   Gd6Y3Er11Pb16
_chemical_formula_sum   'Gd6 Y3 Er11 Pb16'
_cell_volume   1065.97581021
_cell_formula_units_Z   1
loop_
 _symmetry_equiv_pos_site_id
 _symmetry_equiv_pos_as_xyz
  1  'x, y, z'
loop_
 _atom_site_type_symbol
 _atom_site_label
 _atom_site_symmetry_multiplicity
 _atom_site_fract_x
 _atom_site_fract_y
 _atom_site_fract_z
 _atom_site_occupancy
  Gd  Gd0  1  0.526370  0.321953  0.096618  1
  Gd  Gd1  1  0.026724  0.177517  0.402829  1
  Gd  Gd2  1  0.525371  0.322225  0.403900  1
  Gd  Gd3  1  0.027007  0.177407  0.096617  1
  Gd  Gd4  1  0.474377  0.678924  0.903529  1
  Gd  Gd5  1  0.974373  0.820984  0.596316  1
  Y  Y6  1  0.133457  0.343010  0.622385  1
  Y  Y7  1  0.472294  0.678881  0.597454  1
  Y  Y8  1  0.971709  0.821743  0.902120  1
  Er  Er9  1  0.634148  0.157674  0.622903  1
  Er  Er10  1  0.133417  0.343222  0.877943  1
  Er  Er11  1  0.367287  0.843632  0.122069  1
  Er  Er12  1  0.866142  0.656774  0.377633  1
  Er  Er13  1  0.367008  0.843195  0.377014  1
  Er  Er14  1  0.867510  0.656579  0.122235  1
  Er  Er15  1  0.632842  0.156010  0.877811  1
  Er  Er16  1  0.799647  0.496001  0.750459  1
  Er  Er17  1  0.300055  0.004025  0.750433  1
  Er  Er18  1  0.200208  0.504623  0.249804  1
  Er  Er19  1  0.700194  0.995863  0.249419  1
  Pb  Pb20  1  0.708412  0.960605  0.456855  1
  Pb  Pb21  1  0.209601  0.539387  0.043107  1
  Pb  Pb22  1  0.288984  0.037180  0.956458  1
  Pb  Pb23  1  0.788358  0.462650  0.543559  1
  Pb  Pb24  1  0.293132  0.037537  0.543177  1
  Pb  Pb25  1  0.791155  0.460900  0.956756  1
  Pb  Pb26  1  0.711243  0.959598  0.042442  1
  Pb  Pb27  1  0.209515  0.541700  0.456939  1
  Pb  Pb28  1  0.439182  0.373860  0.750950  1
  Pb  Pb29  1  0.938428  0.125573  0.750981  1
  Pb  Pb30  1  0.561371  0.626509  0.249246  1
  Pb  Pb31  1  0.060958  0.873273  0.249988  1
  Pb  Pb32  1  0.661267  0.845524  0.749141  1
  Pb  Pb33  1  0.161325  0.655060  0.750448  1
  Pb  Pb34  1  0.338679  0.154403  0.250162  1
  Pb  Pb35  1  0.838250  0.346003  0.250301  1
