# generated using pymatgen
data_Er2Fe4CoB4
_symmetry_space_group_name_H-M   'P 1'
_cell_length_a   7.12536091
_cell_length_b   5.94576533
_cell_length_c   5.28239573
_cell_angle_alpha   78.53572187
_cell_angle_beta   54.86544649
_cell_angle_gamma   46.59881880
_symmetry_Int_Tables_number   1
_chemical_formula_structural   Er2Fe4CoB4
_chemical_formula_sum   'Er2 Fe4 Co1 B4'
_cell_volume   125.47852879
_cell_formula_units_Z   1
loop_
 _symmetry_equiv_pos_site_id
 _symmetry_equiv_pos_as_xyz
  1  'x, y, z'
loop_
 _atom_site_type_symbol
 _atom_site_label
 _atom_site_symmetry_multiplicity
 _atom_site_fract_x
 _atom_site_fract_y
 _atom_site_fract_z
 _atom_site_occupancy
  Er  Er0  1  0.854185  0.854184  0.145816  1
  Er  Er1  1  0.145816  0.145816  0.854184  1
  Fe  Fe2  1  0.499943  0.499946  0.000055  1
  Fe  Fe3  1  0.000055  0.000055  0.499945  1
  Fe  Fe4  1  0.500000  0.499999  0.500000  1
  Fe  Fe5  1  0.749999  0.750002  0.750000  1
  Co  Co6  1  0.249998  0.250001  0.250001  1
  B  B7  1  0.484849  0.783482  0.209555  1
  B  B8  1  0.209555  0.522114  0.484849  1
  B  B9  1  0.783482  0.484849  0.522114  1
  B  B10  1  0.522114  0.209555  0.783482  1
