# generated using pymatgen
data_Dy4(Al8Ni3)3
_symmetry_space_group_name_H-M   'P 1'
_cell_length_a   7.30673364
_cell_length_b   7.33911604
_cell_length_c   12.76653023
_cell_angle_alpha   84.56334189
_cell_angle_beta   79.06307109
_cell_angle_gamma   59.95018051
_symmetry_Int_Tables_number   1
_chemical_formula_structural   Dy4(Al8Ni3)3
_chemical_formula_sum   'Dy4 Al24 Ni9'
_cell_volume   581.82383573
_cell_formula_units_Z   1
loop_
 _symmetry_equiv_pos_site_id
 _symmetry_equiv_pos_as_xyz
  1  'x, y, z'
loop_
 _atom_site_type_symbol
 _atom_site_label
 _atom_site_symmetry_multiplicity
 _atom_site_fract_x
 _atom_site_fract_y
 _atom_site_fract_z
 _atom_site_occupancy
  Dy  Dy0  1  0.394083  0.168620  0.804868  1
  Dy  Dy1  1  0.605917  0.831380  0.195132  1
  Dy  Dy2  1  0.735142  0.497798  0.804957  1
  Dy  Dy3  1  0.264858  0.502202  0.195043  1
  Al  Al4  1  0.680624  0.833533  0.947995  1
  Al  Al5  1  0.319376  0.166467  0.052005  1
  Al  Al6  1  0.145865  0.833367  0.559643  1
  Al  Al7  1  0.854135  0.166633  0.440357  1
  Al  Al8  1  0.480739  0.166796  0.557212  1
  Al  Al9  1  0.519261  0.833204  0.442788  1
  Al  Al10  1  0.214733  0.165646  0.336915  1
  Al  Al11  1  0.785267  0.834354  0.663085  1
  Al  Al12  1  0.439024  0.506977  0.663142  1
  Al  Al13  1  0.560976  0.493023  0.336858  1
  Al  Al14  1  0.111819  0.159085  0.661710  1
  Al  Al15  1  0.888181  0.840915  0.338290  1
  Al  Al16  1  0.354163  0.496718  0.947999  1
  Al  Al17  1  0.645837  0.503282  0.052001  1
  Al  Al18  1  0.012888  0.169503  0.961514  1
  Al  Al19  1  0.987112  0.830497  0.038486  1
  Al  Al20  1  0.186225  0.499884  0.442657  1
  Al  Al21  1  0.813775  0.500116  0.557343  1
  Al  Al22  1  0.729146  0.163967  0.184870  1
  Al  Al23  1  0.270854  0.836033  0.815130  1
  Al  Al24  1  0.061925  0.626794  0.813901  1
  Al  Al25  1  0.938075  0.373206  0.186099  1
  Al  Al26  1  0.851642  0.045907  0.815472  1
  Al  Al27  1  0.148358  0.954093  0.184528  1
  Ni  Ni28  1  0.119900  0.492639  0.637603  1
  Ni  Ni29  1  0.880100  0.507361  0.362397  1
  Ni  Ni30  1  0.658953  0.170405  0.000178  1
  Ni  Ni31  1  0.341047  0.829595  0.999822  1
  Ni  Ni32  1  0.538489  0.167071  0.362470  1
  Ni  Ni33  1  0.461511  0.832929  0.637530  1
  Ni  Ni34  1  0.778664  0.174190  0.637571  1
  Ni  Ni35  1  0.221336  0.825810  0.362429  1
  Ni  Ni36  1  0.000000  0.500000  0.000000  1
