# generated using pymatgen
data_TbY3(Al3Ni)4
_symmetry_space_group_name_H-M   'P 1'
_cell_length_a   4.03322800
_cell_length_b   8.17024924
_cell_length_c   10.70522732
_cell_angle_alpha   89.97195896
_cell_angle_beta   90.00000000
_cell_angle_gamma   90.00000000
_symmetry_Int_Tables_number   1
_chemical_formula_structural   TbY3(Al3Ni)4
_chemical_formula_sum   'Tb1 Y3 Al12 Ni4'
_cell_volume   352.76372574
_cell_formula_units_Z   1
loop_
 _symmetry_equiv_pos_site_id
 _symmetry_equiv_pos_as_xyz
  1  'x, y, z'
loop_
 _atom_site_type_symbol
 _atom_site_label
 _atom_site_symmetry_multiplicity
 _atom_site_fract_x
 _atom_site_fract_y
 _atom_site_fract_z
 _atom_site_occupancy
  Tb  Tb0  1  0.250000  0.184319  0.991975  1
  Y  Y1  1  0.750000  0.315840  0.491829  1
  Y  Y2  1  0.250000  0.684022  0.508006  1
  Y  Y3  1  0.750000  0.816005  0.008086  1
  Al  Al4  1  0.750000  0.444266  0.916991  1
  Al  Al5  1  0.250000  0.555740  0.083070  1
  Al  Al6  1  0.750000  0.944193  0.582956  1
  Al  Al7  1  0.250000  0.055831  0.416980  1
  Al  Al8  1  0.750000  0.614646  0.286060  1
  Al  Al9  1  0.250000  0.885302  0.785712  1
  Al  Al10  1  0.750000  0.114403  0.214006  1
  Al  Al11  1  0.250000  0.356035  0.278069  1
  Al  Al12  1  0.750000  0.644020  0.721959  1
  Al  Al13  1  0.250000  0.855839  0.222156  1
  Al  Al14  1  0.250000  0.385617  0.713910  1
  Al  Al15  1  0.750000  0.143859  0.777762  1
  Ni  Ni16  1  0.750000  0.894405  0.357199  1
  Ni  Ni17  1  0.750000  0.394161  0.143205  1
  Ni  Ni18  1  0.250000  0.605455  0.857037  1
  Ni  Ni19  1  0.250000  0.106042  0.643031  1
