# generated using pymatgen
data_Ti5GaSnSb
_symmetry_space_group_name_H-M   'P 1'
_cell_length_a   5.18935564
_cell_length_b   7.86711568
_cell_length_c   7.87404294
_cell_angle_alpha   83.73613199
_cell_angle_beta   70.75509347
_cell_angle_gamma   70.75450911
_symmetry_Int_Tables_number   1
_chemical_formula_structural   Ti5GaSnSb
_chemical_formula_sum   'Ti10 Ga2 Sn2 Sb2'
_cell_volume   286.53521211
_cell_formula_units_Z   2
loop_
 _symmetry_equiv_pos_site_id
 _symmetry_equiv_pos_as_xyz
  1  'x, y, z'
loop_
 _atom_site_type_symbol
 _atom_site_label
 _atom_site_symmetry_multiplicity
 _atom_site_fract_x
 _atom_site_fract_y
 _atom_site_fract_z
 _atom_site_occupancy
  Ti  Ti0  1  0.717098  0.857729  0.707904  1
  Ti  Ti1  1  0.282902  0.142271  0.292096  1
  Ti  Ti2  1  0.782766  0.291291  0.143636  1
  Ti  Ti3  1  0.217234  0.708709  0.856364  1
  Ti  Ti4  1  0.573609  0.708510  0.143542  1
  Ti  Ti5  1  0.426391  0.291490  0.856458  1
  Ti  Ti6  1  0.074780  0.142196  0.707731  1
  Ti  Ti7  1  0.925220  0.857804  0.292269  1
  Ti  Ti8  1  0.751408  0.500047  0.499901  1
  Ti  Ti9  1  0.248592  0.499953  0.500099  1
  Ga  Ga10  1  0.249982  0.999971  0.999983  1
  Ga  Ga11  1  0.750018  0.000029  0.000017  1
  Sn  Sn12  1  0.165081  0.500012  0.169713  1
  Sn  Sn13  1  0.834919  0.499988  0.830287  1
  Sb  Sb14  1  0.335575  0.828770  0.500011  1
  Sb  Sb15  1  0.664425  0.171230  0.499989  1
