# generated using pymatgen
data_CaP6W2O21
_symmetry_space_group_name_H-M   'P 1'
_cell_length_a   8.63247056
_cell_length_b   8.63247046
_cell_length_c   12.61150200
_cell_angle_alpha   85.22598591
_cell_angle_beta   85.22598596
_cell_angle_gamma   77.24131478
_symmetry_Int_Tables_number   1
_chemical_formula_structural   CaP6W2O21
_chemical_formula_sum   'Ca2 P12 W4 O42'
_cell_volume   911.38337389
_cell_formula_units_Z   2
loop_
 _symmetry_equiv_pos_site_id
 _symmetry_equiv_pos_as_xyz
  1  'x, y, z'
loop_
 _atom_site_type_symbol
 _atom_site_label
 _atom_site_symmetry_multiplicity
 _atom_site_fract_x
 _atom_site_fract_y
 _atom_site_fract_z
 _atom_site_occupancy
  Ca  Ca0  1  0.225254  0.225254  0.862297  1
  Ca  Ca1  1  0.774746  0.774746  0.137703  1
  P  P2  1  0.677774  0.202659  0.103655  1
  P  P3  1  0.140347  0.140347  0.588032  1
  P  P4  1  0.344790  0.344790  0.454055  1
  P  P5  1  0.202659  0.677774  0.103655  1
  P  P6  1  0.350003  0.870349  0.235444  1
  P  P7  1  0.649997  0.129651  0.764556  1
  P  P8  1  0.322226  0.797341  0.896345  1
  P  P9  1  0.655210  0.655210  0.545945  1
  P  P10  1  0.129651  0.649997  0.764556  1
  P  P11  1  0.870349  0.350003  0.235444  1
  P  P12  1  0.859653  0.859653  0.411968  1
  P  P13  1  0.797341  0.322226  0.896345  1
  W  W14  1  0.286261  0.286261  0.182972  1
  W  W15  1  0.245439  0.754561  0.500000  1
  W  W16  1  0.754561  0.245439  0.500000  1
  W  W17  1  0.713739  0.713739  0.817028  1
  O  O18  1  0.297859  0.812165  0.352480  1
  O  O19  1  0.187835  0.702141  0.647520  1
  O  O20  1  0.827499  0.220198  0.164604  1
  O  O21  1  0.172501  0.779802  0.835396  1
  O  O22  1  0.016840  0.782876  0.464648  1
  O  O23  1  0.726480  0.726480  0.954361  1
  O  O24  1  0.269016  0.529694  0.174039  1
  O  O25  1  0.295760  0.962882  0.928455  1
  O  O26  1  0.983160  0.217124  0.535352  1
  O  O27  1  0.217124  0.983160  0.535352  1
  O  O28  1  0.812165  0.297859  0.352480  1
  O  O29  1  0.529694  0.269016  0.174039  1
  O  O30  1  0.477554  0.715115  0.530449  1
  O  O31  1  0.702141  0.187835  0.647520  1
  O  O32  1  0.220198  0.827499  0.164604  1
  O  O33  1  0.962882  0.295760  0.928455  1
  O  O34  1  0.788351  0.514574  0.203076  1
  O  O35  1  0.302828  0.302828  0.347941  1
  O  O36  1  0.730984  0.470306  0.825961  1
  O  O37  1  0.485426  0.211649  0.796924  1
  O  O38  1  0.131091  0.131091  0.706625  1
  O  O39  1  0.949292  0.689269  0.769664  1
  O  O40  1  0.704240  0.037118  0.071545  1
  O  O41  1  0.470306  0.730984  0.825961  1
  O  O42  1  0.211649  0.485426  0.796924  1
  O  O43  1  0.522446  0.284885  0.469551  1
  O  O44  1  0.715115  0.477554  0.530449  1
  O  O45  1  0.689269  0.949292  0.769664  1
  O  O46  1  0.782876  0.016840  0.464648  1
  O  O47  1  0.672955  0.327045  0.000000  1
  O  O48  1  0.779802  0.172501  0.835396  1
  O  O49  1  0.258600  0.258600  0.549884  1
  O  O50  1  0.514574  0.788351  0.203076  1
  O  O51  1  0.310731  0.050708  0.230336  1
  O  O52  1  0.273520  0.273520  0.045639  1
  O  O53  1  0.284885  0.522446  0.469551  1
  O  O54  1  0.037118  0.704240  0.071545  1
  O  O55  1  0.868909  0.868909  0.293375  1
  O  O56  1  0.741400  0.741400  0.450116  1
  O  O57  1  0.697172  0.697172  0.652059  1
  O  O58  1  0.050708  0.310731  0.230336  1
  O  O59  1  0.327045  0.672955  0.000000  1
