# generated using pymatgen
data_Ho6Tm9Lu(CdPt)4
_symmetry_space_group_name_H-M   'P 1'
_cell_length_a   9.58134301
_cell_length_b   9.58134356
_cell_length_c   9.58186000
_cell_angle_alpha   59.99821696
_cell_angle_beta   59.99821506
_cell_angle_gamma   59.94848536
_symmetry_Int_Tables_number   1
_chemical_formula_structural   Ho6Tm9Lu(CdPt)4
_chemical_formula_sum   'Ho6 Tm9 Lu1 Cd4 Pt4'
_cell_volume   621.73677545
_cell_formula_units_Z   1
loop_
 _symmetry_equiv_pos_site_id
 _symmetry_equiv_pos_as_xyz
  1  'x, y, z'
loop_
 _atom_site_type_symbol
 _atom_site_label
 _atom_site_symmetry_multiplicity
 _atom_site_fract_x
 _atom_site_fract_y
 _atom_site_fract_z
 _atom_site_occupancy
  Ho  Ho0  1  0.185800  0.814213  0.813997  1
  Ho  Ho1  1  0.814213  0.185800  0.185990  1
  Ho  Ho2  1  0.814213  0.185800  0.813997  1
  Ho  Ho3  1  0.185800  0.814213  0.185990  1
  Ho  Ho4  1  0.814882  0.814882  0.185118  1
  Ho  Ho5  1  0.186728  0.186728  0.813272  1
  Tm  Tm6  1  0.602286  0.602286  0.600688  1
  Tm  Tm7  1  0.602286  0.602286  0.194739  1
  Tm  Tm8  1  0.604473  0.190959  0.602284  1
  Tm  Tm9  1  0.190959  0.604473  0.602284  1
  Tm  Tm10  1  0.060885  0.438729  0.439676  1
  Tm  Tm11  1  0.438729  0.060885  0.060710  1
  Tm  Tm12  1  0.438729  0.060885  0.439676  1
  Tm  Tm13  1  0.060885  0.438729  0.060710  1
  Tm  Tm14  1  0.439741  0.439741  0.060259  1
  Lu  Lu15  1  0.061147  0.061147  0.438853  1
  Cd  Cd16  1  0.831453  0.831453  0.831839  1
  Cd  Cd17  1  0.831453  0.831453  0.505255  1
  Cd  Cd18  1  0.831439  0.504719  0.831921  1
  Cd  Cd19  1  0.504719  0.831439  0.831921  1
  Pt  Pt20  1  0.393096  0.393096  0.394123  1
  Pt  Pt21  1  0.393096  0.393096  0.819683  1
  Pt  Pt22  1  0.391658  0.821328  0.393507  1
  Pt  Pt23  1  0.821328  0.391658  0.393507  1
