# generated using pymatgen
data_Lu11ScSi12Rh3Au
_symmetry_space_group_name_H-M   'P 1'
_cell_length_a   4.15097700
_cell_length_b   10.57520456
_cell_length_c   12.07386268
_cell_angle_alpha   89.92113721
_cell_angle_beta   90.00000000
_cell_angle_gamma   90.00000000
_symmetry_Int_Tables_number   1
_chemical_formula_structural   Lu11ScSi12Rh3Au
_chemical_formula_sum   'Lu11 Sc1 Si12 Rh3 Au1'
_cell_volume   530.01105037
_cell_formula_units_Z   1
loop_
 _symmetry_equiv_pos_site_id
 _symmetry_equiv_pos_as_xyz
  1  'x, y, z'
loop_
 _atom_site_type_symbol
 _atom_site_label
 _atom_site_symmetry_multiplicity
 _atom_site_fract_x
 _atom_site_fract_y
 _atom_site_fract_z
 _atom_site_occupancy
  Lu  Lu0  1  0.250000  0.879253  0.023835  1
  Lu  Lu1  1  0.250000  0.625987  0.516256  1
  Lu  Lu2  1  0.750000  0.120670  0.982540  1
  Lu  Lu3  1  0.750000  0.378224  0.477902  1
  Lu  Lu4  1  0.250000  0.921679  0.598370  1
  Lu  Lu5  1  0.250000  0.580197  0.103811  1
  Lu  Lu6  1  0.750000  0.078320  0.395312  1
  Lu  Lu7  1  0.750000  0.420510  0.899335  1
  Lu  Lu8  1  0.250000  0.667019  0.802875  1
  Lu  Lu9  1  0.750000  0.341251  0.199557  1
  Lu  Lu10  1  0.750000  0.155357  0.699547  1
  Sc  Sc11  1  0.250000  0.840709  0.299115  1
  Si  Si12  1  0.250000  0.011686  0.823061  1
  Si  Si13  1  0.250000  0.484800  0.324353  1
  Si  Si14  1  0.750000  0.983198  0.178696  1
  Si  Si15  1  0.750000  0.527133  0.675296  1
  Si  Si16  1  0.250000  0.240953  0.848470  1
  Si  Si17  1  0.250000  0.251360  0.340561  1
  Si  Si18  1  0.750000  0.752624  0.162866  1
  Si  Si19  1  0.750000  0.753503  0.656321  1
  Si  Si20  1  0.250000  0.185159  0.536534  1
  Si  Si21  1  0.250000  0.302799  0.045069  1
  Si  Si22  1  0.750000  0.804196  0.450519  1
  Si  Si23  1  0.750000  0.698123  0.960471  1
  Rh  Rh24  1  0.250000  0.107457  0.181318  1
  Rh  Rh25  1  0.750000  0.609143  0.319604  1
  Rh  Rh26  1  0.750000  0.890676  0.818897  1
  Au  Au27  1  0.250000  0.388013  0.679511  1
