# generated using pymatgen
data_Tm7Lu(B6Rh)4
_symmetry_space_group_name_H-M   'P 1'
_cell_length_a   3.61353300
_cell_length_b   9.10613209
_cell_length_c   11.43088012
_cell_angle_alpha   89.98357868
_cell_angle_beta   90.00000000
_cell_angle_gamma   90.00000000
_symmetry_Int_Tables_number   1
_chemical_formula_structural   Tm7Lu(B6Rh)4
_chemical_formula_sum   'Tm7 Lu1 B24 Rh4'
_cell_volume   376.13662492
_cell_formula_units_Z   1
loop_
 _symmetry_equiv_pos_site_id
 _symmetry_equiv_pos_as_xyz
  1  'x, y, z'
loop_
 _atom_site_type_symbol
 _atom_site_label
 _atom_site_symmetry_multiplicity
 _atom_site_fract_x
 _atom_site_fract_y
 _atom_site_fract_z
 _atom_site_occupancy
  Tm  Tm0  1  0.500000  0.321691  0.413570  1
  Tm  Tm1  1  0.500000  0.678290  0.586102  1
  Tm  Tm2  1  0.500000  0.177944  0.913701  1
  Tm  Tm3  1  0.500000  0.822037  0.086500  1
  Tm  Tm4  1  0.500000  0.444324  0.126766  1
  Tm  Tm5  1  0.500000  0.555626  0.873409  1
  Tm  Tm6  1  0.500000  0.055557  0.626384  1
  Lu  Lu7  1  0.500000  0.944235  0.373278  1
  B  B8  1  0.000000  0.108163  0.470197  1
  B  B9  1  0.000000  0.891504  0.528980  1
  B  B10  1  0.000000  0.390599  0.970394  1
  B  B11  1  0.000000  0.609420  0.029750  1
  B  B12  1  0.000000  0.132511  0.316663  1
  B  B13  1  0.000000  0.867006  0.683314  1
  B  B14  1  0.000000  0.366892  0.816447  1
  B  B15  1  0.000000  0.633198  0.183717  1
  B  B16  1  0.000000  0.053702  0.065266  1
  B  B17  1  0.000000  0.946193  0.934990  1
  B  B18  1  0.000000  0.446218  0.564963  1
  B  B19  1  0.000000  0.554098  0.434828  1
  B  B20  1  0.000000  0.482340  0.287043  1
  B  B21  1  0.000000  0.517692  0.712997  1
  B  B22  1  0.000000  0.017703  0.786884  1
  B  B23  1  0.000000  0.982006  0.213536  1
  B  B24  1  0.000000  0.249748  0.079205  1
  B  B25  1  0.000000  0.750166  0.920953  1
  B  B26  1  0.000000  0.249953  0.578867  1
  B  B27  1  0.000000  0.750657  0.420795  1
  B  B28  1  0.000000  0.294586  0.236415  1
  B  B29  1  0.000000  0.705262  0.763624  1
  B  B30  1  0.000000  0.205174  0.736162  1
  B  B31  1  0.000000  0.795320  0.264086  1
  Rh  Rh32  1  0.500000  0.139363  0.179197  1
  Rh  Rh33  1  0.500000  0.860205  0.821050  1
  Rh  Rh34  1  0.500000  0.360142  0.678778  1
  Rh  Rh35  1  0.500000  0.640476  0.321190  1
