# generated using pymatgen
data_Nd3Er5(Si3Pt)4
_symmetry_space_group_name_H-M   'P 1'
_cell_length_a   8.16323662
_cell_length_b   8.16323768
_cell_length_c   8.28188300
_cell_angle_alpha   90.00000000
_cell_angle_beta   90.00000000
_cell_angle_gamma   120.12185564
_symmetry_Int_Tables_number   1
_chemical_formula_structural   Nd3Er5(Si3Pt)4
_chemical_formula_sum   'Nd3 Er5 Si12 Pt4'
_cell_volume   477.36433526
_cell_formula_units_Z   1
loop_
 _symmetry_equiv_pos_site_id
 _symmetry_equiv_pos_as_xyz
  1  'x, y, z'
loop_
 _atom_site_type_symbol
 _atom_site_label
 _atom_site_symmetry_multiplicity
 _atom_site_fract_x
 _atom_site_fract_y
 _atom_site_fract_z
 _atom_site_occupancy
  Nd  Nd0  1  0.000033  0.999967  0.250000  1
  Nd  Nd1  1  0.000007  0.999993  0.750000  1
  Nd  Nd2  1  0.498360  0.501640  0.250000  1
  Er  Er3  1  0.498358  0.997005  0.250000  1
  Er  Er4  1  0.002995  0.501642  0.250000  1
  Er  Er5  1  0.501709  0.498291  0.750000  1
  Er  Er6  1  0.996392  0.498132  0.750000  1
  Er  Er7  1  0.501868  0.003608  0.750000  1
  Si  Si8  1  0.834035  0.165965  0.498993  1
  Si  Si9  1  0.833893  0.667028  0.501077  1
  Si  Si10  1  0.332972  0.166107  0.501077  1
  Si  Si11  1  0.834035  0.165965  0.001007  1
  Si  Si12  1  0.833893  0.667028  0.998923  1
  Si  Si13  1  0.332972  0.166107  0.998923  1
  Si  Si14  1  0.166072  0.833928  0.999152  1
  Si  Si15  1  0.667085  0.833978  0.996812  1
  Si  Si16  1  0.166022  0.332915  0.996812  1
  Si  Si17  1  0.166072  0.833928  0.500848  1
  Si  Si18  1  0.667085  0.833978  0.503188  1
  Si  Si19  1  0.166022  0.332915  0.503188  1
  Pt  Pt20  1  0.667934  0.332066  0.501518  1
  Pt  Pt21  1  0.667934  0.332066  0.998482  1
  Pt  Pt22  1  0.332126  0.667874  0.991874  1
  Pt  Pt23  1  0.332126  0.667874  0.508126  1
