# generated using pymatgen
data_Ho3ErGa17SiIr6
_symmetry_space_group_name_H-M   'P 1'
_cell_length_a   7.56902489
_cell_length_b   7.55097167
_cell_length_c   9.46478104
_cell_angle_alpha   90.07184482
_cell_angle_beta   89.77696329
_cell_angle_gamma   119.85221200
_symmetry_Int_Tables_number   1
_chemical_formula_structural   Ho3ErGa17SiIr6
_chemical_formula_sum   'Ho3 Er1 Ga17 Si1 Ir6'
_cell_volume   469.16475893
_cell_formula_units_Z   1
loop_
 _symmetry_equiv_pos_site_id
 _symmetry_equiv_pos_as_xyz
  1  'x, y, z'
loop_
 _atom_site_type_symbol
 _atom_site_label
 _atom_site_symmetry_multiplicity
 _atom_site_fract_x
 _atom_site_fract_y
 _atom_site_fract_z
 _atom_site_occupancy
  Ho  Ho0  1  0.002091  0.330397  0.751392  1
  Ho  Ho1  1  0.675854  0.004139  0.248140  1
  Ho  Ho2  1  0.329079  0.001784  0.749080  1
  Er  Er3  1  0.997450  0.664396  0.248018  1
  Ga  Ga4  1  0.130503  0.129316  0.250796  1
  Ga  Ga5  1  0.871687  0.873983  0.750832  1
  Ga  Ga6  1  0.998544  0.670720  0.917187  1
  Ga  Ga7  1  0.000074  0.665311  0.580505  1
  Ga  Ga8  1  0.334102  0.997394  0.418514  1
  Ga  Ga9  1  0.000500  0.335153  0.420355  1
  Ga  Ga10  1  0.664858  0.000164  0.580631  1
  Ga  Ga11  1  0.657434  0.994532  0.917238  1
  Ga  Ga12  1  0.333666  0.997383  0.081797  1
  Ga  Ga13  1  0.332229  0.331322  0.564956  1
  Ga  Ga14  1  0.669623  0.669989  0.433819  1
  Ga  Ga15  1  0.668569  0.670171  0.068894  1
  Ga  Ga16  1  0.338158  0.332261  0.933463  1
  Ga  Ga17  1  0.341896  0.547853  0.251713  1
  Ga  Ga18  1  0.661056  0.451338  0.751163  1
  Ga  Ga19  1  0.547674  0.339577  0.250860  1
  Ga  Ga20  1  0.450967  0.658157  0.750553  1
  Si  Si21  1  0.999789  0.334752  0.072742  1
  Ir  Ir22  1  0.683838  0.329531  0.003573  1
  Ir  Ir23  1  0.312756  0.656520  0.001729  1
  Ir  Ir24  1  0.328158  0.671220  0.500734  1
  Ir  Ir25  1  0.671711  0.328269  0.500065  1
  Ir  Ir26  1  0.998021  0.014244  0.001389  1
  Ir  Ir27  1  0.999717  0.000121  0.499862  1
