# generated using pymatgen
data_CsMn6Se7
_symmetry_space_group_name_H-M   'P 1'
_cell_length_a   9.34082591
_cell_length_b   9.34082617
_cell_length_c   9.34082451
_cell_angle_alpha   62.47036784
_cell_angle_beta   62.47036389
_cell_angle_gamma   62.47036472
_symmetry_Int_Tables_number   1
_chemical_formula_structural   CsMn6Se7
_chemical_formula_sum   'Cs2 Mn12 Se14'
_cell_volume   608.02297125
_cell_formula_units_Z   2
loop_
 _symmetry_equiv_pos_site_id
 _symmetry_equiv_pos_as_xyz
  1  'x, y, z'
loop_
 _atom_site_type_symbol
 _atom_site_label
 _atom_site_symmetry_multiplicity
 _atom_site_fract_x
 _atom_site_fract_y
 _atom_site_fract_z
 _atom_site_occupancy
  Cs  Cs0  1  0.386969  0.386969  0.386969  1
  Cs  Cs1  1  0.613031  0.613031  0.613031  1
  Mn  Mn2  1  0.294081  0.125127  0.003434  1
  Mn  Mn3  1  0.186080  0.895219  0.059455  1
  Mn  Mn4  1  0.895219  0.059455  0.186080  1
  Mn  Mn5  1  0.940545  0.813920  0.104781  1
  Mn  Mn6  1  0.813920  0.104781  0.940545  1
  Mn  Mn7  1  0.104781  0.940545  0.813920  1
  Mn  Mn8  1  0.003434  0.294081  0.125127  1
  Mn  Mn9  1  0.874873  0.996566  0.705919  1
  Mn  Mn10  1  0.125127  0.003434  0.294081  1
  Mn  Mn11  1  0.996566  0.705919  0.874873  1
  Mn  Mn12  1  0.705919  0.874873  0.996566  1
  Mn  Mn13  1  0.059455  0.186080  0.895219  1
  Se  Se14  1  0.983435  0.226993  0.658472  1
  Se  Se15  1  0.226993  0.658472  0.983435  1
  Se  Se16  1  0.658472  0.983435  0.226993  1
  Se  Se17  1  0.016565  0.773007  0.341528  1
  Se  Se18  1  0.773007  0.341528  0.016565  1
  Se  Se19  1  0.341528  0.016565  0.773007  1
  Se  Se20  1  0.165760  0.409140  0.827675  1
  Se  Se21  1  0.409140  0.827675  0.165760  1
  Se  Se22  1  0.827675  0.165760  0.409140  1
  Se  Se23  1  0.834240  0.590860  0.172325  1
  Se  Se24  1  0.590860  0.172325  0.834240  1
  Se  Se25  1  0.172325  0.834240  0.590860  1
  Se  Se26  1  0.775510  0.775510  0.775510  1
  Se  Se27  1  0.224490  0.224490  0.224490  1
