# generated using pymatgen
data_Tb9Y(SnSb)4
_symmetry_space_group_name_H-M   'P 1'
_cell_length_a   8.13712200
_cell_length_b   8.19237500
_cell_length_c   15.52865900
_cell_angle_alpha   90.00000000
_cell_angle_beta   90.00000000
_cell_angle_gamma   90.00000000
_symmetry_Int_Tables_number   1
_chemical_formula_structural   Tb9Y(SnSb)4
_chemical_formula_sum   'Tb18 Y2 Sn8 Sb8'
_cell_volume   1035.17697652
_cell_formula_units_Z   2
loop_
 _symmetry_equiv_pos_site_id
 _symmetry_equiv_pos_as_xyz
  1  'x, y, z'
loop_
 _atom_site_type_symbol
 _atom_site_label
 _atom_site_symmetry_multiplicity
 _atom_site_fract_x
 _atom_site_fract_y
 _atom_site_fract_z
 _atom_site_occupancy
  Tb  Tb0  1  0.390973  0.838558  0.881097  1
  Tb  Tb1  1  0.890973  0.661442  0.618903  1
  Tb  Tb2  1  0.609128  0.161358  0.381144  1
  Tb  Tb3  1  0.109128  0.338642  0.118856  1
  Tb  Tb4  1  0.609128  0.161358  0.118856  1
  Tb  Tb5  1  0.109128  0.338642  0.381144  1
  Tb  Tb6  1  0.390973  0.838558  0.618903  1
  Tb  Tb7  1  0.890973  0.661442  0.881097  1
  Tb  Tb8  1  0.556736  0.329517  0.892071  1
  Tb  Tb9  1  0.056736  0.170483  0.607929  1
  Tb  Tb10  1  0.443185  0.670394  0.392135  1
  Tb  Tb11  1  0.943185  0.829606  0.107865  1
  Tb  Tb12  1  0.443185  0.670394  0.107865  1
  Tb  Tb13  1  0.943185  0.829606  0.392135  1
  Tb  Tb14  1  0.556736  0.329517  0.607929  1
  Tb  Tb15  1  0.056736  0.170483  0.892071  1
  Tb  Tb16  1  0.222256  0.499116  0.750000  1
  Tb  Tb17  1  0.722256  0.000884  0.750000  1
  Y  Y18  1  0.777606  0.500812  0.250000  1
  Y  Y19  1  0.277606  0.999188  0.250000  1
  Sn  Sn20  1  0.588033  0.627477  0.750000  1
  Sn  Sn21  1  0.088033  0.872523  0.750000  1
  Sn  Sn22  1  0.412060  0.372474  0.250000  1
  Sn  Sn23  1  0.912060  0.127526  0.250000  1
  Sn  Sn24  1  0.359434  0.142112  0.750000  1
  Sn  Sn25  1  0.859434  0.357888  0.750000  1
  Sn  Sn26  1  0.640464  0.857752  0.250000  1
  Sn  Sn27  1  0.140464  0.642248  0.250000  1
  Sb  Sb28  1  0.266972  0.017469  0.046932  1
  Sb  Sb29  1  0.766972  0.482531  0.453068  1
  Sb  Sb30  1  0.733079  0.982520  0.546812  1
  Sb  Sb31  1  0.233079  0.517480  0.953188  1
  Sb  Sb32  1  0.733079  0.982520  0.953188  1
  Sb  Sb33  1  0.233079  0.517480  0.546812  1
  Sb  Sb34  1  0.266972  0.017469  0.453068  1
  Sb  Sb35  1  0.766972  0.482531  0.046932  1
