# generated using pymatgen
data_HoEr5MoO12
_symmetry_space_group_name_H-M   'P 1'
_cell_length_a   6.42587637
_cell_length_b   6.42663211
_cell_length_c   6.42979268
_cell_angle_alpha   98.59106509
_cell_angle_beta   98.65528399
_cell_angle_gamma   98.63968651
_symmetry_Int_Tables_number   1
_chemical_formula_structural   HoEr5MoO12
_chemical_formula_sum   'Ho1 Er5 Mo1 O12'
_cell_volume   255.47721065
_cell_formula_units_Z   1
loop_
 _symmetry_equiv_pos_site_id
 _symmetry_equiv_pos_as_xyz
  1  'x, y, z'
loop_
 _atom_site_type_symbol
 _atom_site_label
 _atom_site_symmetry_multiplicity
 _atom_site_fract_x
 _atom_site_fract_y
 _atom_site_fract_z
 _atom_site_occupancy
  Ho  Ho0  1  0.683989  0.387465  0.855969  1
  Er  Er1  1  0.316775  0.612470  0.144600  1
  Er  Er2  1  0.612063  0.144294  0.316859  1
  Er  Er3  1  0.855603  0.683350  0.387882  1
  Er  Er4  1  0.144526  0.316958  0.611932  1
  Er  Er5  1  0.387434  0.855430  0.682756  1
  Mo  Mo6  1  0.000406  0.000155  0.000200  1
  O  O7  1  0.924245  0.701027  0.035725  1
  O  O8  1  0.299516  0.965680  0.076871  1
  O  O9  1  0.589922  0.431800  0.178336  1
  O  O10  1  0.965414  0.077053  0.298988  1
  O  O11  1  0.568669  0.822781  0.409673  1
  O  O12  1  0.177468  0.590829  0.431353  1
  O  O13  1  0.822984  0.409174  0.567543  1
  O  O14  1  0.430914  0.177055  0.589559  1
  O  O15  1  0.034506  0.923067  0.700860  1
  O  O16  1  0.408363  0.568611  0.822633  1
  O  O17  1  0.700534  0.033556  0.923101  1
  O  O18  1  0.076671  0.299250  0.965161  1
