# generated using pymatgen
data_Hf12Re3I16
_symmetry_space_group_name_H-M   'P 1'
_cell_length_a   9.08295296
_cell_length_b   12.34493821
_cell_length_c   12.92503711
_cell_angle_alpha   116.92490511
_cell_angle_beta   101.05648015
_cell_angle_gamma   100.93249736
_symmetry_Int_Tables_number   1
_chemical_formula_structural   Hf12Re3I16
_chemical_formula_sum   'Hf12 Re3 I16'
_cell_volume   1203.20991326
_cell_formula_units_Z   1
loop_
 _symmetry_equiv_pos_site_id
 _symmetry_equiv_pos_as_xyz
  1  'x, y, z'
loop_
 _atom_site_type_symbol
 _atom_site_label
 _atom_site_symmetry_multiplicity
 _atom_site_fract_x
 _atom_site_fract_y
 _atom_site_fract_z
 _atom_site_occupancy
  Hf  Hf0  1  0.100866  0.282147  0.366281  1
  Hf  Hf1  1  0.899134  0.717853  0.633719  1
  Hf  Hf2  1  0.783496  0.539761  0.345456  1
  Hf  Hf3  1  0.216504  0.460239  0.654544  1
  Hf  Hf4  1  0.259883  0.716801  0.632911  1
  Hf  Hf5  1  0.740117  0.283199  0.367089  1
  Hf  Hf6  1  0.144279  0.527527  0.335345  1
  Hf  Hf7  1  0.855721  0.472473  0.664655  1
  Hf  Hf8  1  0.414131  0.368781  0.289022  1
  Hf  Hf9  1  0.585869  0.631219  0.710978  1
  Hf  Hf10  1  0.465572  0.314236  0.519970  1
  Hf  Hf11  1  0.534428  0.685764  0.480030  1
  Re  Re12  1  0.000000  0.500000  0.500000  1
  Re  Re13  1  0.350182  0.519704  0.506771  1
  Re  Re14  1  0.649819  0.480296  0.493229  1
  I  I15  1  0.390840  0.731794  0.873876  1
  I  I16  1  0.609160  0.268206  0.126124  1
  I  I17  1  0.183027  0.953302  0.778289  1
  I  I18  1  0.816973  0.046698  0.221711  1
  I  I19  1  0.319424  0.104188  0.256705  1
  I  I20  1  0.680576  0.895812  0.743295  1
  I  I21  1  0.566096  0.437458  0.793633  1
  I  I22  1  0.433904  0.562542  0.206367  1
  I  I23  1  0.300277  0.822002  0.464786  1
  I  I24  1  0.699723  0.177998  0.535214  1
  I  I25  1  0.161098  0.179844  0.536348  1
  I  I26  1  0.838902  0.820156  0.463652  1
  I  I27  1  0.923889  0.571668  0.166487  1
  I  I28  1  0.076111  0.428332  0.833513  1
  I  I29  1  0.927540  0.733645  0.876979  1
  I  I30  1  0.072460  0.266355  0.123021  1
