# generated using pymatgen
data_Sm8Be3Si13
_symmetry_space_group_name_H-M   'P 1'
_cell_length_a   7.97061200
_cell_length_b   7.97061109
_cell_length_c   8.31416400
_cell_angle_alpha   90.00000000
_cell_angle_beta   90.00000000
_cell_angle_gamma   119.99999548
_symmetry_Int_Tables_number   1
_chemical_formula_structural   Sm8Be3Si13
_chemical_formula_sum   'Sm8 Be3 Si13'
_cell_volume   457.43830212
_cell_formula_units_Z   1
loop_
 _symmetry_equiv_pos_site_id
 _symmetry_equiv_pos_as_xyz
  1  'x, y, z'
loop_
 _atom_site_type_symbol
 _atom_site_label
 _atom_site_symmetry_multiplicity
 _atom_site_fract_x
 _atom_site_fract_y
 _atom_site_fract_z
 _atom_site_occupancy
  Sm  Sm0  1  0.000000  0.000000  0.749746  1
  Sm  Sm1  1  0.000000  0.000000  0.250518  1
  Sm  Sm2  1  0.499960  0.500040  0.751158  1
  Sm  Sm3  1  0.499960  0.999921  0.751158  1
  Sm  Sm4  1  0.000079  0.500040  0.751158  1
  Sm  Sm5  1  0.500409  0.499591  0.248758  1
  Sm  Sm6  1  0.999183  0.499591  0.248758  1
  Sm  Sm7  1  0.500409  0.000817  0.248758  1
  Be  Be8  1  0.666667  0.333333  0.500202  1
  Be  Be9  1  0.333333  0.666667  0.499469  1
  Be  Be10  1  0.333333  0.666667  0.001173  1
  Si  Si11  1  0.666667  0.333333  0.998518  1
  Si  Si12  1  0.836315  0.163685  0.000180  1
  Si  Si13  1  0.836315  0.672631  0.000180  1
  Si  Si14  1  0.327369  0.163685  0.000180  1
  Si  Si15  1  0.827205  0.172795  0.500359  1
  Si  Si16  1  0.827205  0.654411  0.500359  1
  Si  Si17  1  0.345589  0.172795  0.500359  1
  Si  Si18  1  0.172629  0.827371  0.499623  1
  Si  Si19  1  0.654741  0.827371  0.499623  1
  Si  Si20  1  0.172629  0.345259  0.499623  1
  Si  Si21  1  0.174695  0.825305  0.000048  1
  Si  Si22  1  0.650612  0.825305  0.000048  1
  Si  Si23  1  0.174695  0.349388  0.000048  1
