# generated using pymatgen
data_Th6Sc2Sn3Bi7
_symmetry_space_group_name_H-M   'P 1'
_cell_length_a   9.71330300
_cell_length_b   9.71330312
_cell_length_c   6.47931200
_cell_angle_alpha   90.00000000
_cell_angle_beta   90.00000000
_cell_angle_gamma   120.00000300
_symmetry_Int_Tables_number   1
_chemical_formula_structural   Th6Sc2Sn3Bi7
_chemical_formula_sum   'Th6 Sc2 Sn3 Bi7'
_cell_volume   529.41152315
_cell_formula_units_Z   1
loop_
 _symmetry_equiv_pos_site_id
 _symmetry_equiv_pos_as_xyz
  1  'x, y, z'
loop_
 _atom_site_type_symbol
 _atom_site_label
 _atom_site_symmetry_multiplicity
 _atom_site_fract_x
 _atom_site_fract_y
 _atom_site_fract_z
 _atom_site_occupancy
  Th  Th0  1  0.005053  0.616745  0.247103  1
  Th  Th1  1  0.383255  0.388308  0.247103  1
  Th  Th2  1  0.383255  0.994947  0.752897  1
  Th  Th3  1  0.611692  0.616745  0.752897  1
  Th  Th4  1  0.611692  0.994947  0.247103  1
  Th  Th5  1  0.005053  0.388308  0.752897  1
  Sc  Sc6  1  0.000000  0.000000  0.000000  1
  Sc  Sc7  1  0.000000  0.000000  0.500000  1
  Sn  Sn8  1  0.333333  0.666667  0.500000  1
  Sn  Sn9  1  0.666667  0.333333  0.000000  1
  Sn  Sn10  1  0.333333  0.666667  0.000000  1
  Bi  Bi11  1  0.997974  0.265379  0.250613  1
  Bi  Bi12  1  0.267404  0.265379  0.749387  1
  Bi  Bi13  1  0.734621  0.002026  0.749387  1
  Bi  Bi14  1  0.997974  0.732596  0.749387  1
  Bi  Bi15  1  0.734621  0.732596  0.250613  1
  Bi  Bi16  1  0.267404  0.002026  0.250613  1
  Bi  Bi17  1  0.666667  0.333333  0.500000  1
