# generated using pymatgen
data_YbCe2PaOs8
_symmetry_space_group_name_H-M   'P 1'
_cell_length_a   5.32046500
_cell_length_b   5.32046401
_cell_length_c   8.95314300
_cell_angle_alpha   90.00000000
_cell_angle_beta   90.00000000
_cell_angle_gamma   119.99999991
_symmetry_Int_Tables_number   1
_chemical_formula_structural   YbCe2PaOs8
_chemical_formula_sum   'Yb1 Ce2 Pa1 Os8'
_cell_volume   219.48520658
_cell_formula_units_Z   1
loop_
 _symmetry_equiv_pos_site_id
 _symmetry_equiv_pos_as_xyz
  1  'x, y, z'
loop_
 _atom_site_type_symbol
 _atom_site_label
 _atom_site_symmetry_multiplicity
 _atom_site_fract_x
 _atom_site_fract_y
 _atom_site_fract_z
 _atom_site_occupancy
  Yb  Yb0  1  0.333333  0.666667  0.061750  1
  Ce  Ce1  1  0.666667  0.333333  0.572456  1
  Ce  Ce2  1  0.666667  0.333333  0.934672  1
  Pa  Pa3  1  0.333333  0.666667  0.424086  1
  Os  Os4  1  0.000000  0.000000  0.501335  1
  Os  Os5  1  0.000000  0.000000  0.002406  1
  Os  Os6  1  0.829261  0.170739  0.250539  1
  Os  Os7  1  0.829261  0.658521  0.250539  1
  Os  Os8  1  0.341479  0.170739  0.250539  1
  Os  Os9  1  0.170916  0.829084  0.750559  1
  Os  Os10  1  0.170916  0.341833  0.750559  1
  Os  Os11  1  0.658167  0.829084  0.750559  1
