# generated using pymatgen
data_Ho8Al2IrRh
_symmetry_space_group_name_H-M   'P 1'
_cell_length_a   9.50076687
_cell_length_b   9.52096000
_cell_length_c   9.50076579
_cell_angle_alpha   59.92966484
_cell_angle_beta   59.86211098
_cell_angle_gamma   59.92966867
_symmetry_Int_Tables_number   1
_chemical_formula_structural   Ho8Al2IrRh
_chemical_formula_sum   'Ho16 Al4 Ir2 Rh2'
_cell_volume   606.41068611
_cell_formula_units_Z   2
loop_
 _symmetry_equiv_pos_site_id
 _symmetry_equiv_pos_as_xyz
  1  'x, y, z'
loop_
 _atom_site_type_symbol
 _atom_site_label
 _atom_site_symmetry_multiplicity
 _atom_site_fract_x
 _atom_site_fract_y
 _atom_site_fract_z
 _atom_site_occupancy
  Ho  Ho0  1  0.187475  0.187630  0.811638  1
  Ho  Ho1  1  0.603648  0.601598  0.193155  1
  Ho  Ho2  1  0.443287  0.056713  0.443287  1
  Ho  Ho3  1  0.442030  0.444551  0.056431  1
  Ho  Ho4  1  0.813664  0.186336  0.813664  1
  Ho  Ho5  1  0.188477  0.811523  0.188477  1
  Ho  Ho6  1  0.442030  0.056988  0.056431  1
  Ho  Ho7  1  0.187475  0.813257  0.811638  1
  Ho  Ho8  1  0.056782  0.443218  0.056782  1
  Ho  Ho9  1  0.811638  0.813257  0.187475  1
  Ho  Ho10  1  0.193155  0.601598  0.603648  1
  Ho  Ho11  1  0.056431  0.444551  0.442030  1
  Ho  Ho12  1  0.056431  0.056988  0.442030  1
  Ho  Ho13  1  0.811638  0.187630  0.187475  1
  Ho  Ho14  1  0.602165  0.195311  0.602165  1
  Ho  Ho15  1  0.602165  0.600358  0.602165  1
  Al  Al16  1  0.827572  0.827967  0.827572  1
  Al  Al17  1  0.827454  0.827185  0.518178  1
  Al  Al18  1  0.518178  0.827185  0.827454  1
  Al  Al19  1  0.827572  0.516889  0.827572  1
  Ir  Ir20  1  0.392383  0.823401  0.392383  1
  Ir  Ir21  1  0.392383  0.391832  0.392383  1
  Rh  Rh22  1  0.823826  0.392015  0.392143  1
  Rh  Rh23  1  0.392143  0.392015  0.823826  1
