# generated using pymatgen
data_Tm7Lu5Co8Se
_symmetry_space_group_name_H-M   'P 1'
_cell_length_a   11.21085514
_cell_length_b   11.21441929
_cell_length_c   3.97571200
_cell_angle_alpha   89.99921068
_cell_angle_beta   89.99933644
_cell_angle_gamma   120.00781978
_symmetry_Int_Tables_number   1
_chemical_formula_structural   Tm7Lu5Co8Se
_chemical_formula_sum   'Tm7 Lu5 Co8 Se1'
_cell_volume   432.83946582
_cell_formula_units_Z   1
loop_
 _symmetry_equiv_pos_site_id
 _symmetry_equiv_pos_as_xyz
  1  'x, y, z'
loop_
 _atom_site_type_symbol
 _atom_site_label
 _atom_site_symmetry_multiplicity
 _atom_site_fract_x
 _atom_site_fract_y
 _atom_site_fract_z
 _atom_site_occupancy
  Tm  Tm0  1  0.381528  0.863516  0.750054  1
  Tm  Tm1  1  0.975142  0.236854  0.255110  1
  Tm  Tm2  1  0.261454  0.025302  0.255059  1
  Tm  Tm3  1  0.763165  0.738252  0.255147  1
  Tm  Tm4  1  0.024495  0.762999  0.744850  1
  Tm  Tm5  1  0.738615  0.975255  0.744883  1
  Tm  Tm6  1  0.236871  0.261735  0.744828  1
  Lu  Lu7  1  0.518441  0.381491  0.249955  1
  Lu  Lu8  1  0.863003  0.481613  0.249996  1
  Lu  Lu9  1  0.619116  0.137561  0.250073  1
  Lu  Lu10  1  0.481718  0.618314  0.749972  1
  Lu  Lu11  1  0.136711  0.518000  0.749992  1
  Co  Co12  1  0.333205  0.665933  0.249062  1
  Co  Co13  1  0.666619  0.333292  0.751021  1
  Co  Co14  1  0.157538  0.719274  0.251646  1
  Co  Co15  1  0.562002  0.842008  0.251670  1
  Co  Co16  1  0.280407  0.438286  0.251728  1
  Co  Co17  1  0.842057  0.280443  0.748333  1
  Co  Co18  1  0.438452  0.158373  0.748290  1
  Co  Co19  1  0.719518  0.561527  0.748362  1
  Se  Se20  1  0.999945  0.999972  0.499970  1
