# generated using pymatgen
data_Dy5Mn(Co3P2)6
_symmetry_space_group_name_H-M   'P 1'
_cell_length_a   11.99507809
_cell_length_b   11.99507766
_cell_length_c   3.66586300
_cell_angle_alpha   90.00000000
_cell_angle_beta   90.00000000
_cell_angle_gamma   119.85892862
_symmetry_Int_Tables_number   1
_chemical_formula_structural   Dy5Mn(Co3P2)6
_chemical_formula_sum   'Dy5 Mn1 Co18 P12'
_cell_volume   457.43418221
_cell_formula_units_Z   1
loop_
 _symmetry_equiv_pos_site_id
 _symmetry_equiv_pos_as_xyz
  1  'x, y, z'
loop_
 _atom_site_type_symbol
 _atom_site_label
 _atom_site_symmetry_multiplicity
 _atom_site_fract_x
 _atom_site_fract_y
 _atom_site_fract_z
 _atom_site_occupancy
  Dy  Dy0  1  0.666334  0.333503  0.000000  1
  Dy  Dy1  1  0.333503  0.666334  0.000000  1
  Dy  Dy2  1  0.186728  0.186728  0.500000  1
  Dy  Dy3  1  0.812044  0.999245  0.500000  1
  Dy  Dy4  1  0.999245  0.812044  0.500000  1
  Mn  Mn5  1  0.557102  0.557102  0.000000  1
  Co  Co6  1  0.447785  0.000031  0.000000  1
  Co  Co7  1  0.000031  0.447785  0.000000  1
  Co  Co8  1  0.822341  0.200804  0.000000  1
  Co  Co9  1  0.801598  0.622252  0.000000  1
  Co  Co10  1  0.377228  0.176712  0.000000  1
  Co  Co11  1  0.200804  0.822341  0.000000  1
  Co  Co12  1  0.622252  0.801598  0.000000  1
  Co  Co13  1  0.176712  0.377228  0.000000  1
  Co  Co14  1  0.641734  0.125114  0.500000  1
  Co  Co15  1  0.874941  0.515952  0.500000  1
  Co  Co16  1  0.482642  0.356648  0.500000  1
  Co  Co17  1  0.125114  0.641734  0.500000  1
  Co  Co18  1  0.515952  0.874941  0.500000  1
  Co  Co19  1  0.356648  0.482642  0.500000  1
  Co  Co20  1  0.716421  0.716421  0.500000  1
  Co  Co21  1  0.284990  0.999582  0.500000  1
  Co  Co22  1  0.999582  0.284990  0.500000  1
  Co  Co23  1  0.000790  0.000790  0.000000  1
  P  P24  1  0.365417  0.365417  0.000000  1
  P  P25  1  0.632482  0.000750  0.000000  1
  P  P26  1  0.000750  0.632482  0.000000  1
  P  P27  1  0.833899  0.314218  0.500000  1
  P  P28  1  0.685797  0.519961  0.500000  1
  P  P29  1  0.479722  0.165146  0.500000  1
  P  P30  1  0.314218  0.833899  0.500000  1
  P  P31  1  0.519961  0.685797  0.500000  1
  P  P32  1  0.165146  0.479722  0.500000  1
  P  P33  1  0.819501  0.819501  0.000000  1
  P  P34  1  0.180983  0.999604  0.000000  1
  P  P35  1  0.999604  0.180983  0.000000  1
