# generated using pymatgen
data_Tm15Pa(CdCo)4
_symmetry_space_group_name_H-M   'P 1'
_cell_length_a   9.36088233
_cell_length_b   9.45179429
_cell_length_c   9.36088300
_cell_angle_alpha   60.31767133
_cell_angle_beta   60.00000118
_cell_angle_gamma   60.31767094
_symmetry_Int_Tables_number   1
_chemical_formula_structural   Tm15Pa(CdCo)4
_chemical_formula_sum   'Tm15 Pa1 Cd4 Co4'
_cell_volume   588.43917049
_cell_formula_units_Z   1
loop_
 _symmetry_equiv_pos_site_id
 _symmetry_equiv_pos_as_xyz
  1  'x, y, z'
loop_
 _atom_site_type_symbol
 _atom_site_label
 _atom_site_symmetry_multiplicity
 _atom_site_fract_x
 _atom_site_fract_y
 _atom_site_fract_z
 _atom_site_occupancy
  Tm  Tm0  1  0.686756  0.314730  0.686756  1
  Tm  Tm1  1  0.686756  0.314730  0.311756  1
  Tm  Tm2  1  0.938812  0.561684  0.560692  1
  Tm  Tm3  1  0.543273  0.149917  0.153405  1
  Tm  Tm4  1  0.153405  0.149917  0.543273  1
  Tm  Tm5  1  0.937853  0.935078  0.563535  1
  Tm  Tm6  1  0.310851  0.691369  0.310851  1
  Tm  Tm7  1  0.563535  0.935078  0.937853  1
  Tm  Tm8  1  0.563535  0.935078  0.563535  1
  Tm  Tm9  1  0.686928  0.691369  0.310851  1
  Tm  Tm10  1  0.560692  0.561684  0.938812  1
  Tm  Tm11  1  0.938812  0.561684  0.938812  1
  Tm  Tm12  1  0.310851  0.691369  0.686928  1
  Tm  Tm13  1  0.153405  0.149917  0.153405  1
  Tm  Tm14  1  0.311756  0.314730  0.686756  1
  Pa  Pa15  1  0.164266  0.507201  0.164266  1
  Cd  Cd16  1  0.920247  0.239259  0.920247  1
  Cd  Cd17  1  0.920162  0.915574  0.920162  1
  Cd  Cd18  1  0.920162  0.915574  0.244102  1
  Cd  Cd19  1  0.244102  0.915574  0.920162  1
  Co  Co20  1  0.345223  0.374737  0.934819  1
  Co  Co21  1  0.358576  0.924274  0.358576  1
  Co  Co22  1  0.934819  0.374737  0.345223  1
  Co  Co23  1  0.345223  0.374737  0.345223  1
