# generated using pymatgen
data_Np4Al6ReSi6
_symmetry_space_group_name_H-M   'P 1'
_cell_length_a   7.26634699
_cell_length_b   7.26090410
_cell_length_c   7.26090484
_cell_angle_alpha   109.52402331
_cell_angle_beta   109.46028613
_cell_angle_gamma   109.46028572
_symmetry_Int_Tables_number   1
_chemical_formula_structural   Np4Al6ReSi6
_chemical_formula_sum   'Np4 Al6 Re1 Si6'
_cell_volume   294.78789602
_cell_formula_units_Z   1
loop_
 _symmetry_equiv_pos_site_id
 _symmetry_equiv_pos_as_xyz
  1  'x, y, z'
loop_
 _atom_site_type_symbol
 _atom_site_label
 _atom_site_symmetry_multiplicity
 _atom_site_fract_x
 _atom_site_fract_y
 _atom_site_fract_z
 _atom_site_occupancy
  Np  Np0  1  0.500000  0.500000  0.500000  1
  Np  Np1  1  0.000000  0.000000  0.500000  1
  Np  Np2  1  0.500000  0.000000  0.000000  1
  Np  Np3  1  0.000000  0.500000  0.000000  1
  Al  Al4  1  0.749820  0.249663  0.500188  1
  Al  Al5  1  0.500000  0.249974  0.750026  1
  Al  Al6  1  0.500000  0.750026  0.249974  1
  Al  Al7  1  0.250180  0.499812  0.750337  1
  Al  Al8  1  0.749820  0.500188  0.249663  1
  Al  Al9  1  0.250180  0.750337  0.499812  1
  Re  Re10  1  0.000000  0.000000  0.000000  1
  Si  Si11  1  0.293440  0.293748  0.999767  1
  Si  Si12  1  0.999869  0.294354  0.294354  1
  Si  Si13  1  0.000131  0.705646  0.705646  1
  Si  Si14  1  0.706560  0.000233  0.706252  1
  Si  Si15  1  0.293440  0.999767  0.293748  1
  Si  Si16  1  0.706560  0.706252  0.000233  1
