# generated using pymatgen
data_YbPr19(Ga2Pb)4
_symmetry_space_group_name_H-M   'P 1'
_cell_length_a   8.10865400
_cell_length_b   8.10865400
_cell_length_c   14.73617800
_cell_angle_alpha   90.00000000
_cell_angle_beta   90.00000000
_cell_angle_gamma   90.00000000
_symmetry_Int_Tables_number   1
_chemical_formula_structural   YbPr19(Ga2Pb)4
_chemical_formula_sum   'Yb1 Pr19 Ga8 Pb4'
_cell_volume   968.90767773
_cell_formula_units_Z   1
loop_
 _symmetry_equiv_pos_site_id
 _symmetry_equiv_pos_as_xyz
  1  'x, y, z'
loop_
 _atom_site_type_symbol
 _atom_site_label
 _atom_site_symmetry_multiplicity
 _atom_site_fract_x
 _atom_site_fract_y
 _atom_site_fract_z
 _atom_site_occupancy
  Yb  Yb0  1  0.000000  0.500000  0.741253  1
  Pr  Pr1  1  0.825913  0.834201  0.607484  1
  Pr  Pr2  1  0.176582  0.840333  0.106974  1
  Pr  Pr3  1  0.160482  0.821693  0.392395  1
  Pr  Pr4  1  0.839518  0.178307  0.392395  1
  Pr  Pr5  1  0.678307  0.660482  0.392395  1
  Pr  Pr6  1  0.665799  0.325913  0.607484  1
  Pr  Pr7  1  0.334201  0.674087  0.607484  1
  Pr  Pr8  1  0.000000  0.500000  0.226302  1
  Pr  Pr9  1  0.659667  0.676582  0.106974  1
  Pr  Pr10  1  0.673645  0.339165  0.891776  1
  Pr  Pr11  1  0.839165  0.826355  0.891776  1
  Pr  Pr12  1  0.321693  0.339518  0.392395  1
  Pr  Pr13  1  0.174087  0.165799  0.607484  1
  Pr  Pr14  1  0.823418  0.159667  0.106974  1
  Pr  Pr15  1  0.326355  0.660835  0.891776  1
  Pr  Pr16  1  0.340333  0.323418  0.106974  1
  Pr  Pr17  1  0.500000  0.000000  0.275564  1
  Pr  Pr18  1  0.160835  0.173645  0.891776  1
  Pr  Pr19  1  0.500000  0.000000  0.769161  1
  Ga  Ga20  1  0.622047  0.378508  0.250151  1
  Ga  Ga21  1  0.122241  0.879646  0.747682  1
  Ga  Ga22  1  0.379646  0.377759  0.747682  1
  Ga  Ga23  1  0.377953  0.621492  0.250151  1
  Ga  Ga24  1  0.878508  0.877953  0.250151  1
  Ga  Ga25  1  0.620354  0.622241  0.747682  1
  Ga  Ga26  1  0.877759  0.120354  0.747682  1
  Ga  Ga27  1  0.121492  0.122047  0.250151  1
  Pb  Pb28  1  0.000000  0.500000  0.505402  1
  Pb  Pb29  1  0.500000  0.000000  0.500162  1
  Pb  Pb30  1  0.500000  0.000000  0.995887  1
  Pb  Pb31  1  0.000000  0.500000  0.000425  1
