# generated using pymatgen
data_Zr2Sc8Tc3
_symmetry_space_group_name_H-M   'P 1'
_cell_length_a   8.87030718
_cell_length_b   8.84015884
_cell_length_c   8.17630305
_cell_angle_alpha   90.00001005
_cell_angle_beta   90.01113820
_cell_angle_gamma   119.88712467
_symmetry_Int_Tables_number   1
_chemical_formula_structural   Zr2Sc8Tc3
_chemical_formula_sum   'Zr4 Sc16 Tc6'
_cell_volume   555.87760216
_cell_formula_units_Z   2
loop_
 _symmetry_equiv_pos_site_id
 _symmetry_equiv_pos_as_xyz
  1  'x, y, z'
loop_
 _atom_site_type_symbol
 _atom_site_label
 _atom_site_symmetry_multiplicity
 _atom_site_fract_x
 _atom_site_fract_y
 _atom_site_fract_z
 _atom_site_occupancy
  Zr  Zr0  1  0.996106  0.998051  0.001898  1
  Zr  Zr1  1  0.403112  0.201555  0.051036  1
  Zr  Zr2  1  0.095499  0.547750  0.250021  1
  Zr  Zr3  1  0.000519  0.000260  0.502414  1
  Sc  Sc4  1  0.796569  0.204779  0.056559  1
  Sc  Sc5  1  0.796570  0.591787  0.056562  1
  Sc  Sc6  1  0.451876  0.546784  0.248805  1
  Sc  Sc7  1  0.451870  0.905090  0.248803  1
  Sc  Sc8  1  0.405769  0.202882  0.442306  1
  Sc  Sc9  1  0.797632  0.204122  0.443799  1
  Sc  Sc10  1  0.797634  0.593512  0.443799  1
  Sc  Sc11  1  0.202682  0.405215  0.556312  1
  Sc  Sc12  1  0.202686  0.797470  0.556306  1
  Sc  Sc13  1  0.595299  0.797654  0.553789  1
  Sc  Sc14  1  0.549868  0.096074  0.748501  1
  Sc  Sc15  1  0.549867  0.453792  0.748503  1
  Sc  Sc16  1  0.904920  0.452459  0.749182  1
  Sc  Sc17  1  0.201752  0.404984  0.943138  1
  Sc  Sc18  1  0.201759  0.796771  0.943139  1
  Sc  Sc19  1  0.594642  0.797324  0.943404  1
  Tc  Tc20  1  0.117453  0.239138  0.250551  1
  Tc  Tc21  1  0.117454  0.878315  0.250550  1
  Tc  Tc22  1  0.763986  0.881993  0.251364  1
  Tc  Tc23  1  0.240509  0.120254  0.758033  1
  Tc  Tc24  1  0.881980  0.118974  0.750618  1
  Tc  Tc25  1  0.881984  0.763012  0.750614  1
