# generated using pymatgen
data_Yb3Dy(Mo2C3)2
_symmetry_space_group_name_H-M   'P 1'
_cell_length_a   6.52062000
_cell_length_b   5.92480033
_cell_length_c   11.83492097
_cell_angle_alpha   66.80241303
_cell_angle_beta   90.00000000
_cell_angle_gamma   90.00000000
_symmetry_Int_Tables_number   1
_chemical_formula_structural   Yb3Dy(Mo2C3)2
_chemical_formula_sum   'Yb6 Dy2 Mo8 C12'
_cell_volume   420.25730977
_cell_formula_units_Z   2
loop_
 _symmetry_equiv_pos_site_id
 _symmetry_equiv_pos_as_xyz
  1  'x, y, z'
loop_
 _atom_site_type_symbol
 _atom_site_label
 _atom_site_symmetry_multiplicity
 _atom_site_fract_x
 _atom_site_fract_y
 _atom_site_fract_z
 _atom_site_occupancy
  Yb  Yb0  1  0.795615  0.681769  0.905801  1
  Yb  Yb1  1  0.295615  0.318231  0.594199  1
  Yb  Yb2  1  0.208152  0.314605  0.091775  1
  Yb  Yb3  1  0.708152  0.685395  0.408225  1
  Yb  Yb4  1  0.994649  0.730663  0.637222  1
  Yb  Yb5  1  0.494649  0.269337  0.862778  1
  Dy  Dy6  1  0.002702  0.264266  0.363782  1
  Dy  Dy7  1  0.502702  0.735734  0.136218  1
  Mo  Mo8  1  0.989464  0.822974  0.125881  1
  Mo  Mo9  1  0.489464  0.177026  0.374119  1
  Mo  Mo10  1  0.010980  0.178064  0.878561  1
  Mo  Mo11  1  0.510980  0.821936  0.621439  1
  Mo  Mo12  1  0.766419  0.184065  0.654974  1
  Mo  Mo13  1  0.232703  0.812284  0.344045  1
  Mo  Mo14  1  0.732703  0.187716  0.155955  1
  Mo  Mo15  1  0.266419  0.815935  0.845026  1
  C  C16  1  0.643780  0.507478  0.648617  1
  C  C17  1  0.143780  0.492522  0.851383  1
  C  C18  1  0.353940  0.489745  0.346576  1
  C  C19  1  0.853940  0.510255  0.153424  1
  C  C20  1  0.219503  0.919838  0.992955  1
  C  C21  1  0.719503  0.080162  0.507045  1
  C  C22  1  0.781617  0.081808  0.009872  1
  C  C23  1  0.281617  0.918192  0.490128  1
  C  C24  1  0.472533  0.024136  0.242790  1
  C  C25  1  0.027942  0.033890  0.744069  1
  C  C26  1  0.972533  0.975864  0.257210  1
  C  C27  1  0.527942  0.966110  0.755931  1
