# generated using pymatgen
data_Lu6U2Re(B8Mo)3
_symmetry_space_group_name_H-M   'P 1'
_cell_length_a   3.65694800
_cell_length_b   9.09814452
_cell_length_c   11.44402329
_cell_angle_alpha   90.28678764
_cell_angle_beta   90.00000000
_cell_angle_gamma   90.00000000
_symmetry_Int_Tables_number   1
_chemical_formula_structural   Lu6U2Re(B8Mo)3
_chemical_formula_sum   'Lu6 U2 Re1 B24 Mo3'
_cell_volume   380.75438088
_cell_formula_units_Z   1
loop_
 _symmetry_equiv_pos_site_id
 _symmetry_equiv_pos_as_xyz
  1  'x, y, z'
loop_
 _atom_site_type_symbol
 _atom_site_label
 _atom_site_symmetry_multiplicity
 _atom_site_fract_x
 _atom_site_fract_y
 _atom_site_fract_z
 _atom_site_occupancy
  Lu  Lu0  1  0.000000  0.822514  0.085602  1
  Lu  Lu1  1  0.000000  0.176489  0.914020  1
  Lu  Lu2  1  0.000000  0.944378  0.372557  1
  Lu  Lu3  1  0.000000  0.055401  0.627903  1
  Lu  Lu4  1  0.000000  0.444579  0.126918  1
  Lu  Lu5  1  0.000000  0.556502  0.872597  1
  U  U6  1  0.000000  0.321767  0.413975  1
  U  U7  1  0.000000  0.678455  0.586322  1
  Re  Re8  1  0.000000  0.857740  0.816779  1
  B  B9  1  0.500000  0.552332  0.435047  1
  B  B10  1  0.500000  0.448149  0.565620  1
  B  B11  1  0.500000  0.051827  0.064600  1
  B  B12  1  0.500000  0.946012  0.932727  1
  B  B13  1  0.500000  0.750136  0.421459  1
  B  B14  1  0.500000  0.249899  0.579250  1
  B  B15  1  0.500000  0.251404  0.078061  1
  B  B16  1  0.500000  0.750299  0.919646  1
  B  B17  1  0.500000  0.793694  0.264445  1
  B  B18  1  0.500000  0.205814  0.736222  1
  B  B19  1  0.500000  0.294842  0.236529  1
  B  B20  1  0.500000  0.706673  0.764535  1
  B  B21  1  0.500000  0.631277  0.183685  1
  B  B22  1  0.500000  0.368939  0.816684  1
  B  B23  1  0.500000  0.132283  0.316588  1
  B  B24  1  0.500000  0.868043  0.684720  1
  B  B25  1  0.500000  0.978954  0.211937  1
  B  B26  1  0.500000  0.018371  0.788023  1
  B  B27  1  0.500000  0.479995  0.287938  1
  B  B28  1  0.500000  0.520494  0.712378  1
  B  B29  1  0.500000  0.601762  0.028078  1
  B  B30  1  0.500000  0.399528  0.971324  1
  B  B31  1  0.500000  0.108164  0.470270  1
  B  B32  1  0.500000  0.891854  0.530614  1
  Mo  Mo33  1  0.000000  0.635811  0.325503  1
  Mo  Mo34  1  0.000000  0.364233  0.675635  1
  Mo  Mo35  1  0.000000  0.141385  0.181808  1
