# generated using pymatgen
data_Hf9Ta2Re2O3
_symmetry_space_group_name_H-M   'P 1'
_cell_length_a   8.55960200
_cell_length_b   8.64216674
_cell_length_c   8.48176200
_cell_angle_alpha   90.00000000
_cell_angle_beta   90.00000000
_cell_angle_gamma   119.68446592
_symmetry_Int_Tables_number   1
_chemical_formula_structural   Hf9Ta2Re2O3
_chemical_formula_sum   'Hf18 Ta4 Re4 O6'
_cell_volume   545.08598581
_cell_formula_units_Z   2
loop_
 _symmetry_equiv_pos_site_id
 _symmetry_equiv_pos_as_xyz
  1  'x, y, z'
loop_
 _atom_site_type_symbol
 _atom_site_label
 _atom_site_symmetry_multiplicity
 _atom_site_fract_x
 _atom_site_fract_y
 _atom_site_fract_z
 _atom_site_occupancy
  Hf  Hf0  1  0.453761  0.907522  0.250000  1
  Hf  Hf1  1  0.546239  0.092478  0.750000  1
  Hf  Hf2  1  0.093923  0.547480  0.250000  1
  Hf  Hf3  1  0.906077  0.452520  0.750000  1
  Hf  Hf4  1  0.453557  0.547480  0.250000  1
  Hf  Hf5  1  0.546443  0.452520  0.750000  1
  Hf  Hf6  1  0.203415  0.406829  0.563837  1
  Hf  Hf7  1  0.796585  0.593171  0.436163  1
  Hf  Hf8  1  0.590902  0.796452  0.562700  1
  Hf  Hf9  1  0.796585  0.593171  0.063837  1
  Hf  Hf10  1  0.409098  0.203548  0.437300  1
  Hf  Hf11  1  0.203415  0.406829  0.936163  1
  Hf  Hf12  1  0.205550  0.796452  0.562700  1
  Hf  Hf13  1  0.409098  0.203548  0.062700  1
  Hf  Hf14  1  0.794450  0.203548  0.437300  1
  Hf  Hf15  1  0.590902  0.796452  0.937300  1
  Hf  Hf16  1  0.794450  0.203548  0.062700  1
  Hf  Hf17  1  0.205550  0.796452  0.937300  1
  Ta  Ta18  1  0.111131  0.222263  0.250000  1
  Ta  Ta19  1  0.888869  0.777737  0.750000  1
  Ta  Ta20  1  0.000000  0.000000  0.000000  1
  Ta  Ta21  1  0.000000  0.000000  0.500000  1
  Re  Re22  1  0.771732  0.884109  0.250000  1
  Re  Re23  1  0.228268  0.115891  0.750000  1
  Re  Re24  1  0.112376  0.884109  0.250000  1
  Re  Re25  1  0.887624  0.115891  0.750000  1
  O  O26  1  0.500000  0.000000  0.000000  1
  O  O27  1  0.000000  0.500000  0.000000  1
  O  O28  1  0.500000  0.000000  0.500000  1
  O  O29  1  0.500000  0.500000  0.000000  1
  O  O30  1  0.000000  0.500000  0.500000  1
  O  O31  1  0.500000  0.500000  0.500000  1
