# generated using pymatgen
data_TiMn2Co4Sn
_symmetry_space_group_name_H-M   'P 1'
_cell_length_a   5.93676375
_cell_length_b   4.18655600
_cell_length_c   8.39893906
_cell_angle_alpha   90.00000000
_cell_angle_beta   89.94240095
_cell_angle_gamma   90.00000000
_symmetry_Int_Tables_number   1
_chemical_formula_structural   TiMn2Co4Sn
_chemical_formula_sum   'Ti2 Mn4 Co8 Sn2'
_cell_volume   208.75211405
_cell_formula_units_Z   2
loop_
 _symmetry_equiv_pos_site_id
 _symmetry_equiv_pos_as_xyz
  1  'x, y, z'
loop_
 _atom_site_type_symbol
 _atom_site_label
 _atom_site_symmetry_multiplicity
 _atom_site_fract_x
 _atom_site_fract_y
 _atom_site_fract_z
 _atom_site_occupancy
  Ti  Ti0  1  0.750061  0.250001  0.628874  1
  Ti  Ti1  1  0.249977  0.750001  0.871122  1
  Mn  Mn2  1  0.250067  0.250001  0.122133  1
  Mn  Mn3  1  0.750203  0.750001  0.377867  1
  Mn  Mn4  1  0.249835  0.250001  0.627654  1
  Mn  Mn5  1  0.749970  0.750001  0.872358  1
  Co  Co6  1  0.491376  0.750001  0.112820  1
  Co  Co7  1  0.008603  0.750001  0.112866  1
  Co  Co8  1  0.508629  0.250001  0.387195  1
  Co  Co9  1  0.991376  0.250001  0.387145  1
  Co  Co10  1  0.994619  0.750001  0.630440  1
  Co  Co11  1  0.505416  0.750001  0.630466  1
  Co  Co12  1  0.005358  0.250001  0.869540  1
  Co  Co13  1  0.494599  0.250001  0.869568  1
  Sn  Sn14  1  0.749934  0.250001  0.126361  1
  Sn  Sn15  1  0.249977  0.750001  0.373594  1
