# generated using pymatgen
data_CeCdCuPt3
_symmetry_space_group_name_H-M   'P 1'
_cell_length_a   5.46572589
_cell_length_b   5.46572611
_cell_length_c   5.24508027
_cell_angle_alpha   58.59839422
_cell_angle_beta   58.59838849
_cell_angle_gamma   60.00000971
_symmetry_Int_Tables_number   1
_chemical_formula_structural   CeCdCuPt3
_chemical_formula_sum   'Ce1 Cd1 Cu1 Pt3'
_cell_volume   108.39262668
_cell_formula_units_Z   1
loop_
 _symmetry_equiv_pos_site_id
 _symmetry_equiv_pos_as_xyz
  1  'x, y, z'
loop_
 _atom_site_type_symbol
 _atom_site_label
 _atom_site_symmetry_multiplicity
 _atom_site_fract_x
 _atom_site_fract_y
 _atom_site_fract_z
 _atom_site_occupancy
  Ce  Ce0  1  0.249460  0.249460  0.251620  1
  Cd  Cd1  1  0.997392  0.997392  0.007825  1
  Cu  Cu2  1  0.626087  0.626087  0.121740  1
  Pt  Pt3  1  0.626641  0.123779  0.622939  1
  Pt  Pt4  1  0.626641  0.626641  0.622939  1
  Pt  Pt5  1  0.123779  0.626641  0.622939  1
