# generated using pymatgen
data_Nd2MgSi4(PPd10)2
_symmetry_space_group_name_H-M   'P 1'
_cell_length_a   8.71102684
_cell_length_b   8.71102847
_cell_length_c   8.71639200
_cell_angle_alpha   59.97965993
_cell_angle_beta   59.97964573
_cell_angle_gamma   60.04076166
_symmetry_Int_Tables_number   1
_chemical_formula_structural   Nd2MgSi4(PPd10)2
_chemical_formula_sum   'Nd2 Mg1 Si4 P2 Pd20'
_cell_volume   467.69252884
_cell_formula_units_Z   1
loop_
 _symmetry_equiv_pos_site_id
 _symmetry_equiv_pos_as_xyz
  1  'x, y, z'
loop_
 _atom_site_type_symbol
 _atom_site_label
 _atom_site_symmetry_multiplicity
 _atom_site_fract_x
 _atom_site_fract_y
 _atom_site_fract_z
 _atom_site_occupancy
  Nd  Nd0  1  0.250000  0.250000  0.250000  1
  Nd  Nd1  1  0.750000  0.750000  0.750000  1
  Mg  Mg2  1  0.000000  0.000000  0.000000  1
  Si  Si3  1  0.736015  0.263985  0.263985  1
  Si  Si4  1  0.263985  0.736015  0.736015  1
  Si  Si5  1  0.263985  0.736015  0.263985  1
  Si  Si6  1  0.736015  0.263985  0.736015  1
  P  P7  1  0.264068  0.264068  0.735932  1
  P  P8  1  0.735932  0.735932  0.264068  1
  Pd  Pd9  1  0.385211  0.385211  0.386983  1
  Pd  Pd10  1  0.614789  0.614789  0.613017  1
  Pd  Pd11  1  0.385211  0.385211  0.842595  1
  Pd  Pd12  1  0.386983  0.842595  0.385211  1
  Pd  Pd13  1  0.614789  0.614789  0.157405  1
  Pd  Pd14  1  0.613017  0.157405  0.614789  1
  Pd  Pd15  1  0.842595  0.386983  0.385211  1
  Pd  Pd16  1  0.157405  0.613017  0.614789  1
  Pd  Pd17  1  0.343551  0.001976  0.998024  1
  Pd  Pd18  1  0.656449  0.998024  0.001976  1
  Pd  Pd19  1  0.001976  0.343552  0.656448  1
  Pd  Pd20  1  0.998024  0.656448  0.343552  1
  Pd  Pd21  1  0.001976  0.343551  0.998024  1
  Pd  Pd22  1  0.656448  0.998024  0.343552  1
  Pd  Pd23  1  0.998024  0.656449  0.001976  1
  Pd  Pd24  1  0.343552  0.001976  0.656448  1
  Pd  Pd25  1  0.000000  0.000000  0.345075  1
  Pd  Pd26  1  0.000000  0.000000  0.654925  1
  Pd  Pd27  1  0.654923  0.345076  0.000000  1
  Pd  Pd28  1  0.345077  0.654924  0.000000  1
