# generated using pymatgen
data_Ce2Pr3Er3(CdIr)2
_symmetry_space_group_name_H-M   'P 1'
_cell_length_a   9.78064695
_cell_length_b   9.78064671
_cell_length_c   9.78064700
_cell_angle_alpha   60.00000242
_cell_angle_beta   60.00000322
_cell_angle_gamma   60.00000525
_symmetry_Int_Tables_number   1
_chemical_formula_structural   Ce2Pr3Er3(CdIr)2
_chemical_formula_sum   'Ce4 Pr6 Er6 Cd4 Ir4'
_cell_volume   661.58824082
_cell_formula_units_Z   2
loop_
 _symmetry_equiv_pos_site_id
 _symmetry_equiv_pos_as_xyz
  1  'x, y, z'
loop_
 _atom_site_type_symbol
 _atom_site_label
 _atom_site_symmetry_multiplicity
 _atom_site_fract_x
 _atom_site_fract_y
 _atom_site_fract_z
 _atom_site_occupancy
  Ce  Ce0  1  0.348122  0.348122  0.348122  1
  Ce  Ce1  1  0.348122  0.348122  0.955632  1
  Ce  Ce2  1  0.348122  0.955632  0.348122  1
  Ce  Ce3  1  0.955632  0.348122  0.348122  1
  Pr  Pr4  1  0.941591  0.558409  0.558409  1
  Pr  Pr5  1  0.558409  0.941591  0.941591  1
  Pr  Pr6  1  0.558409  0.941591  0.558409  1
  Pr  Pr7  1  0.941591  0.558409  0.941591  1
  Pr  Pr8  1  0.558409  0.558409  0.941591  1
  Pr  Pr9  1  0.941591  0.941591  0.558409  1
  Er  Er10  1  0.814139  0.185861  0.185861  1
  Er  Er11  1  0.185861  0.814139  0.814139  1
  Er  Er12  1  0.185861  0.814139  0.185861  1
  Er  Er13  1  0.814139  0.185861  0.814139  1
  Er  Er14  1  0.185861  0.185861  0.814139  1
  Er  Er15  1  0.814139  0.814139  0.185861  1
  Cd  Cd16  1  0.579117  0.579117  0.579117  1
  Cd  Cd17  1  0.579117  0.579117  0.262648  1
  Cd  Cd18  1  0.579117  0.262648  0.579117  1
  Cd  Cd19  1  0.262648  0.579117  0.579117  1
  Ir  Ir20  1  0.142344  0.142344  0.142344  1
  Ir  Ir21  1  0.142344  0.142344  0.572968  1
  Ir  Ir22  1  0.142344  0.572968  0.142344  1
  Ir  Ir23  1  0.572968  0.142344  0.142344  1
