# generated using pymatgen
data_Tb5DyAl24(Os3Pt)2
_symmetry_space_group_name_H-M   'P 1'
_cell_length_a   8.83645779
_cell_length_b   8.81701287
_cell_length_c   9.58473614
_cell_angle_alpha   90.05561694
_cell_angle_beta   90.10431320
_cell_angle_gamma   119.59223718
_symmetry_Int_Tables_number   1
_chemical_formula_structural   Tb5DyAl24(Os3Pt)2
_chemical_formula_sum   'Tb5 Dy1 Al24 Os6 Pt2'
_cell_volume   649.34962625
_cell_formula_units_Z   1
loop_
 _symmetry_equiv_pos_site_id
 _symmetry_equiv_pos_as_xyz
  1  'x, y, z'
loop_
 _atom_site_type_symbol
 _atom_site_label
 _atom_site_symmetry_multiplicity
 _atom_site_fract_x
 _atom_site_fract_y
 _atom_site_fract_z
 _atom_site_occupancy
  Tb  Tb0  1  0.189420  0.386164  0.253179  1
  Tb  Tb1  1  0.810524  0.613676  0.746826  1
  Tb  Tb2  1  0.616380  0.809301  0.252458  1
  Tb  Tb3  1  0.383718  0.190705  0.747555  1
  Tb  Tb4  1  0.190252  0.805252  0.252208  1
  Dy  Dy5  1  0.809533  0.195286  0.747613  1
  Al  Al6  1  0.328584  0.664819  0.025818  1
  Al  Al7  1  0.671452  0.335008  0.973905  1
  Al  Al8  1  0.666696  0.332558  0.523173  1
  Al  Al9  1  0.333405  0.667379  0.477058  1
  Al  Al10  1  0.164504  0.328397  0.575437  1
  Al  Al11  1  0.835349  0.671477  0.424731  1
  Al  Al12  1  0.672555  0.836567  0.574672  1
  Al  Al13  1  0.841682  0.674569  0.077624  1
  Al  Al14  1  0.327596  0.163646  0.425512  1
  Al  Al15  1  0.158106  0.325268  0.922175  1
  Al  Al16  1  0.164701  0.836723  0.575744  1
  Al  Al17  1  0.323780  0.162257  0.078545  1
  Al  Al18  1  0.835326  0.163277  0.424549  1
  Al  Al19  1  0.676341  0.837944  0.921265  1
  Al  Al20  1  0.841115  0.167803  0.077389  1
  Al  Al21  1  0.158869  0.832165  0.922312  1
  Al  Al22  1  0.561804  0.124968  0.251782  1
  Al  Al23  1  0.438525  0.875264  0.748276  1
  Al  Al24  1  0.875924  0.439008  0.248958  1
  Al  Al25  1  0.123892  0.560698  0.751013  1
  Al  Al26  1  0.562604  0.437246  0.252135  1
  Al  Al27  1  0.437389  0.562773  0.747889  1
  Al  Al28  1  0.997501  0.999840  0.250356  1
  Al  Al29  1  0.002259  0.000396  0.749644  1
  Os  Os30  1  0.999861  0.499765  0.999813  1
  Os  Os31  1  0.500246  0.000134  0.500192  1
  Os  Os32  1  0.999902  0.499784  0.500171  1
  Os  Os33  1  0.500066  0.499968  0.500076  1
  Os  Os34  1  0.000013  0.999981  0.999988  1
  Os  Os35  1  0.000046  0.999969  0.500017  1
  Pt  Pt36  1  0.500033  0.999988  0.999975  1
  Pt  Pt37  1  0.500045  0.499977  0.999966  1
