# generated using pymatgen
data_Er2Sn2IrPt
_symmetry_space_group_name_H-M   'P 1'
_cell_length_a   7.56173100
_cell_length_b   7.56173113
_cell_length_c   7.75336000
_cell_angle_alpha   90.00000000
_cell_angle_beta   90.00000000
_cell_angle_gamma   120.00000382
_symmetry_Int_Tables_number   1
_chemical_formula_structural   Er2Sn2IrPt
_chemical_formula_sum   'Er6 Sn6 Ir3 Pt3'
_cell_volume   383.93969818
_cell_formula_units_Z   3
loop_
 _symmetry_equiv_pos_site_id
 _symmetry_equiv_pos_as_xyz
  1  'x, y, z'
loop_
 _atom_site_type_symbol
 _atom_site_label
 _atom_site_symmetry_multiplicity
 _atom_site_fract_x
 _atom_site_fract_y
 _atom_site_fract_z
 _atom_site_occupancy
  Er  Er0  1  0.404597  0.005031  0.247239  1
  Er  Er1  1  0.600434  0.595403  0.247239  1
  Er  Er2  1  0.994969  0.399566  0.247239  1
  Er  Er3  1  0.404176  0.004244  0.752808  1
  Er  Er4  1  0.600068  0.595824  0.752808  1
  Er  Er5  1  0.995756  0.399932  0.752808  1
  Sn  Sn6  1  0.262536  0.260494  0.999887  1
  Sn  Sn7  1  0.997958  0.737464  0.999887  1
  Sn  Sn8  1  0.002262  0.740692  0.499989  1
  Sn  Sn9  1  0.738430  0.997738  0.499989  1
  Sn  Sn10  1  0.259308  0.261570  0.499989  1
  Sn  Sn11  1  0.739506  0.002042  0.999887  1
  Ir  Ir12  1  0.000000  0.000000  0.750217  1
  Ir  Ir13  1  0.000000  0.000000  0.249660  1
  Ir  Ir14  1  0.666667  0.333333  0.999568  1
  Pt  Pt15  1  0.333333  0.666667  0.499298  1
  Pt  Pt16  1  0.333333  0.666667  0.000674  1
  Pt  Pt17  1  0.666667  0.333333  0.500815  1
