# generated using pymatgen
data_CeY(CoC2)2
_symmetry_space_group_name_H-M   'P 1'
_cell_length_a   3.71781587
_cell_length_b   3.69703942
_cell_length_c   7.37061086
_cell_angle_alpha   82.41587858
_cell_angle_beta   82.46387572
_cell_angle_gamma   90.09148114
_symmetry_Int_Tables_number   1
_chemical_formula_structural   CeY(CoC2)2
_chemical_formula_sum   'Ce1 Y1 Co2 C4'
_cell_volume   99.53632987
_cell_formula_units_Z   1
loop_
 _symmetry_equiv_pos_site_id
 _symmetry_equiv_pos_as_xyz
  1  'x, y, z'
loop_
 _atom_site_type_symbol
 _atom_site_label
 _atom_site_symmetry_multiplicity
 _atom_site_fract_x
 _atom_site_fract_y
 _atom_site_fract_z
 _atom_site_occupancy
  Ce  Ce0  1  0.931967  0.065258  0.499194  1
  Y  Y1  1  0.066682  0.930646  0.001690  1
  Co  Co2  1  0.371678  0.511347  0.694388  1
  Co  Co3  1  0.510519  0.375084  0.192756  1
  C  C4  1  0.444680  0.594041  0.427518  1
  C  C5  1  0.592797  0.443630  0.928807  1
  C  C6  1  0.490432  0.857270  0.271577  1
  C  C7  1  0.858244  0.489724  0.777870  1
