# generated using pymatgen
data_Na10TaGaP6
_symmetry_space_group_name_H-M   'P 1'
_cell_length_a   7.35730500
_cell_length_b   8.15166279
_cell_length_c   15.46558285
_cell_angle_alpha   59.10273410
_cell_angle_beta   90.00000000
_cell_angle_gamma   90.00000000
_symmetry_Int_Tables_number   1
_chemical_formula_structural   Na10TaGaP6
_chemical_formula_sum   'Na20 Ta2 Ga2 P12'
_cell_volume   795.90970498
_cell_formula_units_Z   2
loop_
 _symmetry_equiv_pos_site_id
 _symmetry_equiv_pos_as_xyz
  1  'x, y, z'
loop_
 _atom_site_type_symbol
 _atom_site_label
 _atom_site_symmetry_multiplicity
 _atom_site_fract_x
 _atom_site_fract_y
 _atom_site_fract_z
 _atom_site_occupancy
  Na  Na0  1  0.737908  0.941951  0.245737  1
  Na  Na1  1  0.262092  0.941951  0.745737  1
  Na  Na2  1  0.771579  0.055860  0.759737  1
  Na  Na3  1  0.228421  0.055860  0.259737  1
  Na  Na4  1  0.267852  0.246610  0.418672  1
  Na  Na5  1  0.732148  0.246610  0.918672  1
  Na  Na6  1  0.219867  0.752804  0.579110  1
  Na  Na7  1  0.780133  0.752804  0.079110  1
  Na  Na8  1  0.088733  0.345877  0.582791  1
  Na  Na9  1  0.911267  0.345877  0.082791  1
  Na  Na10  1  0.406458  0.656316  0.418515  1
  Na  Na11  1  0.593542  0.656316  0.918515  1
  Na  Na12  1  0.596619  0.335126  0.242826  1
  Na  Na13  1  0.403381  0.335126  0.742826  1
  Na  Na14  1  0.908555  0.663155  0.760261  1
  Na  Na15  1  0.091445  0.663155  0.260261  1
  Na  Na16  1  0.769960  0.421990  0.408138  1
  Na  Na17  1  0.230040  0.421990  0.908138  1
  Na  Na18  1  0.739917  0.579935  0.589011  1
  Na  Na19  1  0.260083  0.579935  0.089011  1
  Ta  Ta20  1  0.616382  0.989160  0.578654  1
  Ta  Ta21  1  0.383618  0.989160  0.078654  1
  Ga  Ga22  1  0.892105  0.012487  0.415146  1
  Ga  Ga23  1  0.107895  0.012487  0.915146  1
  P  P24  1  0.981456  0.315420  0.273130  1
  P  P25  1  0.018544  0.315420  0.773130  1
  P  P26  1  0.520346  0.694391  0.724107  1
  P  P27  1  0.479654  0.694391  0.224107  1
  P  P28  1  0.943739  0.018813  0.573820  1
  P  P29  1  0.056261  0.018813  0.073820  1
  P  P30  1  0.544531  0.979717  0.429326  1
  P  P31  1  0.455469  0.979717  0.929326  1
  P  P32  1  0.003723  0.726657  0.422032  1
  P  P33  1  0.996277  0.726657  0.922032  1
  P  P34  1  0.492828  0.263730  0.578985  1
  P  P35  1  0.507172  0.263730  0.078985  1
