# generated using pymatgen
data_RbTaTe7Mo5
_symmetry_space_group_name_H-M   'P 1'
_cell_length_a   10.51591499
_cell_length_b   10.49021300
_cell_length_c   10.47034015
_cell_angle_alpha   59.55246973
_cell_angle_beta   60.20849889
_cell_angle_gamma   60.45317986
_symmetry_Int_Tables_number   1
_chemical_formula_structural   RbTaTe7Mo5
_chemical_formula_sum   'Rb2 Ta2 Te14 Mo10'
_cell_volume   817.94122038
_cell_formula_units_Z   2
loop_
 _symmetry_equiv_pos_site_id
 _symmetry_equiv_pos_as_xyz
  1  'x, y, z'
loop_
 _atom_site_type_symbol
 _atom_site_label
 _atom_site_symmetry_multiplicity
 _atom_site_fract_x
 _atom_site_fract_y
 _atom_site_fract_z
 _atom_site_occupancy
  Rb  Rb0  1  0.620359  0.620968  0.621425  1
  Rb  Rb1  1  0.379726  0.377573  0.377605  1
  Ta  Ta2  1  0.683653  0.900574  0.000749  1
  Ta  Ta3  1  0.013024  0.697186  0.873601  1
  Te  Te4  1  0.418486  0.800709  0.170475  1
  Te  Te5  1  0.171064  0.420680  0.795722  1
  Te  Te6  1  0.808643  0.161471  0.425253  1
  Te  Te7  1  0.573550  0.209748  0.826761  1
  Te  Te8  1  0.836497  0.576502  0.192141  1
  Te  Te9  1  0.199757  0.841359  0.572813  1
  Te  Te10  1  0.633185  0.976353  0.254356  1
  Te  Te11  1  0.249501  0.631262  0.985041  1
  Te  Te12  1  0.979388  0.249377  0.631355  1
  Te  Te13  1  0.366373  0.022223  0.752717  1
  Te  Te14  1  0.755038  0.365795  0.019827  1
  Te  Te15  1  0.018269  0.750699  0.371377  1
  Te  Te16  1  0.773547  0.764272  0.783976  1
  Te  Te17  1  0.224268  0.225360  0.222370  1
  Mo  Mo18  1  0.879266  0.998278  0.717996  1
  Mo  Mo19  1  0.292284  0.118592  0.997531  1
  Mo  Mo20  1  0.002198  0.290102  0.114487  1
  Mo  Mo21  1  0.119044  0.999590  0.287341  1
  Mo  Mo22  1  0.945490  0.816249  0.108478  1
  Mo  Mo23  1  0.108785  0.945541  0.815098  1
  Mo  Mo24  1  0.815090  0.108605  0.945018  1
  Mo  Mo25  1  0.056081  0.185809  0.889360  1
  Mo  Mo26  1  0.891205  0.055171  0.189279  1
  Mo  Mo27  1  0.186232  0.889948  0.057850  1
