# generated using pymatgen
data_LiLu4Sc3(B6Ir)4
_symmetry_space_group_name_H-M   'P 1'
_cell_length_a   3.51571100
_cell_length_b   8.91875628
_cell_length_c   11.27064888
_cell_angle_alpha   90.08191970
_cell_angle_beta   90.00000000
_cell_angle_gamma   90.00000000
_symmetry_Int_Tables_number   1
_chemical_formula_structural   LiLu4Sc3(B6Ir)4
_chemical_formula_sum   'Li1 Lu4 Sc3 B24 Ir4'
_cell_volume   353.39950782
_cell_formula_units_Z   1
loop_
 _symmetry_equiv_pos_site_id
 _symmetry_equiv_pos_as_xyz
  1  'x, y, z'
loop_
 _atom_site_type_symbol
 _atom_site_label
 _atom_site_symmetry_multiplicity
 _atom_site_fract_x
 _atom_site_fract_y
 _atom_site_fract_z
 _atom_site_occupancy
  Li  Li0  1  0.500000  0.446319  0.122138  1
  Lu  Lu1  1  0.500000  0.319561  0.412309  1
  Lu  Lu2  1  0.500000  0.680910  0.585661  1
  Lu  Lu3  1  0.500000  0.183457  0.915535  1
  Lu  Lu4  1  0.500000  0.816201  0.086511  1
  Sc  Sc5  1  0.500000  0.553341  0.880720  1
  Sc  Sc6  1  0.500000  0.055477  0.623622  1
  Sc  Sc7  1  0.500000  0.944731  0.375140  1
  B  B8  1  0.000000  0.101928  0.472161  1
  B  B9  1  0.000000  0.898153  0.527267  1
  B  B10  1  0.000000  0.399593  0.974129  1
  B  B11  1  0.000000  0.599123  0.028203  1
  B  B12  1  0.000000  0.130386  0.317275  1
  B  B13  1  0.000000  0.870075  0.681326  1
  B  B14  1  0.000000  0.369583  0.821358  1
  B  B15  1  0.000000  0.626522  0.180291  1
  B  B16  1  0.000000  0.055588  0.065976  1
  B  B17  1  0.000000  0.945101  0.935829  1
  B  B18  1  0.000000  0.445000  0.564204  1
  B  B19  1  0.000000  0.554699  0.433487  1
  B  B20  1  0.000000  0.480772  0.283366  1
  B  B21  1  0.000000  0.518946  0.715423  1
  B  B22  1  0.000000  0.019964  0.785622  1
  B  B23  1  0.000000  0.980889  0.213808  1
  B  B24  1  0.000000  0.257351  0.080391  1
  B  B25  1  0.000000  0.745252  0.923174  1
  B  B26  1  0.000000  0.247017  0.578052  1
  B  B27  1  0.000000  0.753299  0.420238  1
  B  B28  1  0.000000  0.296675  0.233890  1
  B  B29  1  0.000000  0.704195  0.765257  1
  B  B30  1  0.000000  0.205473  0.736695  1
  B  B31  1  0.000000  0.793072  0.263922  1
  Ir  Ir32  1  0.500000  0.142031  0.181185  1
  Ir  Ir33  1  0.500000  0.859965  0.818319  1
  Ir  Ir34  1  0.500000  0.360649  0.678758  1
  Ir  Ir35  1  0.500000  0.638704  0.318757  1
