# generated using pymatgen
data_AcCe4(TcB3)2
_symmetry_space_group_name_H-M   'P 1'
_cell_length_a   5.48724447
_cell_length_b   5.48724527
_cell_length_c   8.90592718
_cell_angle_alpha   72.05722705
_cell_angle_beta   72.05722622
_cell_angle_gamma   59.99999769
_symmetry_Int_Tables_number   1
_chemical_formula_structural   AcCe4(TcB3)2
_chemical_formula_sum   'Ac1 Ce4 Tc2 B6'
_cell_volume   217.04004829
_cell_formula_units_Z   1
loop_
 _symmetry_equiv_pos_site_id
 _symmetry_equiv_pos_as_xyz
  1  'x, y, z'
loop_
 _atom_site_type_symbol
 _atom_site_label
 _atom_site_symmetry_multiplicity
 _atom_site_fract_x
 _atom_site_fract_y
 _atom_site_fract_z
 _atom_site_occupancy
  Ac  Ac0  1  0.000000  0.000000  0.000000  1
  Ce  Ce1  1  0.752661  0.752661  0.742017  1
  Ce  Ce2  1  0.247339  0.247339  0.257983  1
  Ce  Ce3  1  0.581030  0.581030  0.256910  1
  Ce  Ce4  1  0.418970  0.418970  0.743090  1
  Tc  Tc5  1  0.886305  0.886305  0.341088  1
  Tc  Tc6  1  0.113695  0.113695  0.658913  1
  B  B7  1  0.500000  0.171239  0.500000  1
  B  B8  1  0.828761  0.500000  0.500000  1
  B  B9  1  0.171239  0.828761  0.500000  1
  B  B10  1  0.171239  0.500000  0.500000  1
  B  B11  1  0.828761  0.171239  0.500000  1
  B  B12  1  0.500000  0.828761  0.500000  1
