# generated using pymatgen
data_Tb10Sn7Te
_symmetry_space_group_name_H-M   'P 1'
_cell_length_a   8.16012500
_cell_length_b   8.21218985
_cell_length_c   15.50096878
_cell_angle_alpha   90.66990819
_cell_angle_beta   90.00000000
_cell_angle_gamma   90.00000000
_symmetry_Int_Tables_number   1
_chemical_formula_structural   Tb10Sn7Te
_chemical_formula_sum   'Tb20 Sn14 Te2'
_cell_volume   1038.68760339
_cell_formula_units_Z   2
loop_
 _symmetry_equiv_pos_site_id
 _symmetry_equiv_pos_as_xyz
  1  'x, y, z'
loop_
 _atom_site_type_symbol
 _atom_site_label
 _atom_site_symmetry_multiplicity
 _atom_site_fract_x
 _atom_site_fract_y
 _atom_site_fract_z
 _atom_site_occupancy
  Tb  Tb0  1  0.376220  0.837526  0.879484  1
  Tb  Tb1  1  0.876220  0.662474  0.620516  1
  Tb  Tb2  1  0.625462  0.158155  0.377157  1
  Tb  Tb3  1  0.125462  0.341845  0.122843  1
  Tb  Tb4  1  0.628076  0.162225  0.120890  1
  Tb  Tb5  1  0.128076  0.337775  0.379110  1
  Tb  Tb6  1  0.374380  0.838006  0.622525  1
  Tb  Tb7  1  0.874380  0.661994  0.877475  1
  Tb  Tb8  1  0.540261  0.337650  0.894049  1
  Tb  Tb9  1  0.040261  0.162350  0.605951  1
  Tb  Tb10  1  0.461395  0.680008  0.396717  1
  Tb  Tb11  1  0.961395  0.819992  0.103283  1
  Tb  Tb12  1  0.473386  0.666975  0.101103  1
  Tb  Tb13  1  0.973386  0.833025  0.398897  1
  Tb  Tb14  1  0.522994  0.315614  0.602320  1
  Tb  Tb15  1  0.022994  0.184386  0.897680  1
  Tb  Tb16  1  0.202471  0.501001  0.748732  1
  Tb  Tb17  1  0.702471  0.998999  0.751268  1
  Tb  Tb18  1  0.796660  0.499789  0.245501  1
  Tb  Tb19  1  0.296660  0.000211  0.254499  1
  Sn  Sn20  1  0.718003  0.968628  0.542170  1
  Sn  Sn21  1  0.218003  0.531372  0.957830  1
  Sn  Sn22  1  0.717554  0.968244  0.957090  1
  Sn  Sn23  1  0.217554  0.531756  0.542910  1
  Sn  Sn24  1  0.290271  0.035009  0.458130  1
  Sn  Sn25  1  0.790271  0.464991  0.041870  1
  Sn  Sn26  1  0.570264  0.622437  0.747864  1
  Sn  Sn27  1  0.070264  0.877563  0.752136  1
  Sn  Sn28  1  0.430815  0.377568  0.250447  1
  Sn  Sn29  1  0.930815  0.122432  0.249553  1
  Sn  Sn30  1  0.336999  0.145815  0.753349  1
  Sn  Sn31  1  0.836999  0.354185  0.746651  1
  Sn  Sn32  1  0.660565  0.853213  0.249479  1
  Sn  Sn33  1  0.160565  0.646787  0.250521  1
  Te  Te34  1  0.274227  0.025177  0.047390  1
  Te  Te35  1  0.774227  0.474823  0.452610  1
