# generated using pymatgen
data_YTmZr2(NiAs)4
_symmetry_space_group_name_H-M   'P 1'
_cell_length_a   3.99599500
_cell_length_b   3.99599459
_cell_length_c   14.75814300
_cell_angle_alpha   90.00000000
_cell_angle_beta   90.00000000
_cell_angle_gamma   119.99999511
_symmetry_Int_Tables_number   1
_chemical_formula_structural   YTmZr2(NiAs)4
_chemical_formula_sum   'Y1 Tm1 Zr2 Ni4 As4'
_cell_volume   204.08552131
_cell_formula_units_Z   1
loop_
 _symmetry_equiv_pos_site_id
 _symmetry_equiv_pos_as_xyz
  1  'x, y, z'
loop_
 _atom_site_type_symbol
 _atom_site_label
 _atom_site_symmetry_multiplicity
 _atom_site_fract_x
 _atom_site_fract_y
 _atom_site_fract_z
 _atom_site_occupancy
  Y  Y0  1  0.000000  0.000000  0.000000  1
  Tm  Tm1  1  0.000000  0.000000  0.500000  1
  Zr  Zr2  1  0.000000  0.000000  0.251156  1
  Zr  Zr3  1  0.000000  0.000000  0.748844  1
  Ni  Ni4  1  0.333333  0.666667  0.154777  1
  Ni  Ni5  1  0.666667  0.333333  0.845223  1
  Ni  Ni6  1  0.666667  0.333333  0.651887  1
  Ni  Ni7  1  0.333333  0.666667  0.348113  1
  As  As8  1  0.333333  0.666667  0.619623  1
  As  As9  1  0.666667  0.333333  0.380377  1
  As  As10  1  0.666667  0.333333  0.122743  1
  As  As11  1  0.333333  0.666667  0.877257  1
