# generated using pymatgen
data_TbCePr3ThS10
_symmetry_space_group_name_H-M   'P 1'
_cell_length_a   7.55171314
_cell_length_b   8.17928807
_cell_length_c   12.01548400
_cell_angle_alpha   90.00000000
_cell_angle_beta   90.00000000
_cell_angle_gamma   89.71630051
_symmetry_Int_Tables_number   1
_chemical_formula_structural   TbCePr3ThS10
_chemical_formula_sum   'Tb2 Ce2 Pr6 Th2 S20'
_cell_volume   742.15895851
_cell_formula_units_Z   2
loop_
 _symmetry_equiv_pos_site_id
 _symmetry_equiv_pos_as_xyz
  1  'x, y, z'
loop_
 _atom_site_type_symbol
 _atom_site_label
 _atom_site_symmetry_multiplicity
 _atom_site_fract_x
 _atom_site_fract_y
 _atom_site_fract_z
 _atom_site_occupancy
  Tb  Tb0  1  0.515176  0.499447  0.319940  1
  Tb  Tb1  1  0.984824  0.000553  0.819940  1
  Ce  Ce2  1  0.072284  0.749569  0.491018  1
  Ce  Ce3  1  0.427716  0.750431  0.991018  1
  Pr  Pr4  1  0.478304  0.998984  0.677551  1
  Pr  Pr5  1  0.021696  0.501016  0.177551  1
  Pr  Pr6  1  0.478742  0.500983  0.676871  1
  Pr  Pr7  1  0.021258  0.999017  0.176871  1
  Pr  Pr8  1  0.521189  0.997970  0.322587  1
  Pr  Pr9  1  0.978811  0.502030  0.822587  1
  Th  Th10  1  0.924789  0.250841  0.509460  1
  Th  Th11  1  0.575211  0.249159  0.009460  1
  S  S12  1  0.841065  0.955541  0.601863  1
  S  S13  1  0.658935  0.544459  0.101863  1
  S  S14  1  0.167199  0.460021  0.402278  1
  S  S15  1  0.332801  0.039979  0.902278  1
  S  S16  1  0.161611  0.039161  0.401985  1
  S  S17  1  0.338389  0.460839  0.901985  1
  S  S18  1  0.838881  0.547014  0.598682  1
  S  S19  1  0.661119  0.952986  0.098682  1
  S  S20  1  0.826910  0.747108  0.314822  1
  S  S21  1  0.673090  0.752892  0.814822  1
  S  S22  1  0.169904  0.246230  0.689910  1
  S  S23  1  0.330096  0.253770  0.189910  1
  S  S24  1  0.456771  0.744866  0.496563  1
  S  S25  1  0.043229  0.755134  0.996563  1
  S  S26  1  0.541490  0.254973  0.498682  1
  S  S27  1  0.958510  0.245027  0.998682  1
  S  S28  1  0.195312  0.754530  0.714877  1
  S  S29  1  0.304688  0.745470  0.214877  1
  S  S30  1  0.797735  0.253730  0.282909  1
  S  S31  1  0.702265  0.246270  0.782909  1
