# generated using pymatgen
data_TbErAl20IrRu3
_symmetry_space_group_name_H-M   'P 1'
_cell_length_a   6.84271103
_cell_length_b   6.84693113
_cell_length_c   9.14120141
_cell_angle_alpha   90.07690194
_cell_angle_beta   90.08110225
_cell_angle_gamma   96.65603194
_symmetry_Int_Tables_number   1
_chemical_formula_structural   TbErAl20IrRu3
_chemical_formula_sum   'Tb1 Er1 Al20 Ir1 Ru3'
_cell_volume   425.39208045
_cell_formula_units_Z   1
loop_
 _symmetry_equiv_pos_site_id
 _symmetry_equiv_pos_as_xyz
  1  'x, y, z'
loop_
 _atom_site_type_symbol
 _atom_site_label
 _atom_site_symmetry_multiplicity
 _atom_site_fract_x
 _atom_site_fract_y
 _atom_site_fract_z
 _atom_site_occupancy
  Tb  Tb0  1  0.871136  0.127405  0.750384  1
  Er  Er1  1  0.129406  0.872182  0.249516  1
  Al  Al2  1  0.620634  0.376073  0.550794  1
  Al  Al3  1  0.379087  0.624173  0.449023  1
  Al  Al4  1  0.376943  0.623653  0.050096  1
  Al  Al5  1  0.622781  0.376624  0.950113  1
  Al  Al6  1  0.226759  0.223799  0.498588  1
  Al  Al7  1  0.773362  0.776042  0.500952  1
  Al  Al8  1  0.774372  0.774852  0.000754  1
  Al  Al9  1  0.225768  0.225027  0.999735  1
  Al  Al10  1  0.844431  0.156194  0.100088  1
  Al  Al11  1  0.155895  0.843501  0.900163  1
  Al  Al12  1  0.157421  0.845387  0.601361  1
  Al  Al13  1  0.842899  0.154227  0.398388  1
  Al  Al14  1  0.857476  0.587363  0.751562  1
  Al  Al15  1  0.142764  0.413271  0.248449  1
  Al  Al16  1  0.413580  0.141681  0.750430  1
  Al  Al17  1  0.585776  0.858117  0.249565  1
  Al  Al18  1  0.222068  0.481199  0.752299  1
  Al  Al19  1  0.778270  0.519372  0.247714  1
  Al  Al20  1  0.518621  0.779018  0.749819  1
  Al  Al21  1  0.480799  0.220680  0.250165  1
  Ir  Ir22  1  0.000042  0.500087  0.499694  1
  Ru  Ru23  1  0.000052  0.500168  0.000357  1
  Ru  Ru24  1  0.499839  0.999963  0.000374  1
  Ru  Ru25  1  0.499817  0.999942  0.499620  1
