# generated using pymatgen
data_YEr(ZnRh)2
_symmetry_space_group_name_H-M   'P 1'
_cell_length_a   4.09140000
_cell_length_b   6.92069923
_cell_length_c   8.04693501
_cell_angle_alpha   90.20627440
_cell_angle_beta   90.00000000
_cell_angle_gamma   90.00000000
_symmetry_Int_Tables_number   1
_chemical_formula_structural   YEr(ZnRh)2
_chemical_formula_sum   'Y2 Er2 Zn4 Rh4'
_cell_volume   227.85029540
_cell_formula_units_Z   2
loop_
 _symmetry_equiv_pos_site_id
 _symmetry_equiv_pos_as_xyz
  1  'x, y, z'
loop_
 _atom_site_type_symbol
 _atom_site_label
 _atom_site_symmetry_multiplicity
 _atom_site_fract_x
 _atom_site_fract_y
 _atom_site_fract_z
 _atom_site_occupancy
  Y  Y0  1  0.750000  0.967825  0.685530  1
  Y  Y1  1  0.250000  0.032175  0.314470  1
  Er  Er2  1  0.250000  0.532124  0.184269  1
  Er  Er3  1  0.750000  0.467876  0.815731  1
  Zn  Zn4  1  0.250000  0.641710  0.565239  1
  Zn  Zn5  1  0.750000  0.358290  0.434761  1
  Zn  Zn6  1  0.750000  0.856970  0.065167  1
  Zn  Zn7  1  0.250000  0.143030  0.934833  1
  Rh  Rh8  1  0.250000  0.756940  0.880427  1
  Rh  Rh9  1  0.750000  0.243060  0.119573  1
  Rh  Rh10  1  0.750000  0.737761  0.377527  1
  Rh  Rh11  1  0.250000  0.262239  0.622473  1
