# generated using pymatgen
data_YHo9Si6N
_symmetry_space_group_name_H-M   'P 1'
_cell_length_a   8.39205013
_cell_length_b   8.38983280
_cell_length_c   6.30708586
_cell_angle_alpha   90.02985117
_cell_angle_beta   89.94032025
_cell_angle_gamma   120.00873113
_symmetry_Int_Tables_number   1
_chemical_formula_structural   YHo9Si6N
_chemical_formula_sum   'Y1 Ho9 Si6 N1'
_cell_volume   384.54068742
_cell_formula_units_Z   1
loop_
 _symmetry_equiv_pos_site_id
 _symmetry_equiv_pos_as_xyz
  1  'x, y, z'
loop_
 _atom_site_type_symbol
 _atom_site_label
 _atom_site_symmetry_multiplicity
 _atom_site_fract_x
 _atom_site_fract_y
 _atom_site_fract_z
 _atom_site_occupancy
  Y  Y0  1  0.233490  0.000000  0.734162  1
  Ho  Ho1  1  0.333355  0.666476  0.499906  1
  Ho  Ho2  1  0.666880  0.333524  0.499906  1
  Ho  Ho3  1  0.666856  0.333510  0.000088  1
  Ho  Ho4  1  0.333344  0.666490  0.000088  1
  Ho  Ho5  1  0.999840  0.767207  0.267243  1
  Ho  Ho6  1  0.232634  0.232793  0.267243  1
  Ho  Ho7  1  0.767436  0.000000  0.267147  1
  Ho  Ho8  1  0.999864  0.232805  0.732686  1
  Ho  Ho9  1  0.767059  0.767195  0.732686  1
  Si  Si10  1  0.000009  0.399649  0.251640  1
  Si  Si11  1  0.600360  0.600351  0.251640  1
  Si  Si12  1  0.399699  0.000000  0.251519  1
  Si  Si13  1  0.999693  0.599813  0.748394  1
  Si  Si14  1  0.399880  0.400187  0.748394  1
  Si  Si15  1  0.600728  0.000000  0.748292  1
  N  N16  1  0.998873  0.000000  0.498967  1
