# generated using pymatgen
data_Cs6Rb2Zr6CrBr20
_symmetry_space_group_name_H-M   'P 1'
_cell_length_a   12.49664029
_cell_length_b   12.49664048
_cell_length_c   12.49663892
_cell_angle_alpha   60.17915393
_cell_angle_beta   60.17915466
_cell_angle_gamma   60.17915730
_symmetry_Int_Tables_number   1
_chemical_formula_structural   Cs6Rb2Zr6CrBr20
_chemical_formula_sum   'Cs6 Rb2 Zr6 Cr1 Br20'
_cell_volume   1385.55337392
_cell_formula_units_Z   1
loop_
 _symmetry_equiv_pos_site_id
 _symmetry_equiv_pos_as_xyz
  1  'x, y, z'
loop_
 _atom_site_type_symbol
 _atom_site_label
 _atom_site_symmetry_multiplicity
 _atom_site_fract_x
 _atom_site_fract_y
 _atom_site_fract_z
 _atom_site_occupancy
  Cs  Cs0  1  0.360828  0.360828  0.918071  1
  Cs  Cs1  1  0.360828  0.918071  0.360828  1
  Cs  Cs2  1  0.639172  0.639172  0.081929  1
  Cs  Cs3  1  0.639172  0.081929  0.639172  1
  Cs  Cs4  1  0.918071  0.360828  0.360828  1
  Cs  Cs5  1  0.081929  0.639172  0.639172  1
  Rb  Rb6  1  0.362289  0.362289  0.362289  1
  Rb  Rb7  1  0.637711  0.637711  0.637711  1
  Zr  Zr8  1  0.860427  0.139780  0.139780  1
  Zr  Zr9  1  0.139573  0.860220  0.860220  1
  Zr  Zr10  1  0.139780  0.860427  0.139780  1
  Zr  Zr11  1  0.860220  0.139573  0.860220  1
  Zr  Zr12  1  0.139780  0.139780  0.860427  1
  Zr  Zr13  1  0.860220  0.860220  0.139573  1
  Cr  Cr14  1  0.000000  0.000000  0.000000  1
  Br  Br15  1  0.313148  0.000793  0.000793  1
  Br  Br16  1  0.686852  0.999207  0.999207  1
  Br  Br17  1  0.000000  0.311582  0.688418  1
  Br  Br18  1  0.000000  0.688418  0.311582  1
  Br  Br19  1  0.000793  0.313148  0.000793  1
  Br  Br20  1  0.688418  0.000000  0.311582  1
  Br  Br21  1  0.999207  0.686852  0.999207  1
  Br  Br22  1  0.311582  0.000000  0.688418  1
  Br  Br23  1  0.000793  0.000793  0.313148  1
  Br  Br24  1  0.999207  0.999207  0.686852  1
  Br  Br25  1  0.688418  0.311582  0.000000  1
  Br  Br26  1  0.311582  0.688418  0.000000  1
  Br  Br27  1  0.687428  0.307572  0.307572  1
  Br  Br28  1  0.312572  0.692428  0.692428  1
  Br  Br29  1  0.307572  0.687428  0.307572  1
  Br  Br30  1  0.692428  0.312572  0.692428  1
  Br  Br31  1  0.307572  0.307572  0.687428  1
  Br  Br32  1  0.692428  0.692428  0.312572  1
  Br  Br33  1  0.254032  0.254032  0.254032  1
  Br  Br34  1  0.745968  0.745968  0.745968  1
