# generated using pymatgen
data_Li8Pr7TmPt8
_symmetry_space_group_name_H-M   'P 1'
_cell_length_a   9.68056336
_cell_length_b   9.68042587
_cell_length_c   7.30779800
_cell_angle_alpha   90.33372920
_cell_angle_beta   89.66612165
_cell_angle_gamma   130.51870746
_symmetry_Int_Tables_number   1
_chemical_formula_structural   Li8Pr7TmPt8
_chemical_formula_sum   'Li8 Pr7 Tm1 Pt8'
_cell_volume   520.59148562
_cell_formula_units_Z   1
loop_
 _symmetry_equiv_pos_site_id
 _symmetry_equiv_pos_as_xyz
  1  'x, y, z'
loop_
 _atom_site_type_symbol
 _atom_site_label
 _atom_site_symmetry_multiplicity
 _atom_site_fract_x
 _atom_site_fract_y
 _atom_site_fract_z
 _atom_site_occupancy
  Li  Li0  1  0.848520  0.151483  0.872604  1
  Li  Li1  1  0.844023  0.650667  0.628101  1
  Li  Li2  1  0.349351  0.155987  0.628104  1
  Li  Li3  1  0.149618  0.850377  0.378564  1
  Li  Li4  1  0.154927  0.348434  0.128096  1
  Li  Li5  1  0.651555  0.845051  0.128089  1
  Li  Li6  1  0.651313  0.348698  0.379901  1
  Li  Li7  1  0.347305  0.652680  0.873746  1
  Pr  Pr8  1  0.529671  0.963249  0.548063  1
  Pr  Pr9  1  0.036760  0.470331  0.548050  1
  Pr  Pr10  1  0.531904  0.468110  0.957744  1
  Pr  Pr11  1  0.467290  0.032656  0.051165  1
  Pr  Pr12  1  0.967352  0.532707  0.051161  1
  Pr  Pr13  1  0.966553  0.033442  0.455590  1
  Pr  Pr14  1  0.030403  0.969586  0.957111  1
  Tm  Tm15  1  0.466159  0.533839  0.453141  1
  Pt  Pt16  1  0.816072  0.183917  0.254415  1
  Pt  Pt17  1  0.808688  0.681334  0.254639  1
  Pt  Pt18  1  0.318664  0.191307  0.254661  1
  Pt  Pt19  1  0.184020  0.815981  0.757390  1
  Pt  Pt20  1  0.194976  0.322842  0.740966  1
  Pt  Pt21  1  0.677152  0.805024  0.740961  1
  Pt  Pt22  1  0.686088  0.313913  0.759311  1
  Pt  Pt23  1  0.321638  0.678384  0.256433  1
