# generated using pymatgen
data_Dy14Y6Cd5Ni2Hg
_symmetry_space_group_name_H-M   'P 1'
_cell_length_a   9.64102305
_cell_length_b   9.64102440
_cell_length_c   9.69829600
_cell_angle_alpha   90.00000000
_cell_angle_beta   90.00000000
_cell_angle_gamma   119.90560566
_symmetry_Int_Tables_number   1
_chemical_formula_structural   Dy14Y6Cd5Ni2Hg
_chemical_formula_sum   'Dy14 Y6 Cd5 Ni2 Hg1'
_cell_volume   781.42027754
_cell_formula_units_Z   1
loop_
 _symmetry_equiv_pos_site_id
 _symmetry_equiv_pos_as_xyz
  1  'x, y, z'
loop_
 _atom_site_type_symbol
 _atom_site_label
 _atom_site_symmetry_multiplicity
 _atom_site_fract_x
 _atom_site_fract_y
 _atom_site_fract_z
 _atom_site_occupancy
  Dy  Dy0  1  0.998341  0.001659  0.496407  1
  Dy  Dy1  1  0.998341  0.001659  0.003593  1
  Dy  Dy2  1  0.210028  0.789972  0.436254  1
  Dy  Dy3  1  0.211183  0.420993  0.436543  1
  Dy  Dy4  1  0.579007  0.788817  0.436543  1
  Dy  Dy5  1  0.789597  0.210403  0.564102  1
  Dy  Dy6  1  0.789875  0.579393  0.563184  1
  Dy  Dy7  1  0.420607  0.210125  0.563184  1
  Dy  Dy8  1  0.789597  0.210403  0.935898  1
  Dy  Dy9  1  0.789875  0.579393  0.936816  1
  Dy  Dy10  1  0.420607  0.210125  0.936816  1
  Dy  Dy11  1  0.210028  0.789972  0.063746  1
  Dy  Dy12  1  0.211183  0.420993  0.063457  1
  Dy  Dy13  1  0.579007  0.788817  0.063457  1
  Y  Y14  1  0.544087  0.455913  0.250000  1
  Y  Y15  1  0.546146  0.086364  0.250000  1
  Y  Y16  1  0.913636  0.453854  0.250000  1
  Y  Y17  1  0.456583  0.543417  0.750000  1
  Y  Y18  1  0.456191  0.912679  0.750000  1
  Y  Y19  1  0.087321  0.543809  0.750000  1
  Cd  Cd20  1  0.883508  0.764879  0.250000  1
  Cd  Cd21  1  0.235121  0.116492  0.250000  1
  Cd  Cd22  1  0.114831  0.885169  0.750000  1
  Cd  Cd23  1  0.114979  0.230816  0.750000  1
  Cd  Cd24  1  0.769184  0.885021  0.750000  1
  Ni  Ni25  1  0.333158  0.666842  0.250000  1
  Ni  Ni26  1  0.666624  0.333376  0.750000  1
  Hg  Hg27  1  0.881351  0.118649  0.250000  1
