# generated using pymatgen
data_HoTmPa2(Al3Rh)6
_symmetry_space_group_name_H-M   'P 1'
_cell_length_a   7.59575100
_cell_length_b   7.60342151
_cell_length_c   9.36461700
_cell_angle_alpha   90.00000000
_cell_angle_beta   90.00000000
_cell_angle_gamma   119.62881900
_symmetry_Int_Tables_number   1
_chemical_formula_structural   HoTmPa2(Al3Rh)6
_chemical_formula_sum   'Ho1 Tm1 Pa2 Al18 Rh6'
_cell_volume   470.12429404
_cell_formula_units_Z   1
loop_
 _symmetry_equiv_pos_site_id
 _symmetry_equiv_pos_as_xyz
  1  'x, y, z'
loop_
 _atom_site_type_symbol
 _atom_site_label
 _atom_site_symmetry_multiplicity
 _atom_site_fract_x
 _atom_site_fract_y
 _atom_site_fract_z
 _atom_site_occupancy
  Ho  Ho0  1  0.670237  0.993056  0.250000  1
  Tm  Tm1  1  0.329704  0.006953  0.750000  1
  Pa  Pa2  1  0.997560  0.671062  0.250000  1
  Pa  Pa3  1  0.002454  0.328925  0.750000  1
  Al  Al4  1  0.130125  0.125984  0.250000  1
  Al  Al5  1  0.870022  0.874080  0.750000  1
  Al  Al6  1  0.999809  0.331214  0.078478  1
  Al  Al7  1  0.000340  0.668932  0.921429  1
  Al  Al8  1  0.000340  0.668932  0.578571  1
  Al  Al9  1  0.338664  0.002861  0.425157  1
  Al  Al10  1  0.999809  0.331214  0.421522  1
  Al  Al11  1  0.661192  0.997125  0.575058  1
  Al  Al12  1  0.661192  0.997125  0.924942  1
  Al  Al13  1  0.338664  0.002861  0.074843  1
  Al  Al14  1  0.334762  0.332737  0.553139  1
  Al  Al15  1  0.665239  0.667149  0.446968  1
  Al  Al16  1  0.665239  0.667149  0.053032  1
  Al  Al17  1  0.334762  0.332737  0.946861  1
  Al  Al18  1  0.340724  0.549276  0.250000  1
  Al  Al19  1  0.659166  0.450557  0.750000  1
  Al  Al20  1  0.550219  0.341483  0.250000  1
  Al  Al21  1  0.449720  0.658564  0.750000  1
  Rh  Rh22  1  0.675725  0.329351  0.999535  1
  Rh  Rh23  1  0.324210  0.670654  0.000370  1
  Rh  Rh24  1  0.324210  0.670654  0.499630  1
  Rh  Rh25  1  0.675725  0.329351  0.500465  1
  Rh  Rh26  1  0.000094  0.000007  0.999937  1
  Rh  Rh27  1  0.000094  0.000007  0.500063  1
