# generated using pymatgen
data_Dy7Th(TcB6)4
_symmetry_space_group_name_H-M   'P 1'
_cell_length_a   3.71991500
_cell_length_b   9.19497423
_cell_length_c   11.59584400
_cell_angle_alpha   90.03010609
_cell_angle_beta   90.00000000
_cell_angle_gamma   90.00000000
_symmetry_Int_Tables_number   1
_chemical_formula_structural   Dy7Th(TcB6)4
_chemical_formula_sum   'Dy7 Th1 Tc4 B24'
_cell_volume   396.63025293
_cell_formula_units_Z   1
loop_
 _symmetry_equiv_pos_site_id
 _symmetry_equiv_pos_as_xyz
  1  'x, y, z'
loop_
 _atom_site_type_symbol
 _atom_site_label
 _atom_site_symmetry_multiplicity
 _atom_site_fract_x
 _atom_site_fract_y
 _atom_site_fract_z
 _atom_site_occupancy
  Dy  Dy0  1  0.000000  0.677578  0.587118  1
  Dy  Dy1  1  0.000000  0.823527  0.084909  1
  Dy  Dy2  1  0.000000  0.175837  0.914162  1
  Dy  Dy3  1  0.000000  0.941030  0.368616  1
  Dy  Dy4  1  0.000000  0.056749  0.632188  1
  Dy  Dy5  1  0.000000  0.442768  0.129045  1
  Dy  Dy6  1  0.000000  0.558239  0.869826  1
  Th  Th7  1  0.000000  0.322740  0.414199  1
  Tc  Tc8  1  0.000000  0.638609  0.320349  1
  Tc  Tc9  1  0.000000  0.362190  0.680254  1
  Tc  Tc10  1  0.000000  0.138041  0.178410  1
  Tc  Tc11  1  0.000000  0.861835  0.820920  1
  B  B12  1  0.500000  0.555600  0.432282  1
  B  B13  1  0.500000  0.447312  0.569578  1
  B  B14  1  0.500000  0.052873  0.066444  1
  B  B15  1  0.500000  0.946682  0.932865  1
  B  B16  1  0.500000  0.749328  0.418058  1
  B  B17  1  0.500000  0.251594  0.585177  1
  B  B18  1  0.500000  0.248099  0.080424  1
  B  B19  1  0.500000  0.751551  0.918335  1
  B  B20  1  0.500000  0.791273  0.264844  1
  B  B21  1  0.500000  0.208939  0.736223  1
  B  B22  1  0.500000  0.289625  0.232239  1
  B  B23  1  0.500000  0.708873  0.765571  1
  B  B24  1  0.500000  0.631664  0.184660  1
  B  B25  1  0.500000  0.369814  0.815108  1
  B  B26  1  0.500000  0.128984  0.312140  1
  B  B27  1  0.500000  0.869181  0.686301  1
  B  B28  1  0.500000  0.981930  0.210678  1
  B  B29  1  0.500000  0.017206  0.788885  1
  B  B30  1  0.500000  0.485358  0.286513  1
  B  B31  1  0.500000  0.518244  0.713162  1
  B  B32  1  0.500000  0.601640  0.027833  1
  B  B33  1  0.500000  0.399094  0.971415  1
  B  B34  1  0.500000  0.097270  0.472805  1
  B  B35  1  0.500000  0.898724  0.528460  1
