# generated using pymatgen
data_Y4TmSc3Pt4
_symmetry_space_group_name_H-M   'P 1'
_cell_length_a   4.67144100
_cell_length_b   7.04886733
_cell_length_c   8.44771030
_cell_angle_alpha   89.68851856
_cell_angle_beta   90.00000000
_cell_angle_gamma   90.00000000
_symmetry_Int_Tables_number   1
_chemical_formula_structural   Y4TmSc3Pt4
_chemical_formula_sum   'Y4 Tm1 Sc3 Pt4'
_cell_volume   278.16520184
_cell_formula_units_Z   1
loop_
 _symmetry_equiv_pos_site_id
 _symmetry_equiv_pos_as_xyz
  1  'x, y, z'
loop_
 _atom_site_type_symbol
 _atom_site_label
 _atom_site_symmetry_multiplicity
 _atom_site_fract_x
 _atom_site_fract_y
 _atom_site_fract_z
 _atom_site_occupancy
  Y  Y0  1  0.250000  0.011044  0.674816  1
  Y  Y1  1  0.250000  0.519619  0.830720  1
  Y  Y2  1  0.750000  0.980495  0.320039  1
  Y  Y3  1  0.750000  0.482840  0.175412  1
  Tm  Tm4  1  0.750000  0.356721  0.575703  1
  Sc  Sc5  1  0.250000  0.138993  0.071111  1
  Sc  Sc6  1  0.250000  0.645422  0.425178  1
  Sc  Sc7  1  0.750000  0.858361  0.927404  1
  Pt  Pt8  1  0.250000  0.255889  0.394447  1
  Pt  Pt9  1  0.250000  0.758498  0.099672  1
  Pt  Pt10  1  0.750000  0.750471  0.597485  1
  Pt  Pt11  1  0.750000  0.241649  0.908015  1
