# generated using pymatgen
data_Sm3Ho3Al17Si7Os8
_symmetry_space_group_name_H-M   'P 1'
_cell_length_a   8.72618505
_cell_length_b   8.71341742
_cell_length_c   9.52911400
_cell_angle_alpha   90.00000000
_cell_angle_beta   90.00000000
_cell_angle_gamma   120.10948225
_symmetry_Int_Tables_number   1
_chemical_formula_structural   Sm3Ho3Al17Si7Os8
_chemical_formula_sum   'Sm3 Ho3 Al17 Si7 Os8'
_cell_volume   626.78113138
_cell_formula_units_Z   1
loop_
 _symmetry_equiv_pos_site_id
 _symmetry_equiv_pos_as_xyz
  1  'x, y, z'
loop_
 _atom_site_type_symbol
 _atom_site_label
 _atom_site_symmetry_multiplicity
 _atom_site_fract_x
 _atom_site_fract_y
 _atom_site_fract_z
 _atom_site_occupancy
  Sm  Sm0  1  0.809150  0.617832  0.750000  1
  Sm  Sm1  1  0.384051  0.189450  0.750000  1
  Sm  Sm2  1  0.804891  0.190295  0.750000  1
  Ho  Ho3  1  0.193363  0.388939  0.250000  1
  Ho  Ho4  1  0.610134  0.806652  0.250000  1
  Ho  Ho5  1  0.196371  0.804903  0.250000  1
  Al  Al6  1  0.165059  0.330933  0.575400  1
  Al  Al7  1  0.834243  0.671372  0.420213  1
  Al  Al8  1  0.670058  0.834310  0.574800  1
  Al  Al9  1  0.834243  0.671372  0.079787  1
  Al  Al10  1  0.329356  0.165843  0.421358  1
  Al  Al11  1  0.165059  0.330933  0.924600  1
  Al  Al12  1  0.164059  0.833711  0.573746  1
  Al  Al13  1  0.329356  0.165843  0.078642  1
  Al  Al14  1  0.835563  0.163960  0.420726  1
  Al  Al15  1  0.670058  0.834310  0.925200  1
  Al  Al16  1  0.835563  0.163960  0.079274  1
  Al  Al17  1  0.164059  0.833711  0.926254  1
  Al  Al18  1  0.127583  0.566877  0.750000  1
  Al  Al19  1  0.564487  0.435075  0.250000  1
  Al  Al20  1  0.438465  0.567407  0.750000  1
  Al  Al21  1  0.999643  0.999299  0.250000  1
  Al  Al22  1  0.999911  0.000949  0.750000  1
  Si  Si23  1  0.333335  0.664632  0.040525  1
  Si  Si24  1  0.666350  0.335805  0.964366  1
  Si  Si25  1  0.666350  0.335805  0.535634  1
  Si  Si26  1  0.333335  0.664632  0.459475  1
  Si  Si27  1  0.564980  0.123911  0.250000  1
  Si  Si28  1  0.435583  0.871405  0.750000  1
  Si  Si29  1  0.875109  0.434604  0.250000  1
  Os  Os30  1  0.500145  0.999551  0.003390  1
  Os  Os31  1  0.999640  0.499917  0.008782  1
  Os  Os32  1  0.500145  0.999551  0.496610  1
  Os  Os33  1  0.499978  0.500810  0.002398  1
  Os  Os34  1  0.999640  0.499917  0.491218  1
  Os  Os35  1  0.499978  0.500810  0.497602  1
  Os  Os36  1  0.000354  0.000352  0.000564  1
  Os  Os37  1  0.000354  0.000352  0.499436  1
