# generated using pymatgen
data_Sm(VSn)6
_symmetry_space_group_name_H-M   'P 1'
_cell_length_a   5.53278300
_cell_length_b   5.53172222
_cell_length_c   9.27380900
_cell_angle_alpha   90.00000000
_cell_angle_beta   90.00000000
_cell_angle_gamma   120.00633768
_symmetry_Int_Tables_number   1
_chemical_formula_structural   Sm(VSn)6
_chemical_formula_sum   'Sm1 V6 Sn6'
_cell_volume   245.79047047
_cell_formula_units_Z   1
loop_
 _symmetry_equiv_pos_site_id
 _symmetry_equiv_pos_as_xyz
  1  'x, y, z'
loop_
 _atom_site_type_symbol
 _atom_site_label
 _atom_site_symmetry_multiplicity
 _atom_site_fract_x
 _atom_site_fract_y
 _atom_site_fract_z
 _atom_site_occupancy
  Sm  Sm0  1  0.999992  0.000000  0.000000  1
  V  V1  1  0.499985  0.000000  0.249342  1
  V  V2  1  0.499979  0.500000  0.249282  1
  V  V3  1  0.999980  0.500000  0.249282  1
  V  V4  1  0.499985  0.000000  0.750658  1
  V  V5  1  0.499979  0.500000  0.750718  1
  V  V6  1  0.999980  0.500000  0.750718  1
  Sn  Sn7  1  0.333304  0.666634  0.000000  1
  Sn  Sn8  1  0.666670  0.333366  0.000000  1
  Sn  Sn9  1  0.333348  0.666717  0.500000  1
  Sn  Sn10  1  0.666632  0.333283  0.500000  1
  Sn  Sn11  1  0.999983  0.000000  0.332879  1
  Sn  Sn12  1  0.999983  0.000000  0.667121  1
