# generated using pymatgen
data_Sc12CoTc3
_symmetry_space_group_name_H-M   'P 1'
_cell_length_a   13.49610400
_cell_length_b   8.55390500
_cell_length_c   5.87426700
_cell_angle_alpha   90.00000000
_cell_angle_beta   90.00000000
_cell_angle_gamma   90.00000000
_symmetry_Int_Tables_number   1
_chemical_formula_structural   Sc12CoTc3
_chemical_formula_sum   'Sc24 Co2 Tc6'
_cell_volume   678.15117924
_cell_formula_units_Z   2
loop_
 _symmetry_equiv_pos_site_id
 _symmetry_equiv_pos_as_xyz
  1  'x, y, z'
loop_
 _atom_site_type_symbol
 _atom_site_label
 _atom_site_symmetry_multiplicity
 _atom_site_fract_x
 _atom_site_fract_y
 _atom_site_fract_z
 _atom_site_occupancy
  Sc  Sc0  1  0.540701  0.060522  0.752078  1
  Sc  Sc1  1  0.959298  0.939478  0.252076  1
  Sc  Sc2  1  0.029571  0.441234  0.745033  1
  Sc  Sc3  1  0.470430  0.558767  0.245034  1
  Sc  Sc4  1  0.470430  0.941233  0.245034  1
  Sc  Sc5  1  0.029571  0.058767  0.745033  1
  Sc  Sc6  1  0.959298  0.560522  0.252076  1
  Sc  Sc7  1  0.540701  0.439479  0.752078  1
  Sc  Sc8  1  0.354716  0.250000  0.465325  1
  Sc  Sc9  1  0.145284  0.750000  0.965325  1
  Sc  Sc10  1  0.847914  0.250000  0.024049  1
  Sc  Sc11  1  0.652086  0.750000  0.524047  1
  Sc  Sc12  1  0.785108  0.063720  0.583091  1
  Sc  Sc13  1  0.714892  0.936281  0.083091  1
  Sc  Sc14  1  0.290492  0.437726  0.932065  1
  Sc  Sc15  1  0.209509  0.562273  0.432067  1
  Sc  Sc16  1  0.209509  0.937726  0.432067  1
  Sc  Sc17  1  0.290492  0.062275  0.932065  1
  Sc  Sc18  1  0.714892  0.563718  0.083091  1
  Sc  Sc19  1  0.785108  0.436281  0.583091  1
  Sc  Sc20  1  0.108339  0.250000  0.204426  1
  Sc  Sc21  1  0.391661  0.750000  0.704428  1
  Sc  Sc22  1  0.616022  0.250000  0.288293  1
  Sc  Sc23  1  0.883978  0.750000  0.788292  1
  Co  Co24  1  0.679764  0.250000  0.862359  1
  Co  Co25  1  0.820236  0.750000  0.362360  1
  Tc  Tc26  1  0.448178  0.250000  0.066339  1
  Tc  Tc27  1  0.051821  0.750000  0.566339  1
  Tc  Tc28  1  0.934531  0.250000  0.423961  1
  Tc  Tc29  1  0.565470  0.750000  0.923961  1
  Tc  Tc30  1  0.178254  0.250000  0.640713  1
  Tc  Tc31  1  0.321745  0.750000  0.140712  1
