# generated using pymatgen
data_Nd4Ga10Ir5Pd
_symmetry_space_group_name_H-M   'P 1'
_cell_length_a   8.69857028
_cell_length_b   8.69857043
_cell_length_c   8.69857049
_cell_angle_alpha   141.18478605
_cell_angle_beta   107.78931845
_cell_angle_gamma   85.14183819
_symmetry_Int_Tables_number   1
_chemical_formula_structural   Nd4Ga10Ir5Pd
_chemical_formula_sum   'Nd4 Ga10 Ir5 Pd1'
_cell_volume   379.63776225
_cell_formula_units_Z   1
loop_
 _symmetry_equiv_pos_site_id
 _symmetry_equiv_pos_as_xyz
  1  'x, y, z'
loop_
 _atom_site_type_symbol
 _atom_site_label
 _atom_site_symmetry_multiplicity
 _atom_site_fract_x
 _atom_site_fract_y
 _atom_site_fract_z
 _atom_site_occupancy
  Nd  Nd0  1  0.864603  0.637872  0.227234  1
  Nd  Nd1  1  0.135397  0.362632  0.773270  1
  Nd  Nd2  1  0.410636  0.137368  0.272766  1
  Nd  Nd3  1  0.589364  0.862128  0.726730  1
  Ga  Ga4  1  0.500000  0.750000  0.250000  1
  Ga  Ga5  1  0.500000  0.250000  0.750000  1
  Ga  Ga6  1  0.209798  0.959798  0.750000  1
  Ga  Ga7  1  0.790202  0.540202  0.750000  1
  Ga  Ga8  1  0.792912  0.042912  0.250000  1
  Ga  Ga9  1  0.207088  0.457088  0.250000  1
  Ga  Ga10  1  0.080226  0.912859  0.176589  1
  Ga  Ga11  1  0.919774  0.096361  0.832631  1
  Ga  Ga12  1  0.736270  0.403639  0.323411  1
  Ga  Ga13  1  0.263730  0.587141  0.667369  1
  Ir  Ir14  1  0.000000  0.250000  0.250000  1
  Ir  Ir15  1  0.256035  0.849808  0.401076  1
  Ir  Ir16  1  0.743965  0.145039  0.593772  1
  Ir  Ir17  1  0.448732  0.354961  0.098924  1
  Ir  Ir18  1  0.551268  0.650192  0.906228  1
  Pd  Pd19  1  0.000000  0.750000  0.750000  1
