# generated using pymatgen
data_Hf16Rh8CO3
_symmetry_space_group_name_H-M   'P 1'
_cell_length_a   8.74565357
_cell_length_b   8.72110810
_cell_length_c   8.72110700
_cell_angle_alpha   60.00000039
_cell_angle_beta   60.09279830
_cell_angle_gamma   60.09280093
_symmetry_Int_Tables_number   1
_chemical_formula_structural   Hf16Rh8CO3
_chemical_formula_sum   'Hf16 Rh8 C1 O3'
_cell_volume   471.00802475
_cell_formula_units_Z   1
loop_
 _symmetry_equiv_pos_site_id
 _symmetry_equiv_pos_as_xyz
  1  'x, y, z'
loop_
 _atom_site_type_symbol
 _atom_site_label
 _atom_site_symmetry_multiplicity
 _atom_site_fract_x
 _atom_site_fract_y
 _atom_site_fract_z
 _atom_site_occupancy
  Hf  Hf0  1  0.125000  0.625000  0.625000  1
  Hf  Hf1  1  0.625000  0.125000  0.625000  1
  Hf  Hf2  1  0.625000  0.625000  0.125000  1
  Hf  Hf3  1  0.625000  0.625000  0.625000  1
  Hf  Hf4  1  0.812492  0.820206  0.183651  1
  Hf  Hf5  1  0.185183  0.184480  0.815169  1
  Hf  Hf6  1  0.812492  0.183651  0.820206  1
  Hf  Hf7  1  0.185183  0.815169  0.184480  1
  Hf  Hf8  1  0.185183  0.815169  0.815169  1
  Hf  Hf9  1  0.812492  0.183651  0.183651  1
  Hf  Hf10  1  0.437508  0.429794  0.066349  1
  Hf  Hf11  1  0.064817  0.065520  0.434831  1
  Hf  Hf12  1  0.437508  0.066349  0.429794  1
  Hf  Hf13  1  0.064817  0.434831  0.065520  1
  Hf  Hf14  1  0.064817  0.434831  0.434831  1
  Hf  Hf15  1  0.437508  0.066349  0.066349  1
  Rh  Rh16  1  0.779515  0.406828  0.406828  1
  Rh  Rh17  1  0.403446  0.777406  0.409573  1
  Rh  Rh18  1  0.403446  0.409573  0.777406  1
  Rh  Rh19  1  0.403446  0.409573  0.409573  1
  Rh  Rh20  1  0.470485  0.843172  0.843172  1
  Rh  Rh21  1  0.846554  0.472594  0.840427  1
  Rh  Rh22  1  0.846554  0.840427  0.472594  1
  Rh  Rh23  1  0.846554  0.840427  0.840427  1
  C  C24  1  0.625000  0.125000  0.125000  1
  O  O25  1  0.125000  0.625000  0.125000  1
  O  O26  1  0.125000  0.125000  0.625000  1
  O  O27  1  0.125000  0.125000  0.125000  1
