# generated using pymatgen
data_Ba4InAg3(Sn2Au)4
_symmetry_space_group_name_H-M   'P 1'
_cell_length_a   4.86459600
_cell_length_b   4.86459600
_cell_length_c   23.45133300
_cell_angle_alpha   90.00000000
_cell_angle_beta   90.00000000
_cell_angle_gamma   90.00000000
_symmetry_Int_Tables_number   1
_chemical_formula_structural   Ba4InAg3(Sn2Au)4
_chemical_formula_sum   'Ba4 In1 Ag3 Sn8 Au4'
_cell_volume   554.95924451
_cell_formula_units_Z   1
loop_
 _symmetry_equiv_pos_site_id
 _symmetry_equiv_pos_as_xyz
  1  'x, y, z'
loop_
 _atom_site_type_symbol
 _atom_site_label
 _atom_site_symmetry_multiplicity
 _atom_site_fract_x
 _atom_site_fract_y
 _atom_site_fract_z
 _atom_site_occupancy
  Ba  Ba0  1  0.500000  0.000000  0.871911  1
  Ba  Ba1  1  0.500000  0.000000  0.378184  1
  Ba  Ba2  1  0.000000  0.500000  0.128089  1
  Ba  Ba3  1  0.000000  0.500000  0.621816  1
  In  In4  1  0.500000  0.500000  0.000000  1
  Ag  Ag5  1  0.500000  0.500000  0.500000  1
  Ag  Ag6  1  0.000000  0.000000  0.000000  1
  Ag  Ag7  1  0.000000  0.000000  0.500000  1
  Sn  Sn8  1  0.500000  0.000000  0.071656  1
  Sn  Sn9  1  0.500000  0.000000  0.565028  1
  Sn  Sn10  1  0.000000  0.500000  0.928344  1
  Sn  Sn11  1  0.000000  0.500000  0.434972  1
  Sn  Sn12  1  0.500000  0.500000  0.746858  1
  Sn  Sn13  1  0.500000  0.500000  0.253142  1
  Sn  Sn14  1  0.000000  0.000000  0.747328  1
  Sn  Sn15  1  0.000000  0.000000  0.252672  1
  Au  Au16  1  0.500000  0.000000  0.188761  1
  Au  Au17  1  0.500000  0.000000  0.682921  1
  Au  Au18  1  0.000000  0.500000  0.811239  1
  Au  Au19  1  0.000000  0.500000  0.317079  1
