# generated using pymatgen
data_Tb4Cd2Cu3Pt
_symmetry_space_group_name_H-M   'P 1'
_cell_length_a   7.60211454
_cell_length_b   7.60211454
_cell_length_c   3.74727400
_cell_angle_alpha   90.00000000
_cell_angle_beta   90.00000000
_cell_angle_gamma   90.18150181
_symmetry_Int_Tables_number   1
_chemical_formula_structural   Tb4Cd2Cu3Pt
_chemical_formula_sum   'Tb4 Cd2 Cu3 Pt1'
_cell_volume   216.56191732
_cell_formula_units_Z   1
loop_
 _symmetry_equiv_pos_site_id
 _symmetry_equiv_pos_as_xyz
  1  'x, y, z'
loop_
 _atom_site_type_symbol
 _atom_site_label
 _atom_site_symmetry_multiplicity
 _atom_site_fract_x
 _atom_site_fract_y
 _atom_site_fract_z
 _atom_site_occupancy
  Tb  Tb0  1  0.672091  0.172091  0.500000  1
  Tb  Tb1  1  0.322914  0.822914  0.500000  1
  Tb  Tb2  1  0.177384  0.331065  0.500000  1
  Tb  Tb3  1  0.831065  0.677384  0.500000  1
  Cd  Cd4  1  0.998215  0.006209  0.000000  1
  Cd  Cd5  1  0.506209  0.498215  0.000000  1
  Cu  Cu6  1  0.873421  0.373421  0.000000  1
  Cu  Cu7  1  0.618049  0.882131  0.000000  1
  Cu  Cu8  1  0.382131  0.118049  0.000000  1
  Pt  Pt9  1  0.118521  0.618521  0.000000  1
