# generated using pymatgen
data_Zr6Al24Fe5Co3
_symmetry_space_group_name_H-M   'P 1'
_cell_length_a   8.50132331
_cell_length_b   8.51024450
_cell_length_c   9.09771681
_cell_angle_alpha   90.10958928
_cell_angle_beta   90.00493472
_cell_angle_gamma   120.11542633
_symmetry_Int_Tables_number   1
_chemical_formula_structural   Zr6Al24Fe5Co3
_chemical_formula_sum   'Zr6 Al24 Fe5 Co3'
_cell_volume   569.35638516
_cell_formula_units_Z   1
loop_
 _symmetry_equiv_pos_site_id
 _symmetry_equiv_pos_as_xyz
  1  'x, y, z'
loop_
 _atom_site_type_symbol
 _atom_site_label
 _atom_site_symmetry_multiplicity
 _atom_site_fract_x
 _atom_site_fract_y
 _atom_site_fract_z
 _atom_site_occupancy
  Zr  Zr0  1  0.805232  0.193041  0.750040  1
  Zr  Zr1  1  0.194768  0.806959  0.249960  1
  Zr  Zr2  1  0.389797  0.195771  0.749934  1
  Zr  Zr3  1  0.610203  0.804229  0.250066  1
  Zr  Zr4  1  0.803870  0.611234  0.749716  1
  Zr  Zr5  1  0.196130  0.388766  0.250284  1
  Al  Al6  1  0.666479  0.333759  0.975268  1
  Al  Al7  1  0.333521  0.666241  0.024732  1
  Al  Al8  1  0.333984  0.667179  0.475215  1
  Al  Al9  1  0.666016  0.332821  0.524785  1
  Al  Al10  1  0.837173  0.161200  0.425419  1
  Al  Al11  1  0.162827  0.838800  0.574581  1
  Al  Al12  1  0.324262  0.161853  0.425638  1
  Al  Al13  1  0.161568  0.837926  0.925018  1
  Al  Al14  1  0.675738  0.838147  0.574362  1
  Al  Al15  1  0.838432  0.162074  0.074982  1
  Al  Al16  1  0.837485  0.676001  0.425462  1
  Al  Al17  1  0.676096  0.837282  0.925300  1
  Al  Al18  1  0.162515  0.323999  0.574538  1
  Al  Al19  1  0.323904  0.162718  0.074700  1
  Al  Al20  1  0.162497  0.323921  0.925203  1
  Al  Al21  1  0.837503  0.676079  0.074797  1
  Al  Al22  1  0.443231  0.556604  0.750190  1
  Al  Al23  1  0.556769  0.443396  0.249810  1
  Al  Al24  1  0.112686  0.556449  0.750117  1
  Al  Al25  1  0.887314  0.443551  0.249883  1
  Al  Al26  1  0.443293  0.886929  0.749807  1
  Al  Al27  1  0.556707  0.113071  0.250193  1
  Al  Al28  1  0.999970  0.000053  0.749955  1
  Al  Al29  1  0.000030  0.999947  0.250045  1
  Fe  Fe30  1  0.500000  0.500000  0.000000  1
  Fe  Fe31  1  0.500000  0.500000  0.500000  1
  Fe  Fe32  1  0.500000  0.000000  0.500000  1
  Fe  Fe33  1  0.000000  0.000000  0.000000  1
  Fe  Fe34  1  0.000000  0.000000  0.500000  1
  Co  Co35  1  0.000000  0.500000  0.000000  1
  Co  Co36  1  0.500000  0.000000  0.000000  1
  Co  Co37  1  0.000000  0.500000  0.500000  1
