# generated using pymatgen
data_KYb(AgTe2)4
_symmetry_space_group_name_H-M   'P 1'
_cell_length_a   12.19009878
_cell_length_b   12.19009875
_cell_length_c   10.88961000
_cell_angle_alpha   83.31470751
_cell_angle_beta   83.31470752
_cell_angle_gamma   14.64018541
_symmetry_Int_Tables_number   1
_chemical_formula_structural   KYb(AgTe2)4
_chemical_formula_sum   'K1 Yb1 Ag4 Te8'
_cell_volume   406.16477156
_cell_formula_units_Z   1
loop_
 _symmetry_equiv_pos_site_id
 _symmetry_equiv_pos_as_xyz
  1  'x, y, z'
loop_
 _atom_site_type_symbol
 _atom_site_label
 _atom_site_symmetry_multiplicity
 _atom_site_fract_x
 _atom_site_fract_y
 _atom_site_fract_z
 _atom_site_occupancy
  K  K0  1  0.000000  0.000000  0.000000  1
  Yb  Yb1  1  0.500000  0.500000  0.500000  1
  Ag  Ag2  1  0.206571  0.206571  0.141260  1
  Ag  Ag3  1  0.850047  0.850047  0.496942  1
  Ag  Ag4  1  0.149953  0.149953  0.503058  1
  Ag  Ag5  1  0.793429  0.793429  0.858740  1
  Te  Te6  1  0.921388  0.921388  0.697330  1
  Te  Te7  1  0.078612  0.078612  0.302670  1
  Te  Te8  1  0.583484  0.583484  0.712277  1
  Te  Te9  1  0.416516  0.416516  0.287723  1
  Te  Te10  1  0.654010  0.654010  0.957913  1
  Te  Te11  1  0.345990  0.345990  0.042087  1
  Te  Te12  1  0.740060  0.740060  0.346350  1
  Te  Te13  1  0.259940  0.259940  0.653650  1
