# generated using pymatgen
data_Pa(TaSe2)5
_symmetry_space_group_name_H-M   'P 1'
_cell_length_a   5.99519470
_cell_length_b   7.89439784
_cell_length_c   8.65477000
_cell_angle_alpha   113.17696718
_cell_angle_beta   96.88307912
_cell_angle_gamma   104.45270807
_symmetry_Int_Tables_number   1
_chemical_formula_structural   Pa(TaSe2)5
_chemical_formula_sum   'Pa1 Ta5 Se10'
_cell_volume   353.53131381
_cell_formula_units_Z   1
loop_
 _symmetry_equiv_pos_site_id
 _symmetry_equiv_pos_as_xyz
  1  'x, y, z'
loop_
 _atom_site_type_symbol
 _atom_site_label
 _atom_site_symmetry_multiplicity
 _atom_site_fract_x
 _atom_site_fract_y
 _atom_site_fract_z
 _atom_site_occupancy
  Pa  Pa0  1  0.668364  0.515273  0.990147  1
  Ta  Ta1  1  0.002358  0.992027  0.999748  1
  Ta  Ta2  1  0.597061  0.209928  0.205748  1
  Ta  Ta3  1  0.192956  0.396486  0.395846  1
  Ta  Ta4  1  0.797527  0.600547  0.606677  1
  Ta  Ta5  1  0.407735  0.793199  0.796614  1
  Se  Se6  1  0.233761  0.050850  0.299883  1
  Se  Se7  1  0.062709  0.648850  0.898450  1
  Se  Se8  1  0.831603  0.250966  0.498438  1
  Se  Se9  1  0.634979  0.874059  0.116817  1
  Se  Se10  1  0.412214  0.427744  0.677180  1
  Se  Se11  1  0.903539  0.560422  0.313619  1
  Se  Se12  1  0.701767  0.139913  0.898261  1
  Se  Se13  1  0.499887  0.747165  0.501270  1
  Se  Se14  1  0.284087  0.345478  0.098995  1
  Se  Se15  1  0.102252  0.944690  0.703905  1
