# generated using pymatgen
data_NaTe12Rh2I5
_symmetry_space_group_name_H-M   'P 1'
_cell_length_a   9.76218236
_cell_length_b   9.76218287
_cell_length_c   9.84760133
_cell_angle_alpha   108.44019697
_cell_angle_beta   108.44019571
_cell_angle_gamma   110.29306691
_symmetry_Int_Tables_number   1
_chemical_formula_structural   NaTe12Rh2I5
_chemical_formula_sum   'Na1 Te12 Rh2 I5'
_cell_volume   733.09641873
_cell_formula_units_Z   1
loop_
 _symmetry_equiv_pos_site_id
 _symmetry_equiv_pos_as_xyz
  1  'x, y, z'
loop_
 _atom_site_type_symbol
 _atom_site_label
 _atom_site_symmetry_multiplicity
 _atom_site_fract_x
 _atom_site_fract_y
 _atom_site_fract_z
 _atom_site_occupancy
  Na  Na0  1  0.920673  0.579327  0.250000  1
  Te  Te1  1  0.960657  0.201115  0.194073  1
  Te  Te2  1  0.181441  0.921677  0.154284  1
  Te  Te3  1  0.185221  0.194259  0.945273  1
  Te  Te4  1  0.692095  0.674856  0.441400  1
  Te  Te5  1  0.425476  0.666480  0.658736  1
  Te  Te6  1  0.664793  0.434662  0.686843  1
  Te  Te7  1  0.065338  0.835207  0.813157  1
  Te  Te8  1  0.833520  0.074524  0.841264  1
  Te  Te9  1  0.825144  0.807905  0.058600  1
  Te  Te10  1  0.305741  0.314779  0.554727  1
  Te  Te11  1  0.578323  0.318559  0.345716  1
  Te  Te12  1  0.298885  0.539343  0.305927  1
  Rh  Rh13  1  0.259372  0.240628  0.250000  1
  Rh  Rh14  1  0.749614  0.750386  0.750000  1
  I  I15  1  0.230787  0.939505  0.502742  1
  I  I16  1  0.560495  0.269213  0.997258  1
  I  I17  1  0.777381  0.027947  0.491675  1
  I  I18  1  0.472053  0.722619  0.008325  1
  I  I19  1  0.012992  0.487008  0.750000  1
