# generated using pymatgen
data_Nd2B4IrRh4
_symmetry_space_group_name_H-M   'P 1'
_cell_length_a   7.58725859
_cell_length_b   6.32212005
_cell_length_c   5.72907043
_cell_angle_alpha   77.86744729
_cell_angle_beta   54.55211026
_cell_angle_gamma   47.58045745
_symmetry_Int_Tables_number   1
_chemical_formula_structural   Nd2B4IrRh4
_chemical_formula_sum   'Nd2 B4 Ir1 Rh4'
_cell_volume   157.60131886
_cell_formula_units_Z   1
loop_
 _symmetry_equiv_pos_site_id
 _symmetry_equiv_pos_as_xyz
  1  'x, y, z'
loop_
 _atom_site_type_symbol
 _atom_site_label
 _atom_site_symmetry_multiplicity
 _atom_site_fract_x
 _atom_site_fract_y
 _atom_site_fract_z
 _atom_site_occupancy
  Nd  Nd0  1  0.855779  0.855779  0.144221  1
  Nd  Nd1  1  0.144221  0.144221  0.855779  1
  B  B2  1  0.206044  0.530625  0.477211  1
  B  B3  1  0.786120  0.477211  0.530625  1
  B  B4  1  0.530625  0.206044  0.786120  1
  B  B5  1  0.477211  0.786120  0.206044  1
  Ir  Ir6  1  0.750000  0.750000  0.750000  1
  Rh  Rh7  1  0.499014  0.499014  0.000986  1
  Rh  Rh8  1  0.250000  0.250000  0.250000  1
  Rh  Rh9  1  0.000986  0.000986  0.499014  1
  Rh  Rh10  1  0.500000  0.500000  0.500000  1
