# generated using pymatgen
data_Ho4B4Ir9Pt
_symmetry_space_group_name_H-M   'P 1'
_cell_length_a   10.96976759
_cell_length_b   10.96976760
_cell_length_c   10.96976668
_cell_angle_alpha   28.96865179
_cell_angle_beta   28.96865159
_cell_angle_gamma   28.96865509
_symmetry_Int_Tables_number   1
_chemical_formula_structural   Ho4B4Ir9Pt
_chemical_formula_sum   'Ho4 B4 Ir9 Pt1'
_cell_volume   273.87374588
_cell_formula_units_Z   1
loop_
 _symmetry_equiv_pos_site_id
 _symmetry_equiv_pos_as_xyz
  1  'x, y, z'
loop_
 _atom_site_type_symbol
 _atom_site_label
 _atom_site_symmetry_multiplicity
 _atom_site_fract_x
 _atom_site_fract_y
 _atom_site_fract_z
 _atom_site_occupancy
  Ho  Ho0  1  0.151560  0.151560  0.151560  1
  Ho  Ho1  1  0.950298  0.950298  0.950298  1
  Ho  Ho2  1  0.848440  0.848440  0.848440  1
  Ho  Ho3  1  0.049702  0.049702  0.049702  1
  B  B4  1  0.617623  0.617623  0.617623  1
  B  B5  1  0.716506  0.716506  0.716506  1
  B  B6  1  0.382377  0.382377  0.382377  1
  B  B7  1  0.283494  0.283494  0.283494  1
  Ir  Ir8  1  0.406295  0.900583  0.406295  1
  Ir  Ir9  1  0.900583  0.406295  0.406295  1
  Ir  Ir10  1  0.500000  0.500000  0.000000  1
  Ir  Ir11  1  0.500000  0.000000  0.500000  1
  Ir  Ir12  1  0.000000  0.500000  0.500000  1
  Ir  Ir13  1  0.593705  0.099417  0.593705  1
  Ir  Ir14  1  0.593705  0.593705  0.099417  1
  Ir  Ir15  1  0.099417  0.593705  0.593705  1
  Ir  Ir16  1  0.406295  0.406295  0.900583  1
  Pt  Pt17  1  0.500000  0.500000  0.500000  1
