# generated using pymatgen
data_Lu5ZnCuSb
_symmetry_space_group_name_H-M   'P 1'
_cell_length_a   8.33038470
_cell_length_b   8.33038626
_cell_length_c   8.39726049
_cell_angle_alpha   124.09529512
_cell_angle_beta   124.09530528
_cell_angle_gamma   82.52218146
_symmetry_Int_Tables_number   1
_chemical_formula_structural   Lu5ZnCuSb
_chemical_formula_sum   'Lu10 Zn2 Cu2 Sb2'
_cell_volume   384.94416147
_cell_formula_units_Z   2
loop_
 _symmetry_equiv_pos_site_id
 _symmetry_equiv_pos_as_xyz
  1  'x, y, z'
loop_
 _atom_site_type_symbol
 _atom_site_label
 _atom_site_symmetry_multiplicity
 _atom_site_fract_x
 _atom_site_fract_y
 _atom_site_fract_z
 _atom_site_occupancy
  Lu  Lu0  1  0.000000  0.000000  0.000000  1
  Lu  Lu1  1  0.500000  0.500000  0.000000  1
  Lu  Lu2  1  0.792038  0.292038  0.799179  1
  Lu  Lu3  1  0.207962  0.707962  0.200821  1
  Lu  Lu4  1  0.492859  0.992859  0.200821  1
  Lu  Lu5  1  0.301683  0.479499  0.500000  1
  Lu  Lu6  1  0.020501  0.198317  0.500000  1
  Lu  Lu7  1  0.507141  0.007141  0.799179  1
  Lu  Lu8  1  0.698317  0.520501  0.500000  1
  Lu  Lu9  1  0.979499  0.801683  0.500000  1
  Zn  Zn10  1  0.136148  0.636148  0.772296  1
  Zn  Zn11  1  0.863852  0.363852  0.227704  1
  Cu  Cu12  1  0.630313  0.869687  0.500000  1
  Cu  Cu13  1  0.369687  0.130313  0.500000  1
  Sb  Sb14  1  0.250000  0.250000  0.000000  1
  Sb  Sb15  1  0.750000  0.750000  0.000000  1
