# generated using pymatgen
data_Pr6Al24Os7Pt
_symmetry_space_group_name_H-M   'P 1'
_cell_length_a   8.93330100
_cell_length_b   8.93460626
_cell_length_c   9.72207621
_cell_angle_alpha   90.09314107
_cell_angle_beta   90.00000000
_cell_angle_gamma   119.99517119
_symmetry_Int_Tables_number   1
_chemical_formula_structural   Pr6Al24Os7Pt
_chemical_formula_sum   'Pr6 Al24 Os7 Pt1'
_cell_volume   672.04352868
_cell_formula_units_Z   1
loop_
 _symmetry_equiv_pos_site_id
 _symmetry_equiv_pos_as_xyz
  1  'x, y, z'
loop_
 _atom_site_type_symbol
 _atom_site_label
 _atom_site_symmetry_multiplicity
 _atom_site_fract_x
 _atom_site_fract_y
 _atom_site_fract_z
 _atom_site_occupancy
  Pr  Pr0  1  0.192138  0.384275  0.252771  1
  Pr  Pr1  1  0.807862  0.615725  0.747229  1
  Pr  Pr2  1  0.617890  0.808015  0.250791  1
  Pr  Pr3  1  0.382110  0.191985  0.749209  1
  Pr  Pr4  1  0.190124  0.808015  0.250791  1
  Pr  Pr5  1  0.809876  0.191985  0.749209  1
  Al  Al6  1  0.331142  0.662284  0.013466  1
  Al  Al7  1  0.668858  0.337716  0.986534  1
  Al  Al8  1  0.666146  0.332292  0.513071  1
  Al  Al9  1  0.333854  0.667708  0.486929  1
  Al  Al10  1  0.164206  0.328411  0.574125  1
  Al  Al11  1  0.835794  0.671589  0.425875  1
  Al  Al12  1  0.672268  0.836864  0.573379  1
  Al  Al13  1  0.836317  0.672634  0.074738  1
  Al  Al14  1  0.327732  0.163136  0.426621  1
  Al  Al15  1  0.163683  0.327366  0.925262  1
  Al  Al16  1  0.164597  0.836864  0.573379  1
  Al  Al17  1  0.325981  0.168513  0.075404  1
  Al  Al18  1  0.835403  0.163136  0.426621  1
  Al  Al19  1  0.674019  0.831487  0.924596  1
  Al  Al20  1  0.842531  0.168513  0.075404  1
  Al  Al21  1  0.157469  0.831487  0.924596  1
  Al  Al22  1  0.562799  0.125597  0.252522  1
  Al  Al23  1  0.437201  0.874403  0.747478  1
  Al  Al24  1  0.874887  0.437936  0.249548  1
  Al  Al25  1  0.125113  0.562064  0.750452  1
  Al  Al26  1  0.563050  0.437936  0.249548  1
  Al  Al27  1  0.436950  0.562064  0.750452  1
  Al  Al28  1  0.000200  0.000399  0.250066  1
  Al  Al29  1  0.999800  0.999601  0.749934  1
  Os  Os30  1  0.000000  0.500000  0.000000  1
  Os  Os31  1  0.500000  0.000000  0.500000  1
  Os  Os32  1  0.500000  0.500000  0.000000  1
  Os  Os33  1  0.000000  0.500000  0.500000  1
  Os  Os34  1  0.500000  0.500000  0.500000  1
  Os  Os35  1  0.000000  0.000000  0.000000  1
  Os  Os36  1  0.000000  0.000000  0.500000  1
  Pt  Pt37  1  0.500000  0.000000  0.000000  1
