# generated using pymatgen
data_Cs2BaCu3F12
_symmetry_space_group_name_H-M   'P 1'
_cell_length_a   7.61618432
_cell_length_b   7.61618404
_cell_length_c   12.84007758
_cell_angle_alpha   73.03375198
_cell_angle_beta   73.03375078
_cell_angle_gamma   59.44085512
_symmetry_Int_Tables_number   1
_chemical_formula_structural   Cs2BaCu3F12
_chemical_formula_sum   'Cs4 Ba2 Cu6 F24'
_cell_volume   604.06597326
_cell_formula_units_Z   2
loop_
 _symmetry_equiv_pos_site_id
 _symmetry_equiv_pos_as_xyz
  1  'x, y, z'
loop_
 _atom_site_type_symbol
 _atom_site_label
 _atom_site_symmetry_multiplicity
 _atom_site_fract_x
 _atom_site_fract_y
 _atom_site_fract_z
 _atom_site_occupancy
  Cs  Cs0  1  0.906620  0.480846  0.670404  1
  Cs  Cs1  1  0.093380  0.519154  0.329596  1
  Cs  Cs2  1  0.519154  0.093380  0.829596  1
  Cs  Cs3  1  0.480846  0.906620  0.170404  1
  Ba  Ba4  1  0.221037  0.778963  0.750000  1
  Ba  Ba5  1  0.778963  0.221037  0.250000  1
  Cu  Cu6  1  0.500000  0.000000  0.500000  1
  Cu  Cu7  1  0.000000  0.500000  0.000000  1
  Cu  Cu8  1  0.000000  0.000000  0.500000  1
  Cu  Cu9  1  0.000000  0.000000  0.000000  1
  Cu  Cu10  1  0.500000  0.500000  0.500000  1
  Cu  Cu11  1  0.500000  0.500000  0.000000  1
  F  F12  1  0.891085  0.957747  0.652768  1
  F  F13  1  0.513157  0.896713  0.652466  1
  F  F14  1  0.277885  0.420442  0.022116  1
  F  F15  1  0.701463  0.205337  0.028769  1
  F  F16  1  0.896713  0.513157  0.152466  1
  F  F17  1  0.103287  0.486843  0.847534  1
  F  F18  1  0.486843  0.103287  0.347534  1
  F  F19  1  0.794663  0.298537  0.471231  1
  F  F20  1  0.108915  0.042253  0.347232  1
  F  F21  1  0.579558  0.722115  0.477884  1
  F  F22  1  0.452164  0.502721  0.151779  1
  F  F23  1  0.420442  0.277885  0.522116  1
  F  F24  1  0.502721  0.452164  0.651779  1
  F  F25  1  0.809855  0.928733  0.456912  1
  F  F26  1  0.190145  0.071267  0.543088  1
  F  F27  1  0.547836  0.497279  0.848221  1
  F  F28  1  0.928733  0.809855  0.956912  1
  F  F29  1  0.497279  0.547836  0.348221  1
  F  F30  1  0.722115  0.579558  0.977884  1
  F  F31  1  0.957747  0.891085  0.152768  1
  F  F32  1  0.071267  0.190145  0.043088  1
  F  F33  1  0.298537  0.794663  0.971231  1
  F  F34  1  0.042253  0.108915  0.847232  1
  F  F35  1  0.205337  0.701463  0.528769  1
