# generated using pymatgen
data_Eu4SClO12
_symmetry_space_group_name_H-M   'P 1'
_cell_length_a   4.27874700
_cell_length_b   7.45187421
_cell_length_c   8.39056629
_cell_angle_alpha   106.63797930
_cell_angle_beta   90.00000000
_cell_angle_gamma   106.68395041
_symmetry_Int_Tables_number   1
_chemical_formula_structural   Eu4SClO12
_chemical_formula_sum   'Eu4 S1 Cl1 O12'
_cell_volume   244.55232984
_cell_formula_units_Z   1
loop_
 _symmetry_equiv_pos_site_id
 _symmetry_equiv_pos_as_xyz
  1  'x, y, z'
loop_
 _atom_site_type_symbol
 _atom_site_label
 _atom_site_symmetry_multiplicity
 _atom_site_fract_x
 _atom_site_fract_y
 _atom_site_fract_z
 _atom_site_occupancy
  Eu  Eu0  1  0.673081  0.356811  0.079816  1
  Eu  Eu1  1  0.316271  0.643187  0.420184  1
  Eu  Eu2  1  0.678818  0.344849  0.595109  1
  Eu  Eu3  1  0.333968  0.655151  0.904893  1
  S  S4  1  0.934929  0.000000  0.750000  1
  Cl  Cl5  1  0.065208  0.999999  0.249999  1
  O  O6  1  0.241039  0.505662  0.125379  1
  O  O7  1  0.265441  0.999076  0.107896  1
  O  O8  1  0.784509  0.823853  0.207000  1
  O  O9  1  0.960656  0.176144  0.292999  1
  O  O10  1  0.266365  0.000926  0.392105  1
  O  O11  1  0.735378  0.494337  0.374621  1
  O  O12  1  0.253732  0.484032  0.622264  1
  O  O13  1  0.730307  0.998370  0.603761  1
  O  O14  1  0.038770  0.818883  0.704210  1
  O  O15  1  0.219886  0.181117  0.795790  1
  O  O16  1  0.731940  0.001631  0.896240  1
  O  O17  1  0.769702  0.515970  0.877737  1
