# generated using pymatgen
data_Ho4Zn2Ru5W
_symmetry_space_group_name_H-M   'P 1'
_cell_length_a   5.52574717
_cell_length_b   5.16825646
_cell_length_c   8.91545600
_cell_angle_alpha   90.00000000
_cell_angle_beta   90.00000000
_cell_angle_gamma   120.96455307
_symmetry_Int_Tables_number   1
_chemical_formula_structural   Ho4Zn2Ru5W
_chemical_formula_sum   'Ho4 Zn2 Ru5 W1'
_cell_volume   218.32604637
_cell_formula_units_Z   1
loop_
 _symmetry_equiv_pos_site_id
 _symmetry_equiv_pos_as_xyz
  1  'x, y, z'
loop_
 _atom_site_type_symbol
 _atom_site_label
 _atom_site_symmetry_multiplicity
 _atom_site_fract_x
 _atom_site_fract_y
 _atom_site_fract_z
 _atom_site_occupancy
  Ho  Ho0  1  0.675251  0.346159  0.565342  1
  Ho  Ho1  1  0.337701  0.669752  0.439531  1
  Ho  Ho2  1  0.337701  0.669752  0.060469  1
  Ho  Ho3  1  0.675251  0.346159  0.934658  1
  Zn  Zn4  1  0.817478  0.654957  0.250000  1
  Zn  Zn5  1  0.821209  0.162543  0.250000  1
  Ru  Ru6  1  0.022195  0.024580  0.497316  1
  Ru  Ru7  1  0.022195  0.024580  0.002684  1
  Ru  Ru8  1  0.169981  0.817813  0.750000  1
  Ru  Ru9  1  0.645293  0.815383  0.750000  1
  Ru  Ru10  1  0.321799  0.155213  0.250000  1
  W  W11  1  0.153946  0.313108  0.750000  1
