# generated using pymatgen
data_Th4Al24Ir4Pd5
_symmetry_space_group_name_H-M   'P 1'
_cell_length_a   7.57978817
_cell_length_b   7.60899415
_cell_length_c   13.29568689
_cell_angle_alpha   84.90349553
_cell_angle_beta   100.91739527
_cell_angle_gamma   119.76343881
_symmetry_Int_Tables_number   1
_chemical_formula_structural   Th4Al24Ir4Pd5
_chemical_formula_sum   'Th4 Al24 Ir4 Pd5'
_cell_volume   653.60569911
_cell_formula_units_Z   1
loop_
 _symmetry_equiv_pos_site_id
 _symmetry_equiv_pos_as_xyz
  1  'x, y, z'
loop_
 _atom_site_type_symbol
 _atom_site_label
 _atom_site_symmetry_multiplicity
 _atom_site_fract_x
 _atom_site_fract_y
 _atom_site_fract_z
 _atom_site_occupancy
  Th  Th0  1  0.436951  0.830282  0.806210  1
  Th  Th1  1  0.563049  0.169718  0.193790  1
  Th  Th2  1  0.766394  0.502993  0.806385  1
  Th  Th3  1  0.233606  0.497007  0.193615  1
  Al  Al4  1  0.480388  0.163493  0.947388  1
  Al  Al5  1  0.519612  0.836507  0.052612  1
  Al  Al6  1  0.026562  0.172985  0.558205  1
  Al  Al7  1  0.973438  0.827015  0.441795  1
  Al  Al8  1  0.353195  0.827743  0.556227  1
  Al  Al9  1  0.646805  0.172257  0.443773  1
  Al  Al10  1  0.624476  0.833830  0.334847  1
  Al  Al11  1  0.375524  0.166170  0.665153  1
  Al  Al12  1  0.055424  0.489133  0.664126  1
  Al  Al13  1  0.944576  0.510867  0.335874  1
  Al  Al14  1  0.732774  0.843369  0.662315  1
  Al  Al15  1  0.267226  0.156631  0.337685  1
  Al  Al16  1  0.145477  0.497336  0.947915  1
  Al  Al17  1  0.854523  0.502664  0.052085  1
  Al  Al18  1  0.823560  0.837216  0.960303  1
  Al  Al19  1  0.176440  0.162784  0.039697  1
  Al  Al20  1  0.319507  0.500048  0.444833  1
  Al  Al21  1  0.680493  0.499952  0.555167  1
  Al  Al22  1  0.099009  0.835734  0.180445  1
  Al  Al23  1  0.900991  0.164266  0.819555  1
  Al  Al24  1  0.301866  0.364274  0.814612  1
  Al  Al25  1  0.698134  0.635726  0.185388  1
  Al  Al26  1  0.102870  0.962230  0.819102  1
  Al  Al27  1  0.897130  0.037770  0.180898  1
  Ir  Ir28  1  0.389753  0.507781  0.639613  1
  Ir  Ir29  1  0.610247  0.492219  0.360387  1
  Ir  Ir30  1  0.171995  0.828282  0.999406  1
  Ir  Ir31  1  0.828005  0.171718  0.000594  1
  Pd  Pd32  1  0.294464  0.834149  0.361028  1
  Pd  Pd33  1  0.705536  0.165851  0.638972  1
  Pd  Pd34  1  0.048207  0.826256  0.638209  1
  Pd  Pd35  1  0.951793  0.173744  0.361791  1
  Pd  Pd36  1  0.500000  0.500000  0.000000  1
