# generated using pymatgen
data_TbTeBrO3
_symmetry_space_group_name_H-M   'P 1'
_cell_length_a   7.20168200
_cell_length_b   8.01847208
_cell_length_c   8.54710562
_cell_angle_alpha   73.53726364
_cell_angle_beta   90.00000000
_cell_angle_gamma   90.00000000
_symmetry_Int_Tables_number   1
_chemical_formula_structural   TbTeBrO3
_chemical_formula_sum   'Tb4 Te4 Br4 O12'
_cell_volume   473.33123432
_cell_formula_units_Z   4
loop_
 _symmetry_equiv_pos_site_id
 _symmetry_equiv_pos_as_xyz
  1  'x, y, z'
loop_
 _atom_site_type_symbol
 _atom_site_label
 _atom_site_symmetry_multiplicity
 _atom_site_fract_x
 _atom_site_fract_y
 _atom_site_fract_z
 _atom_site_occupancy
  Tb  Tb0  1  0.752740  0.283423  0.392839  1
  Tb  Tb1  1  0.252740  0.216577  0.607161  1
  Tb  Tb2  1  0.247260  0.716577  0.607161  1
  Tb  Tb3  1  0.747260  0.783423  0.392839  1
  Te  Te4  1  0.199906  0.571392  0.269780  1
  Te  Te5  1  0.699906  0.928608  0.730220  1
  Te  Te6  1  0.800094  0.428608  0.730220  1
  Te  Te7  1  0.300094  0.071392  0.269780  1
  Br  Br8  1  0.692382  0.615404  0.123511  1
  Br  Br9  1  0.192382  0.884596  0.876489  1
  Br  Br10  1  0.307618  0.384596  0.876489  1
  Br  Br11  1  0.807618  0.115404  0.123511  1
  O  O12  1  0.307640  0.503982  0.484455  1
  O  O13  1  0.807640  0.996018  0.515545  1
  O  O14  1  0.692360  0.496018  0.515545  1
  O  O15  1  0.192360  0.003982  0.484455  1
  O  O16  1  0.053427  0.736195  0.337969  1
  O  O17  1  0.553427  0.763805  0.662031  1
  O  O18  1  0.946573  0.263805  0.662031  1
  O  O19  1  0.446573  0.236195  0.337969  1
  O  O20  1  0.055977  0.363575  0.328197  1
  O  O21  1  0.555977  0.136425  0.671803  1
  O  O22  1  0.944023  0.636425  0.671803  1
  O  O23  1  0.444023  0.863575  0.328197  1
