# generated using pymatgen
data_Th7Zr(ZnRu)8
_symmetry_space_group_name_H-M   'P 1'
_cell_length_a   3.93335800
_cell_length_b   7.45849968
_cell_length_c   16.53948300
_cell_angle_alpha   89.63943788
_cell_angle_beta   90.00000000
_cell_angle_gamma   90.00000000
_symmetry_Int_Tables_number   1
_chemical_formula_structural   Th7Zr(ZnRu)8
_chemical_formula_sum   'Th7 Zr1 Zn8 Ru8'
_cell_volume   485.20836819
_cell_formula_units_Z   1
loop_
 _symmetry_equiv_pos_site_id
 _symmetry_equiv_pos_as_xyz
  1  'x, y, z'
loop_
 _atom_site_type_symbol
 _atom_site_label
 _atom_site_symmetry_multiplicity
 _atom_site_fract_x
 _atom_site_fract_y
 _atom_site_fract_z
 _atom_site_occupancy
  Th  Th0  1  0.750000  0.325426  0.436162  1
  Th  Th1  1  0.250000  0.056548  0.715061  1
  Th  Th2  1  0.250000  0.556219  0.785138  1
  Th  Th3  1  0.250000  0.677842  0.557742  1
  Th  Th4  1  0.750000  0.824751  0.063938  1
  Th  Th5  1  0.250000  0.171258  0.941488  1
  Th  Th6  1  0.750000  0.445842  0.217748  1
  Zr  Zr7  1  0.750000  0.938776  0.289393  1
  Zn  Zn8  1  0.250000  0.105328  0.158314  1
  Zn  Zn9  1  0.250000  0.994812  0.434223  1
  Zn  Zn10  1  0.750000  0.882582  0.849681  1
  Zn  Zn11  1  0.750000  0.007728  0.556376  1
  Zn  Zn12  1  0.250000  0.492651  0.060939  1
  Zn  Zn13  1  0.750000  0.386051  0.649194  1
  Zn  Zn14  1  0.750000  0.503495  0.943969  1
  Zn  Zn15  1  0.250000  0.630643  0.347055  1
  Ru  Ru16  1  0.750000  0.262854  0.811301  1
  Ru  Ru17  1  0.250000  0.230015  0.308932  1
  Ru  Ru18  1  0.250000  0.754378  0.939477  1
  Ru  Ru19  1  0.250000  0.256035  0.557995  1
  Ru  Ru20  1  0.250000  0.742265  0.190710  1
  Ru  Ru21  1  0.750000  0.751195  0.435913  1
  Ru  Ru22  1  0.750000  0.238563  0.063528  1
  Ru  Ru23  1  0.750000  0.764745  0.685726  1
