# generated using pymatgen
data_La5Tc3(P3Ir4)4
_symmetry_space_group_name_H-M   'P 1'
_cell_length_a   12.78026000
_cell_length_b   12.78026152
_cell_length_c   4.09181600
_cell_angle_alpha   90.00000000
_cell_angle_beta   90.00000000
_cell_angle_gamma   120.00000125
_symmetry_Int_Tables_number   1
_chemical_formula_structural   La5Tc3(P3Ir4)4
_chemical_formula_sum   'La5 Tc3 P12 Ir16'
_cell_volume   578.79684112
_cell_formula_units_Z   1
loop_
 _symmetry_equiv_pos_site_id
 _symmetry_equiv_pos_as_xyz
  1  'x, y, z'
loop_
 _atom_site_type_symbol
 _atom_site_label
 _atom_site_symmetry_multiplicity
 _atom_site_fract_x
 _atom_site_fract_y
 _atom_site_fract_z
 _atom_site_occupancy
  La  La0  1  0.000000  0.815837  0.500000  1
  La  La1  1  0.184163  0.184163  0.500000  1
  La  La2  1  0.815837  0.000000  0.500000  1
  La  La3  1  0.333333  0.666667  0.000000  1
  La  La4  1  0.666667  0.333333  0.000000  1
  Tc  Tc5  1  0.000000  0.292369  0.500000  1
  Tc  Tc6  1  0.707631  0.707631  0.500000  1
  Tc  Tc7  1  0.292369  0.000000  0.500000  1
  P  P8  1  0.000000  0.184222  0.000000  1
  P  P9  1  0.815778  0.815778  0.000000  1
  P  P10  1  0.184222  0.000000  0.000000  1
  P  P11  1  0.521569  0.694106  0.500000  1
  P  P12  1  0.305894  0.827463  0.500000  1
  P  P13  1  0.172537  0.478431  0.500000  1
  P  P14  1  0.478431  0.172537  0.500000  1
  P  P15  1  0.694106  0.521569  0.500000  1
  P  P16  1  0.827463  0.305894  0.500000  1
  P  P17  1  0.000000  0.635278  0.000000  1
  P  P18  1  0.364722  0.364722  0.000000  1
  P  P19  1  0.635278  0.000000  0.000000  1
  Ir  Ir20  1  0.619452  0.802239  0.000000  1
  Ir  Ir21  1  0.197761  0.817213  0.000000  1
  Ir  Ir22  1  0.182787  0.380548  0.000000  1
  Ir  Ir23  1  0.380548  0.182787  0.000000  1
  Ir  Ir24  1  0.802239  0.619452  0.000000  1
  Ir  Ir25  1  0.817213  0.197761  0.000000  1
  Ir  Ir26  1  0.507228  0.873245  0.500000  1
  Ir  Ir27  1  0.126755  0.633984  0.500000  1
  Ir  Ir28  1  0.366016  0.492772  0.500000  1
  Ir  Ir29  1  0.492772  0.366016  0.500000  1
  Ir  Ir30  1  0.873245  0.507228  0.500000  1
  Ir  Ir31  1  0.633984  0.126755  0.500000  1
  Ir  Ir32  1  0.000000  0.000000  0.000000  1
  Ir  Ir33  1  0.000000  0.454931  0.000000  1
  Ir  Ir34  1  0.545069  0.545069  0.000000  1
  Ir  Ir35  1  0.454931  0.000000  0.000000  1
