# generated using pymatgen
data_DyY3(Al3Re)2
_symmetry_space_group_name_H-M   'P 1'
_cell_length_a   5.52469200
_cell_length_b   5.52469233
_cell_length_c   8.94860100
_cell_angle_alpha   90.00000000
_cell_angle_beta   90.00000000
_cell_angle_gamma   119.99999803
_symmetry_Int_Tables_number   1
_chemical_formula_structural   DyY3(Al3Re)2
_chemical_formula_sum   'Dy1 Y3 Al6 Re2'
_cell_volume   236.53856233
_cell_formula_units_Z   1
loop_
 _symmetry_equiv_pos_site_id
 _symmetry_equiv_pos_as_xyz
  1  'x, y, z'
loop_
 _atom_site_type_symbol
 _atom_site_label
 _atom_site_symmetry_multiplicity
 _atom_site_fract_x
 _atom_site_fract_y
 _atom_site_fract_z
 _atom_site_occupancy
  Dy  Dy0  1  0.333333  0.666666  0.949117  1
  Y  Y1  1  0.666667  0.333333  0.050805  1
  Y  Y2  1  0.666667  0.333333  0.449168  1
  Y  Y3  1  0.333333  0.666666  0.550942  1
  Al  Al4  1  0.161852  0.323705  0.250007  1
  Al  Al5  1  0.161851  0.838147  0.250007  1
  Al  Al6  1  0.676296  0.838147  0.250007  1
  Al  Al7  1  0.323711  0.161855  0.750004  1
  Al  Al8  1  0.838144  0.161855  0.750004  1
  Al  Al9  1  0.838144  0.676287  0.750004  1
  Re  Re10  1  0.000000  0.000000  0.000015  1
  Re  Re11  1  0.000000  0.000000  0.499923  1
