# generated using pymatgen
data_Tb2Dy4P13Rh20
_symmetry_space_group_name_H-M   'P 1'
_cell_length_a   13.36406717
_cell_length_b   13.35827343
_cell_length_c   3.92576306
_cell_angle_alpha   89.98609856
_cell_angle_beta   90.01840988
_cell_angle_gamma   120.01471395
_symmetry_Int_Tables_number   1
_chemical_formula_structural   Tb2Dy4P13Rh20
_chemical_formula_sum   'Tb2 Dy4 P13 Rh20'
_cell_volume   606.84706914
_cell_formula_units_Z   1
loop_
 _symmetry_equiv_pos_site_id
 _symmetry_equiv_pos_as_xyz
  1  'x, y, z'
loop_
 _atom_site_type_symbol
 _atom_site_label
 _atom_site_symmetry_multiplicity
 _atom_site_fract_x
 _atom_site_fract_y
 _atom_site_fract_z
 _atom_site_occupancy
  Tb  Tb0  1  0.529667  0.717258  0.248057  1
  Tb  Tb1  1  0.282742  0.812427  0.248038  1
  Dy  Dy2  1  0.187447  0.470172  0.248052  1
  Dy  Dy3  1  0.470400  0.282802  0.751921  1
  Dy  Dy4  1  0.717168  0.187548  0.751960  1
  Dy  Dy5  1  0.812437  0.529617  0.751927  1
  P  P6  1  0.525884  0.139267  0.250595  1
  P  P7  1  0.860793  0.386608  0.250557  1
  P  P8  1  0.613300  0.474114  0.250587  1
  P  P9  1  0.945671  0.715198  0.254665  1
  P  P10  1  0.284788  0.230437  0.254750  1
  P  P11  1  0.769530  0.054337  0.254691  1
  P  P12  1  0.386471  0.525438  0.749491  1
  P  P13  1  0.474337  0.860989  0.749479  1
  P  P14  1  0.138835  0.613061  0.749509  1
  P  P15  1  0.715606  0.769713  0.745269  1
  P  P16  1  0.230368  0.945888  0.745285  1
  P  P17  1  0.054378  0.284778  0.745254  1
  P  P18  1  0.000019  0.000062  0.999943  1
  Rh  Rh19  1  0.333102  0.666364  0.751971  1
  Rh  Rh20  1  0.920929  0.250006  0.254277  1
  Rh  Rh21  1  0.750040  0.670876  0.254275  1
  Rh  Rh22  1  0.329143  0.079226  0.254295  1
  Rh  Rh23  1  0.439324  0.023548  0.751536  1
  Rh  Rh24  1  0.976753  0.415785  0.751533  1
  Rh  Rh25  1  0.584177  0.560586  0.751522  1
  Rh  Rh26  1  0.666716  0.333343  0.247937  1
  Rh  Rh27  1  0.094112  0.187045  0.247083  1
  Rh  Rh28  1  0.813050  0.907165  0.247109  1
  Rh  Rh29  1  0.092902  0.905909  0.247156  1
  Rh  Rh30  1  0.023048  0.583995  0.248464  1
  Rh  Rh31  1  0.415754  0.438823  0.248434  1
  Rh  Rh32  1  0.561168  0.977131  0.248447  1
  Rh  Rh33  1  0.671312  0.921453  0.745732  1
  Rh  Rh34  1  0.078620  0.749750  0.745731  1
  Rh  Rh35  1  0.249931  0.328990  0.745709  1
  Rh  Rh36  1  0.905989  0.813088  0.752954  1
  Rh  Rh37  1  0.186959  0.093092  0.752896  1
  Rh  Rh38  1  0.907131  0.094112  0.752911  1
