# generated using pymatgen
data_Y7Er3(AlBi2)2
_symmetry_space_group_name_H-M   'P 1'
_cell_length_a   9.00243712
_cell_length_b   9.00303961
_cell_length_c   6.47368808
_cell_angle_alpha   89.98202967
_cell_angle_beta   90.01085359
_cell_angle_gamma   119.89508714
_symmetry_Int_Tables_number   1
_chemical_formula_structural   Y7Er3(AlBi2)2
_chemical_formula_sum   'Y7 Er3 Al2 Bi4'
_cell_volume   454.87261509
_cell_formula_units_Z   1
loop_
 _symmetry_equiv_pos_site_id
 _symmetry_equiv_pos_as_xyz
  1  'x, y, z'
loop_
 _atom_site_type_symbol
 _atom_site_label
 _atom_site_symmetry_multiplicity
 _atom_site_fract_x
 _atom_site_fract_y
 _atom_site_fract_z
 _atom_site_occupancy
  Y  Y0  1  0.669020  0.326584  0.993159  1
  Y  Y1  1  0.760821  0.760741  0.250051  1
  Y  Y2  1  0.238355  0.998882  0.250152  1
  Y  Y3  1  0.998956  0.238367  0.250122  1
  Y  Y4  1  0.233819  0.233915  0.749867  1
  Y  Y5  1  0.764051  0.012603  0.749849  1
  Y  Y6  1  0.012915  0.764098  0.749897  1
  Er  Er7  1  0.669122  0.326148  0.507267  1
  Er  Er8  1  0.326185  0.669062  0.507367  1
  Er  Er9  1  0.326106  0.669126  0.992490  1
  Al  Al10  1  0.396893  0.000849  0.749432  1
  Al  Al11  1  0.001833  0.397316  0.749456  1
  Bi  Bi12  1  0.394758  0.395192  0.250350  1
  Bi  Bi13  1  0.600909  0.995548  0.250481  1
  Bi  Bi14  1  0.996450  0.601306  0.250489  1
  Bi  Bi15  1  0.609806  0.610263  0.749570  1
