# generated using pymatgen
data_La2SiOsBr
_symmetry_space_group_name_H-M   'P 1'
_cell_length_a   4.27753700
_cell_length_b   4.27753527
_cell_length_c   17.08962600
_cell_angle_alpha   90.00000000
_cell_angle_beta   90.00000000
_cell_angle_gamma   120.00000564
_symmetry_Int_Tables_number   1
_chemical_formula_structural   La2SiOsBr
_chemical_formula_sum   'La4 Si2 Os2 Br2'
_cell_volume   270.80117198
_cell_formula_units_Z   2
loop_
 _symmetry_equiv_pos_site_id
 _symmetry_equiv_pos_as_xyz
  1  'x, y, z'
loop_
 _atom_site_type_symbol
 _atom_site_label
 _atom_site_symmetry_multiplicity
 _atom_site_fract_x
 _atom_site_fract_y
 _atom_site_fract_z
 _atom_site_occupancy
  La  La0  1  0.000000  0.000000  0.391931  1
  La  La1  1  0.000000  0.000000  0.891931  1
  La  La2  1  0.000000  0.000000  0.609491  1
  La  La3  1  0.000000  0.000000  0.109491  1
  Si  Si4  1  0.333333  0.666667  0.501086  1
  Si  Si5  1  0.666667  0.333333  0.001086  1
  Os  Os6  1  0.666667  0.333333  0.498615  1
  Os  Os7  1  0.333333  0.666667  0.998615  1
  Br  Br8  1  0.333333  0.666667  0.248878  1
  Br  Br9  1  0.666667  0.333333  0.748878  1
