# generated using pymatgen
data_YHoNbIr3
_symmetry_space_group_name_H-M   'P 1'
_cell_length_a   5.26873261
_cell_length_b   5.26873262
_cell_length_c   5.26873338
_cell_angle_alpha   64.70275590
_cell_angle_beta   64.70275186
_cell_angle_gamma   64.70275485
_symmetry_Int_Tables_number   1
_chemical_formula_structural   YHoNbIr3
_chemical_formula_sum   'Y1 Ho1 Nb1 Ir3'
_cell_volume   114.06786176
_cell_formula_units_Z   1
loop_
 _symmetry_equiv_pos_site_id
 _symmetry_equiv_pos_as_xyz
  1  'x, y, z'
loop_
 _atom_site_type_symbol
 _atom_site_label
 _atom_site_symmetry_multiplicity
 _atom_site_fract_x
 _atom_site_fract_y
 _atom_site_fract_z
 _atom_site_occupancy
  Y  Y0  1  0.999118  0.999118  0.999118  1
  Ho  Ho1  1  0.251405  0.251405  0.251405  1
  Nb  Nb2  1  0.624960  0.624960  0.624960  1
  Ir  Ir3  1  0.624694  0.624694  0.125129  1
  Ir  Ir4  1  0.624694  0.125129  0.624694  1
  Ir  Ir5  1  0.125129  0.624694  0.624694  1
