# generated using pymatgen
data_K2Rb2UPaTe6
_symmetry_space_group_name_H-M   'P 1'
_cell_length_a   8.15169855
_cell_length_b   8.15416169
_cell_length_c   8.82908115
_cell_angle_alpha   81.34331810
_cell_angle_beta   81.24426757
_cell_angle_gamma   119.74755822
_symmetry_Int_Tables_number   1
_chemical_formula_structural   K2Rb2UPaTe6
_chemical_formula_sum   'K2 Rb2 U1 Pa1 Te6'
_cell_volume   485.80884623
_cell_formula_units_Z   1
loop_
 _symmetry_equiv_pos_site_id
 _symmetry_equiv_pos_as_xyz
  1  'x, y, z'
loop_
 _atom_site_type_symbol
 _atom_site_label
 _atom_site_symmetry_multiplicity
 _atom_site_fract_x
 _atom_site_fract_y
 _atom_site_fract_z
 _atom_site_occupancy
  K  K0  1  0.000367  0.999700  0.500025  1
  K  K1  1  0.499903  0.500043  0.999940  1
  Rb  Rb2  1  0.345072  0.654879  0.500120  1
  Rb  Rb3  1  0.653684  0.346445  0.499975  1
  U  U4  1  0.832046  0.168201  0.000365  1
  Pa  Pa5  1  0.168756  0.830972  0.999701  1
  Te  Te6  1  0.808294  0.802305  0.203975  1
  Te  Te7  1  0.424307  0.059703  0.205927  1
  Te  Te8  1  0.065123  0.436128  0.206543  1
  Te  Te9  1  0.564495  0.935024  0.793042  1
  Te  Te10  1  0.940168  0.575205  0.794359  1
  Te  Te11  1  0.197786  0.191396  0.796028  1
