# generated using pymatgen
data_Np4VGa12
_symmetry_space_group_name_H-M   'P 1'
_cell_length_a   7.50587728
_cell_length_b   7.50587820
_cell_length_c   7.50587800
_cell_angle_alpha   109.47121740
_cell_angle_beta   109.47121987
_cell_angle_gamma   109.47122274
_symmetry_Int_Tables_number   1
_chemical_formula_structural   Np4VGa12
_chemical_formula_sum   'Np4 V1 Ga12'
_cell_volume   325.52368468
_cell_formula_units_Z   1
loop_
 _symmetry_equiv_pos_site_id
 _symmetry_equiv_pos_as_xyz
  1  'x, y, z'
loop_
 _atom_site_type_symbol
 _atom_site_label
 _atom_site_symmetry_multiplicity
 _atom_site_fract_x
 _atom_site_fract_y
 _atom_site_fract_z
 _atom_site_occupancy
  Np  Np0  1  0.500000  0.500000  0.500000  1
  Np  Np1  1  0.000000  0.500000  0.000000  1
  Np  Np2  1  0.000000  0.000000  0.500000  1
  Np  Np3  1  0.500000  0.000000  0.000000  1
  V  V4  1  0.000000  0.000000  0.000000  1
  Ga  Ga5  1  0.750000  0.250000  0.500000  1
  Ga  Ga6  1  0.000000  0.710277  0.710277  1
  Ga  Ga7  1  0.289723  0.000000  0.289723  1
  Ga  Ga8  1  0.500000  0.250000  0.750000  1
  Ga  Ga9  1  0.750000  0.500000  0.250000  1
  Ga  Ga10  1  0.250000  0.750000  0.500000  1
  Ga  Ga11  1  0.250000  0.500000  0.750000  1
  Ga  Ga12  1  0.710277  0.000000  0.710277  1
  Ga  Ga13  1  0.500000  0.750000  0.250000  1
  Ga  Ga14  1  0.710277  0.710277  0.000000  1
  Ga  Ga15  1  0.289723  0.289723  0.000000  1
  Ga  Ga16  1  0.000000  0.289723  0.289723  1
