# generated using pymatgen
data_Tb8AlSi12NiPd2
_symmetry_space_group_name_H-M   'P 1'
_cell_length_a   8.11434400
_cell_length_b   8.11434360
_cell_length_c   8.15873200
_cell_angle_alpha   90.00000000
_cell_angle_beta   90.00000000
_cell_angle_gamma   120.00000978
_symmetry_Int_Tables_number   1
_chemical_formula_structural   Tb8AlSi12NiPd2
_chemical_formula_sum   'Tb8 Al1 Si12 Ni1 Pd2'
_cell_volume   465.22180886
_cell_formula_units_Z   1
loop_
 _symmetry_equiv_pos_site_id
 _symmetry_equiv_pos_as_xyz
  1  'x, y, z'
loop_
 _atom_site_type_symbol
 _atom_site_label
 _atom_site_symmetry_multiplicity
 _atom_site_fract_x
 _atom_site_fract_y
 _atom_site_fract_z
 _atom_site_occupancy
  Tb  Tb0  1  0.503347  0.006691  0.249457  1
  Tb  Tb1  1  0.501460  0.002922  0.751334  1
  Tb  Tb2  1  0.993309  0.496653  0.249457  1
  Tb  Tb3  1  0.997078  0.498540  0.751334  1
  Tb  Tb4  1  0.503347  0.496653  0.249457  1
  Tb  Tb5  1  0.501460  0.498540  0.751334  1
  Tb  Tb6  1  0.000000  0.000000  0.249877  1
  Tb  Tb7  1  0.000000  0.000000  0.749385  1
  Al  Al8  1  0.333333  0.666667  0.006917  1
  Si  Si9  1  0.161460  0.322921  0.997689  1
  Si  Si10  1  0.825473  0.650946  0.001383  1
  Si  Si11  1  0.677079  0.838540  0.997689  1
  Si  Si12  1  0.834113  0.668226  0.501367  1
  Si  Si13  1  0.349054  0.174527  0.001383  1
  Si  Si14  1  0.165910  0.331819  0.498854  1
  Si  Si15  1  0.161460  0.838540  0.997689  1
  Si  Si16  1  0.331774  0.165887  0.501367  1
  Si  Si17  1  0.825473  0.174527  0.001383  1
  Si  Si18  1  0.668181  0.834090  0.498854  1
  Si  Si19  1  0.834113  0.165887  0.501367  1
  Si  Si20  1  0.165910  0.834090  0.498854  1
  Ni  Ni21  1  0.666667  0.333333  0.995290  1
  Pd  Pd22  1  0.666667  0.333333  0.501363  1
  Pd  Pd23  1  0.333333  0.666667  0.496909  1
