# generated using pymatgen
data_Pr5Dy5In5BiBr2
_symmetry_space_group_name_H-M   'P 1'
_cell_length_a   9.44987179
_cell_length_b   9.45250047
_cell_length_c   6.85888200
_cell_angle_alpha   90.00000000
_cell_angle_beta   90.00000000
_cell_angle_gamma   120.06066759
_symmetry_Int_Tables_number   1
_chemical_formula_structural   Pr5Dy5In5BiBr2
_chemical_formula_sum   'Pr5 Dy5 In5 Bi1 Br2'
_cell_volume   530.26231834
_cell_formula_units_Z   1
loop_
 _symmetry_equiv_pos_site_id
 _symmetry_equiv_pos_as_xyz
  1  'x, y, z'
loop_
 _atom_site_type_symbol
 _atom_site_label
 _atom_site_symmetry_multiplicity
 _atom_site_fract_x
 _atom_site_fract_y
 _atom_site_fract_z
 _atom_site_occupancy
  Pr  Pr0  1  0.737197  0.005910  0.250000  1
  Pr  Pr1  1  0.002925  0.270147  0.750000  1
  Pr  Pr2  1  0.005537  0.734871  0.250000  1
  Pr  Pr3  1  0.731823  0.732391  0.750000  1
  Pr  Pr4  1  0.262932  0.262648  0.250000  1
  Dy  Dy5  1  0.269513  0.003376  0.750000  1
  Dy  Dy6  1  0.329428  0.669021  0.503285  1
  Dy  Dy7  1  0.664361  0.327742  0.503321  1
  Dy  Dy8  1  0.664361  0.327742  0.996679  1
  Dy  Dy9  1  0.329428  0.669021  0.996715  1
  In  In10  1  0.600893  0.999699  0.750000  1
  In  In11  1  0.396037  0.000870  0.250000  1
  In  In12  1  0.003338  0.610374  0.750000  1
  In  In13  1  0.000515  0.395919  0.250000  1
  In  In14  1  0.391508  0.387052  0.750000  1
  Bi  Bi15  1  0.607043  0.607239  0.250000  1
  Br  Br16  1  0.001580  0.997989  0.502725  1
  Br  Br17  1  0.001580  0.997989  0.997275  1
