# generated using pymatgen
data_La4As4PdRu3O4
_symmetry_space_group_name_H-M   'P 1'
_cell_length_a   5.86045200
_cell_length_b   10.45020703
_cell_length_c   10.45023092
_cell_angle_alpha   68.22466336
_cell_angle_beta   89.99957335
_cell_angle_gamma   90.00069578
_symmetry_Int_Tables_number   1
_chemical_formula_structural   La4As4PdRu3O4
_chemical_formula_sum   'La8 As8 Pd2 Ru6 O8'
_cell_volume   594.33581120
_cell_formula_units_Z   2
loop_
 _symmetry_equiv_pos_site_id
 _symmetry_equiv_pos_as_xyz
  1  'x, y, z'
loop_
 _atom_site_type_symbol
 _atom_site_label
 _atom_site_symmetry_multiplicity
 _atom_site_fract_x
 _atom_site_fract_y
 _atom_site_fract_z
 _atom_site_occupancy
  La  La0  1  0.750037  0.430928  0.430925  1
  La  La1  1  0.750009  0.930894  0.930917  1
  La  La2  1  0.249990  0.680898  0.180934  1
  La  La3  1  0.250009  0.180913  0.680906  1
  La  La4  1  0.249979  0.069060  0.069060  1
  La  La5  1  0.250003  0.569083  0.569083  1
  La  La6  1  0.750039  0.319046  0.819087  1
  La  La7  1  0.750022  0.819078  0.319084  1
  As  As8  1  0.759138  0.177273  0.168108  1
  As  As9  1  0.759130  0.677299  0.668098  1
  As  As10  1  0.240844  0.418130  0.927286  1
  As  As11  1  0.240834  0.918101  0.427264  1
  As  As12  1  0.240839  0.331905  0.322732  1
  As  As13  1  0.240830  0.831947  0.822701  1
  As  As14  1  0.759139  0.572711  0.081906  1
  As  As15  1  0.759158  0.072735  0.581902  1
  Pd  Pd16  1  0.499973  0.625048  0.875022  1
  Pd  Pd17  1  0.499989  0.125003  0.375006  1
  Ru  Ru18  1  0.999981  0.374988  0.125009  1
  Ru  Ru19  1  0.999997  0.875021  0.624983  1
  Ru  Ru20  1  0.999999  0.124993  0.374991  1
  Ru  Ru21  1  0.499982  0.374983  0.125018  1
  Ru  Ru22  1  0.499989  0.875020  0.624976  1
  Ru  Ru23  1  0.999995  0.625016  0.874985  1
  O  O24  1  0.500018  0.375000  0.625008  1
  O  O25  1  0.499997  0.874980  0.124999  1
  O  O26  1  0.999999  0.124982  0.874991  1
  O  O27  1  0.000030  0.625003  0.375012  1
  O  O28  1  0.500011  0.124977  0.874989  1
  O  O29  1  0.500018  0.625006  0.375014  1
  O  O30  1  0.000018  0.374996  0.625001  1
  O  O31  1  0.000002  0.874981  0.125001  1
