# generated using pymatgen
data_Zr12Ti4RePt7N4
_symmetry_space_group_name_H-M   'P 1'
_cell_length_a   8.72447208
_cell_length_b   8.71989794
_cell_length_c   8.71989800
_cell_angle_alpha   60.00000735
_cell_angle_beta   60.01734918
_cell_angle_gamma   60.01734471
_symmetry_Int_Tables_number   1
_chemical_formula_structural   Zr12Ti4RePt7N4
_chemical_formula_sum   'Zr12 Ti4 Re1 Pt7 N4'
_cell_volume   469.20303446
_cell_formula_units_Z   1
loop_
 _symmetry_equiv_pos_site_id
 _symmetry_equiv_pos_as_xyz
  1  'x, y, z'
loop_
 _atom_site_type_symbol
 _atom_site_label
 _atom_site_symmetry_multiplicity
 _atom_site_fract_x
 _atom_site_fract_y
 _atom_site_fract_z
 _atom_site_occupancy
  Zr  Zr0  1  0.812430  0.808199  0.189686  1
  Zr  Zr1  1  0.184810  0.187229  0.813980  1
  Zr  Zr2  1  0.812430  0.189686  0.808199  1
  Zr  Zr3  1  0.184810  0.813980  0.187229  1
  Zr  Zr4  1  0.184810  0.813980  0.813980  1
  Zr  Zr5  1  0.812430  0.189686  0.189686  1
  Zr  Zr6  1  0.435195  0.435134  0.064835  1
  Zr  Zr7  1  0.058502  0.070717  0.435391  1
  Zr  Zr8  1  0.435195  0.064835  0.435134  1
  Zr  Zr9  1  0.058502  0.435391  0.070717  1
  Zr  Zr10  1  0.058502  0.435391  0.435391  1
  Zr  Zr11  1  0.435195  0.064835  0.064835  1
  Ti  Ti12  1  0.126210  0.624597  0.624597  1
  Ti  Ti13  1  0.626592  0.117795  0.627806  1
  Ti  Ti14  1  0.626592  0.627806  0.117795  1
  Ti  Ti15  1  0.626592  0.627806  0.627806  1
  Re  Re16  1  0.744245  0.418584  0.418584  1
  Pt  Pt17  1  0.421146  0.755131  0.411862  1
  Pt  Pt18  1  0.421146  0.411862  0.755131  1
  Pt  Pt19  1  0.421146  0.411862  0.411862  1
  Pt  Pt20  1  0.482438  0.839188  0.839188  1
  Pt  Pt21  1  0.842127  0.485427  0.836223  1
  Pt  Pt22  1  0.842127  0.836223  0.485427  1
  Pt  Pt23  1  0.842127  0.836223  0.836223  1
  N  N24  1  0.624533  0.125155  0.125155  1
  N  N25  1  0.126724  0.624295  0.124490  1
  N  N26  1  0.126724  0.124490  0.624295  1
  N  N27  1  0.126724  0.124490  0.124490  1
