# generated using pymatgen
data_Rb4Si2Te7
_symmetry_space_group_name_H-M   'P 1'
_cell_length_a   8.97346463
_cell_length_b   8.97346490
_cell_length_c   18.74648961
_cell_angle_alpha   76.12818293
_cell_angle_beta   76.12818216
_cell_angle_gamma   50.72083165
_symmetry_Int_Tables_number   1
_chemical_formula_structural   Rb4Si2Te7
_chemical_formula_sum   'Rb8 Si4 Te14'
_cell_volume   1126.60114749
_cell_formula_units_Z   2
loop_
 _symmetry_equiv_pos_site_id
 _symmetry_equiv_pos_as_xyz
  1  'x, y, z'
loop_
 _atom_site_type_symbol
 _atom_site_label
 _atom_site_symmetry_multiplicity
 _atom_site_fract_x
 _atom_site_fract_y
 _atom_site_fract_z
 _atom_site_occupancy
  Rb  Rb0  1  0.021693  0.464322  0.147501  1
  Rb  Rb1  1  0.681987  0.144758  0.940119  1
  Rb  Rb2  1  0.855242  0.318013  0.559881  1
  Rb  Rb3  1  0.144758  0.681987  0.440119  1
  Rb  Rb4  1  0.535678  0.978307  0.352499  1
  Rb  Rb5  1  0.318013  0.855242  0.059881  1
  Rb  Rb6  1  0.464322  0.021693  0.647501  1
  Rb  Rb7  1  0.978307  0.535678  0.852499  1
  Si  Si8  1  0.223141  0.691638  0.655994  1
  Si  Si9  1  0.691638  0.223141  0.155994  1
  Si  Si10  1  0.308362  0.776859  0.844006  1
  Si  Si11  1  0.776859  0.308362  0.344006  1
  Te  Te12  1  0.193108  0.648525  0.957005  1
  Te  Te13  1  0.401280  0.979896  0.855608  1
  Te  Te14  1  0.979896  0.401280  0.355608  1
  Te  Te15  1  0.020104  0.598720  0.644392  1
  Te  Te16  1  0.351475  0.806892  0.542995  1
  Te  Te17  1  0.806892  0.351475  0.042995  1
  Te  Te18  1  0.476245  0.371949  0.728639  1
  Te  Te19  1  0.055134  0.944866  0.750000  1
  Te  Te20  1  0.648525  0.193108  0.457005  1
  Te  Te21  1  0.944866  0.055134  0.250000  1
  Te  Te22  1  0.371949  0.476245  0.228639  1
  Te  Te23  1  0.628051  0.523755  0.771361  1
  Te  Te24  1  0.523755  0.628051  0.271361  1
  Te  Te25  1  0.598720  0.020104  0.144392  1
