# generated using pymatgen
data_Li2NdSb2Pd
_symmetry_space_group_name_H-M   'P 1'
_cell_length_a   4.54209800
_cell_length_b   4.54209741
_cell_length_c   7.21064600
_cell_angle_alpha   90.00000000
_cell_angle_beta   90.00000000
_cell_angle_gamma   120.00001884
_symmetry_Int_Tables_number   1
_chemical_formula_structural   Li2NdSb2Pd
_chemical_formula_sum   'Li2 Nd1 Sb2 Pd1'
_cell_volume   128.83019631
_cell_formula_units_Z   1
loop_
 _symmetry_equiv_pos_site_id
 _symmetry_equiv_pos_as_xyz
  1  'x, y, z'
loop_
 _atom_site_type_symbol
 _atom_site_label
 _atom_site_symmetry_multiplicity
 _atom_site_fract_x
 _atom_site_fract_y
 _atom_site_fract_z
 _atom_site_occupancy
  Li  Li0  1  0.000000  0.000000  0.494350  1
  Li  Li1  1  0.333333  0.666667  0.647650  1
  Nd  Nd2  1  0.000000  0.000000  0.005108  1
  Sb  Sb3  1  0.666667  0.333333  0.740913  1
  Sb  Sb4  1  0.333333  0.666667  0.259331  1
  Pd  Pd5  1  0.666667  0.333333  0.352648  1
