# generated using pymatgen
data_DyMgFe12P7
_symmetry_space_group_name_H-M   'P 1'
_cell_length_a   8.89934800
_cell_length_b   8.89934761
_cell_length_c   3.61994900
_cell_angle_alpha   90.00000000
_cell_angle_beta   90.00000000
_cell_angle_gamma   120.00000143
_symmetry_Int_Tables_number   1
_chemical_formula_structural   DyMgFe12P7
_chemical_formula_sum   'Dy1 Mg1 Fe12 P7'
_cell_volume   248.28440281
_cell_formula_units_Z   1
loop_
 _symmetry_equiv_pos_site_id
 _symmetry_equiv_pos_as_xyz
  1  'x, y, z'
loop_
 _atom_site_type_symbol
 _atom_site_label
 _atom_site_symmetry_multiplicity
 _atom_site_fract_x
 _atom_site_fract_y
 _atom_site_fract_z
 _atom_site_occupancy
  Dy  Dy0  1  0.333333  0.666667  0.000000  1
  Mg  Mg1  1  0.000000  0.000000  0.500000  1
  Fe  Fe2  1  0.727054  0.760020  0.000000  1
  Fe  Fe3  1  0.239980  0.967034  0.000000  1
  Fe  Fe4  1  0.032966  0.272946  0.000000  1
  Fe  Fe5  1  0.940876  0.489986  0.000000  1
  Fe  Fe6  1  0.510014  0.450888  0.000000  1
  Fe  Fe7  1  0.549112  0.059124  0.000000  1
  Fe  Fe8  1  0.099403  0.722303  0.500000  1
  Fe  Fe9  1  0.277697  0.377100  0.500000  1
  Fe  Fe10  1  0.622900  0.900597  0.500000  1
  Fe  Fe11  1  0.758799  0.539438  0.500000  1
  Fe  Fe12  1  0.460562  0.219362  0.500000  1
  Fe  Fe13  1  0.780638  0.241201  0.500000  1
  P  P14  1  0.966166  0.748876  0.000000  1
  P  P15  1  0.251124  0.217289  0.000000  1
  P  P16  1  0.782711  0.033834  0.000000  1
  P  P17  1  0.064555  0.444523  0.500000  1
  P  P18  1  0.555477  0.620030  0.500000  1
  P  P19  1  0.379970  0.935445  0.500000  1
  P  P20  1  0.666667  0.333333  0.000000  1
