# generated using pymatgen
data_Ho2ErGa5
_symmetry_space_group_name_H-M   'P 1'
_cell_length_a   6.07866700
_cell_length_b   9.60126400
_cell_length_c   11.53475100
_cell_angle_alpha   90.00000000
_cell_angle_beta   90.00000000
_cell_angle_gamma   90.00000000
_symmetry_Int_Tables_number   1
_chemical_formula_structural   Ho2ErGa5
_chemical_formula_sum   'Ho8 Er4 Ga20'
_cell_volume   673.20136498
_cell_formula_units_Z   4
loop_
 _symmetry_equiv_pos_site_id
 _symmetry_equiv_pos_as_xyz
  1  'x, y, z'
loop_
 _atom_site_type_symbol
 _atom_site_label
 _atom_site_symmetry_multiplicity
 _atom_site_fract_x
 _atom_site_fract_y
 _atom_site_fract_z
 _atom_site_occupancy
  Ho  Ho0  1  0.890753  0.509948  0.351679  1
  Ho  Ho1  1  0.609247  0.990052  0.851679  1
  Ho  Ho2  1  0.109247  0.009948  0.648321  1
  Ho  Ho3  1  0.390753  0.490052  0.148321  1
  Ho  Ho4  1  0.109247  0.490052  0.648321  1
  Ho  Ho5  1  0.390753  0.009948  0.148321  1
  Ho  Ho6  1  0.890753  0.990052  0.351679  1
  Ho  Ho7  1  0.609247  0.509948  0.851679  1
  Er  Er8  1  0.848680  0.750000  0.074447  1
  Er  Er9  1  0.651320  0.750000  0.574447  1
  Er  Er10  1  0.151320  0.250000  0.925553  1
  Er  Er11  1  0.348680  0.250000  0.425553  1
  Ga  Ga12  1  0.874857  0.052893  0.090640  1
  Ga  Ga13  1  0.625143  0.447107  0.590640  1
  Ga  Ga14  1  0.125143  0.552893  0.909360  1
  Ga  Ga15  1  0.374857  0.947107  0.409360  1
  Ga  Ga16  1  0.125143  0.947107  0.909360  1
  Ga  Ga17  1  0.374857  0.552893  0.409360  1
  Ga  Ga18  1  0.874857  0.447107  0.090640  1
  Ga  Ga19  1  0.625143  0.052893  0.590640  1
  Ga  Ga20  1  0.173325  0.750000  0.251525  1
  Ga  Ga21  1  0.326675  0.750000  0.751525  1
  Ga  Ga22  1  0.826675  0.250000  0.748475  1
  Ga  Ga23  1  0.673325  0.250000  0.248475  1
  Ga  Ga24  1  0.372784  0.750000  0.005108  1
  Ga  Ga25  1  0.127216  0.750000  0.505108  1
  Ga  Ga26  1  0.627216  0.250000  0.994892  1
  Ga  Ga27  1  0.872784  0.250000  0.494892  1
  Ga  Ga28  1  0.603287  0.750000  0.299121  1
  Ga  Ga29  1  0.896713  0.750000  0.799121  1
  Ga  Ga30  1  0.396713  0.250000  0.700879  1
  Ga  Ga31  1  0.103287  0.250000  0.200879  1
