# generated using pymatgen
data_Pr2PRhBr2
_symmetry_space_group_name_H-M   'P 1'
_cell_length_a   4.24849200
_cell_length_b   4.24849373
_cell_length_c   11.19960000
_cell_angle_alpha   90.00000000
_cell_angle_beta   90.00000000
_cell_angle_gamma   119.99998651
_symmetry_Int_Tables_number   1
_chemical_formula_structural   Pr2PRhBr2
_chemical_formula_sum   'Pr2 P1 Rh1 Br2'
_cell_volume   175.06647583
_cell_formula_units_Z   1
loop_
 _symmetry_equiv_pos_site_id
 _symmetry_equiv_pos_as_xyz
  1  'x, y, z'
loop_
 _atom_site_type_symbol
 _atom_site_label
 _atom_site_symmetry_multiplicity
 _atom_site_fract_x
 _atom_site_fract_y
 _atom_site_fract_z
 _atom_site_occupancy
  Pr  Pr0  1  0.000000  0.000000  0.162901  1
  Pr  Pr1  1  0.000000  0.000000  0.835691  1
  P  P2  1  0.666667  0.333333  0.990124  1
  Rh  Rh3  1  0.333333  0.666667  0.007542  1
  Br  Br4  1  0.333333  0.666667  0.668798  1
  Br  Br5  1  0.666667  0.333333  0.334943  1
