# generated using pymatgen
data_Na4In5Ga7Te20
_symmetry_space_group_name_H-M   'P 1'
_cell_length_a   10.79178983
_cell_length_b   10.77411544
_cell_length_c   10.73782792
_cell_angle_alpha   89.00713338
_cell_angle_beta   88.82869569
_cell_angle_gamma   91.17862762
_symmetry_Int_Tables_number   1
_chemical_formula_structural   Na4In5Ga7Te20
_chemical_formula_sum   'Na4 In5 Ga7 Te20'
_cell_volume   1247.78689507
_cell_formula_units_Z   1
loop_
 _symmetry_equiv_pos_site_id
 _symmetry_equiv_pos_as_xyz
  1  'x, y, z'
loop_
 _atom_site_type_symbol
 _atom_site_label
 _atom_site_symmetry_multiplicity
 _atom_site_fract_x
 _atom_site_fract_y
 _atom_site_fract_z
 _atom_site_occupancy
  Na  Na0  1  0.256419  0.999471  0.257641  1
  Na  Na1  1  0.999766  0.743343  0.741456  1
  Na  Na2  1  0.742623  0.257271  0.999962  1
  Na  Na3  1  0.500587  0.500335  0.499432  1
  In  In4  1  0.426641  0.122261  0.839828  1
  In  In5  1  0.119872  0.158293  0.571484  1
  In  In6  1  0.159409  0.426630  0.877409  1
  In  In7  1  0.877148  0.573797  0.162958  1
  In  In8  1  0.574359  0.840535  0.123468  1
  Ga  Ga9  1  0.837822  0.879419  0.428836  1
  Ga  Ga10  1  0.655660  0.834329  0.742452  1
  Ga  Ga11  1  0.833274  0.253421  0.345389  1
  Ga  Ga12  1  0.255125  0.654112  0.168276  1
  Ga  Ga13  1  0.168408  0.345427  0.255565  1
  Ga  Ga14  1  0.346465  0.744749  0.832289  1
  Ga  Ga15  1  0.746646  0.166257  0.654444  1
  Te  Te16  1  0.000948  0.183099  0.180796  1
  Te  Te17  1  0.817361  0.000660  0.820741  1
  Te  Te18  1  0.835355  0.837065  0.179562  1
  Te  Te19  1  0.163064  0.162870  0.835556  1
  Te  Te20  1  0.182760  0.817250  0.000134  1
  Te  Te21  1  0.911681  0.502209  0.912950  1
  Te  Te22  1  0.499937  0.088039  0.088520  1
  Te  Te23  1  0.073095  0.912635  0.493528  1
  Te  Te24  1  0.579419  0.317447  0.742058  1
  Te  Te25  1  0.318602  0.252257  0.421451  1
  Te  Te26  1  0.255392  0.579217  0.680490  1
  Te  Te27  1  0.680691  0.418378  0.255729  1
  Te  Te28  1  0.420527  0.745196  0.319597  1
  Te  Te29  1  0.748103  0.692054  0.568925  1
  Te  Te30  1  0.433665  0.922606  0.670147  1
  Te  Te31  1  0.922467  0.329596  0.566602  1
  Te  Te32  1  0.329375  0.433822  0.076972  1
  Te  Te33  1  0.078200  0.565348  0.330650  1
  Te  Te34  1  0.568946  0.672306  0.920952  1
  Te  Te35  1  0.680187  0.068293  0.433752  1
