# generated using pymatgen
data_Tb4HoEr3(B6Os)4
_symmetry_space_group_name_H-M   'P 1'
_cell_length_a   3.64846800
_cell_length_b   9.14057802
_cell_length_c   11.53034402
_cell_angle_alpha   90.00741153
_cell_angle_beta   90.00000000
_cell_angle_gamma   90.00000000
_symmetry_Int_Tables_number   1
_chemical_formula_structural   Tb4HoEr3(B6Os)4
_chemical_formula_sum   'Tb4 Ho1 Er3 B24 Os4'
_cell_volume   384.52666652
_cell_formula_units_Z   1
loop_
 _symmetry_equiv_pos_site_id
 _symmetry_equiv_pos_as_xyz
  1  'x, y, z'
loop_
 _atom_site_type_symbol
 _atom_site_label
 _atom_site_symmetry_multiplicity
 _atom_site_fract_x
 _atom_site_fract_y
 _atom_site_fract_z
 _atom_site_occupancy
  Tb  Tb0  1  0.000000  0.322350  0.413887  1
  Tb  Tb1  1  0.000000  0.677674  0.586246  1
  Tb  Tb2  1  0.000000  0.822208  0.086073  1
  Tb  Tb3  1  0.000000  0.177802  0.913826  1
  Ho  Ho4  1  0.000000  0.944248  0.372969  1
  Er  Er5  1  0.000000  0.055819  0.627252  1
  Er  Er6  1  0.000000  0.444231  0.127010  1
  Er  Er7  1  0.000000  0.555767  0.872916  1
  B  B8  1  0.500000  0.554239  0.432699  1
  B  B9  1  0.500000  0.445586  0.567361  1
  B  B10  1  0.500000  0.054439  0.067220  1
  B  B11  1  0.500000  0.945611  0.932663  1
  B  B12  1  0.500000  0.748298  0.419598  1
  B  B13  1  0.500000  0.251412  0.580476  1
  B  B14  1  0.500000  0.248734  0.080377  1
  B  B15  1  0.500000  0.751334  0.919567  1
  B  B16  1  0.500000  0.791144  0.266539  1
  B  B17  1  0.500000  0.208555  0.733389  1
  B  B18  1  0.500000  0.291631  0.233296  1
  B  B19  1  0.500000  0.708508  0.766660  1
  B  B20  1  0.500000  0.631496  0.185172  1
  B  B21  1  0.500000  0.368412  0.814765  1
  B  B22  1  0.500000  0.131921  0.314616  1
  B  B23  1  0.500000  0.868356  0.685312  1
  B  B24  1  0.500000  0.983757  0.213219  1
  B  B25  1  0.500000  0.016427  0.786551  1
  B  B26  1  0.500000  0.483460  0.286475  1
  B  B27  1  0.500000  0.516454  0.713492  1
  B  B28  1  0.500000  0.606283  0.029379  1
  B  B29  1  0.500000  0.393708  0.970575  1
  B  B30  1  0.500000  0.106837  0.470755  1
  B  B31  1  0.500000  0.893416  0.529774  1
  Os  Os32  1  0.000000  0.637592  0.320843  1
  Os  Os33  1  0.000000  0.362064  0.679192  1
  Os  Os34  1  0.000000  0.138217  0.178932  1
  Os  Os35  1  0.000000  0.862008  0.820923  1
