# generated using pymatgen
data_Sr6CoCu(RhO6)2
_symmetry_space_group_name_H-M   'P 1'
_cell_length_a   6.77593965
_cell_length_b   6.77593866
_cell_length_c   6.72200000
_cell_angle_alpha   88.34918728
_cell_angle_beta   88.34918554
_cell_angle_gamma   92.39991974
_symmetry_Int_Tables_number   1
_chemical_formula_structural   Sr6CoCu(RhO6)2
_chemical_formula_sum   'Sr6 Co1 Cu1 Rh2 O12'
_cell_volume   308.09163595
_cell_formula_units_Z   1
loop_
 _symmetry_equiv_pos_site_id
 _symmetry_equiv_pos_as_xyz
  1  'x, y, z'
loop_
 _atom_site_type_symbol
 _atom_site_label
 _atom_site_symmetry_multiplicity
 _atom_site_fract_x
 _atom_site_fract_y
 _atom_site_fract_z
 _atom_site_occupancy
  Sr  Sr0  1  0.106506  0.893494  0.750000  1
  Sr  Sr1  1  0.891206  0.108794  0.250000  1
  Sr  Sr2  1  0.387323  0.241727  0.381343  1
  Sr  Sr3  1  0.758273  0.612677  0.118657  1
  Sr  Sr4  1  0.611692  0.754841  0.623814  1
  Sr  Sr5  1  0.245159  0.388308  0.876186  1
  Co  Co6  1  0.734437  0.265563  0.750000  1
  Cu  Cu7  1  0.307953  0.692047  0.250000  1
  Rh  Rh8  1  0.493861  0.002969  0.000627  1
  Rh  Rh9  1  0.997031  0.506139  0.499373  1
  O  O10  1  0.396403  0.716272  0.965352  1
  O  O11  1  0.283728  0.603597  0.534648  1
  O  O12  1  0.599036  0.287160  0.036422  1
  O  O13  1  0.712840  0.400964  0.463578  1
  O  O14  1  0.779169  0.948862  0.917330  1
  O  O15  1  0.051138  0.220831  0.582670  1
  O  O16  1  0.215663  0.069986  0.074552  1
  O  O17  1  0.930014  0.784337  0.425448  1
  O  O18  1  0.525119  0.893571  0.284935  1
  O  O19  1  0.106429  0.474881  0.215065  1
  O  O20  1  0.902828  0.535809  0.787683  1
  O  O21  1  0.464191  0.097172  0.712317  1
