# generated using pymatgen
data_Nd2Co2SiGeH2
_symmetry_space_group_name_H-M   'P 1'
_cell_length_a   3.94908500
_cell_length_b   3.94908500
_cell_length_c   7.81515100
_cell_angle_alpha   90.00000000
_cell_angle_beta   90.00000000
_cell_angle_gamma   90.00000000
_symmetry_Int_Tables_number   1
_chemical_formula_structural   Nd2Co2SiGeH2
_chemical_formula_sum   'Nd2 Co2 Si1 Ge1 H2'
_cell_volume   121.87940820
_cell_formula_units_Z   1
loop_
 _symmetry_equiv_pos_site_id
 _symmetry_equiv_pos_as_xyz
  1  'x, y, z'
loop_
 _atom_site_type_symbol
 _atom_site_label
 _atom_site_symmetry_multiplicity
 _atom_site_fract_x
 _atom_site_fract_y
 _atom_site_fract_z
 _atom_site_occupancy
  Nd  Nd0  1  0.500000  0.000000  0.330478  1
  Nd  Nd1  1  0.000000  0.500000  0.671118  1
  Co  Co2  1  0.500000  0.500000  0.994652  1
  Co  Co3  1  0.000000  0.000000  0.994652  1
  Si  Si4  1  0.500000  0.000000  0.849152  1
  Ge  Ge5  1  0.000000  0.500000  0.160306  1
  H  H6  1  0.000000  0.000000  0.499821  1
  H  H7  1  0.500000  0.500000  0.499821  1
