# generated using pymatgen
data_Y15Lu(ScBi3)4
_symmetry_space_group_name_H-M   'P 1'
_cell_length_a   8.14635388
_cell_length_b   9.43424435
_cell_length_c   12.00691492
_cell_angle_alpha   89.99097176
_cell_angle_beta   90.04403538
_cell_angle_gamma   89.97027325
_symmetry_Int_Tables_number   1
_chemical_formula_structural   Y15Lu(ScBi3)4
_chemical_formula_sum   'Y15 Lu1 Sc4 Bi12'
_cell_volume   922.78735208
_cell_formula_units_Z   1
loop_
 _symmetry_equiv_pos_site_id
 _symmetry_equiv_pos_as_xyz
  1  'x, y, z'
loop_
 _atom_site_type_symbol
 _atom_site_label
 _atom_site_symmetry_multiplicity
 _atom_site_fract_x
 _atom_site_fract_y
 _atom_site_fract_z
 _atom_site_occupancy
  Y  Y0  1  0.185126  0.750022  0.720738  1
  Y  Y1  1  0.685429  0.749969  0.779484  1
  Y  Y2  1  0.814937  0.250099  0.279157  1
  Y  Y3  1  0.314781  0.250519  0.220218  1
  Y  Y4  1  0.803657  0.063387  0.559113  1
  Y  Y5  1  0.695547  0.936607  0.058555  1
  Y  Y6  1  0.196532  0.563127  0.441009  1
  Y  Y7  1  0.696606  0.563103  0.058873  1
  Y  Y8  1  0.196286  0.936684  0.441126  1
  Y  Y9  1  0.303719  0.063398  0.941280  1
  Y  Y10  1  0.803548  0.436717  0.558983  1
  Y  Y11  1  0.355091  0.750538  0.215104  1
  Y  Y12  1  0.855075  0.750116  0.284890  1
  Y  Y13  1  0.644369  0.250997  0.785224  1
  Y  Y14  1  0.146173  0.251028  0.715676  1
  Lu  Lu15  1  0.302395  0.433507  0.941231  1
  Sc  Sc16  1  0.026406  0.750160  0.988037  1
  Sc  Sc17  1  0.526095  0.750281  0.512069  1
  Sc  Sc18  1  0.975208  0.250629  0.011867  1
  Sc  Sc19  1  0.473905  0.249960  0.488023  1
  Bi  Bi20  1  0.433850  0.004091  0.668447  1
  Bi  Bi21  1  0.934909  0.496441  0.832128  1
  Bi  Bi22  1  0.565871  0.503921  0.331506  1
  Bi  Bi23  1  0.066240  0.996293  0.168134  1
  Bi  Bi24  1  0.566059  0.996437  0.331706  1
  Bi  Bi25  1  0.066339  0.504349  0.167696  1
  Bi  Bi26  1  0.433655  0.496416  0.668382  1
  Bi  Bi27  1  0.933900  0.004362  0.831898  1
  Bi  Bi28  1  0.402975  0.746361  0.957015  1
  Bi  Bi29  1  0.904583  0.749961  0.542358  1
  Bi  Bi30  1  0.595130  0.250674  0.042127  1
  Bi  Bi31  1  0.095603  0.249845  0.457950  1
