# generated using pymatgen
data_Nd3Cr(Co4P3)2
_symmetry_space_group_name_H-M   'P 1'
_cell_length_a   3.75444200
_cell_length_b   10.67082500
_cell_length_c   12.37614800
_cell_angle_alpha   90.00000000
_cell_angle_beta   90.00000000
_cell_angle_gamma   90.00000000
_symmetry_Int_Tables_number   1
_chemical_formula_structural   Nd3Cr(Co4P3)2
_chemical_formula_sum   'Nd6 Cr2 Co16 P12'
_cell_volume   495.82553756
_cell_formula_units_Z   2
loop_
 _symmetry_equiv_pos_site_id
 _symmetry_equiv_pos_as_xyz
  1  'x, y, z'
loop_
 _atom_site_type_symbol
 _atom_site_label
 _atom_site_symmetry_multiplicity
 _atom_site_fract_x
 _atom_site_fract_y
 _atom_site_fract_z
 _atom_site_occupancy
  Nd  Nd0  1  0.000000  0.500000  0.522273  1
  Nd  Nd1  1  0.500000  0.000000  0.477727  1
  Nd  Nd2  1  0.500000  0.818109  0.205126  1
  Nd  Nd3  1  0.500000  0.181891  0.205126  1
  Nd  Nd4  1  0.000000  0.681891  0.794874  1
  Nd  Nd5  1  0.000000  0.318109  0.794874  1
  Cr  Cr6  1  0.500000  0.500000  0.154433  1
  Cr  Cr7  1  0.000000  0.000000  0.845567  1
  Co  Co8  1  0.500000  0.500000  0.704295  1
  Co  Co9  1  0.000000  0.000000  0.295705  1
  Co  Co10  1  0.000000  0.500000  0.988405  1
  Co  Co11  1  0.500000  0.000000  0.011595  1
  Co  Co12  1  0.500000  0.332868  0.994653  1
  Co  Co13  1  0.500000  0.667132  0.994653  1
  Co  Co14  1  0.000000  0.167132  0.005347  1
  Co  Co15  1  0.000000  0.832868  0.005347  1
  Co  Co16  1  0.500000  0.296230  0.430393  1
  Co  Co17  1  0.500000  0.703770  0.430393  1
  Co  Co18  1  0.000000  0.203770  0.569607  1
  Co  Co19  1  0.000000  0.796230  0.569607  1
  Co  Co20  1  0.500000  0.881583  0.710246  1
  Co  Co21  1  0.500000  0.118417  0.710246  1
  Co  Co22  1  0.000000  0.618417  0.289754  1
  Co  Co23  1  0.000000  0.381583  0.289754  1
  P  P24  1  0.500000  0.500000  0.886758  1
  P  P25  1  0.000000  0.000000  0.113242  1
  P  P26  1  0.500000  0.500000  0.341520  1
  P  P27  1  0.000000  0.000000  0.658480  1
  P  P28  1  0.500000  0.307125  0.614346  1
  P  P29  1  0.500000  0.692875  0.614346  1
  P  P30  1  0.000000  0.192875  0.385654  1
  P  P31  1  0.000000  0.807125  0.385654  1
  P  P32  1  0.500000  0.848356  0.894655  1
  P  P33  1  0.500000  0.151644  0.894655  1
  P  P34  1  0.000000  0.651644  0.105345  1
  P  P35  1  0.000000  0.348356  0.105345  1
