# generated using pymatgen
data_LiPtRhS4
_symmetry_space_group_name_H-M   'P 1'
_cell_length_a   7.18598944
_cell_length_b   7.18598901
_cell_length_c   7.21403400
_cell_angle_alpha   59.87080527
_cell_angle_beta   59.87080723
_cell_angle_gamma   59.91250491
_symmetry_Int_Tables_number   1
_chemical_formula_structural   LiPtRhS4
_chemical_formula_sum   'Li2 Pt2 Rh2 S8'
_cell_volume   262.72330470
_cell_formula_units_Z   2
loop_
 _symmetry_equiv_pos_site_id
 _symmetry_equiv_pos_as_xyz
  1  'x, y, z'
loop_
 _atom_site_type_symbol
 _atom_site_label
 _atom_site_symmetry_multiplicity
 _atom_site_fract_x
 _atom_site_fract_y
 _atom_site_fract_z
 _atom_site_occupancy
  Li  Li0  1  0.253615  0.253615  0.246385  1
  Li  Li1  1  0.996385  0.996385  0.003615  1
  Pt  Pt2  1  0.625000  0.625000  0.125000  1
  Pt  Pt3  1  0.625000  0.625000  0.625000  1
  Rh  Rh4  1  0.125000  0.625000  0.625000  1
  Rh  Rh5  1  0.625000  0.125000  0.625000  1
  S  S6  1  0.420933  0.861425  0.858822  1
  S  S7  1  0.861885  0.861885  0.418991  1
  S  S8  1  0.861885  0.861885  0.857238  1
  S  S9  1  0.829067  0.388575  0.391178  1
  S  S10  1  0.388575  0.829067  0.391178  1
  S  S11  1  0.388115  0.388115  0.831009  1
  S  S12  1  0.861425  0.420933  0.858822  1
  S  S13  1  0.388115  0.388115  0.392762  1
