# generated using pymatgen
data_Nb6Ir2RuRh15
_symmetry_space_group_name_H-M   'P 1'
_cell_length_a   5.55426375
_cell_length_b   5.54426902
_cell_length_c   13.48088600
_cell_angle_alpha   90.00000000
_cell_angle_beta   90.00000000
_cell_angle_gamma   119.94048680
_symmetry_Int_Tables_number   1
_chemical_formula_structural   Nb6Ir2RuRh15
_chemical_formula_sum   'Nb6 Ir2 Ru1 Rh15'
_cell_volume   359.73276250
_cell_formula_units_Z   1
loop_
 _symmetry_equiv_pos_site_id
 _symmetry_equiv_pos_as_xyz
  1  'x, y, z'
loop_
 _atom_site_type_symbol
 _atom_site_label
 _atom_site_symmetry_multiplicity
 _atom_site_fract_x
 _atom_site_fract_y
 _atom_site_fract_z
 _atom_site_occupancy
  Nb  Nb0  1  0.001053  0.000526  0.250000  1
  Nb  Nb1  1  0.998892  0.999446  0.750000  1
  Nb  Nb2  1  0.331005  0.665503  0.409443  1
  Nb  Nb3  1  0.667383  0.333692  0.589558  1
  Nb  Nb4  1  0.667383  0.333692  0.910442  1
  Nb  Nb5  1  0.331005  0.665503  0.090557  1
  Ir  Ir6  1  0.505523  0.496736  0.250000  1
  Ir  Ir7  1  0.505523  0.008789  0.250000  1
  Ru  Ru8  1  0.993616  0.496808  0.250000  1
  Rh  Rh9  1  0.494674  0.502754  0.750000  1
  Rh  Rh10  1  0.494674  0.991920  0.750000  1
  Rh  Rh11  1  0.007476  0.503738  0.750000  1
  Rh  Rh12  1  0.165336  0.330519  0.917261  1
  Rh  Rh13  1  0.669001  0.834500  0.916572  1
  Rh  Rh14  1  0.165336  0.834815  0.917261  1
  Rh  Rh15  1  0.835353  0.669407  0.082941  1
  Rh  Rh16  1  0.330518  0.165259  0.082918  1
  Rh  Rh17  1  0.835353  0.165946  0.082941  1
  Rh  Rh18  1  0.835353  0.669407  0.417059  1
  Rh  Rh19  1  0.330518  0.165259  0.417082  1
  Rh  Rh20  1  0.835353  0.165946  0.417059  1
  Rh  Rh21  1  0.165336  0.330519  0.582739  1
  Rh  Rh22  1  0.669001  0.834500  0.583428  1
  Rh  Rh23  1  0.165336  0.834815  0.582739  1
