# generated using pymatgen
data_Y2Zn2IrRh
_symmetry_space_group_name_H-M   'P 1'
_cell_length_a   4.10753100
_cell_length_b   7.00418749
_cell_length_c   8.08513873
_cell_angle_alpha   89.83204405
_cell_angle_beta   90.00000000
_cell_angle_gamma   90.00000000
_symmetry_Int_Tables_number   1
_chemical_formula_structural   Y2Zn2IrRh
_chemical_formula_sum   'Y4 Zn4 Ir2 Rh2'
_cell_volume   232.60777257
_cell_formula_units_Z   2
loop_
 _symmetry_equiv_pos_site_id
 _symmetry_equiv_pos_as_xyz
  1  'x, y, z'
loop_
 _atom_site_type_symbol
 _atom_site_label
 _atom_site_symmetry_multiplicity
 _atom_site_fract_x
 _atom_site_fract_y
 _atom_site_fract_z
 _atom_site_occupancy
  Y  Y0  1  0.250000  0.530428  0.183248  1
  Y  Y1  1  0.750000  0.469572  0.816752  1
  Y  Y2  1  0.750000  0.966788  0.685969  1
  Y  Y3  1  0.250000  0.033212  0.314031  1
  Zn  Zn4  1  0.250000  0.641862  0.565427  1
  Zn  Zn5  1  0.750000  0.358138  0.434573  1
  Zn  Zn6  1  0.750000  0.857424  0.066121  1
  Zn  Zn7  1  0.250000  0.142576  0.933879  1
  Ir  Ir8  1  0.250000  0.761168  0.877904  1
  Ir  Ir9  1  0.750000  0.238832  0.122096  1
  Rh  Rh10  1  0.750000  0.738912  0.380582  1
  Rh  Rh11  1  0.250000  0.261088  0.619418  1
