# generated using pymatgen
data_Ba2PuFeO6
_symmetry_space_group_name_H-M   'P 1'
_cell_length_a   5.96036101
_cell_length_b   5.97966036
_cell_length_c   10.34184095
_cell_angle_alpha   106.75964558
_cell_angle_beta   72.89375246
_cell_angle_gamma   120.22859951
_symmetry_Int_Tables_number   1
_chemical_formula_structural   Ba2PuFeO6
_chemical_formula_sum   'Ba4 Pu2 Fe2 O12'
_cell_volume   299.96078234
_cell_formula_units_Z   2
loop_
 _symmetry_equiv_pos_site_id
 _symmetry_equiv_pos_as_xyz
  1  'x, y, z'
loop_
 _atom_site_type_symbol
 _atom_site_label
 _atom_site_symmetry_multiplicity
 _atom_site_fract_x
 _atom_site_fract_y
 _atom_site_fract_z
 _atom_site_occupancy
  Ba  Ba0  1  0.626695  0.376363  0.122726  1
  Ba  Ba1  1  0.123125  0.874968  0.627137  1
  Ba  Ba2  1  0.876689  0.125382  0.373550  1
  Ba  Ba3  1  0.373528  0.623261  0.876579  1
  Pu  Pu4  1  0.250619  0.752353  0.252973  1
  Pu  Pu5  1  0.749360  0.247590  0.746997  1
  Fe  Fe6  1  0.499905  0.499856  0.499903  1
  Fe  Fe7  1  0.000073  0.000044  0.000116  1
  O  O8  1  0.127276  0.382272  0.129014  1
  O  O9  1  0.622318  0.866783  0.621443  1
  O  O10  1  0.377309  0.624357  0.378747  1
  O  O11  1  0.871633  0.125124  0.871283  1
  O  O12  1  0.621869  0.876131  0.128295  1
  O  O13  1  0.126840  0.374403  0.622905  1
  O  O14  1  0.377427  0.133548  0.378525  1
  O  O15  1  0.872977  0.617410  0.871078  1
  O  O16  1  0.128628  0.874374  0.128486  1
  O  O17  1  0.622413  0.376196  0.621421  1
  O  O18  1  0.873123  0.625786  0.376983  1
  O  O19  1  0.378190  0.123801  0.871839  1
