# generated using pymatgen
data_Er11TmIr3Os
_symmetry_space_group_name_H-M   'P 1'
_cell_length_a   6.38060033
_cell_length_b   7.24867164
_cell_length_c   9.00476271
_cell_angle_alpha   90.00144063
_cell_angle_beta   90.03100463
_cell_angle_gamma   90.05926032
_symmetry_Int_Tables_number   1
_chemical_formula_structural   Er11TmIr3Os
_chemical_formula_sum   'Er11 Tm1 Ir3 Os1'
_cell_volume   416.47788580
_cell_formula_units_Z   1
loop_
 _symmetry_equiv_pos_site_id
 _symmetry_equiv_pos_as_xyz
  1  'x, y, z'
loop_
 _atom_site_type_symbol
 _atom_site_label
 _atom_site_symmetry_multiplicity
 _atom_site_fract_x
 _atom_site_fract_y
 _atom_site_fract_z
 _atom_site_occupancy
  Er  Er0  1  0.325339  0.678640  0.063242  1
  Er  Er1  1  0.172240  0.175851  0.436634  1
  Er  Er2  1  0.672757  0.322462  0.562052  1
  Er  Er3  1  0.830763  0.823276  0.940486  1
  Er  Er4  1  0.672411  0.322509  0.938407  1
  Er  Er5  1  0.830470  0.823260  0.559851  1
  Er  Er6  1  0.325437  0.678425  0.436552  1
  Er  Er7  1  0.874075  0.534384  0.250010  1
  Er  Er8  1  0.625452  0.034996  0.249751  1
  Er  Er9  1  0.128262  0.465100  0.750115  1
  Er  Er10  1  0.373273  0.964520  0.750302  1
  Tm  Tm11  1  0.171638  0.175582  0.063137  1
  Ir  Ir12  1  0.460500  0.385155  0.249268  1
  Ir  Ir13  1  0.960903  0.115740  0.750750  1
  Ir  Ir14  1  0.540829  0.614850  0.749886  1
  Os  Os15  1  0.035652  0.885250  0.249555  1
