# generated using pymatgen
data_Er2Tm2Ga18Ir5Rh
_symmetry_space_group_name_H-M   'P 1'
_cell_length_a   7.56522682
_cell_length_b   7.56535524
_cell_length_c   9.46964700
_cell_angle_alpha   89.97159650
_cell_angle_beta   89.97294333
_cell_angle_gamma   119.95507897
_symmetry_Int_Tables_number   1
_chemical_formula_structural   Er2Tm2Ga18Ir5Rh
_chemical_formula_sum   'Er2 Tm2 Ga18 Ir5 Rh1'
_cell_volume   469.58250166
_cell_formula_units_Z   1
loop_
 _symmetry_equiv_pos_site_id
 _symmetry_equiv_pos_as_xyz
  1  'x, y, z'
loop_
 _atom_site_type_symbol
 _atom_site_label
 _atom_site_symmetry_multiplicity
 _atom_site_fract_x
 _atom_site_fract_y
 _atom_site_fract_z
 _atom_site_occupancy
  Er  Er0  1  0.997289  0.667642  0.248794  1
  Er  Er1  1  0.002711  0.332358  0.751206  1
  Tm  Tm2  1  0.667663  0.997299  0.248806  1
  Tm  Tm3  1  0.332337  0.002701  0.751194  1
  Ga  Ga4  1  0.125451  0.125468  0.250740  1
  Ga  Ga5  1  0.874549  0.874532  0.749260  1
  Ga  Ga6  1  0.998935  0.333786  0.081150  1
  Ga  Ga7  1  0.001065  0.666214  0.918850  1
  Ga  Ga8  1  0.001026  0.666896  0.580983  1
  Ga  Ga9  1  0.333182  0.999014  0.419048  1
  Ga  Ga10  1  0.998974  0.333104  0.419017  1
  Ga  Ga11  1  0.666818  0.000986  0.580952  1
  Ga  Ga12  1  0.666140  0.001020  0.918882  1
  Ga  Ga13  1  0.333860  0.998980  0.081118  1
  Ga  Ga14  1  0.331473  0.331422  0.565647  1
  Ga  Ga15  1  0.668527  0.668578  0.434353  1
  Ga  Ga16  1  0.667651  0.667707  0.065648  1
  Ga  Ga17  1  0.332349  0.332293  0.934352  1
  Ga  Ga18  1  0.338800  0.546577  0.249935  1
  Ga  Ga19  1  0.661200  0.453423  0.750065  1
  Ga  Ga20  1  0.546534  0.338734  0.249936  1
  Ga  Ga21  1  0.453466  0.661266  0.750064  1
  Ir  Ir22  1  0.671980  0.328006  0.000005  1
  Ir  Ir23  1  0.328020  0.671994  0.999995  1
  Ir  Ir24  1  0.327937  0.672081  0.500005  1
  Ir  Ir25  1  0.672063  0.327919  0.499995  1
  Ir  Ir26  1  0.000000  0.000000  0.000000  1
  Rh  Rh27  1  0.000000  0.000000  0.500000  1
