# generated using pymatgen
data_Tb16MgCd3(RuPt)2
_symmetry_space_group_name_H-M   'P 1'
_cell_length_a   9.73072793
_cell_length_b   9.73072698
_cell_length_c   9.75155568
_cell_angle_alpha   59.66214050
_cell_angle_beta   59.66214450
_cell_angle_gamma   59.63157177
_symmetry_Int_Tables_number   1
_chemical_formula_structural   Tb16MgCd3(RuPt)2
_chemical_formula_sum   'Tb16 Mg1 Cd3 Ru2 Pt2'
_cell_volume   647.74086915
_cell_formula_units_Z   1
loop_
 _symmetry_equiv_pos_site_id
 _symmetry_equiv_pos_as_xyz
  1  'x, y, z'
loop_
 _atom_site_type_symbol
 _atom_site_label
 _atom_site_symmetry_multiplicity
 _atom_site_fract_x
 _atom_site_fract_y
 _atom_site_fract_z
 _atom_site_occupancy
  Tb  Tb0  1  0.348859  0.348859  0.354155  1
  Tb  Tb1  1  0.348837  0.348837  0.950928  1
  Tb  Tb2  1  0.344798  0.957475  0.348815  1
  Tb  Tb3  1  0.957475  0.344798  0.348815  1
  Tb  Tb4  1  0.814806  0.189374  0.189853  1
  Tb  Tb5  1  0.186204  0.816234  0.807094  1
  Tb  Tb6  1  0.189374  0.814806  0.189853  1
  Tb  Tb7  1  0.816234  0.186204  0.807094  1
  Tb  Tb8  1  0.188495  0.188495  0.811008  1
  Tb  Tb9  1  0.809620  0.809620  0.190308  1
  Tb  Tb10  1  0.937707  0.560020  0.567237  1
  Tb  Tb11  1  0.558969  0.936858  0.938216  1
  Tb  Tb12  1  0.560020  0.937707  0.567237  1
  Tb  Tb13  1  0.936858  0.558969  0.938216  1
  Tb  Tb14  1  0.563979  0.563979  0.938321  1
  Tb  Tb15  1  0.937637  0.937637  0.562862  1
  Mg  Mg16  1  0.575249  0.575249  0.575140  1
  Cd  Cd17  1  0.580976  0.580976  0.255600  1
  Cd  Cd18  1  0.581964  0.253895  0.581003  1
  Cd  Cd19  1  0.253895  0.581964  0.581003  1
  Ru  Ru20  1  0.144061  0.144061  0.137780  1
  Ru  Ru21  1  0.144955  0.144955  0.575285  1
  Pt  Pt22  1  0.144980  0.574048  0.142091  1
  Pt  Pt23  1  0.574048  0.144980  0.142091  1
