# generated using pymatgen
data_Tb8Er12AlBi11
_symmetry_space_group_name_H-M   'P 1'
_cell_length_a   8.22189846
_cell_length_b   9.45949600
_cell_length_c   12.06487900
_cell_angle_alpha   90.00000000
_cell_angle_beta   90.26122884
_cell_angle_gamma   90.00000000
_symmetry_Int_Tables_number   1
_chemical_formula_structural   Tb8Er12AlBi11
_chemical_formula_sum   'Tb8 Er12 Al1 Bi11'
_cell_volume   938.33639902
_cell_formula_units_Z   1
loop_
 _symmetry_equiv_pos_site_id
 _symmetry_equiv_pos_as_xyz
  1  'x, y, z'
loop_
 _atom_site_type_symbol
 _atom_site_label
 _atom_site_symmetry_multiplicity
 _atom_site_fract_x
 _atom_site_fract_y
 _atom_site_fract_z
 _atom_site_occupancy
  Tb  Tb0  1  0.189519  0.750000  0.722626  1
  Tb  Tb1  1  0.677170  0.750000  0.786330  1
  Tb  Tb2  1  0.811656  0.250000  0.280969  1
  Tb  Tb3  1  0.313554  0.250000  0.220135  1
  Tb  Tb4  1  0.354672  0.750000  0.207208  1
  Tb  Tb5  1  0.852766  0.750000  0.285183  1
  Tb  Tb6  1  0.648104  0.250000  0.784513  1
  Tb  Tb7  1  0.149655  0.250000  0.715579  1
  Er  Er8  1  0.035300  0.750000  0.989947  1
  Er  Er9  1  0.525528  0.750000  0.511052  1
  Er  Er10  1  0.978213  0.250000  0.010389  1
  Er  Er11  1  0.475340  0.250000  0.489408  1
  Er  Er12  1  0.308111  0.448047  0.940747  1
  Er  Er13  1  0.806594  0.064329  0.559254  1
  Er  Er14  1  0.685252  0.929810  0.055566  1
  Er  Er15  1  0.193674  0.564535  0.439810  1
  Er  Er16  1  0.685252  0.570190  0.055566  1
  Er  Er17  1  0.193674  0.935465  0.439810  1
  Er  Er18  1  0.308111  0.051953  0.940747  1
  Er  Er19  1  0.806594  0.435671  0.559254  1
  Al  Al20  1  0.409244  0.750000  0.959204  1
  Bi  Bi21  1  0.435388  0.003501  0.673403  1
  Bi  Bi22  1  0.935244  0.496714  0.826345  1
  Bi  Bi23  1  0.564737  0.504354  0.327569  1
  Bi  Bi24  1  0.063759  0.996741  0.173833  1
  Bi  Bi25  1  0.564737  0.995646  0.327569  1
  Bi  Bi26  1  0.063759  0.503259  0.173833  1
  Bi  Bi27  1  0.435388  0.496499  0.673403  1
  Bi  Bi28  1  0.935244  0.003286  0.826345  1
  Bi  Bi29  1  0.908862  0.750000  0.544099  1
  Bi  Bi30  1  0.592520  0.250000  0.042712  1
  Bi  Bi31  1  0.092381  0.250000  0.457593  1
