# generated using pymatgen
data_Tb4Al4Ir3Au
_symmetry_space_group_name_H-M   'P 1'
_cell_length_a   4.35572800
_cell_length_b   6.89600112
_cell_length_c   7.92903500
_cell_angle_alpha   89.98872992
_cell_angle_beta   90.00000000
_cell_angle_gamma   90.00000000
_symmetry_Int_Tables_number   1
_chemical_formula_structural   Tb4Al4Ir3Au
_chemical_formula_sum   'Tb4 Al4 Ir3 Au1'
_cell_volume   238.16525369
_cell_formula_units_Z   1
loop_
 _symmetry_equiv_pos_site_id
 _symmetry_equiv_pos_as_xyz
  1  'x, y, z'
loop_
 _atom_site_type_symbol
 _atom_site_label
 _atom_site_symmetry_multiplicity
 _atom_site_fract_x
 _atom_site_fract_y
 _atom_site_fract_z
 _atom_site_occupancy
  Tb  Tb0  1  0.250000  0.026040  0.325841  1
  Tb  Tb1  1  0.250000  0.542382  0.182824  1
  Tb  Tb2  1  0.750000  0.968113  0.678640  1
  Tb  Tb3  1  0.750000  0.475183  0.813495  1
  Al  Al4  1  0.250000  0.135154  0.930576  1
  Al  Al5  1  0.250000  0.640874  0.562774  1
  Al  Al6  1  0.750000  0.847763  0.060652  1
  Al  Al7  1  0.750000  0.365225  0.444916  1
  Ir  Ir8  1  0.250000  0.268872  0.618406  1
  Ir  Ir9  1  0.250000  0.766827  0.881625  1
  Ir  Ir10  1  0.750000  0.733621  0.379654  1
  Au  Au11  1  0.750000  0.229946  0.120597  1
