# generated using pymatgen
data_Th10TlSi2Bi5
_symmetry_space_group_name_H-M   'P 1'
_cell_length_a   9.66483800
_cell_length_b   9.67512139
_cell_length_c   6.62326000
_cell_angle_alpha   90.00000000
_cell_angle_beta   90.00000000
_cell_angle_gamma   120.03520405
_symmetry_Int_Tables_number   1
_chemical_formula_structural   Th10TlSi2Bi5
_chemical_formula_sum   'Th10 Tl1 Si2 Bi5'
_cell_volume   536.16599486
_cell_formula_units_Z   1
loop_
 _symmetry_equiv_pos_site_id
 _symmetry_equiv_pos_as_xyz
  1  'x, y, z'
loop_
 _atom_site_type_symbol
 _atom_site_label
 _atom_site_symmetry_multiplicity
 _atom_site_fract_x
 _atom_site_fract_y
 _atom_site_fract_z
 _atom_site_occupancy
  Th  Th0  1  0.667747  0.334059  0.501443  1
  Th  Th1  1  0.332253  0.666312  0.501443  1
  Th  Th2  1  0.332253  0.666312  0.998557  1
  Th  Th3  1  0.667747  0.334059  0.998557  1
  Th  Th4  1  0.746504  0.745561  0.250000  1
  Th  Th5  1  0.253496  0.999057  0.250000  1
  Th  Th6  1  0.000000  0.253364  0.250000  1
  Th  Th7  1  0.252521  0.254773  0.750000  1
  Th  Th8  1  0.747479  0.002252  0.750000  1
  Th  Th9  1  0.000000  0.745307  0.750000  1
  Tl  Tl10  1  0.000000  0.389287  0.750000  1
  Si  Si11  1  0.000000  0.999450  0.500288  1
  Si  Si12  1  0.000000  0.999450  0.999712  1
  Bi  Bi13  1  0.389804  0.390895  0.250000  1
  Bi  Bi14  1  0.610196  0.001091  0.250000  1
  Bi  Bi15  1  0.000000  0.607538  0.250000  1
  Bi  Bi16  1  0.609823  0.610529  0.750000  1
  Bi  Bi17  1  0.390177  0.000705  0.750000  1
