# generated using pymatgen
data_Tb2Dy6In3Pt
_symmetry_space_group_name_H-M   'P 1'
_cell_length_a   10.50797000
_cell_length_b   10.50818269
_cell_length_c   7.02888802
_cell_angle_alpha   89.99342406
_cell_angle_beta   90.00000000
_cell_angle_gamma   119.99929268
_symmetry_Int_Tables_number   1
_chemical_formula_structural   Tb2Dy6In3Pt
_chemical_formula_sum   'Tb4 Dy12 In6 Pt2'
_cell_volume   672.15090281
_cell_formula_units_Z   2
loop_
 _symmetry_equiv_pos_site_id
 _symmetry_equiv_pos_as_xyz
  1  'x, y, z'
loop_
 _atom_site_type_symbol
 _atom_site_label
 _atom_site_symmetry_multiplicity
 _atom_site_fract_x
 _atom_site_fract_y
 _atom_site_fract_z
 _atom_site_occupancy
  Tb  Tb0  1  0.531123  0.062246  0.515705  1
  Tb  Tb1  1  0.937877  0.468998  0.515839  1
  Tb  Tb2  1  0.531123  0.468999  0.515839  1
  Tb  Tb3  1  0.468860  0.937720  0.015637  1
  Dy  Dy4  1  0.062418  0.531158  0.015789  1
  Dy  Dy5  1  0.468737  0.531157  0.015789  1
  Dy  Dy6  1  0.174962  0.349923  0.723387  1
  Dy  Dy7  1  0.650195  0.825059  0.723279  1
  Dy  Dy8  1  0.174864  0.825059  0.723279  1
  Dy  Dy9  1  0.825058  0.650115  0.223049  1
  Dy  Dy10  1  0.349786  0.174990  0.223095  1
  Dy  Dy11  1  0.825204  0.174990  0.223095  1
  Dy  Dy12  1  0.666721  0.333441  0.890660  1
  Dy  Dy13  1  0.333273  0.666547  0.390470  1
  Dy  Dy14  1  0.000000  0.000000  0.497687  1
  Dy  Dy15  1  0.999989  0.999978  0.997855  1
  In  In16  1  0.836992  0.673986  0.759639  1
  In  In17  1  0.326055  0.163012  0.759619  1
  In  In18  1  0.836956  0.163012  0.759619  1
  In  In19  1  0.163099  0.326198  0.259376  1
  In  In20  1  0.673872  0.836883  0.259505  1
  In  In21  1  0.163012  0.836883  0.259505  1
  Pt  Pt22  1  0.666681  0.333361  0.288002  1
  Pt  Pt23  1  0.333141  0.666282  0.788479  1
