# generated using pymatgen
data_PrSnHg2(Pt2O7)2
_symmetry_space_group_name_H-M   'P 1'
_cell_length_a   7.43263783
_cell_length_b   7.33825681
_cell_length_c   7.33825603
_cell_angle_alpha   59.14993510
_cell_angle_beta   59.15207019
_cell_angle_gamma   59.15207435
_symmetry_Int_Tables_number   1
_chemical_formula_structural   PrSnHg2(Pt2O7)2
_chemical_formula_sum   'Pr1 Sn1 Hg2 Pt4 O14'
_cell_volume   277.54403621
_cell_formula_units_Z   1
loop_
 _symmetry_equiv_pos_site_id
 _symmetry_equiv_pos_as_xyz
  1  'x, y, z'
loop_
 _atom_site_type_symbol
 _atom_site_label
 _atom_site_symmetry_multiplicity
 _atom_site_fract_x
 _atom_site_fract_y
 _atom_site_fract_z
 _atom_site_occupancy
  Pr  Pr0  1  0.625000  0.125000  0.125000  1
  Sn  Sn1  1  0.125000  0.125000  0.125000  1
  Hg  Hg2  1  0.125000  0.625000  0.125000  1
  Hg  Hg3  1  0.125000  0.125000  0.625000  1
  Pt  Pt4  1  0.625000  0.625000  0.125000  1
  Pt  Pt5  1  0.625000  0.625000  0.625000  1
  Pt  Pt6  1  0.625000  0.125000  0.625000  1
  Pt  Pt7  1  0.125000  0.625000  0.625000  1
  O  O8  1  0.723739  0.285968  0.285968  1
  O  O9  1  0.702324  0.289830  0.712767  1
  O  O10  1  0.022452  0.007619  0.007619  1
  O  O11  1  0.291684  0.726912  0.289223  1
  O  O12  1  0.702324  0.712767  0.289830  1
  O  O13  1  0.956594  0.544609  0.544609  1
  O  O14  1  0.293406  0.705391  0.705391  1
  O  O15  1  0.227548  0.242381  0.242381  1
  O  O16  1  0.958316  0.523088  0.960777  1
  O  O17  1  0.547676  0.960170  0.537233  1
  O  O18  1  0.547676  0.537233  0.960170  1
  O  O19  1  0.958316  0.960777  0.523088  1
  O  O20  1  0.526261  0.964032  0.964032  1
  O  O21  1  0.291684  0.289223  0.726912  1
