# generated using pymatgen
data_Li2LaErSi2Sn
_symmetry_space_group_name_H-M   'P 1'
_cell_length_a   9.68307304
_cell_length_b   9.68307390
_cell_length_c   6.92281800
_cell_angle_alpha   90.00000000
_cell_angle_beta   90.00000000
_cell_angle_gamma   153.24533165
_symmetry_Int_Tables_number   1
_chemical_formula_structural   Li2LaErSi2Sn
_chemical_formula_sum   'Li4 La2 Er2 Si4 Sn2'
_cell_volume   292.20461667
_cell_formula_units_Z   2
loop_
 _symmetry_equiv_pos_site_id
 _symmetry_equiv_pos_as_xyz
  1  'x, y, z'
loop_
 _atom_site_type_symbol
 _atom_site_label
 _atom_site_symmetry_multiplicity
 _atom_site_fract_x
 _atom_site_fract_y
 _atom_site_fract_z
 _atom_site_occupancy
  Li  Li0  1  0.815297  0.184703  0.553822  1
  Li  Li1  1  0.184703  0.815297  0.446178  1
  Li  Li2  1  0.184703  0.815297  0.053822  1
  Li  Li3  1  0.815297  0.184703  0.946178  1
  La  La4  1  0.549978  0.450022  0.250000  1
  La  La5  1  0.450022  0.549978  0.750000  1
  Er  Er6  1  0.351430  0.648570  0.250000  1
  Er  Er7  1  0.648570  0.351430  0.750000  1
  Si  Si8  1  0.941530  0.058470  0.076047  1
  Si  Si9  1  0.058470  0.941530  0.923953  1
  Si  Si10  1  0.058470  0.941530  0.576047  1
  Si  Si11  1  0.941530  0.058470  0.423953  1
  Sn  Sn12  1  0.722671  0.277329  0.250000  1
  Sn  Sn13  1  0.277329  0.722671  0.750000  1
