# generated using pymatgen
data_Nd3EuAl18(IrPd2)2
_symmetry_space_group_name_H-M   'P 1'
_cell_length_a   7.69258242
_cell_length_b   7.68984309
_cell_length_c   9.62650303
_cell_angle_alpha   89.97222462
_cell_angle_beta   89.98163213
_cell_angle_gamma   119.54550033
_symmetry_Int_Tables_number   1
_chemical_formula_structural   Nd3EuAl18(IrPd2)2
_chemical_formula_sum   'Nd3 Eu1 Al18 Ir2 Pd4'
_cell_volume   495.40400706
_cell_formula_units_Z   1
loop_
 _symmetry_equiv_pos_site_id
 _symmetry_equiv_pos_as_xyz
  1  'x, y, z'
loop_
 _atom_site_type_symbol
 _atom_site_label
 _atom_site_symmetry_multiplicity
 _atom_site_fract_x
 _atom_site_fract_y
 _atom_site_fract_z
 _atom_site_occupancy
  Nd  Nd0  1  0.004611  0.330349  0.749874  1
  Nd  Nd1  1  0.670737  0.995856  0.250053  1
  Nd  Nd2  1  0.328723  0.003448  0.749925  1
  Eu  Eu3  1  0.995525  0.671118  0.250016  1
  Al  Al4  1  0.132584  0.133167  0.251730  1
  Al  Al5  1  0.867612  0.867206  0.748236  1
  Al  Al6  1  0.004532  0.336546  0.077395  1
  Al  Al7  1  0.994877  0.664882  0.925706  1
  Al  Al8  1  0.998777  0.661086  0.569817  1
  Al  Al9  1  0.337835  0.999236  0.426676  1
  Al  Al10  1  0.000692  0.340881  0.426461  1
  Al  Al11  1  0.661128  0.998889  0.572225  1
  Al  Al12  1  0.664914  0.995190  0.923762  1
  Al  Al13  1  0.333511  0.002767  0.077491  1
  Al  Al14  1  0.335721  0.335592  0.545567  1
  Al  Al15  1  0.664923  0.663927  0.452737  1
  Al  Al16  1  0.664399  0.663428  0.058020  1
  Al  Al17  1  0.336416  0.336331  0.943829  1
  Al  Al18  1  0.340984  0.547416  0.254131  1
  Al  Al19  1  0.660364  0.453483  0.745975  1
  Al  Al20  1  0.547184  0.339970  0.254227  1
  Al  Al21  1  0.454789  0.659902  0.745989  1
  Ir  Ir22  1  0.329604  0.670719  0.500789  1
  Ir  Ir23  1  0.669798  0.327659  0.500704  1
  Pd  Pd24  1  0.669957  0.327236  0.999336  1
  Pd  Pd25  1  0.328585  0.670848  0.999413  1
  Pd  Pd26  1  0.000603  0.001522  0.999483  1
  Pd  Pd27  1  0.000616  0.001348  0.500435  1
