# generated using pymatgen
data_HoPa3Co3CuGe4
_symmetry_space_group_name_H-M   'P 1'
_cell_length_a   4.29695900
_cell_length_b   7.15829735
_cell_length_c   7.07236695
_cell_angle_alpha   89.33611996
_cell_angle_beta   90.00000000
_cell_angle_gamma   90.00000000
_symmetry_Int_Tables_number   1
_chemical_formula_structural   HoPa3Co3CuGe4
_chemical_formula_sum   'Ho1 Pa3 Co3 Cu1 Ge4'
_cell_volume   217.52369749
_cell_formula_units_Z   1
loop_
 _symmetry_equiv_pos_site_id
 _symmetry_equiv_pos_as_xyz
  1  'x, y, z'
loop_
 _atom_site_type_symbol
 _atom_site_label
 _atom_site_symmetry_multiplicity
 _atom_site_fract_x
 _atom_site_fract_y
 _atom_site_fract_z
 _atom_site_occupancy
  Ho  Ho0  1  0.750000  0.501524  0.277819  1
  Pa  Pa1  1  0.250000  0.997276  0.794339  1
  Pa  Pa2  1  0.250000  0.471998  0.720319  1
  Pa  Pa3  1  0.750000  0.009704  0.208528  1
  Co  Co4  1  0.250000  0.244754  0.446714  1
  Co  Co5  1  0.250000  0.759522  0.052336  1
  Co  Co6  1  0.750000  0.271127  0.923120  1
  Cu  Cu7  1  0.750000  0.801624  0.577650  1
  Ge  Ge8  1  0.250000  0.778647  0.402117  1
  Ge  Ge9  1  0.250000  0.282896  0.101395  1
  Ge  Ge10  1  0.750000  0.192188  0.585308  1
  Ge  Ge11  1  0.750000  0.688736  0.910354  1
