# generated using pymatgen
data_La5YbPrFeI12
_symmetry_space_group_name_H-M   'P 1'
_cell_length_a   10.10487549
_cell_length_b   10.23654878
_cell_length_c   10.09676718
_cell_angle_alpha   107.26723657
_cell_angle_beta   106.91209104
_cell_angle_gamma   106.95329773
_symmetry_Int_Tables_number   1
_chemical_formula_structural   La5YbPrFeI12
_chemical_formula_sum   'La5 Yb1 Pr1 Fe1 I12'
_cell_volume   868.72754085
_cell_formula_units_Z   1
loop_
 _symmetry_equiv_pos_site_id
 _symmetry_equiv_pos_as_xyz
  1  'x, y, z'
loop_
 _atom_site_type_symbol
 _atom_site_label
 _atom_site_symmetry_multiplicity
 _atom_site_fract_x
 _atom_site_fract_y
 _atom_site_fract_z
 _atom_site_occupancy
  La  La0  1  0.792727  0.526239  0.596669  1
  La  La1  1  0.525912  0.596130  0.793629  1
  La  La2  1  0.207115  0.473654  0.403232  1
  La  La3  1  0.473661  0.402217  0.205941  1
  La  La4  1  0.603739  0.813846  0.526914  1
  Yb  Yb5  1  0.000499  0.000031  0.000695  1
  Pr  Pr6  1  0.397077  0.191133  0.472779  1
  Fe  Fe7  1  0.499898  0.499910  0.499679  1
  I  I8  1  0.725549  0.183681  0.573170  1
  I  I9  1  0.963775  0.883519  0.662277  1
  I  I10  1  0.572560  0.723444  0.179854  1
  I  I11  1  0.112757  0.333726  0.035360  1
  I  I12  1  0.661799  0.961252  0.886359  1
  I  I13  1  0.887222  0.665907  0.964541  1
  I  I14  1  0.038562  0.116290  0.339509  1
  I  I15  1  0.818588  0.425853  0.272658  1
  I  I16  1  0.338999  0.038582  0.116568  1
  I  I17  1  0.271771  0.816517  0.425956  1
  I  I18  1  0.181347  0.574033  0.727401  1
  I  I19  1  0.426444  0.274038  0.816809  1
