# generated using pymatgen
data_Sr4Zn6AgAu11
_symmetry_space_group_name_H-M   'P 1'
_cell_length_a   8.89892206
_cell_length_b   8.90700434
_cell_length_c   8.90341826
_cell_angle_alpha   57.50273842
_cell_angle_beta   57.56989648
_cell_angle_gamma   57.64848146
_symmetry_Int_Tables_number   1
_chemical_formula_structural   Sr4Zn6AgAu11
_chemical_formula_sum   'Sr4 Zn6 Ag1 Au11'
_cell_volume   471.17422299
_cell_formula_units_Z   1
loop_
 _symmetry_equiv_pos_site_id
 _symmetry_equiv_pos_as_xyz
  1  'x, y, z'
loop_
 _atom_site_type_symbol
 _atom_site_label
 _atom_site_symmetry_multiplicity
 _atom_site_fract_x
 _atom_site_fract_y
 _atom_site_fract_z
 _atom_site_occupancy
  Sr  Sr0  1  0.910458  0.907218  0.905567  1
  Sr  Sr1  1  0.406748  0.405899  0.407993  1
  Sr  Sr2  1  0.090108  0.094200  0.091816  1
  Sr  Sr3  1  0.593647  0.590740  0.595678  1
  Zn  Zn4  1  0.560294  0.748747  0.939003  1
  Zn  Zn5  1  0.941868  0.558834  0.749483  1
  Zn  Zn6  1  0.750201  0.941131  0.558513  1
  Zn  Zn7  1  0.440729  0.251381  0.058852  1
  Zn  Zn8  1  0.058303  0.441655  0.249874  1
  Zn  Zn9  1  0.249380  0.059696  0.441837  1
  Ag  Ag10  1  0.481240  0.862793  0.205525  1
  Au  Au11  1  0.206098  0.480046  0.863250  1
  Au  Au12  1  0.862435  0.206676  0.479498  1
  Au  Au13  1  0.706707  0.363019  0.979363  1
  Au  Au14  1  0.979688  0.706797  0.363154  1
  Au  Au15  1  0.363045  0.979752  0.706483  1
  Au  Au16  1  0.519994  0.133580  0.798148  1
  Au  Au17  1  0.790690  0.523441  0.137445  1
  Au  Au18  1  0.139614  0.794550  0.517647  1
  Au  Au19  1  0.293614  0.636945  0.020548  1
  Au  Au20  1  0.019864  0.293686  0.637321  1
  Au  Au21  1  0.635273  0.019215  0.293001  1
