# generated using pymatgen
data_Tm3Lu5(B6Os)4
_symmetry_space_group_name_H-M   'P 1'
_cell_length_a   3.60160400
_cell_length_b   9.04396901
_cell_length_c   11.41954901
_cell_angle_alpha   90.00407699
_cell_angle_beta   90.00000000
_cell_angle_gamma   90.00000000
_symmetry_Int_Tables_number   1
_chemical_formula_structural   Tm3Lu5(B6Os)4
_chemical_formula_sum   'Tm3 Lu5 B24 Os4'
_cell_volume   371.96662726
_cell_formula_units_Z   1
loop_
 _symmetry_equiv_pos_site_id
 _symmetry_equiv_pos_as_xyz
  1  'x, y, z'
loop_
 _atom_site_type_symbol
 _atom_site_label
 _atom_site_symmetry_multiplicity
 _atom_site_fract_x
 _atom_site_fract_y
 _atom_site_fract_z
 _atom_site_occupancy
  Tm  Tm0  1  0.000000  0.321400  0.413858  1
  Tm  Tm1  1  0.000000  0.678605  0.586173  1
  Tm  Tm2  1  0.000000  0.821415  0.086100  1
  Lu  Lu3  1  0.000000  0.178920  0.913946  1
  Lu  Lu4  1  0.000000  0.944687  0.373364  1
  Lu  Lu5  1  0.000000  0.055384  0.626678  1
  Lu  Lu6  1  0.000000  0.444551  0.126465  1
  Lu  Lu7  1  0.000000  0.555272  0.873441  1
  B  B8  1  0.500000  0.553844  0.433644  1
  B  B9  1  0.500000  0.446075  0.566441  1
  B  B10  1  0.500000  0.053962  0.066045  1
  B  B11  1  0.500000  0.946473  0.933691  1
  B  B12  1  0.500000  0.749552  0.420525  1
  B  B13  1  0.500000  0.250434  0.579593  1
  B  B14  1  0.500000  0.249364  0.079061  1
  B  B15  1  0.500000  0.750585  0.920514  1
  B  B16  1  0.500000  0.792653  0.266073  1
  B  B17  1  0.500000  0.207197  0.734213  1
  B  B18  1  0.500000  0.292597  0.233714  1
  B  B19  1  0.500000  0.707426  0.766167  1
  B  B20  1  0.500000  0.631562  0.184501  1
  B  B21  1  0.500000  0.368072  0.815665  1
  B  B22  1  0.500000  0.131636  0.315384  1
  B  B23  1  0.500000  0.868509  0.684640  1
  B  B24  1  0.500000  0.982396  0.213223  1
  B  B25  1  0.500000  0.018045  0.786885  1
  B  B26  1  0.500000  0.482284  0.286599  1
  B  B27  1  0.500000  0.517542  0.713454  1
  B  B28  1  0.500000  0.605590  0.029219  1
  B  B29  1  0.500000  0.393790  0.970579  1
  B  B30  1  0.500000  0.105509  0.470806  1
  B  B31  1  0.500000  0.894541  0.529234  1
  Os  Os32  1  0.000000  0.638278  0.321018  1
  Os  Os33  1  0.000000  0.361589  0.679130  1
  Os  Os34  1  0.000000  0.138294  0.178794  1
  Os  Os35  1  0.000000  0.861967  0.821161  1
