# generated using pymatgen
data_TbTm3CdNi
_symmetry_space_group_name_H-M   'P 1'
_cell_length_a   9.45640888
_cell_length_b   9.45640952
_cell_length_c   9.45640900
_cell_angle_alpha   59.99999833
_cell_angle_beta   59.99999610
_cell_angle_gamma   59.99999963
_symmetry_Int_Tables_number   1
_chemical_formula_structural   TbTm3CdNi
_chemical_formula_sum   'Tb4 Tm12 Cd4 Ni4'
_cell_volume   597.94844979
_cell_formula_units_Z   4
loop_
 _symmetry_equiv_pos_site_id
 _symmetry_equiv_pos_as_xyz
  1  'x, y, z'
loop_
 _atom_site_type_symbol
 _atom_site_label
 _atom_site_symmetry_multiplicity
 _atom_site_fract_x
 _atom_site_fract_y
 _atom_site_fract_z
 _atom_site_occupancy
  Tb  Tb0  1  0.349733  0.349733  0.349733  1
  Tb  Tb1  1  0.349733  0.349733  0.950801  1
  Tb  Tb2  1  0.349733  0.950801  0.349733  1
  Tb  Tb3  1  0.950801  0.349733  0.349733  1
  Tm  Tm4  1  0.812051  0.187949  0.187949  1
  Tm  Tm5  1  0.187949  0.812051  0.812051  1
  Tm  Tm6  1  0.187949  0.812051  0.187949  1
  Tm  Tm7  1  0.812051  0.187949  0.812051  1
  Tm  Tm8  1  0.187949  0.187949  0.812051  1
  Tm  Tm9  1  0.812051  0.812051  0.187949  1
  Tm  Tm10  1  0.935699  0.564301  0.564301  1
  Tm  Tm11  1  0.564301  0.935699  0.935699  1
  Tm  Tm12  1  0.564301  0.935699  0.564301  1
  Tm  Tm13  1  0.935699  0.564301  0.935699  1
  Tm  Tm14  1  0.564301  0.564301  0.935699  1
  Tm  Tm15  1  0.935699  0.935699  0.564301  1
  Cd  Cd16  1  0.582225  0.582225  0.582225  1
  Cd  Cd17  1  0.582225  0.582225  0.253327  1
  Cd  Cd18  1  0.582225  0.253327  0.582225  1
  Cd  Cd19  1  0.253327  0.582225  0.582225  1
  Ni  Ni20  1  0.141523  0.141523  0.141523  1
  Ni  Ni21  1  0.141523  0.141523  0.575433  1
  Ni  Ni22  1  0.141523  0.575433  0.141523  1
  Ni  Ni23  1  0.575433  0.141523  0.141523  1
