# generated using pymatgen
data_Nd3EuMn2(CoO6)2
_symmetry_space_group_name_H-M   'P 1'
_cell_length_a   5.44304622
_cell_length_b   5.60504892
_cell_length_c   7.74595559
_cell_angle_alpha   90.04473263
_cell_angle_beta   89.86759888
_cell_angle_gamma   89.73752400
_symmetry_Int_Tables_number   1
_chemical_formula_structural   Nd3EuMn2(CoO6)2
_chemical_formula_sum   'Nd3 Eu1 Mn2 Co2 O12'
_cell_volume   236.31461375
_cell_formula_units_Z   1
loop_
 _symmetry_equiv_pos_site_id
 _symmetry_equiv_pos_as_xyz
  1  'x, y, z'
loop_
 _atom_site_type_symbol
 _atom_site_label
 _atom_site_symmetry_multiplicity
 _atom_site_fract_x
 _atom_site_fract_y
 _atom_site_fract_z
 _atom_site_occupancy
  Nd  Nd0  1  0.014742  0.945127  0.750718  1
  Nd  Nd1  1  0.512692  0.555057  0.250416  1
  Nd  Nd2  1  0.985764  0.056033  0.248901  1
  Eu  Eu3  1  0.491944  0.446142  0.749743  1
  Mn  Mn4  1  0.999933  0.499563  0.501109  1
  Mn  Mn5  1  0.499885  0.000488  0.998692  1
  Co  Co6  1  0.499630  0.000354  0.501206  1
  Co  Co7  1  0.000666  0.499692  0.998657  1
  O  O8  1  0.585705  0.028573  0.757280  1
  O  O9  1  0.905667  0.523637  0.742353  1
  O  O10  1  0.413298  0.976391  0.242491  1
  O  O11  1  0.086351  0.478708  0.257553  1
  O  O12  1  0.212835  0.198155  0.956522  1
  O  O13  1  0.288256  0.693051  0.548480  1
  O  O14  1  0.786257  0.800579  0.044175  1
  O  O15  1  0.713921  0.302358  0.455908  1
  O  O16  1  0.194874  0.213325  0.546584  1
  O  O17  1  0.306663  0.712295  0.949484  1
  O  O18  1  0.804280  0.786403  0.453204  1
  O  O19  1  0.696634  0.284074  0.046523  1
