# generated using pymatgen
data_Gd8Ho12Si15P
_symmetry_space_group_name_H-M   'P 1'
_cell_length_a   7.47798889
_cell_length_b   7.63909861
_cell_length_c   14.59566000
_cell_angle_alpha   89.79653805
_cell_angle_beta   86.33496371
_cell_angle_gamma   89.96738338
_symmetry_Int_Tables_number   1
_chemical_formula_structural   Gd8Ho12Si15P
_chemical_formula_sum   'Gd8 Ho12 Si15 P1'
_cell_volume   832.06792921
_cell_formula_units_Z   1
loop_
 _symmetry_equiv_pos_site_id
 _symmetry_equiv_pos_as_xyz
  1  'x, y, z'
loop_
 _atom_site_type_symbol
 _atom_site_label
 _atom_site_symmetry_multiplicity
 _atom_site_fract_x
 _atom_site_fract_y
 _atom_site_fract_z
 _atom_site_occupancy
  Gd  Gd0  1  0.025707  0.184116  0.101684  1
  Gd  Gd1  1  0.975275  0.817303  0.898333  1
  Gd  Gd2  1  0.475520  0.684157  0.898721  1
  Gd  Gd3  1  0.001209  0.819077  0.598780  1
  Gd  Gd4  1  0.524758  0.316722  0.101117  1
  Gd  Gd5  1  0.995786  0.176370  0.399178  1
  Gd  Gd6  1  0.497231  0.316403  0.401189  1
  Gd  Gd7  1  0.501900  0.681004  0.598169  1
  Ho  Ho8  1  0.170257  0.507150  0.746566  1
  Ho  Ho9  1  0.830027  0.493965  0.255088  1
  Ho  Ho10  1  0.328547  0.004471  0.255002  1
  Ho  Ho11  1  0.671031  0.994833  0.745082  1
  Ho  Ho12  1  0.354105  0.168586  0.618853  1
  Ho  Ho13  1  0.644708  0.835368  0.379843  1
  Ho  Ho14  1  0.146369  0.657932  0.385386  1
  Ho  Ho15  1  0.674532  0.822570  0.122578  1
  Ho  Ho16  1  0.858846  0.336947  0.616841  1
  Ho  Ho17  1  0.325613  0.177446  0.876772  1
  Ho  Ho18  1  0.825580  0.323307  0.877007  1
  Ho  Ho19  1  0.174631  0.677130  0.122212  1
  Si  Si20  1  0.044118  0.110854  0.750536  1
  Si  Si21  1  0.956767  0.888224  0.248708  1
  Si  Si22  1  0.455041  0.609269  0.249066  1
  Si  Si23  1  0.545233  0.390487  0.750082  1
  Si  Si24  1  0.285356  0.874365  0.750921  1
  Si  Si25  1  0.715231  0.127174  0.248191  1
  Si  Si26  1  0.215494  0.372752  0.248841  1
  Si  Si27  1  0.785346  0.626431  0.750854  1
  Si  Si28  1  0.791465  0.535198  0.456447  1
  Si  Si29  1  0.296482  0.962569  0.458498  1
  Si  Si30  1  0.854983  0.529078  0.041276  1
  Si  Si31  1  0.700420  0.037496  0.542556  1
  Si  Si32  1  0.144875  0.471826  0.957867  1
  Si  Si33  1  0.644265  0.029263  0.957937  1
  Si  Si34  1  0.355234  0.971714  0.041650  1
  P  P35  1  0.208057  0.468443  0.548169  1
