# generated using pymatgen
data_Sc24Tc7Sb
_symmetry_space_group_name_H-M   'P 1'
_cell_length_a   5.77045382
_cell_length_b   8.55768600
_cell_length_c   14.23143331
_cell_angle_alpha   90.00000000
_cell_angle_beta   89.10128665
_cell_angle_gamma   90.00000000
_symmetry_Int_Tables_number   1
_chemical_formula_structural   Sc24Tc7Sb
_chemical_formula_sum   'Sc24 Tc7 Sb1'
_cell_volume   702.68637244
_cell_formula_units_Z   1
loop_
 _symmetry_equiv_pos_site_id
 _symmetry_equiv_pos_as_xyz
  1  'x, y, z'
loop_
 _atom_site_type_symbol
 _atom_site_label
 _atom_site_symmetry_multiplicity
 _atom_site_fract_x
 _atom_site_fract_y
 _atom_site_fract_z
 _atom_site_occupancy
  Sc  Sc0  1  0.520083  0.750000  0.350484  1
  Sc  Sc1  1  0.022823  0.250000  0.148524  1
  Sc  Sc2  1  0.471742  0.250000  0.648125  1
  Sc  Sc3  1  0.969630  0.750000  0.864562  1
  Sc  Sc4  1  0.795750  0.750000  0.116507  1
  Sc  Sc5  1  0.290156  0.250000  0.379975  1
  Sc  Sc6  1  0.206100  0.250000  0.887055  1
  Sc  Sc7  1  0.707327  0.750000  0.604970  1
  Sc  Sc8  1  0.469875  0.940534  0.807152  1
  Sc  Sc9  1  0.941115  0.070346  0.705120  1
  Sc  Sc10  1  0.553598  0.437107  0.208714  1
  Sc  Sc11  1  0.052736  0.563208  0.287301  1
  Sc  Sc12  1  0.553598  0.062893  0.208714  1
  Sc  Sc13  1  0.052736  0.936792  0.287301  1
  Sc  Sc14  1  0.469875  0.559466  0.807152  1
  Sc  Sc15  1  0.941115  0.429654  0.705120  1
  Sc  Sc16  1  0.234330  0.945265  0.516236  1
  Sc  Sc17  1  0.749670  0.063583  0.974223  1
  Sc  Sc18  1  0.743575  0.435508  0.463717  1
  Sc  Sc19  1  0.249149  0.558646  0.037657  1
  Sc  Sc20  1  0.743575  0.064492  0.463717  1
  Sc  Sc21  1  0.249149  0.941354  0.037657  1
  Sc  Sc22  1  0.234330  0.554735  0.516236  1
  Sc  Sc23  1  0.749670  0.436417  0.974223  1
  Tc  Tc24  1  0.916663  0.750000  0.438494  1
  Tc  Tc25  1  0.417865  0.250000  0.055542  1
  Tc  Tc26  1  0.078172  0.250000  0.551389  1
  Tc  Tc27  1  0.576127  0.750000  0.953602  1
  Tc  Tc28  1  0.347238  0.750000  0.181324  1
  Tc  Tc29  1  0.843450  0.250000  0.317257  1
  Tc  Tc30  1  0.657478  0.250000  0.819912  1
  Sb  Sb31  1  0.191300  0.750000  0.682039  1
