# generated using pymatgen
data_Ba4NaCd(ReN4)2
_symmetry_space_group_name_H-M   'P 1'
_cell_length_a   6.10857700
_cell_length_b   7.18965110
_cell_length_c   8.09619821
_cell_angle_alpha   62.21376493
_cell_angle_beta   90.00000000
_cell_angle_gamma   90.00000000
_symmetry_Int_Tables_number   1
_chemical_formula_structural   Ba4NaCd(ReN4)2
_chemical_formula_sum   'Ba4 Na1 Cd1 Re2 N8'
_cell_volume   314.57310484
_cell_formula_units_Z   1
loop_
 _symmetry_equiv_pos_site_id
 _symmetry_equiv_pos_as_xyz
  1  'x, y, z'
loop_
 _atom_site_type_symbol
 _atom_site_label
 _atom_site_symmetry_multiplicity
 _atom_site_fract_x
 _atom_site_fract_y
 _atom_site_fract_z
 _atom_site_occupancy
  Ba  Ba0  1  0.250000  0.240654  0.098650  1
  Ba  Ba1  1  0.750000  0.765117  0.903733  1
  Ba  Ba2  1  0.750000  0.718042  0.384381  1
  Ba  Ba3  1  0.250000  0.268371  0.617456  1
  Na  Na4  1  0.750000  0.252553  0.343425  1
  Cd  Cd5  1  0.250000  0.747096  0.645983  1
  Re  Re6  1  0.250000  0.692904  0.169080  1
  Re  Re7  1  0.750000  0.308912  0.832914  1
  N  N8  1  0.503802  0.477075  0.777319  1
  N  N9  1  0.009238  0.523232  0.222810  1
  N  N10  1  0.490762  0.523232  0.222810  1
  N  N11  1  0.996198  0.477075  0.777319  1
  N  N12  1  0.750000  0.186371  0.678980  1
  N  N13  1  0.250000  0.817706  0.324507  1
  N  N14  1  0.750000  0.114617  0.080503  1
  N  N15  1  0.250000  0.887039  0.920133  1
