# generated using pymatgen
data_LaCuRe(Sb6Os)2
_symmetry_space_group_name_H-M   'P 1'
_cell_length_a   8.24015029
_cell_length_b   8.19573236
_cell_length_c   8.20395074
_cell_angle_alpha   109.56648595
_cell_angle_beta   109.72568758
_cell_angle_gamma   109.56723607
_symmetry_Int_Tables_number   1
_chemical_formula_structural   LaCuRe(Sb6Os)2
_chemical_formula_sum   'La1 Cu1 Re1 Sb12 Os2'
_cell_volume   424.14163666
_cell_formula_units_Z   1
loop_
 _symmetry_equiv_pos_site_id
 _symmetry_equiv_pos_as_xyz
  1  'x, y, z'
loop_
 _atom_site_type_symbol
 _atom_site_label
 _atom_site_symmetry_multiplicity
 _atom_site_fract_x
 _atom_site_fract_y
 _atom_site_fract_z
 _atom_site_occupancy
  La  La0  1  0.000000  0.000000  0.000000  1
  Cu  Cu1  1  0.500000  0.000000  0.000000  1
  Re  Re2  1  0.500000  0.500000  0.500000  1
  Sb  Sb3  1  0.339038  0.186026  0.843044  1
  Sb  Sb4  1  0.660962  0.813974  0.156956  1
  Sb  Sb5  1  0.663045  0.503750  0.842956  1
  Sb  Sb6  1  0.336955  0.496250  0.157044  1
  Sb  Sb7  1  0.179719  0.843453  0.338899  1
  Sb  Sb8  1  0.820281  0.156547  0.661101  1
  Sb  Sb9  1  0.504009  0.842853  0.656839  1
  Sb  Sb10  1  0.495991  0.157147  0.343161  1
  Sb  Sb11  1  0.847300  0.343368  0.184873  1
  Sb  Sb12  1  0.152700  0.656632  0.815127  1
  Sb  Sb13  1  0.841285  0.661946  0.504513  1
  Sb  Sb14  1  0.158715  0.338054  0.495487  1
  Os  Os15  1  0.000000  0.000000  0.500000  1
  Os  Os16  1  0.000000  0.500000  0.000000  1
