# generated using pymatgen
data_Sr2B5Os2Ru
_symmetry_space_group_name_H-M   'P 1'
_cell_length_a   5.80835203
_cell_length_b   5.80835248
_cell_length_c   7.99230664
_cell_angle_alpha   58.62978244
_cell_angle_beta   58.62977689
_cell_angle_gamma   41.49085153
_symmetry_Int_Tables_number   1
_chemical_formula_structural   Sr2B5Os2Ru
_chemical_formula_sum   'Sr2 B5 Os2 Ru1'
_cell_volume   148.39879369
_cell_formula_units_Z   1
loop_
 _symmetry_equiv_pos_site_id
 _symmetry_equiv_pos_as_xyz
  1  'x, y, z'
loop_
 _atom_site_type_symbol
 _atom_site_label
 _atom_site_symmetry_multiplicity
 _atom_site_fract_x
 _atom_site_fract_y
 _atom_site_fract_z
 _atom_site_occupancy
  Sr  Sr0  1  0.399097  0.923434  0.731899  1
  Sr  Sr1  1  0.076566  0.600903  0.268101  1
  B  B2  1  0.737951  0.262049  0.000000  1
  B  B3  1  0.541503  0.534207  0.376169  1
  B  B4  1  0.465793  0.458497  0.623831  1
  B  B5  1  0.078497  0.627996  0.814558  1
  B  B6  1  0.372004  0.921503  0.185442  1
  Os  Os7  1  0.607904  0.120787  0.906527  1
  Os  Os8  1  0.879213  0.392096  0.093473  1
  Ru  Ru9  1  0.007744  0.992256  0.500000  1
