# generated using pymatgen
data_Y6Ho10Cd4Pd3Ru
_symmetry_space_group_name_H-M   'P 1'
_cell_length_a   9.69707932
_cell_length_b   9.69707971
_cell_length_c   9.69707971
_cell_angle_alpha   59.58206121
_cell_angle_beta   59.58206866
_cell_angle_gamma   59.58205916
_symmetry_Int_Tables_number   1
_chemical_formula_structural   Y6Ho10Cd4Pd3Ru
_chemical_formula_sum   'Y6 Ho10 Cd4 Pd3 Ru1'
_cell_volume   638.64901424
_cell_formula_units_Z   1
loop_
 _symmetry_equiv_pos_site_id
 _symmetry_equiv_pos_as_xyz
  1  'x, y, z'
loop_
 _atom_site_type_symbol
 _atom_site_label
 _atom_site_symmetry_multiplicity
 _atom_site_fract_x
 _atom_site_fract_y
 _atom_site_fract_z
 _atom_site_occupancy
  Y  Y0  1  0.935359  0.565439  0.565439  1
  Y  Y1  1  0.560320  0.936603  0.936603  1
  Y  Y2  1  0.565439  0.935359  0.565439  1
  Y  Y3  1  0.936603  0.560320  0.936603  1
  Y  Y4  1  0.565439  0.565439  0.935359  1
  Y  Y5  1  0.936603  0.936603  0.560320  1
  Ho  Ho6  1  0.353192  0.353192  0.353192  1
  Ho  Ho7  1  0.350351  0.350351  0.944630  1
  Ho  Ho8  1  0.350351  0.944630  0.350351  1
  Ho  Ho9  1  0.944630  0.350351  0.350351  1
  Ho  Ho10  1  0.816854  0.188069  0.188069  1
  Ho  Ho11  1  0.188035  0.810991  0.810991  1
  Ho  Ho12  1  0.188069  0.816854  0.188069  1
  Ho  Ho13  1  0.810991  0.188035  0.810991  1
  Ho  Ho14  1  0.188069  0.188069  0.816854  1
  Ho  Ho15  1  0.810991  0.810991  0.188035  1
  Cd  Cd16  1  0.580324  0.580324  0.580324  1
  Cd  Cd17  1  0.581278  0.581278  0.254162  1
  Cd  Cd18  1  0.581278  0.254162  0.581278  1
  Cd  Cd19  1  0.254162  0.581278  0.581278  1
  Pd  Pd20  1  0.144657  0.144657  0.568307  1
  Pd  Pd21  1  0.144657  0.568307  0.144657  1
  Pd  Pd22  1  0.568307  0.144657  0.144657  1
  Ru  Ru23  1  0.144039  0.144039  0.144039  1
