# generated using pymatgen
data_Tb3HoGa20Pd11
_symmetry_space_group_name_H-M   'P 1'
_cell_length_a   4.28892120
_cell_length_b   10.91941716
_cell_length_c   13.59702555
_cell_angle_alpha   81.05683863
_cell_angle_beta   80.58663391
_cell_angle_gamma   78.42906066
_symmetry_Int_Tables_number   1
_chemical_formula_structural   Tb3HoGa20Pd11
_chemical_formula_sum   'Tb3 Ho1 Ga20 Pd11'
_cell_volume   610.46542884
_cell_formula_units_Z   1
loop_
 _symmetry_equiv_pos_site_id
 _symmetry_equiv_pos_as_xyz
  1  'x, y, z'
loop_
 _atom_site_type_symbol
 _atom_site_label
 _atom_site_symmetry_multiplicity
 _atom_site_fract_x
 _atom_site_fract_y
 _atom_site_fract_z
 _atom_site_occupancy
  Tb  Tb0  1  0.120896  0.092027  0.664989  1
  Tb  Tb1  1  0.228567  0.366508  0.179370  1
  Tb  Tb2  1  0.771383  0.633432  0.820703  1
  Ho  Ho3  1  0.879359  0.907816  0.334721  1
  Ga  Ga4  1  0.992905  0.922601  0.087662  1
  Ga  Ga5  1  0.006966  0.077447  0.912699  1
  Ga  Ga6  1  0.935614  0.325674  0.805664  1
  Ga  Ga7  1  0.064413  0.674632  0.194368  1
  Ga  Ga8  1  0.893926  0.661571  0.544313  1
  Ga  Ga9  1  0.106161  0.338176  0.455546  1
  Ga  Ga10  1  0.800534  0.396248  0.007503  1
  Ga  Ga11  1  0.199394  0.603848  0.992605  1
  Ga  Ga12  1  0.746869  0.211850  0.299561  1
  Ga  Ga13  1  0.253615  0.787679  0.700123  1
  Ga  Ga14  1  0.698223  0.100421  0.501757  1
  Ga  Ga15  1  0.302590  0.898966  0.497457  1
  Ga  Ga16  1  0.615745  0.469831  0.301716  1
  Ga  Ga17  1  0.384142  0.530217  0.698299  1
  Ga  Ga18  1  0.604333  0.796731  0.997632  1
  Ga  Ga19  1  0.395407  0.203473  0.002613  1
  Ga  Ga20  1  0.456970  0.712590  0.372930  1
  Ga  Ga21  1  0.542188  0.288282  0.627119  1
  Ga  Ga22  1  0.361660  0.065053  0.205728  1
  Ga  Ga23  1  0.638231  0.934667  0.794727  1
  Pd  Pd24  1  0.499833  0.500315  0.499958  1
  Pd  Pd25  1  0.968850  0.429697  0.627445  1
  Pd  Pd26  1  0.031135  0.570384  0.372407  1
  Pd  Pd27  1  0.859683  0.162219  0.110886  1
  Pd  Pd28  1  0.140289  0.837796  0.889005  1
  Pd  Pd29  1  0.757486  0.874104  0.607781  1
  Pd  Pd30  1  0.243098  0.125293  0.391941  1
  Pd  Pd31  1  0.652984  0.580851  0.111038  1
  Pd  Pd32  1  0.346889  0.419392  0.889065  1
  Pd  Pd33  1  0.493877  0.827431  0.184844  1
  Pd  Pd34  1  0.505784  0.172779  0.815826  1
