# generated using pymatgen
data_KBa4Cu(ReN4)2
_symmetry_space_group_name_H-M   'P 1'
_cell_length_a   6.05121500
_cell_length_b   6.56498945
_cell_length_c   7.67707800
_cell_angle_alpha   76.70774014
_cell_angle_beta   90.00000000
_cell_angle_gamma   90.00000000
_symmetry_Int_Tables_number   1
_chemical_formula_structural   KBa4Cu(ReN4)2
_chemical_formula_sum   'K1 Ba4 Cu1 Re2 N8'
_cell_volume   296.81039446
_cell_formula_units_Z   1
loop_
 _symmetry_equiv_pos_site_id
 _symmetry_equiv_pos_as_xyz
  1  'x, y, z'
loop_
 _atom_site_type_symbol
 _atom_site_label
 _atom_site_symmetry_multiplicity
 _atom_site_fract_x
 _atom_site_fract_y
 _atom_site_fract_z
 _atom_site_occupancy
  K  K0  1  0.750000  0.261518  0.321274  1
  Ba  Ba1  1  0.250000  0.301059  0.046266  1
  Ba  Ba2  1  0.750000  0.761971  0.953676  1
  Ba  Ba3  1  0.750000  0.747527  0.461635  1
  Ba  Ba4  1  0.250000  0.133217  0.629510  1
  Cu  Cu5  1  0.250000  0.632898  0.609198  1
  Re  Re6  1  0.250000  0.741857  0.211067  1
  Re  Re7  1  0.750000  0.295402  0.784638  1
  N  N8  1  0.502295  0.463973  0.727883  1
  N  N9  1  0.009334  0.573661  0.231418  1
  N  N10  1  0.490666  0.573661  0.231418  1
  N  N11  1  0.997705  0.463973  0.727883  1
  N  N12  1  0.750000  0.085047  0.661835  1
  N  N13  1  0.250000  0.887037  0.397426  1
  N  N14  1  0.750000  0.166216  0.019146  1
  N  N15  1  0.250000  0.910982  0.985728  1
