# generated using pymatgen
data_YLu15(ScIr3)4
_symmetry_space_group_name_H-M   'P 1'
_cell_length_a   10.59294800
_cell_length_b   10.59707724
_cell_length_c   6.18473600
_cell_angle_alpha   89.98865663
_cell_angle_beta   90.00061661
_cell_angle_gamma   90.00463371
_symmetry_Int_Tables_number   1
_chemical_formula_structural   YLu15(ScIr3)4
_chemical_formula_sum   'Y1 Lu15 Sc4 Ir12'
_cell_volume   694.26312138
_cell_formula_units_Z   1
loop_
 _symmetry_equiv_pos_site_id
 _symmetry_equiv_pos_as_xyz
  1  'x, y, z'
loop_
 _atom_site_type_symbol
 _atom_site_label
 _atom_site_symmetry_multiplicity
 _atom_site_fract_x
 _atom_site_fract_y
 _atom_site_fract_z
 _atom_site_occupancy
  Y  Y0  1  0.086539  0.287534  0.125627  1
  Lu  Lu1  1  0.289732  0.084911  0.376196  1
  Lu  Lu2  1  0.288958  0.914166  0.876303  1
  Lu  Lu3  1  0.711132  0.085798  0.875493  1
  Lu  Lu4  1  0.711040  0.914021  0.376022  1
  Lu  Lu5  1  0.585874  0.788929  0.875998  1
  Lu  Lu6  1  0.585967  0.210988  0.376053  1
  Lu  Lu7  1  0.414185  0.788851  0.375851  1
  Lu  Lu8  1  0.414284  0.211034  0.875745  1
  Lu  Lu9  1  0.211344  0.414681  0.623978  1
  Lu  Lu10  1  0.211143  0.586501  0.124080  1
  Lu  Lu11  1  0.788361  0.414452  0.124059  1
  Lu  Lu12  1  0.788417  0.585974  0.624358  1
  Lu  Lu13  1  0.914017  0.711259  0.124293  1
  Lu  Lu14  1  0.913486  0.289186  0.623969  1
  Lu  Lu15  1  0.086101  0.711479  0.624320  1
  Sc  Sc16  1  0.999760  0.999811  0.499966  1
  Sc  Sc17  1  0.999590  0.999103  0.999589  1
  Sc  Sc18  1  0.500054  0.500125  0.999621  1
  Sc  Sc19  1  0.500215  0.500129  0.499878  1
  Ir  Ir20  1  0.848118  0.148924  0.251126  1
  Ir  Ir21  1  0.849966  0.849650  0.750104  1
  Ir  Ir22  1  0.150668  0.148770  0.746011  1
  Ir  Ir23  1  0.150011  0.849857  0.249923  1
  Ir  Ir24  1  0.650076  0.349909  0.750013  1
  Ir  Ir25  1  0.650122  0.650031  0.249942  1
  Ir  Ir26  1  0.352118  0.350311  0.251297  1
  Ir  Ir27  1  0.350049  0.650103  0.750060  1
  Ir  Ir28  1  0.500292  0.999932  0.122609  1
  Ir  Ir29  1  0.500010  0.999825  0.622804  1
  Ir  Ir30  1  0.999200  0.501890  0.875614  1
  Ir  Ir31  1  0.999171  0.501868  0.379093  1
