# generated using pymatgen
data_U8GaS17
_symmetry_space_group_name_H-M   'P 1'
_cell_length_a   7.82611902
_cell_length_b   7.82611866
_cell_length_c   10.42774561
_cell_angle_alpha   79.96105963
_cell_angle_beta   79.96105875
_cell_angle_gamma   64.66597873
_symmetry_Int_Tables_number   1
_chemical_formula_structural   U8GaS17
_chemical_formula_sum   'U8 Ga1 S17'
_cell_volume   564.83925676
_cell_formula_units_Z   1
loop_
 _symmetry_equiv_pos_site_id
 _symmetry_equiv_pos_as_xyz
  1  'x, y, z'
loop_
 _atom_site_type_symbol
 _atom_site_label
 _atom_site_symmetry_multiplicity
 _atom_site_fract_x
 _atom_site_fract_y
 _atom_site_fract_z
 _atom_site_occupancy
  U  U0  1  0.818548  0.306669  0.302419  1
  U  U1  1  0.306669  0.818548  0.302419  1
  U  U2  1  0.181452  0.693331  0.697581  1
  U  U3  1  0.693331  0.181452  0.697581  1
  U  U4  1  0.796395  0.796395  0.456503  1
  U  U5  1  0.203605  0.203605  0.543497  1
  U  U6  1  0.321933  0.321933  0.017101  1
  U  U7  1  0.678067  0.678067  0.982899  1
  Ga  Ga8  1  0.000000  0.000000  0.000000  1
  S  S9  1  0.179162  0.567122  0.464449  1
  S  S10  1  0.567122  0.179162  0.464449  1
  S  S11  1  0.820838  0.432878  0.535551  1
  S  S12  1  0.432878  0.820838  0.535551  1
  S  S13  1  0.946819  0.324615  0.034499  1
  S  S14  1  0.324615  0.946819  0.034499  1
  S  S15  1  0.053181  0.675385  0.965501  1
  S  S16  1  0.675385  0.053181  0.965501  1
  S  S17  1  0.945939  0.945939  0.230838  1
  S  S18  1  0.054061  0.054061  0.769162  1
  S  S19  1  0.785899  0.785899  0.719607  1
  S  S20  1  0.214101  0.214101  0.280393  1
  S  S21  1  0.700385  0.700385  0.244184  1
  S  S22  1  0.299615  0.299615  0.755816  1
  S  S23  1  0.479630  0.479630  0.170944  1
  S  S24  1  0.520370  0.520370  0.829056  1
  S  S25  1  0.000000  0.000000  0.500000  1
