# generated using pymatgen
data_Tb6Mn(SiS7)2
_symmetry_space_group_name_H-M   'P 1'
_cell_length_a   9.94639800
_cell_length_b   9.94639770
_cell_length_c   5.63174600
_cell_angle_alpha   90.00000000
_cell_angle_beta   90.00000000
_cell_angle_gamma   120.00000099
_symmetry_Int_Tables_number   1
_chemical_formula_structural   Tb6Mn(SiS7)2
_chemical_formula_sum   'Tb6 Mn1 Si2 S14'
_cell_volume   482.50891311
_cell_formula_units_Z   1
loop_
 _symmetry_equiv_pos_site_id
 _symmetry_equiv_pos_as_xyz
  1  'x, y, z'
loop_
 _atom_site_type_symbol
 _atom_site_label
 _atom_site_symmetry_multiplicity
 _atom_site_fract_x
 _atom_site_fract_y
 _atom_site_fract_z
 _atom_site_occupancy
  Tb  Tb0  1  0.876501  0.232823  0.249090  1
  Tb  Tb1  1  0.767177  0.643679  0.249090  1
  Tb  Tb2  1  0.356321  0.123499  0.249090  1
  Tb  Tb3  1  0.123592  0.767425  0.751687  1
  Tb  Tb4  1  0.232575  0.356167  0.751687  1
  Tb  Tb5  1  0.643833  0.876408  0.751687  1
  Mn  Mn6  1  0.000000  0.000000  0.487590  1
  Si  Si7  1  0.666667  0.333333  0.834615  1
  Si  Si8  1  0.333333  0.666667  0.339318  1
  S  S9  1  0.666667  0.333333  0.461744  1
  S  S10  1  0.333333  0.666667  0.966014  1
  S  S11  1  0.912443  0.161318  0.724154  1
  S  S12  1  0.838682  0.751125  0.724154  1
  S  S13  1  0.248875  0.087557  0.724154  1
  S  S14  1  0.085050  0.836574  0.241823  1
  S  S15  1  0.163426  0.248477  0.241823  1
  S  S16  1  0.751523  0.914950  0.241823  1
  S  S17  1  0.588445  0.107914  0.985841  1
  S  S18  1  0.892086  0.480532  0.985841  1
  S  S19  1  0.519468  0.411555  0.985841  1
  S  S20  1  0.411906  0.892153  0.489531  1
  S  S21  1  0.107847  0.519753  0.489531  1
  S  S22  1  0.480247  0.588094  0.489531  1
