# generated using pymatgen
data_Ta8V13Zn3
_symmetry_space_group_name_H-M   'P 1'
_cell_length_a   5.07211100
_cell_length_b   5.08016570
_cell_length_c   16.34503800
_cell_angle_alpha   90.00000000
_cell_angle_beta   90.00000000
_cell_angle_gamma   119.94757179
_symmetry_Int_Tables_number   1
_chemical_formula_structural   Ta8V13Zn3
_chemical_formula_sum   'Ta8 V13 Zn3'
_cell_volume   364.93237167
_cell_formula_units_Z   1
loop_
 _symmetry_equiv_pos_site_id
 _symmetry_equiv_pos_as_xyz
  1  'x, y, z'
loop_
 _atom_site_type_symbol
 _atom_site_label
 _atom_site_symmetry_multiplicity
 _atom_site_fract_x
 _atom_site_fract_y
 _atom_site_fract_z
 _atom_site_occupancy
  Ta  Ta0  1  0.999996  0.999992  0.093694  1
  Ta  Ta1  1  0.666676  0.333351  0.156237  1
  Ta  Ta2  1  0.666676  0.333351  0.343763  1
  Ta  Ta3  1  0.999996  0.999992  0.406306  1
  Ta  Ta4  1  0.000001  0.000001  0.591010  1
  Ta  Ta5  1  0.333324  0.666647  0.652675  1
  Ta  Ta6  1  0.333324  0.666647  0.847325  1
  Ta  Ta7  1  0.000001  0.000001  0.908990  1
  V  V8  1  0.499869  0.999737  0.999283  1
  V  V9  1  0.000260  0.500134  0.999287  1
  V  V10  1  0.499874  0.500134  0.999287  1
  V  V11  1  0.333317  0.666634  0.123306  1
  V  V12  1  0.164130  0.328260  0.250000  1
  V  V13  1  0.164133  0.835849  0.250000  1
  V  V14  1  0.671717  0.835849  0.250000  1
  V  V15  1  0.333317  0.666634  0.376693  1
  V  V16  1  0.499869  0.999737  0.500717  1
  V  V17  1  0.000260  0.500134  0.500713  1
  V  V18  1  0.499874  0.500134  0.500713  1
  V  V19  1  0.666693  0.333385  0.622422  1
  V  V20  1  0.666693  0.333385  0.877577  1
  Zn  Zn21  1  0.324294  0.162150  0.750000  1
  Zn  Zn22  1  0.837856  0.162150  0.750000  1
  Zn  Zn23  1  0.837855  0.675711  0.750000  1
