# generated using pymatgen
data_Pr10Zn4Ir5Ru
_symmetry_space_group_name_H-M   'P 1'
_cell_length_a   8.63599635
_cell_length_b   8.63599644
_cell_length_c   8.60410295
_cell_angle_alpha   109.19529779
_cell_angle_beta   109.63753575
_cell_angle_gamma   109.73056036
_symmetry_Int_Tables_number   1
_chemical_formula_structural   Pr10Zn4Ir5Ru
_chemical_formula_sum   'Pr10 Zn4 Ir5 Ru1'
_cell_volume   493.05501260
_cell_formula_units_Z   1
loop_
 _symmetry_equiv_pos_site_id
 _symmetry_equiv_pos_as_xyz
  1  'x, y, z'
loop_
 _atom_site_type_symbol
 _atom_site_label
 _atom_site_symmetry_multiplicity
 _atom_site_fract_x
 _atom_site_fract_y
 _atom_site_fract_z
 _atom_site_occupancy
  Pr  Pr0  1  0.251888  0.680593  0.434445  1
  Pr  Pr1  1  0.746148  0.817443  0.065555  1
  Pr  Pr2  1  0.431790  0.248854  0.681172  1
  Pr  Pr3  1  0.681031  0.431031  0.250000  1
  Pr  Pr4  1  0.067681  0.750617  0.818828  1
  Pr  Pr5  1  0.818364  0.068364  0.750000  1
  Pr  Pr6  1  0.223208  0.223537  0.223559  1
  Pr  Pr7  1  0.499978  0.999649  0.276441  1
  Pr  Pr8  1  0.278294  0.502017  0.998839  1
  Pr  Pr9  1  0.003178  0.279455  0.501161  1
  Zn  Zn10  1  0.592009  0.591849  0.593637  1
  Zn  Zn11  1  0.498212  0.998372  0.906363  1
  Zn  Zn12  1  0.907573  0.500360  0.000759  1
  Zn  Zn13  1  0.999601  0.906814  0.499241  1
  Ir  Ir14  1  0.249940  0.129179  0.878805  1
  Ir  Ir15  1  0.750374  0.371135  0.621195  1
  Ir  Ir16  1  0.877283  0.250482  0.127196  1
  Ir  Ir17  1  0.127830  0.877829  0.250000  1
  Ir  Ir18  1  0.623287  0.750088  0.372804  1
  Ru  Ru19  1  0.372331  0.622331  0.750000  1
