# generated using pymatgen
data_Dy7Er5Tc4
_symmetry_space_group_name_H-M   'P 1'
_cell_length_a   6.24434710
_cell_length_b   7.41428465
_cell_length_c   9.13164225
_cell_angle_alpha   90.02089108
_cell_angle_beta   90.05856658
_cell_angle_gamma   90.04682855
_symmetry_Int_Tables_number   1
_chemical_formula_structural   Dy7Er5Tc4
_chemical_formula_sum   'Dy7 Er5 Tc4'
_cell_volume   422.77060128
_cell_formula_units_Z   1
loop_
 _symmetry_equiv_pos_site_id
 _symmetry_equiv_pos_as_xyz
  1  'x, y, z'
loop_
 _atom_site_type_symbol
 _atom_site_label
 _atom_site_symmetry_multiplicity
 _atom_site_fract_x
 _atom_site_fract_y
 _atom_site_fract_z
 _atom_site_occupancy
  Dy  Dy0  1  0.340406  0.675563  0.062139  1
  Dy  Dy1  1  0.159878  0.176005  0.437556  1
  Dy  Dy2  1  0.659863  0.324537  0.562878  1
  Dy  Dy3  1  0.873215  0.541776  0.249846  1
  Dy  Dy4  1  0.627190  0.041239  0.249321  1
  Dy  Dy5  1  0.125621  0.459245  0.750603  1
  Dy  Dy6  1  0.373580  0.958289  0.750205  1
  Er  Er7  1  0.840561  0.824528  0.937422  1
  Er  Er8  1  0.658989  0.324919  0.938272  1
  Er  Er9  1  0.841650  0.824592  0.562447  1
  Er  Er10  1  0.341138  0.674614  0.437542  1
  Er  Er11  1  0.158077  0.175025  0.061961  1
  Tc  Tc12  1  0.041315  0.885311  0.250937  1
  Tc  Tc13  1  0.458288  0.385038  0.247970  1
  Tc  Tc14  1  0.957027  0.114226  0.752077  1
  Tc  Tc15  1  0.543203  0.615092  0.748824  1
