# generated using pymatgen
data_HoEr3Lu4(B6Os)4
_symmetry_space_group_name_H-M   'P 1'
_cell_length_a   3.61115100
_cell_length_b   9.06223400
_cell_length_c   11.44494301
_cell_angle_alpha   89.99943369
_cell_angle_beta   90.00000000
_cell_angle_gamma   90.00000000
_symmetry_Int_Tables_number   1
_chemical_formula_structural   HoEr3Lu4(B6Os)4
_chemical_formula_sum   'Ho1 Er3 Lu4 B24 Os4'
_cell_volume   374.53685173
_cell_formula_units_Z   1
loop_
 _symmetry_equiv_pos_site_id
 _symmetry_equiv_pos_as_xyz
  1  'x, y, z'
loop_
 _atom_site_type_symbol
 _atom_site_label
 _atom_site_symmetry_multiplicity
 _atom_site_fract_x
 _atom_site_fract_y
 _atom_site_fract_z
 _atom_site_occupancy
  Ho  Ho0  1  0.000000  0.178600  0.914000  1
  Er  Er1  1  0.000000  0.321321  0.414071  1
  Er  Er2  1  0.000000  0.678689  0.585956  1
  Er  Er3  1  0.000000  0.821269  0.085962  1
  Lu  Lu4  1  0.000000  0.944080  0.373159  1
  Lu  Lu5  1  0.000000  0.055824  0.626788  1
  Lu  Lu6  1  0.000000  0.444255  0.126918  1
  Lu  Lu7  1  0.000000  0.555952  0.873169  1
  B  B8  1  0.500000  0.553976  0.433391  1
  B  B9  1  0.500000  0.446007  0.566652  1
  B  B10  1  0.500000  0.053938  0.066768  1
  B  B11  1  0.500000  0.945810  0.933341  1
  B  B12  1  0.500000  0.749514  0.420028  1
  B  B13  1  0.500000  0.250442  0.579983  1
  B  B14  1  0.500000  0.249572  0.080129  1
  B  B15  1  0.500000  0.750470  0.920078  1
  B  B16  1  0.500000  0.792106  0.265964  1
  B  B17  1  0.500000  0.207949  0.733882  1
  B  B18  1  0.500000  0.292151  0.233990  1
  B  B19  1  0.500000  0.707857  0.766011  1
  B  B20  1  0.500000  0.631055  0.184384  1
  B  B21  1  0.500000  0.369121  0.815531  1
  B  B22  1  0.500000  0.131033  0.315587  1
  B  B23  1  0.500000  0.868964  0.684382  1
  B  B24  1  0.500000  0.982106  0.213457  1
  B  B25  1  0.500000  0.017637  0.786462  1
  B  B26  1  0.500000  0.482148  0.286508  1
  B  B27  1  0.500000  0.517912  0.713520  1
  B  B28  1  0.500000  0.604880  0.028934  1
  B  B29  1  0.500000  0.395459  0.971137  1
  B  B30  1  0.500000  0.104812  0.471062  1
  B  B31  1  0.500000  0.895224  0.528913  1
  Os  Os32  1  0.000000  0.637792  0.320764  1
  Os  Os33  1  0.000000  0.362380  0.679059  1
  Os  Os34  1  0.000000  0.137836  0.179492  1
  Os  Os35  1  0.000000  0.861853  0.820563  1
