# generated using pymatgen
data_Lu3ZnCoSn3Rh
_symmetry_space_group_name_H-M   'P 1'
_cell_length_a   7.51249900
_cell_length_b   7.51249827
_cell_length_c   3.73979100
_cell_angle_alpha   90.00000000
_cell_angle_beta   90.00000000
_cell_angle_gamma   119.99999002
_symmetry_Int_Tables_number   1
_chemical_formula_structural   Lu3ZnCoSn3Rh
_chemical_formula_sum   'Lu3 Zn1 Co1 Sn3 Rh1'
_cell_volume   182.78763744
_cell_formula_units_Z   1
loop_
 _symmetry_equiv_pos_site_id
 _symmetry_equiv_pos_as_xyz
  1  'x, y, z'
loop_
 _atom_site_type_symbol
 _atom_site_label
 _atom_site_symmetry_multiplicity
 _atom_site_fract_x
 _atom_site_fract_y
 _atom_site_fract_z
 _atom_site_occupancy
  Lu  Lu0  1  0.388199  0.406186  0.500000  1
  Lu  Lu1  1  0.593814  0.982013  0.500000  1
  Lu  Lu2  1  0.017987  0.611801  0.500000  1
  Zn  Zn3  1  0.666667  0.333333  0.000000  1
  Co  Co4  1  0.000000  0.000000  0.500000  1
  Sn  Sn5  1  0.748063  0.744026  0.000000  1
  Sn  Sn6  1  0.255974  0.004038  0.000000  1
  Sn  Sn7  1  0.995962  0.251937  0.000000  1
  Rh  Rh8  1  0.333333  0.666667  0.000000  1
