# generated using pymatgen
data_Er5In4PdPt
_symmetry_space_group_name_H-M   'P 1'
_cell_length_a   3.61879200
_cell_length_b   8.07104902
_cell_length_c   18.14294243
_cell_angle_alpha   90.08060303
_cell_angle_beta   90.00000000
_cell_angle_gamma   90.00000000
_symmetry_Int_Tables_number   1
_chemical_formula_structural   Er5In4PdPt
_chemical_formula_sum   'Er10 In8 Pd2 Pt2'
_cell_volume   529.90851661
_cell_formula_units_Z   2
loop_
 _symmetry_equiv_pos_site_id
 _symmetry_equiv_pos_as_xyz
  1  'x, y, z'
loop_
 _atom_site_type_symbol
 _atom_site_label
 _atom_site_symmetry_multiplicity
 _atom_site_fract_x
 _atom_site_fract_y
 _atom_site_fract_z
 _atom_site_occupancy
  Er  Er0  1  0.000000  0.117889  0.415514  1
  Er  Er1  1  0.000000  0.882111  0.584486  1
  Er  Er2  1  0.000000  0.382998  0.914737  1
  Er  Er3  1  0.000000  0.617002  0.085263  1
  Er  Er4  1  0.000000  0.247189  0.219783  1
  Er  Er5  1  0.000000  0.752811  0.780217  1
  Er  Er6  1  0.000000  0.260445  0.720803  1
  Er  Er7  1  0.000000  0.739555  0.279197  1
  Er  Er8  1  0.000000  0.000000  0.000000  1
  Er  Er9  1  0.000000  0.500000  0.500000  1
  In  In10  1  0.500000  0.422446  0.351650  1
  In  In11  1  0.500000  0.577554  0.648350  1
  In  In12  1  0.500000  0.075254  0.850845  1
  In  In13  1  0.500000  0.924746  0.149155  1
  In  In14  1  0.500000  0.291731  0.066460  1
  In  In15  1  0.500000  0.708269  0.933540  1
  In  In16  1  0.500000  0.207370  0.566974  1
  In  In17  1  0.500000  0.792630  0.433026  1
  Pd  Pd18  1  0.500000  0.024821  0.303769  1
  Pd  Pd19  1  0.500000  0.975179  0.696231  1
  Pt  Pt20  1  0.500000  0.474764  0.803748  1
  Pt  Pt21  1  0.500000  0.525236  0.196252  1
