# generated using pymatgen
data_YbEuSi3Pd
_symmetry_space_group_name_H-M   'P 1'
_cell_length_a   8.29761260
_cell_length_b   8.29761419
_cell_length_c   4.23931200
_cell_angle_alpha   90.00000000
_cell_angle_beta   90.00000000
_cell_angle_gamma   120.16495206
_symmetry_Int_Tables_number   1
_chemical_formula_structural   YbEuSi3Pd
_chemical_formula_sum   'Yb2 Eu2 Si6 Pd2'
_cell_volume   252.35280242
_cell_formula_units_Z   2
loop_
 _symmetry_equiv_pos_site_id
 _symmetry_equiv_pos_as_xyz
  1  'x, y, z'
loop_
 _atom_site_type_symbol
 _atom_site_label
 _atom_site_symmetry_multiplicity
 _atom_site_fract_x
 _atom_site_fract_y
 _atom_site_fract_z
 _atom_site_occupancy
  Yb  Yb0  1  0.000000  0.500000  0.000000  1
  Yb  Yb1  1  0.500000  0.000000  0.000000  1
  Eu  Eu2  1  0.500000  0.500000  0.000000  1
  Eu  Eu3  1  0.000000  0.000000  0.000000  1
  Si  Si4  1  0.836015  0.670741  0.500000  1
  Si  Si5  1  0.164741  0.835259  0.500000  1
  Si  Si6  1  0.670741  0.836015  0.500000  1
  Si  Si7  1  0.163985  0.329259  0.500000  1
  Si  Si8  1  0.835259  0.164741  0.500000  1
  Si  Si9  1  0.329259  0.163985  0.500000  1
  Pd  Pd10  1  0.331647  0.668353  0.500000  1
  Pd  Pd11  1  0.668353  0.331647  0.500000  1
