# generated using pymatgen
data_Sc8SiAsI12
_symmetry_space_group_name_H-M   'P 1'
_cell_length_a   4.04448400
_cell_length_b   13.41817362
_cell_length_c   14.18948565
_cell_angle_alpha   89.86260856
_cell_angle_beta   90.00000000
_cell_angle_gamma   90.00000000
_symmetry_Int_Tables_number   1
_chemical_formula_structural   Sc8SiAsI12
_chemical_formula_sum   'Sc8 Si1 As1 I12'
_cell_volume   770.05533335
_cell_formula_units_Z   1
loop_
 _symmetry_equiv_pos_site_id
 _symmetry_equiv_pos_as_xyz
  1  'x, y, z'
loop_
 _atom_site_type_symbol
 _atom_site_label
 _atom_site_symmetry_multiplicity
 _atom_site_fract_x
 _atom_site_fract_y
 _atom_site_fract_z
 _atom_site_occupancy
  Sc  Sc0  1  0.500000  0.114490  0.349960  1
  Sc  Sc1  1  0.500000  0.885510  0.650040  1
  Sc  Sc2  1  0.500000  0.613734  0.148162  1
  Sc  Sc3  1  0.500000  0.386266  0.851838  1
  Sc  Sc4  1  0.000000  0.107604  0.573637  1
  Sc  Sc5  1  0.000000  0.892396  0.426363  1
  Sc  Sc6  1  0.000000  0.607390  0.926136  1
  Sc  Sc7  1  0.000000  0.392610  0.073864  1
  Si  Si8  1  0.500000  0.500000  0.000000  1
  As  As9  1  0.500000  0.000000  0.500000  1
  I  I10  1  0.500000  0.253153  0.164612  1
  I  I11  1  0.500000  0.746847  0.835388  1
  I  I12  1  0.500000  0.753616  0.336498  1
  I  I13  1  0.500000  0.246384  0.663502  1
  I  I14  1  0.000000  0.255204  0.417859  1
  I  I15  1  0.000000  0.744796  0.582141  1
  I  I16  1  0.000000  0.756097  0.081744  1
  I  I17  1  0.000000  0.243903  0.918256  1
  I  I18  1  0.000000  0.002286  0.244411  1
  I  I19  1  0.000000  0.997714  0.755589  1
  I  I20  1  0.000000  0.503058  0.256207  1
  I  I21  1  0.000000  0.496942  0.743793  1
