# generated using pymatgen
data_Y5(In2Cu)2
_symmetry_space_group_name_H-M   'P 1'
_cell_length_a   3.66627200
_cell_length_b   8.05418000
_cell_length_c   18.01786500
_cell_angle_alpha   90.00000000
_cell_angle_beta   90.00000000
_cell_angle_gamma   90.00000000
_symmetry_Int_Tables_number   1
_chemical_formula_structural   Y5(In2Cu)2
_chemical_formula_sum   'Y10 In8 Cu4'
_cell_volume   532.04619538
_cell_formula_units_Z   2
loop_
 _symmetry_equiv_pos_site_id
 _symmetry_equiv_pos_as_xyz
  1  'x, y, z'
loop_
 _atom_site_type_symbol
 _atom_site_label
 _atom_site_symmetry_multiplicity
 _atom_site_fract_x
 _atom_site_fract_y
 _atom_site_fract_z
 _atom_site_occupancy
  Y  Y0  1  0.500000  0.238810  0.780962  1
  Y  Y1  1  0.500000  0.761190  0.219038  1
  Y  Y2  1  0.500000  0.261190  0.280962  1
  Y  Y3  1  0.500000  0.738810  0.719038  1
  Y  Y4  1  0.500000  0.119674  0.582563  1
  Y  Y5  1  0.500000  0.880326  0.417437  1
  Y  Y6  1  0.500000  0.380326  0.082563  1
  Y  Y7  1  0.500000  0.619674  0.917437  1
  Y  Y8  1  0.500000  0.000000  0.000000  1
  Y  Y9  1  0.500000  0.500000  0.500000  1
  In  In10  1  0.000000  0.078517  0.151117  1
  In  In11  1  0.000000  0.921483  0.848883  1
  In  In12  1  0.000000  0.421483  0.651117  1
  In  In13  1  0.000000  0.578517  0.348883  1
  In  In14  1  0.000000  0.207066  0.430582  1
  In  In15  1  0.000000  0.792934  0.569418  1
  In  In16  1  0.000000  0.292934  0.930582  1
  In  In17  1  0.000000  0.707066  0.069418  1
  Cu  Cu18  1  0.000000  0.025223  0.697148  1
  Cu  Cu19  1  0.000000  0.974777  0.302852  1
  Cu  Cu20  1  0.000000  0.474777  0.197148  1
  Cu  Cu21  1  0.000000  0.525223  0.802852  1
