# generated using pymatgen
data_Np2Cd(Si3Pd10)2
_symmetry_space_group_name_H-M   'P 1'
_cell_length_a   8.74583606
_cell_length_b   8.74563857
_cell_length_c   8.74551100
_cell_angle_alpha   59.99784614
_cell_angle_beta   60.00007589
_cell_angle_gamma   60.00086393
_symmetry_Int_Tables_number   1
_chemical_formula_structural   Np2Cd(Si3Pd10)2
_chemical_formula_sum   'Np2 Cd1 Si6 Pd20'
_cell_volume   472.99773909
_cell_formula_units_Z   1
loop_
 _symmetry_equiv_pos_site_id
 _symmetry_equiv_pos_as_xyz
  1  'x, y, z'
loop_
 _atom_site_type_symbol
 _atom_site_label
 _atom_site_symmetry_multiplicity
 _atom_site_fract_x
 _atom_site_fract_y
 _atom_site_fract_z
 _atom_site_occupancy
  Np  Np0  1  0.749910  0.749966  0.750262  1
  Np  Np1  1  0.250090  0.250034  0.249738  1
  Cd  Cd2  1  0.000000  0.000000  0.000000  1
  Si  Si3  1  0.733839  0.733818  0.266065  1
  Si  Si4  1  0.266161  0.266182  0.733935  1
  Si  Si5  1  0.733842  0.266020  0.733870  1
  Si  Si6  1  0.266158  0.733980  0.266130  1
  Si  Si7  1  0.266133  0.733842  0.733836  1
  Si  Si8  1  0.733867  0.266158  0.266164  1
  Pd  Pd9  1  0.616249  0.616172  0.616319  1
  Pd  Pd10  1  0.383751  0.383828  0.383681  1
  Pd  Pd11  1  0.151529  0.615997  0.616165  1
  Pd  Pd12  1  0.616018  0.151845  0.616012  1
  Pd  Pd13  1  0.848471  0.384003  0.383835  1
  Pd  Pd14  1  0.383982  0.848155  0.383988  1
  Pd  Pd15  1  0.616223  0.616083  0.151450  1
  Pd  Pd16  1  0.383777  0.383917  0.848550  1
  Pd  Pd17  1  0.000221  0.000178  0.654783  1
  Pd  Pd18  1  0.999779  0.999822  0.345217  1
  Pd  Pd19  1  0.344873  0.655041  0.000029  1
  Pd  Pd20  1  0.655127  0.344959  0.999971  1
  Pd  Pd21  1  0.999987  0.655107  0.000016  1
  Pd  Pd22  1  0.655163  0.999846  0.345109  1
  Pd  Pd23  1  0.000013  0.344893  0.999984  1
  Pd  Pd24  1  0.344837  0.000154  0.654891  1
  Pd  Pd25  1  0.654840  0.000212  0.000138  1
  Pd  Pd26  1  0.345160  0.999788  0.999862  1
  Pd  Pd27  1  0.000000  0.655122  0.344961  1
  Pd  Pd28  1  0.000000  0.344878  0.655039  1
