# generated using pymatgen
data_Tb20Cd3In3Ru2
_symmetry_space_group_name_H-M   'P 1'
_cell_length_a   9.69436100
_cell_length_b   9.69436134
_cell_length_c   9.87382700
_cell_angle_alpha   90.00000000
_cell_angle_beta   90.00000000
_cell_angle_gamma   120.00000226
_symmetry_Int_Tables_number   1
_chemical_formula_structural   Tb20Cd3In3Ru2
_chemical_formula_sum   'Tb20 Cd3 In3 Ru2'
_cell_volume   803.62701286
_cell_formula_units_Z   1
loop_
 _symmetry_equiv_pos_site_id
 _symmetry_equiv_pos_as_xyz
  1  'x, y, z'
loop_
 _atom_site_type_symbol
 _atom_site_label
 _atom_site_symmetry_multiplicity
 _atom_site_fract_x
 _atom_site_fract_y
 _atom_site_fract_z
 _atom_site_occupancy
  Tb  Tb0  1  0.000000  0.000000  0.506834  1
  Tb  Tb1  1  0.000000  0.000000  0.993166  1
  Tb  Tb2  1  0.209181  0.790819  0.438923  1
  Tb  Tb3  1  0.209181  0.418363  0.438923  1
  Tb  Tb4  1  0.581637  0.790819  0.438923  1
  Tb  Tb5  1  0.789812  0.210188  0.558849  1
  Tb  Tb6  1  0.789812  0.579622  0.558849  1
  Tb  Tb7  1  0.420378  0.210188  0.558849  1
  Tb  Tb8  1  0.789812  0.210188  0.941151  1
  Tb  Tb9  1  0.789812  0.579622  0.941151  1
  Tb  Tb10  1  0.420378  0.210188  0.941151  1
  Tb  Tb11  1  0.209181  0.790819  0.061077  1
  Tb  Tb12  1  0.209181  0.418363  0.061077  1
  Tb  Tb13  1  0.581637  0.790819  0.061077  1
  Tb  Tb14  1  0.538968  0.461032  0.250000  1
  Tb  Tb15  1  0.538968  0.077936  0.250000  1
  Tb  Tb16  1  0.922064  0.461032  0.250000  1
  Tb  Tb17  1  0.459248  0.540752  0.750000  1
  Tb  Tb18  1  0.459248  0.918497  0.750000  1
  Tb  Tb19  1  0.081503  0.540752  0.750000  1
  Cd  Cd20  1  0.115562  0.884438  0.750000  1
  Cd  Cd21  1  0.115562  0.231123  0.750000  1
  Cd  Cd22  1  0.768877  0.884438  0.750000  1
  In  In23  1  0.885499  0.114501  0.250000  1
  In  In24  1  0.885499  0.771000  0.250000  1
  In  In25  1  0.229000  0.114501  0.250000  1
  Ru  Ru26  1  0.333333  0.666667  0.250000  1
  Ru  Ru27  1  0.666667  0.333333  0.750000  1
