# generated using pymatgen
data_ThAlCuSi
_symmetry_space_group_name_H-M   'P 1'
_cell_length_a   8.95707851
_cell_length_b   8.95707887
_cell_length_c   4.15710900
_cell_angle_alpha   90.00000000
_cell_angle_beta   90.00000000
_cell_angle_gamma   153.12768157
_symmetry_Int_Tables_number   1
_chemical_formula_structural   ThAlCuSi
_chemical_formula_sum   'Th2 Al2 Cu2 Si2'
_cell_volume   150.75310835
_cell_formula_units_Z   2
loop_
 _symmetry_equiv_pos_site_id
 _symmetry_equiv_pos_as_xyz
  1  'x, y, z'
loop_
 _atom_site_type_symbol
 _atom_site_label
 _atom_site_symmetry_multiplicity
 _atom_site_fract_x
 _atom_site_fract_y
 _atom_site_fract_z
 _atom_site_occupancy
  Th  Th0  1  0.901825  0.098175  0.750000  1
  Th  Th1  1  0.098175  0.901825  0.250000  1
  Al  Al2  1  0.249812  0.750188  0.750000  1
  Al  Al3  1  0.750188  0.249812  0.250000  1
  Cu  Cu4  1  0.668420  0.331580  0.750000  1
  Cu  Cu5  1  0.331580  0.668420  0.250000  1
  Si  Si6  1  0.534698  0.465302  0.750000  1
  Si  Si7  1  0.465302  0.534698  0.250000  1
