# generated using pymatgen
data_Tb2Dy10AlZnNi4
_symmetry_space_group_name_H-M   'P 1'
_cell_length_a   8.32112332
_cell_length_b   8.32112300
_cell_length_c   8.32775039
_cell_angle_alpha   105.81839611
_cell_angle_beta   109.42870092
_cell_angle_gamma   113.22201764
_symmetry_Int_Tables_number   1
_chemical_formula_structural   Tb2Dy10AlZnNi4
_chemical_formula_sum   'Tb2 Dy10 Al1 Zn1 Ni4'
_cell_volume   442.19020317
_cell_formula_units_Z   1
loop_
 _symmetry_equiv_pos_site_id
 _symmetry_equiv_pos_as_xyz
  1  'x, y, z'
loop_
 _atom_site_type_symbol
 _atom_site_label
 _atom_site_symmetry_multiplicity
 _atom_site_fract_x
 _atom_site_fract_y
 _atom_site_fract_z
 _atom_site_occupancy
  Tb  Tb0  1  0.308298  0.263178  0.571474  1
  Tb  Tb1  1  0.691702  0.736822  0.428526  1
  Dy  Dy2  1  0.308339  0.736932  0.045271  1
  Dy  Dy3  1  0.691661  0.263068  0.954729  1
  Dy  Dy4  1  0.189763  0.516316  0.325424  1
  Dy  Dy5  1  0.190892  0.864339  0.674576  1
  Dy  Dy6  1  0.810237  0.483684  0.674576  1
  Dy  Dy7  1  0.809108  0.135661  0.325424  1
  Dy  Dy8  1  0.394386  0.214867  0.178937  1
  Dy  Dy9  1  0.035929  0.215449  0.821063  1
  Dy  Dy10  1  0.964071  0.784551  0.178937  1
  Dy  Dy11  1  0.605614  0.785133  0.821063  1
  Al  Al12  1  0.500000  0.000000  0.500000  1
  Zn  Zn13  1  0.500000  0.500000  0.000000  1
  Ni  Ni14  1  0.159571  0.500508  0.660079  1
  Ni  Ni15  1  0.840429  0.499492  0.339921  1
  Ni  Ni16  1  0.998920  0.121567  0.120487  1
  Ni  Ni17  1  0.001080  0.878433  0.879513  1
