# generated using pymatgen
data_Nd5Lu3Au4
_symmetry_space_group_name_H-M   'P 1'
_cell_length_a   4.97694000
_cell_length_b   7.33397811
_cell_length_c   9.06265225
_cell_angle_alpha   90.11588127
_cell_angle_beta   90.00000000
_cell_angle_gamma   90.00000000
_symmetry_Int_Tables_number   1
_chemical_formula_structural   Nd5Lu3Au4
_chemical_formula_sum   'Nd5 Lu3 Au4'
_cell_volume   330.79309958
_cell_formula_units_Z   1
loop_
 _symmetry_equiv_pos_site_id
 _symmetry_equiv_pos_as_xyz
  1  'x, y, z'
loop_
 _atom_site_type_symbol
 _atom_site_label
 _atom_site_symmetry_multiplicity
 _atom_site_fract_x
 _atom_site_fract_y
 _atom_site_fract_z
 _atom_site_occupancy
  Nd  Nd0  1  0.750000  0.653205  0.414594  1
  Nd  Nd1  1  0.250000  0.484738  0.177522  1
  Nd  Nd2  1  0.250000  0.994719  0.324944  1
  Nd  Nd3  1  0.750000  0.511976  0.821067  1
  Nd  Nd4  1  0.750000  0.013375  0.679998  1
  Lu  Lu5  1  0.250000  0.852188  0.924505  1
  Lu  Lu6  1  0.250000  0.349316  0.582668  1
  Lu  Lu7  1  0.750000  0.149845  0.076576  1
  Au  Au8  1  0.250000  0.240327  0.899963  1
  Au  Au9  1  0.250000  0.740692  0.612780  1
  Au  Au10  1  0.750000  0.761985  0.086547  1
  Au  Au11  1  0.750000  0.247634  0.398836  1
