# generated using pymatgen
data_Ho6Al24IrRu5Pt2
_symmetry_space_group_name_H-M   'P 1'
_cell_length_a   8.81336287
_cell_length_b   8.76991430
_cell_length_c   9.52738738
_cell_angle_alpha   90.00000266
_cell_angle_beta   90.11910985
_cell_angle_gamma   119.83705920
_symmetry_Int_Tables_number   1
_chemical_formula_structural   Ho6Al24IrRu5Pt2
_chemical_formula_sum   'Ho6 Al24 Ir1 Ru5 Pt2'
_cell_volume   638.77945341
_cell_formula_units_Z   1
loop_
 _symmetry_equiv_pos_site_id
 _symmetry_equiv_pos_as_xyz
  1  'x, y, z'
loop_
 _atom_site_type_symbol
 _atom_site_label
 _atom_site_symmetry_multiplicity
 _atom_site_fract_x
 _atom_site_fract_y
 _atom_site_fract_z
 _atom_site_occupancy
  Ho  Ho0  1  0.191421  0.386505  0.251679  1
  Ho  Ho1  1  0.808579  0.613495  0.748321  1
  Ho  Ho2  1  0.613994  0.806997  0.250872  1
  Ho  Ho3  1  0.386006  0.193003  0.749128  1
  Ho  Ho4  1  0.191421  0.804917  0.251679  1
  Ho  Ho5  1  0.808579  0.195083  0.748321  1
  Al  Al6  1  0.327174  0.663587  0.028936  1
  Al  Al7  1  0.672826  0.336413  0.971064  1
  Al  Al8  1  0.664586  0.332293  0.526457  1
  Al  Al9  1  0.335414  0.667707  0.473543  1
  Al  Al10  1  0.166048  0.327364  0.576456  1
  Al  Al11  1  0.833952  0.672636  0.423544  1
  Al  Al12  1  0.673744  0.836872  0.575897  1
  Al  Al13  1  0.841795  0.674418  0.078611  1
  Al  Al14  1  0.326256  0.163128  0.424103  1
  Al  Al15  1  0.158205  0.325582  0.921389  1
  Al  Al16  1  0.166048  0.838684  0.576456  1
  Al  Al17  1  0.323752  0.161875  0.079000  1
  Al  Al18  1  0.833952  0.161316  0.423544  1
  Al  Al19  1  0.676248  0.838125  0.921000  1
  Al  Al20  1  0.841795  0.167376  0.078611  1
  Al  Al21  1  0.158205  0.832624  0.921389  1
  Al  Al22  1  0.561958  0.124956  0.253077  1
  Al  Al23  1  0.438042  0.875044  0.746923  1
  Al  Al24  1  0.876023  0.438011  0.247829  1
  Al  Al25  1  0.123977  0.561989  0.752171  1
  Al  Al26  1  0.561958  0.437002  0.253077  1
  Al  Al27  1  0.438042  0.562998  0.746923  1
  Al  Al28  1  0.998077  0.999038  0.250319  1
  Al  Al29  1  0.001923  0.000962  0.749681  1
  Ir  Ir30  1  0.000000  0.500000  0.500000  1
  Ru  Ru31  1  0.000000  0.500000  0.000000  1
  Ru  Ru32  1  0.500000  0.000000  0.500000  1
  Ru  Ru33  1  0.500000  0.500000  0.500000  1
  Ru  Ru34  1  0.000000  0.000000  0.000000  1
  Ru  Ru35  1  0.000000  0.000000  0.500000  1
  Pt  Pt36  1  0.500000  0.000000  0.000000  1
  Pt  Pt37  1  0.500000  0.500000  0.000000  1
