# generated using pymatgen
data_CeSiPRu2
_symmetry_space_group_name_H-M   'P 1'
_cell_length_a   5.68234468
_cell_length_b   5.68234526
_cell_length_c   5.68234479
_cell_angle_alpha   137.21390663
_cell_angle_beta   137.21391271
_cell_angle_gamma   62.10908722
_symmetry_Int_Tables_number   1
_chemical_formula_structural   CeSiPRu2
_chemical_formula_sum   'Ce1 Si1 P1 Ru2'
_cell_volume   83.65329593
_cell_formula_units_Z   1
loop_
 _symmetry_equiv_pos_site_id
 _symmetry_equiv_pos_as_xyz
  1  'x, y, z'
loop_
 _atom_site_type_symbol
 _atom_site_label
 _atom_site_symmetry_multiplicity
 _atom_site_fract_x
 _atom_site_fract_y
 _atom_site_fract_z
 _atom_site_occupancy
  Ce  Ce0  1  0.002275  0.002275  0.000000  1
  Si  Si1  1  0.372179  0.372179  0.000000  1
  P  P2  1  0.630753  0.630753  0.000000  1
  Ru  Ru3  1  0.247397  0.747397  0.500000  1
  Ru  Ru4  1  0.747397  0.247397  0.500000  1
