# generated using pymatgen
data_Mn5Cr3B4
_symmetry_space_group_name_H-M   'P 1'
_cell_length_a   8.08768055
_cell_length_b   7.54274512
_cell_length_c   4.16379482
_cell_angle_alpha   81.98204309
_cell_angle_beta   66.99923461
_cell_angle_gamma   30.76890869
_symmetry_Int_Tables_number   1
_chemical_formula_structural   Mn5Cr3B4
_chemical_formula_sum   'Mn5 Cr3 B4'
_cell_volume   108.72950854
_cell_formula_units_Z   1
loop_
 _symmetry_equiv_pos_site_id
 _symmetry_equiv_pos_as_xyz
  1  'x, y, z'
loop_
 _atom_site_type_symbol
 _atom_site_label
 _atom_site_symmetry_multiplicity
 _atom_site_fract_x
 _atom_site_fract_y
 _atom_site_fract_z
 _atom_site_occupancy
  Mn  Mn0  1  0.332570  0.332029  0.164262  1
  Mn  Mn1  1  0.918682  0.919332  0.084188  1
  Mn  Mn2  1  0.917779  0.581317  0.918816  1
  Mn  Mn3  1  0.081274  0.080238  0.920634  1
  Mn  Mn4  1  0.331604  0.668609  0.332077  1
  Cr  Cr5  1  0.581956  0.917203  0.581586  1
  Cr  Cr6  1  0.168918  0.171701  0.328915  1
  Cr  Cr7  1  0.668173  0.331628  0.668615  1
  B  B8  1  0.367227  0.382108  0.624210  1
  B  B9  1  0.626072  0.623182  0.880388  1
  B  B10  1  0.623395  0.625507  0.370250  1
  B  B11  1  0.882351  0.867147  0.626059  1
