# generated using pymatgen
data_TbY8Er11Bi12
_symmetry_space_group_name_H-M   'P 1'
_cell_length_a   8.24865709
_cell_length_b   9.47927220
_cell_length_c   12.06770001
_cell_angle_alpha   90.00347984
_cell_angle_beta   90.02702590
_cell_angle_gamma   89.98902971
_symmetry_Int_Tables_number   1
_chemical_formula_structural   TbY8Er11Bi12
_chemical_formula_sum   'Tb1 Y8 Er11 Bi12'
_cell_volume   943.58861494
_cell_formula_units_Z   1
loop_
 _symmetry_equiv_pos_site_id
 _symmetry_equiv_pos_as_xyz
  1  'x, y, z'
loop_
 _atom_site_type_symbol
 _atom_site_label
 _atom_site_symmetry_multiplicity
 _atom_site_fract_x
 _atom_site_fract_y
 _atom_site_fract_z
 _atom_site_occupancy
  Tb  Tb0  1  0.186303  0.749985  0.718790  1
  Y  Y1  1  0.686268  0.749992  0.781254  1
  Y  Y2  1  0.813744  0.249794  0.281077  1
  Y  Y3  1  0.313628  0.249970  0.218692  1
  Y  Y4  1  0.806680  0.437051  0.559847  1
  Y  Y5  1  0.353917  0.749954  0.215469  1
  Y  Y6  1  0.853756  0.749838  0.284523  1
  Y  Y7  1  0.645682  0.249613  0.784730  1
  Y  Y8  1  0.146395  0.249674  0.715609  1
  Er  Er9  1  0.025764  0.749923  0.988944  1
  Er  Er10  1  0.525416  0.750035  0.511056  1
  Er  Er11  1  0.974374  0.249947  0.011050  1
  Er  Er12  1  0.473793  0.249637  0.488934  1
  Er  Er13  1  0.306514  0.435566  0.940213  1
  Er  Er14  1  0.806482  0.064208  0.559931  1
  Er  Er15  1  0.693528  0.935542  0.059823  1
  Er  Er16  1  0.193507  0.564558  0.440125  1
  Er  Er17  1  0.693468  0.564481  0.059833  1
  Er  Er18  1  0.193720  0.935591  0.440060  1
  Er  Er19  1  0.306471  0.064394  0.940254  1
  Bi  Bi20  1  0.433831  0.003717  0.673134  1
  Bi  Bi21  1  0.933970  0.496050  0.827179  1
  Bi  Bi22  1  0.566093  0.503697  0.326790  1
  Bi  Bi23  1  0.066191  0.996024  0.172987  1
  Bi  Bi24  1  0.566133  0.996092  0.326934  1
  Bi  Bi25  1  0.066265  0.503824  0.172920  1
  Bi  Bi26  1  0.433547  0.495971  0.673162  1
  Bi  Bi27  1  0.933831  0.003770  0.827055  1
  Bi  Bi28  1  0.408254  0.750003  0.958007  1
  Bi  Bi29  1  0.908641  0.751405  0.541682  1
  Bi  Bi30  1  0.591850  0.250036  0.042117  1
  Bi  Bi31  1  0.091982  0.249659  0.457825  1
