# generated using pymatgen
data_TbYSi2(Tc2C)2
_symmetry_space_group_name_H-M   'P 1'
_cell_length_a   5.83189328
_cell_length_b   5.83189392
_cell_length_c   7.25471000
_cell_angle_alpha   90.00000000
_cell_angle_beta   90.00000000
_cell_angle_gamma   140.70213239
_symmetry_Int_Tables_number   1
_chemical_formula_structural   TbYSi2(Tc2C)2
_chemical_formula_sum   'Tb1 Y1 Si2 Tc4 C2'
_cell_volume   156.27317510
_cell_formula_units_Z   1
loop_
 _symmetry_equiv_pos_site_id
 _symmetry_equiv_pos_as_xyz
  1  'x, y, z'
loop_
 _atom_site_type_symbol
 _atom_site_label
 _atom_site_symmetry_multiplicity
 _atom_site_fract_x
 _atom_site_fract_y
 _atom_site_fract_z
 _atom_site_occupancy
  Tb  Tb0  1  0.544343  0.455657  0.250000  1
  Y  Y1  1  0.455705  0.544295  0.750000  1
  Si  Si2  1  0.268117  0.731883  0.250000  1
  Si  Si3  1  0.731868  0.268132  0.750000  1
  Tc  Tc4  1  0.828806  0.171194  0.060422  1
  Tc  Tc5  1  0.171180  0.828820  0.939406  1
  Tc  Tc6  1  0.171180  0.828820  0.560594  1
  Tc  Tc7  1  0.828806  0.171194  0.439578  1
  C  C8  1  0.999998  0.000002  0.999961  1
  C  C9  1  0.999998  0.000002  0.500039  1
