# generated using pymatgen
data_Li9Cd3Au4
_symmetry_space_group_name_H-M   'P 1'
_cell_length_a   6.35316118
_cell_length_b   6.35316118
_cell_length_c   6.35316117
_cell_angle_alpha   90.01905444
_cell_angle_beta   89.98094555
_cell_angle_gamma   89.98094558
_symmetry_Int_Tables_number   1
_chemical_formula_structural   Li9Cd3Au4
_chemical_formula_sum   'Li9 Cd3 Au4'
_cell_volume   256.43042237
_cell_formula_units_Z   1
loop_
 _symmetry_equiv_pos_site_id
 _symmetry_equiv_pos_as_xyz
  1  'x, y, z'
loop_
 _atom_site_type_symbol
 _atom_site_label
 _atom_site_symmetry_multiplicity
 _atom_site_fract_x
 _atom_site_fract_y
 _atom_site_fract_z
 _atom_site_occupancy
  Li  Li0  1  0.001077  0.998923  0.998923  1
  Li  Li1  1  0.498910  0.998914  0.998914  1
  Li  Li2  1  0.001086  0.501092  0.998914  1
  Li  Li3  1  0.498913  0.501089  0.998888  1
  Li  Li4  1  0.001086  0.998914  0.501092  1
  Li  Li5  1  0.498913  0.998888  0.501089  1
  Li  Li6  1  0.001112  0.501089  0.501089  1
  Li  Li7  1  0.498877  0.501125  0.501125  1
  Li  Li8  1  0.250498  0.749503  0.749503  1
  Cd  Cd9  1  0.250434  0.250443  0.250443  1
  Cd  Cd10  1  0.749558  0.749567  0.250443  1
  Cd  Cd11  1  0.749558  0.250443  0.749567  1
  Au  Au12  1  0.750070  0.249931  0.249931  1
  Au  Au13  1  0.249942  0.750059  0.249969  1
  Au  Au14  1  0.249942  0.249969  0.750059  1
  Au  Au15  1  0.750032  0.750059  0.750059  1
