# generated using pymatgen
data_Yb4Ta2O9
_symmetry_space_group_name_H-M   'P 1'
_cell_length_a   5.60243300
_cell_length_b   5.60243249
_cell_length_c   14.71161200
_cell_angle_alpha   90.00000000
_cell_angle_beta   90.00000000
_cell_angle_gamma   119.99999711
_symmetry_Int_Tables_number   1
_chemical_formula_structural   Yb4Ta2O9
_chemical_formula_sum   'Yb8 Ta4 O18'
_cell_volume   399.89337577
_cell_formula_units_Z   2
loop_
 _symmetry_equiv_pos_site_id
 _symmetry_equiv_pos_as_xyz
  1  'x, y, z'
loop_
 _atom_site_type_symbol
 _atom_site_label
 _atom_site_symmetry_multiplicity
 _atom_site_fract_x
 _atom_site_fract_y
 _atom_site_fract_z
 _atom_site_occupancy
  Yb  Yb0  1  0.333333  0.666667  0.023212  1
  Yb  Yb1  1  0.333333  0.666667  0.305807  1
  Yb  Yb2  1  0.333333  0.666667  0.805807  1
  Yb  Yb3  1  0.333333  0.666667  0.523212  1
  Yb  Yb4  1  0.666667  0.333333  0.194193  1
  Yb  Yb5  1  0.666667  0.333333  0.694193  1
  Yb  Yb6  1  0.666667  0.333333  0.476788  1
  Yb  Yb7  1  0.666667  0.333333  0.976788  1
  Ta  Ta8  1  0.000000  0.000000  0.145936  1
  Ta  Ta9  1  0.000000  0.000000  0.354064  1
  Ta  Ta10  1  0.000000  0.000000  0.645936  1
  Ta  Ta11  1  0.000000  0.000000  0.854064  1
  O  O12  1  0.000000  0.734852  0.750000  1
  O  O13  1  0.042338  0.713996  0.411881  1
  O  O14  1  0.286004  0.957662  0.911881  1
  O  O15  1  0.042338  0.328342  0.911881  1
  O  O16  1  0.000000  0.265148  0.250000  1
  O  O17  1  0.265148  0.265148  0.750000  1
  O  O18  1  0.286004  0.328342  0.411881  1
  O  O19  1  0.671658  0.957662  0.411881  1
  O  O20  1  0.328342  0.286004  0.088119  1
  O  O21  1  0.265148  0.000000  0.250000  1
  O  O22  1  0.671658  0.713996  0.911881  1
  O  O23  1  0.328342  0.042338  0.588119  1
  O  O24  1  0.713996  0.671658  0.588119  1
  O  O25  1  0.734852  0.734852  0.250000  1
  O  O26  1  0.957662  0.671658  0.088119  1
  O  O27  1  0.713996  0.042338  0.088119  1
  O  O28  1  0.734852  0.000000  0.750000  1
  O  O29  1  0.957662  0.286004  0.588119  1
