# generated using pymatgen
data_DyY3(CI)2
_symmetry_space_group_name_H-M   'P 1'
_cell_length_a   3.77193300
_cell_length_b   3.77193342
_cell_length_c   14.80446000
_cell_angle_alpha   90.00000000
_cell_angle_beta   90.00000000
_cell_angle_gamma   120.00000505
_symmetry_Int_Tables_number   1
_chemical_formula_structural   DyY3(CI)2
_chemical_formula_sum   'Dy1 Y3 C2 I2'
_cell_volume   182.41106081
_cell_formula_units_Z   1
loop_
 _symmetry_equiv_pos_site_id
 _symmetry_equiv_pos_as_xyz
  1  'x, y, z'
loop_
 _atom_site_type_symbol
 _atom_site_label
 _atom_site_symmetry_multiplicity
 _atom_site_fract_x
 _atom_site_fract_y
 _atom_site_fract_z
 _atom_site_occupancy
  Dy  Dy0  1  0.333333  0.666667  0.914779  1
  Y  Y1  1  0.333333  0.666667  0.585416  1
  Y  Y2  1  0.666667  0.333333  0.414544  1
  Y  Y3  1  0.666667  0.333333  0.085558  1
  C  C4  1  0.000000  0.000000  0.999693  1
  C  C5  1  0.000000  0.000000  0.499971  1
  I  I6  1  0.333333  0.666667  0.250042  1
  I  I7  1  0.666667  0.333333  0.749999  1
