# generated using pymatgen
data_Ca2Tb2GaSiIr4
_symmetry_space_group_name_H-M   'P 1'
_cell_length_a   5.70878514
_cell_length_b   5.70878495
_cell_length_c   7.63344047
_cell_angle_alpha   79.08075627
_cell_angle_beta   79.08075824
_cell_angle_gamma   58.79226069
_symmetry_Int_Tables_number   1
_chemical_formula_structural   Ca2Tb2GaSiIr4
_chemical_formula_sum   'Ca2 Tb2 Ga1 Si1 Ir4'
_cell_volume   207.68637513
_cell_formula_units_Z   1
loop_
 _symmetry_equiv_pos_site_id
 _symmetry_equiv_pos_as_xyz
  1  'x, y, z'
loop_
 _atom_site_type_symbol
 _atom_site_label
 _atom_site_symmetry_multiplicity
 _atom_site_fract_x
 _atom_site_fract_y
 _atom_site_fract_z
 _atom_site_occupancy
  Ca  Ca0  1  0.009047  0.285083  0.852426  1
  Ca  Ca1  1  0.714917  0.990953  0.647574  1
  Tb  Tb2  1  0.995498  0.713438  0.143268  1
  Tb  Tb3  1  0.286562  0.004502  0.356732  1
  Ga  Ga4  1  0.399512  0.600488  0.750000  1
  Si  Si5  1  0.592953  0.407047  0.250000  1
  Ir  Ir6  1  0.488583  0.775103  0.007227  1
  Ir  Ir7  1  0.224897  0.511417  0.492773  1
  Ir  Ir8  1  0.508427  0.220394  0.026762  1
  Ir  Ir9  1  0.779606  0.491573  0.473238  1
