# generated using pymatgen
data_TmLu3Mo3Os5
_symmetry_space_group_name_H-M   'P 1'
_cell_length_a   5.54975500
_cell_length_b   5.37086922
_cell_length_c   8.61089901
_cell_angle_alpha   89.99624206
_cell_angle_beta   90.00026730
_cell_angle_gamma   121.10876648
_symmetry_Int_Tables_number   1
_chemical_formula_structural   TmLu3Mo3Os5
_chemical_formula_sum   'Tm1 Lu3 Mo3 Os5'
_cell_volume   219.75362161
_cell_formula_units_Z   1
loop_
 _symmetry_equiv_pos_site_id
 _symmetry_equiv_pos_as_xyz
  1  'x, y, z'
loop_
 _atom_site_type_symbol
 _atom_site_label
 _atom_site_symmetry_multiplicity
 _atom_site_fract_x
 _atom_site_fract_y
 _atom_site_fract_z
 _atom_site_occupancy
  Tm  Tm0  1  0.667228  0.334485  0.938045  1
  Lu  Lu1  1  0.667282  0.334581  0.561790  1
  Lu  Lu2  1  0.333606  0.667200  0.432984  1
  Lu  Lu3  1  0.333608  0.667192  0.067104  1
  Mo  Mo4  1  0.997456  0.994884  0.493542  1
  Mo  Mo5  1  0.997461  0.994905  0.006445  1
  Mo  Mo6  1  0.173469  0.346998  0.749826  1
  Os  Os7  1  0.172695  0.831942  0.749802  1
  Os  Os8  1  0.659232  0.831968  0.749804  1
  Os  Os9  1  0.823727  0.647410  0.250277  1
  Os  Os10  1  0.830116  0.174194  0.250189  1
  Os  Os11  1  0.344121  0.174240  0.250193  1
