# generated using pymatgen
data_Lu2Al7Si2OsRh2
_symmetry_space_group_name_H-M   'P 1'
_cell_length_a   7.48577077
_cell_length_b   7.45369253
_cell_length_c   9.24763850
_cell_angle_alpha   89.98413064
_cell_angle_beta   89.87319547
_cell_angle_gamma   119.46164963
_symmetry_Int_Tables_number   1
_chemical_formula_structural   Lu2Al7Si2OsRh2
_chemical_formula_sum   'Lu4 Al14 Si4 Os2 Rh4'
_cell_volume   449.26062472
_cell_formula_units_Z   2
loop_
 _symmetry_equiv_pos_site_id
 _symmetry_equiv_pos_as_xyz
  1  'x, y, z'
loop_
 _atom_site_type_symbol
 _atom_site_label
 _atom_site_symmetry_multiplicity
 _atom_site_fract_x
 _atom_site_fract_y
 _atom_site_fract_z
 _atom_site_occupancy
  Lu  Lu0  1  0.994090  0.674951  0.242969  1
  Lu  Lu1  1  0.005910  0.325049  0.757031  1
  Lu  Lu2  1  0.686401  0.000744  0.247633  1
  Lu  Lu3  1  0.313599  0.999256  0.752367  1
  Al  Al4  1  0.997786  0.662734  0.573825  1
  Al  Al5  1  0.337672  0.999852  0.421695  1
  Al  Al6  1  0.002214  0.337266  0.426175  1
  Al  Al7  1  0.662328  0.000148  0.578305  1
  Al  Al8  1  0.658819  0.996175  0.919979  1
  Al  Al9  1  0.341181  0.003825  0.080021  1
  Al  Al10  1  0.333537  0.332564  0.556774  1
  Al  Al11  1  0.666463  0.667436  0.443226  1
  Al  Al12  1  0.662826  0.666651  0.056766  1
  Al  Al13  1  0.337174  0.333349  0.943234  1
  Al  Al14  1  0.337578  0.554249  0.249610  1
  Al  Al15  1  0.662422  0.445751  0.750390  1
  Al  Al16  1  0.552671  0.340185  0.250530  1
  Al  Al17  1  0.447329  0.659815  0.749470  1
  Si  Si18  1  0.133266  0.127616  0.250684  1
  Si  Si19  1  0.866734  0.872384  0.749316  1
  Si  Si20  1  0.003111  0.331372  0.080132  1
  Si  Si21  1  0.996889  0.668628  0.919868  1
  Os  Os22  1  0.000000  0.000000  0.000000  1
  Os  Os23  1  0.000000  0.000000  0.500000  1
  Rh  Rh24  1  0.689338  0.336882  0.001669  1
  Rh  Rh25  1  0.310662  0.663118  0.998331  1
  Rh  Rh26  1  0.326001  0.671240  0.500129  1
  Rh  Rh27  1  0.673999  0.328760  0.499871  1
