# generated using pymatgen
data_Cs4NpScS6
_symmetry_space_group_name_H-M   'P 1'
_cell_length_a   7.92121100
_cell_length_b   7.92120985
_cell_length_c   6.96710800
_cell_angle_alpha   90.00000000
_cell_angle_beta   90.00000000
_cell_angle_gamma   109.04609246
_symmetry_Int_Tables_number   1
_chemical_formula_structural   Cs4NpScS6
_chemical_formula_sum   'Cs4 Np1 Sc1 S6'
_cell_volume   413.22372871
_cell_formula_units_Z   1
loop_
 _symmetry_equiv_pos_site_id
 _symmetry_equiv_pos_as_xyz
  1  'x, y, z'
loop_
 _atom_site_type_symbol
 _atom_site_label
 _atom_site_symmetry_multiplicity
 _atom_site_fract_x
 _atom_site_fract_y
 _atom_site_fract_z
 _atom_site_occupancy
  Cs  Cs0  1  0.501490  0.812150  0.250000  1
  Cs  Cs1  1  0.495297  0.185843  0.750000  1
  Cs  Cs2  1  0.185843  0.495297  0.750000  1
  Cs  Cs3  1  0.812150  0.501490  0.250000  1
  Np  Np4  1  0.925605  0.925605  0.750000  1
  Sc  Sc5  1  0.088186  0.088186  0.250000  1
  S  S6  1  0.654951  0.654951  0.750000  1
  S  S7  1  0.343886  0.343886  0.250000  1
  S  S8  1  0.864302  0.131993  0.497697  1
  S  S9  1  0.864302  0.131993  0.002303  1
  S  S10  1  0.131993  0.864302  0.497697  1
  S  S11  1  0.131993  0.864302  0.002303  1
