# generated using pymatgen
data_Er3TiZn2Ir3
_symmetry_space_group_name_H-M   'P 1'
_cell_length_a   7.05109544
_cell_length_b   7.05109495
_cell_length_c   4.07176900
_cell_angle_alpha   90.00000000
_cell_angle_beta   90.00000000
_cell_angle_gamma   121.24547432
_symmetry_Int_Tables_number   1
_chemical_formula_structural   Er3TiZn2Ir3
_chemical_formula_sum   'Er3 Ti1 Zn2 Ir3'
_cell_volume   173.07663753
_cell_formula_units_Z   1
loop_
 _symmetry_equiv_pos_site_id
 _symmetry_equiv_pos_as_xyz
  1  'x, y, z'
loop_
 _atom_site_type_symbol
 _atom_site_label
 _atom_site_symmetry_multiplicity
 _atom_site_fract_x
 _atom_site_fract_y
 _atom_site_fract_z
 _atom_site_occupancy
  Er  Er0  1  0.393069  0.393069  0.500000  1
  Er  Er1  1  0.584504  0.009607  0.500000  1
  Er  Er2  1  0.009607  0.584504  0.500000  1
  Ti  Ti3  1  0.765062  0.765062  0.000000  1
  Zn  Zn4  1  0.244265  0.995766  0.000000  1
  Zn  Zn5  1  0.995766  0.244265  0.000000  1
  Ir  Ir6  1  0.673888  0.357036  0.000000  1
  Ir  Ir7  1  0.357036  0.673888  0.000000  1
  Ir  Ir8  1  0.976804  0.976804  0.500000  1
