# generated using pymatgen
data_Cr3SeCl16
_symmetry_space_group_name_H-M   'P 1'
_cell_length_a   7.06577717
_cell_length_b   10.71856003
_cell_length_c   10.81125704
_cell_angle_alpha   77.13542162
_cell_angle_beta   90.00868881
_cell_angle_gamma   89.99556848
_symmetry_Int_Tables_number   1
_chemical_formula_structural   Cr3SeCl16
_chemical_formula_sum   'Cr3 Se1 Cl16'
_cell_volume   798.23764079
_cell_formula_units_Z   1
loop_
 _symmetry_equiv_pos_site_id
 _symmetry_equiv_pos_as_xyz
  1  'x, y, z'
loop_
 _atom_site_type_symbol
 _atom_site_label
 _atom_site_symmetry_multiplicity
 _atom_site_fract_x
 _atom_site_fract_y
 _atom_site_fract_z
 _atom_site_occupancy
  Cr  Cr0  1  0.928204  0.249644  0.643003  1
  Cr  Cr1  1  0.428300  0.750316  0.856886  1
  Cr  Cr2  1  0.071610  0.750510  0.356685  1
  Se  Se3  1  0.571842  0.249592  0.143145  1
  Cl  Cl4  1  0.070323  0.403204  0.696543  1
  Cl  Cl5  1  0.570379  0.596686  0.803431  1
  Cl  Cl6  1  0.929739  0.596753  0.303466  1
  Cl  Cl7  1  0.417286  0.416535  0.201300  1
  Cl  Cl8  1  0.930922  0.088440  0.796964  1
  Cl  Cl9  1  0.430879  0.911534  0.702973  1
  Cl  Cl10  1  0.069172  0.911625  0.202918  1
  Cl  Cl11  1  0.568842  0.074357  0.310538  1
  Cl  Cl12  1  0.067409  0.203699  0.485792  1
  Cl  Cl13  1  0.567399  0.796208  0.014237  1
  Cl  Cl14  1  0.932519  0.796300  0.514272  1
  Cl  Cl15  1  0.420482  0.199834  0.972176  1
  Cl  Cl16  1  0.645206  0.303299  0.593649  1
  Cl  Cl17  1  0.145319  0.696714  0.906365  1
  Cl  Cl18  1  0.354784  0.696687  0.406382  1
  Cl  Cl19  1  0.879383  0.308064  0.089278  1
