# generated using pymatgen
data_Gd4FeOs2Ru5
_symmetry_space_group_name_H-M   'P 1'
_cell_length_a   5.25088800
_cell_length_b   5.23143840
_cell_length_c   8.85420300
_cell_angle_alpha   90.00000000
_cell_angle_beta   90.00000000
_cell_angle_gamma   120.12306125
_symmetry_Int_Tables_number   1
_chemical_formula_structural   Gd4FeOs2Ru5
_chemical_formula_sum   'Gd4 Fe1 Os2 Ru5'
_cell_volume   210.37498351
_cell_formula_units_Z   1
loop_
 _symmetry_equiv_pos_site_id
 _symmetry_equiv_pos_as_xyz
  1  'x, y, z'
loop_
 _atom_site_type_symbol
 _atom_site_label
 _atom_site_symmetry_multiplicity
 _atom_site_fract_x
 _atom_site_fract_y
 _atom_site_fract_z
 _atom_site_occupancy
  Gd  Gd0  1  0.331801  0.663604  0.434224  1
  Gd  Gd1  1  0.667339  0.334676  0.566700  1
  Gd  Gd2  1  0.667339  0.334676  0.933300  1
  Gd  Gd3  1  0.331801  0.663604  0.065776  1
  Fe  Fe4  1  0.166605  0.333209  0.750000  1
  Os  Os5  1  0.174793  0.830006  0.750000  1
  Os  Os6  1  0.655214  0.830006  0.750000  1
  Ru  Ru7  1  0.344480  0.171632  0.250000  1
  Ru  Ru8  1  0.833476  0.666951  0.250000  1
  Ru  Ru9  1  0.000000  0.000002  0.998340  1
  Ru  Ru10  1  0.827152  0.171632  0.250000  1
  Ru  Ru11  1  0.000000  0.000002  0.501660  1
