# generated using pymatgen
data_Dy7RhO12
_symmetry_space_group_name_H-M   'P 1'
_cell_length_a   6.63871274
_cell_length_b   6.63871319
_cell_length_c   6.63871300
_cell_angle_alpha   95.13854470
_cell_angle_beta   95.13854505
_cell_angle_gamma   95.13854968
_symmetry_Int_Tables_number   1
_chemical_formula_structural   Dy7RhO12
_chemical_formula_sum   'Dy7 Rh1 O12'
_cell_volume   288.82986297
_cell_formula_units_Z   1
loop_
 _symmetry_equiv_pos_site_id
 _symmetry_equiv_pos_as_xyz
  1  'x, y, z'
loop_
 _atom_site_type_symbol
 _atom_site_label
 _atom_site_symmetry_multiplicity
 _atom_site_fract_x
 _atom_site_fract_y
 _atom_site_fract_z
 _atom_site_occupancy
  Dy  Dy0  1  0.733966  0.912018  0.426825  1
  Dy  Dy1  1  0.426825  0.733966  0.912018  1
  Dy  Dy2  1  0.087982  0.573175  0.266034  1
  Dy  Dy3  1  0.912018  0.426825  0.733966  1
  Dy  Dy4  1  0.573175  0.266034  0.087982  1
  Dy  Dy5  1  0.266034  0.087982  0.573175  1
  Dy  Dy6  1  0.000000  0.000000  0.000000  1
  Rh  Rh7  1  0.500000  0.500000  0.500000  1
  O  O8  1  0.066165  0.911726  0.320375  1
  O  O9  1  0.679625  0.933835  0.088274  1
  O  O10  1  0.456069  0.803864  0.585979  1
  O  O11  1  0.088274  0.679625  0.933835  1
  O  O12  1  0.803864  0.585979  0.456069  1
  O  O13  1  0.414021  0.543931  0.196136  1
  O  O14  1  0.585979  0.456069  0.803864  1
  O  O15  1  0.196136  0.414021  0.543931  1
  O  O16  1  0.911726  0.320375  0.066165  1
  O  O17  1  0.543931  0.196136  0.414021  1
  O  O18  1  0.320375  0.066165  0.911726  1
  O  O19  1  0.933835  0.088274  0.679625  1
