# generated using pymatgen
data_CaSc(Si7Rh3)2
_symmetry_space_group_name_H-M   'P 1'
_cell_length_a   7.95352039
_cell_length_b   7.95352046
_cell_length_c   7.95352092
_cell_angle_alpha   57.12177027
_cell_angle_beta   57.12176881
_cell_angle_gamma   57.12176095
_symmetry_Int_Tables_number   1
_chemical_formula_structural   CaSc(Si7Rh3)2
_chemical_formula_sum   'Ca1 Sc1 Si14 Rh6'
_cell_volume   332.16880112
_cell_formula_units_Z   1
loop_
 _symmetry_equiv_pos_site_id
 _symmetry_equiv_pos_as_xyz
  1  'x, y, z'
loop_
 _atom_site_type_symbol
 _atom_site_label
 _atom_site_symmetry_multiplicity
 _atom_site_fract_x
 _atom_site_fract_y
 _atom_site_fract_z
 _atom_site_occupancy
  Ca  Ca0  1  0.000000  0.000000  0.000000  1
  Sc  Sc1  1  0.500000  0.500000  0.500000  1
  Si  Si2  1  0.749980  0.749980  0.749980  1
  Si  Si3  1  0.250020  0.250020  0.250020  1
  Si  Si4  1  0.850847  0.067068  0.671942  1
  Si  Si5  1  0.671942  0.850847  0.067068  1
  Si  Si6  1  0.067068  0.671942  0.850847  1
  Si  Si7  1  0.648285  0.827075  0.434331  1
  Si  Si8  1  0.434331  0.648285  0.827075  1
  Si  Si9  1  0.827075  0.434331  0.648285  1
  Si  Si10  1  0.172925  0.565669  0.351715  1
  Si  Si11  1  0.565669  0.351715  0.172925  1
  Si  Si12  1  0.351715  0.172925  0.565669  1
  Si  Si13  1  0.932932  0.328058  0.149153  1
  Si  Si14  1  0.328058  0.149153  0.932932  1
  Si  Si15  1  0.149153  0.932932  0.328058  1
  Rh  Rh16  1  0.074335  0.431583  0.746756  1
  Rh  Rh17  1  0.253244  0.925665  0.568417  1
  Rh  Rh18  1  0.568417  0.253244  0.925665  1
  Rh  Rh19  1  0.925665  0.568417  0.253244  1
  Rh  Rh20  1  0.431583  0.746756  0.074335  1
  Rh  Rh21  1  0.746756  0.074335  0.431583  1
