# generated using pymatgen
data_TbTm2V(Co4P3)2
_symmetry_space_group_name_H-M   'P 1'
_cell_length_a   3.67334100
_cell_length_b   10.51985200
_cell_length_c   12.19614500
_cell_angle_alpha   90.00000000
_cell_angle_beta   90.00000000
_cell_angle_gamma   90.00000000
_symmetry_Int_Tables_number   1
_chemical_formula_structural   TbTm2V(Co4P3)2
_chemical_formula_sum   'Tb2 Tm4 V2 Co16 P12'
_cell_volume   471.29567594
_cell_formula_units_Z   2
loop_
 _symmetry_equiv_pos_site_id
 _symmetry_equiv_pos_as_xyz
  1  'x, y, z'
loop_
 _atom_site_type_symbol
 _atom_site_label
 _atom_site_symmetry_multiplicity
 _atom_site_fract_x
 _atom_site_fract_y
 _atom_site_fract_z
 _atom_site_occupancy
  Tb  Tb0  1  0.000000  0.500000  0.523620  1
  Tb  Tb1  1  0.500000  0.000000  0.476380  1
  Tm  Tm2  1  0.500000  0.818819  0.204024  1
  Tm  Tm3  1  0.500000  0.181181  0.204024  1
  Tm  Tm4  1  0.000000  0.681181  0.795976  1
  Tm  Tm5  1  0.000000  0.318819  0.795976  1
  V  V6  1  0.500000  0.500000  0.153947  1
  V  V7  1  0.000000  0.000000  0.846053  1
  Co  Co8  1  0.500000  0.500000  0.703375  1
  Co  Co9  1  0.000000  0.000000  0.296625  1
  Co  Co10  1  0.000000  0.500000  0.986598  1
  Co  Co11  1  0.500000  0.000000  0.013402  1
  Co  Co12  1  0.500000  0.332342  0.992927  1
  Co  Co13  1  0.500000  0.667658  0.992927  1
  Co  Co14  1  0.000000  0.167658  0.007073  1
  Co  Co15  1  0.000000  0.832342  0.007073  1
  Co  Co16  1  0.500000  0.295760  0.430786  1
  Co  Co17  1  0.500000  0.704240  0.430786  1
  Co  Co18  1  0.000000  0.204240  0.569214  1
  Co  Co19  1  0.000000  0.795760  0.569214  1
  Co  Co20  1  0.500000  0.878232  0.708584  1
  Co  Co21  1  0.500000  0.121768  0.708584  1
  Co  Co22  1  0.000000  0.621768  0.291416  1
  Co  Co23  1  0.000000  0.378232  0.291416  1
  P  P24  1  0.500000  0.500000  0.881744  1
  P  P25  1  0.000000  0.000000  0.118256  1
  P  P26  1  0.500000  0.500000  0.346568  1
  P  P27  1  0.000000  0.000000  0.653432  1
  P  P28  1  0.500000  0.311051  0.617100  1
  P  P29  1  0.500000  0.688949  0.617100  1
  P  P30  1  0.000000  0.188949  0.382900  1
  P  P31  1  0.000000  0.811051  0.382900  1
  P  P32  1  0.500000  0.845270  0.891716  1
  P  P33  1  0.500000  0.154730  0.891716  1
  P  P34  1  0.000000  0.654730  0.108284  1
  P  P35  1  0.000000  0.345270  0.108284  1
