# generated using pymatgen
data_Ho3Ga4Co7(NiB)2
_symmetry_space_group_name_H-M   'P 1'
_cell_length_a   5.17563300
_cell_length_b   5.18239608
_cell_length_c   10.39126800
_cell_angle_alpha   90.00000000
_cell_angle_beta   90.00000000
_cell_angle_gamma   119.95684640
_symmetry_Int_Tables_number   1
_chemical_formula_structural   Ho3Ga4Co7(NiB)2
_chemical_formula_sum   'Ho3 Ga4 Co7 Ni2 B2'
_cell_volume   241.48042909
_cell_formula_units_Z   1
loop_
 _symmetry_equiv_pos_site_id
 _symmetry_equiv_pos_as_xyz
  1  'x, y, z'
loop_
 _atom_site_type_symbol
 _atom_site_label
 _atom_site_symmetry_multiplicity
 _atom_site_fract_x
 _atom_site_fract_y
 _atom_site_fract_z
 _atom_site_occupancy
  Ho  Ho0  1  0.000000  0.000000  0.000000  1
  Ho  Ho1  1  0.000000  0.000000  0.671631  1
  Ho  Ho2  1  0.000000  0.000000  0.328369  1
  Ga  Ga3  1  0.665238  0.330474  0.684897  1
  Ga  Ga4  1  0.334762  0.669526  0.684897  1
  Ga  Ga5  1  0.334762  0.669526  0.315103  1
  Ga  Ga6  1  0.665238  0.330474  0.315103  1
  Co  Co7  1  0.500000  0.000000  0.500000  1
  Co  Co8  1  0.500000  0.500000  0.870027  1
  Co  Co9  1  0.500000  0.000000  0.870312  1
  Co  Co10  1  0.000000  0.500000  0.870027  1
  Co  Co11  1  0.500000  0.500000  0.129973  1
  Co  Co12  1  0.500000  0.000000  0.129688  1
  Co  Co13  1  0.000000  0.500000  0.129973  1
  Ni  Ni14  1  0.500000  0.500000  0.500000  1
  Ni  Ni15  1  0.000000  0.500000  0.500000  1
  B  B16  1  0.666647  0.333293  0.000000  1
  B  B17  1  0.333353  0.666707  0.000000  1
