# generated using pymatgen
data_Ca12Ge8PdRh7
_symmetry_space_group_name_H-M   'P 1'
_cell_length_a   5.78097871
_cell_length_b   7.82511422
_cell_length_c   13.64165562
_cell_angle_alpha   89.96964396
_cell_angle_beta   89.95323189
_cell_angle_gamma   89.89999307
_symmetry_Int_Tables_number   1
_chemical_formula_structural   Ca12Ge8PdRh7
_chemical_formula_sum   'Ca12 Ge8 Pd1 Rh7'
_cell_volume   617.10386986
_cell_formula_units_Z   1
loop_
 _symmetry_equiv_pos_site_id
 _symmetry_equiv_pos_as_xyz
  1  'x, y, z'
loop_
 _atom_site_type_symbol
 _atom_site_label
 _atom_site_symmetry_multiplicity
 _atom_site_fract_x
 _atom_site_fract_y
 _atom_site_fract_z
 _atom_site_occupancy
  Ca  Ca0  1  0.632915  0.242507  0.251145  1
  Ca  Ca1  1  0.367031  0.759683  0.749793  1
  Ca  Ca2  1  0.363881  0.739063  0.251706  1
  Ca  Ca3  1  0.633907  0.259736  0.749457  1
  Ca  Ca4  1  0.140584  0.397456  0.099472  1
  Ca  Ca5  1  0.859924  0.605379  0.900708  1
  Ca  Ca6  1  0.858782  0.604998  0.598969  1
  Ca  Ca7  1  0.859163  0.894431  0.401507  1
  Ca  Ca8  1  0.141395  0.395000  0.401387  1
  Ca  Ca9  1  0.140402  0.104961  0.598873  1
  Ca  Ca10  1  0.139565  0.105845  0.898654  1
  Ca  Ca11  1  0.861201  0.891063  0.098726  1
  Ge  Ge12  1  0.144193  0.091743  0.251741  1
  Ge  Ge13  1  0.850171  0.910199  0.750530  1
  Ge  Ge14  1  0.849539  0.590297  0.250027  1
  Ge  Ge15  1  0.149402  0.410579  0.749794  1
  Ge  Ge16  1  0.618502  0.253874  0.997823  1
  Ge  Ge17  1  0.390414  0.745440  0.996910  1
  Ge  Ge18  1  0.392724  0.749910  0.500217  1
  Ge  Ge19  1  0.606681  0.249717  0.500054  1
  Pd  Pd20  1  0.363909  0.029460  0.091908  1
  Rh  Rh21  1  0.635250  0.971742  0.910617  1
  Rh  Rh22  1  0.636435  0.970528  0.591427  1
  Rh  Rh23  1  0.637634  0.529455  0.408478  1
  Rh  Rh24  1  0.364302  0.028905  0.408385  1
  Rh  Rh25  1  0.362948  0.470466  0.591479  1
  Rh  Rh26  1  0.363256  0.467042  0.908909  1
  Rh  Rh27  1  0.635890  0.530523  0.091304  1
