# generated using pymatgen
data_Mg3MnP6N13
_symmetry_space_group_name_H-M   'P 1'
_cell_length_a   7.05882111
_cell_length_b   7.05882188
_cell_length_c   7.05882142
_cell_angle_alpha   109.55958809
_cell_angle_beta   109.55958428
_cell_angle_gamma   109.55959607
_symmetry_Int_Tables_number   1
_chemical_formula_structural   Mg3MnP6N13
_chemical_formula_sum   'Mg3 Mn1 P6 N13'
_cell_volume   269.86440976
_cell_formula_units_Z   1
loop_
 _symmetry_equiv_pos_site_id
 _symmetry_equiv_pos_as_xyz
  1  'x, y, z'
loop_
 _atom_site_type_symbol
 _atom_site_label
 _atom_site_symmetry_multiplicity
 _atom_site_fract_x
 _atom_site_fract_y
 _atom_site_fract_z
 _atom_site_occupancy
  Mg  Mg0  1  0.003087  0.707173  0.003087  1
  Mg  Mg1  1  0.707173  0.003087  0.003087  1
  Mg  Mg2  1  0.003087  0.003087  0.707173  1
  Mn  Mn3  1  0.289383  0.289383  0.289383  1
  P  P4  1  0.497899  0.249060  0.748760  1
  P  P5  1  0.497899  0.748760  0.249060  1
  P  P6  1  0.748760  0.249060  0.497899  1
  P  P7  1  0.249060  0.497899  0.748760  1
  P  P8  1  0.748760  0.497899  0.249060  1
  P  P9  1  0.249060  0.748760  0.497899  1
  N  N10  1  0.020896  0.020896  0.020896  1
  N  N11  1  0.999448  0.731164  0.455091  1
  N  N12  1  0.265220  0.718521  0.265220  1
  N  N13  1  0.279528  0.542520  0.542520  1
  N  N14  1  0.542520  0.542520  0.279528  1
  N  N15  1  0.542520  0.279528  0.542520  1
  N  N16  1  0.731164  0.999448  0.455091  1
  N  N17  1  0.455091  0.999448  0.731164  1
  N  N18  1  0.731164  0.455091  0.999448  1
  N  N19  1  0.265220  0.265220  0.718521  1
  N  N20  1  0.718521  0.265220  0.265220  1
  N  N21  1  0.999448  0.455091  0.731164  1
  N  N22  1  0.455091  0.731164  0.999448  1
