# generated using pymatgen
data_Tb2Nb2Ni10As7
_symmetry_space_group_name_H-M   'P 1'
_cell_length_a   9.60569748
_cell_length_b   9.48673958
_cell_length_c   3.85516800
_cell_angle_alpha   90.00000000
_cell_angle_beta   90.00000000
_cell_angle_gamma   120.02347582
_symmetry_Int_Tables_number   1
_chemical_formula_structural   Tb2Nb2Ni10As7
_chemical_formula_sum   'Tb2 Nb2 Ni10 As7'
_cell_volume   304.17046342
_cell_formula_units_Z   1
loop_
 _symmetry_equiv_pos_site_id
 _symmetry_equiv_pos_as_xyz
  1  'x, y, z'
loop_
 _atom_site_type_symbol
 _atom_site_label
 _atom_site_symmetry_multiplicity
 _atom_site_fract_x
 _atom_site_fract_y
 _atom_site_fract_z
 _atom_site_occupancy
  Tb  Tb0  1  0.342280  0.666924  0.000000  1
  Tb  Tb1  1  0.665582  0.338082  0.500001  1
  Nb  Nb2  1  0.216639  0.099337  0.500001  1
  Nb  Nb3  1  0.896204  0.113288  0.500001  1
  Ni  Ni4  1  0.428487  0.060759  0.000000  1
  Ni  Ni5  1  0.152472  0.282511  0.000000  1
  Ni  Ni6  1  0.939636  0.371415  0.000000  1
  Ni  Ni7  1  0.632621  0.569318  0.000000  1
  Ni  Ni8  1  0.129168  0.838810  0.000000  1
  Ni  Ni9  1  0.714806  0.873724  0.000000  1
  Ni  Ni10  1  0.382441  0.438473  0.500001  1
  Ni  Ni11  1  0.045318  0.619244  0.500001  1
  Ni  Ni12  1  0.885052  0.783739  0.500001  1
  Ni  Ni13  1  0.564465  0.943814  0.500001  1
  As  As14  1  0.994234  0.987248  0.000000  1
  As  As15  1  0.695618  0.115428  0.000000  1
  As  As16  1  0.412447  0.303924  0.000000  1
  As  As17  1  0.885694  0.591214  0.000000  1
  As  As18  1  0.118523  0.414585  0.500001  1
  As  As19  1  0.602123  0.709420  0.500001  1
  As  As20  1  0.296187  0.878742  0.500001  1
