# generated using pymatgen
data_CoF17
_symmetry_space_group_name_H-M   'P 1'
_cell_length_a   8.48381757
_cell_length_b   8.17316999
_cell_length_c   10.02015043
_cell_angle_alpha   81.86730908
_cell_angle_beta   87.57482007
_cell_angle_gamma   68.46083830
_symmetry_Int_Tables_number   1
_chemical_formula_structural   CoF17
_chemical_formula_sum   'Co2 F34'
_cell_volume   639.73994586
_cell_formula_units_Z   2
loop_
 _symmetry_equiv_pos_site_id
 _symmetry_equiv_pos_as_xyz
  1  'x, y, z'
loop_
 _atom_site_type_symbol
 _atom_site_label
 _atom_site_symmetry_multiplicity
 _atom_site_fract_x
 _atom_site_fract_y
 _atom_site_fract_z
 _atom_site_occupancy
  Co  Co0  1  0.863393  0.250037  0.760987  1
  Co  Co1  1  0.136607  0.749963  0.239013  1
  F  F2  1  0.612515  0.209007  0.487272  1
  F  F3  1  0.387485  0.790993  0.512728  1
  F  F4  1  0.828447  0.690572  0.724602  1
  F  F5  1  0.171553  0.309428  0.275398  1
  F  F6  1  0.088103  0.772330  0.870069  1
  F  F7  1  0.911897  0.227670  0.129931  1
  F  F8  1  0.557785  0.145352  0.378865  1
  F  F9  1  0.442215  0.854648  0.621135  1
  F  F10  1  0.654094  0.318328  0.702912  1
  F  F11  1  0.345906  0.681672  0.297088  1
  F  F12  1  0.925553  0.074210  0.664541  1
  F  F13  1  0.074447  0.925790  0.335459  1
  F  F14  1  0.907396  0.383778  0.623299  1
  F  F15  1  0.092604  0.616222  0.376701  1
  F  F16  1  0.855164  0.804948  0.612572  1
  F  F17  1  0.144836  0.195052  0.387428  1
  F  F18  1  0.803232  0.427726  0.856684  1
  F  F19  1  0.196768  0.572274  0.143316  1
  F  F20  1  0.208176  0.695010  0.772146  1
  F  F21  1  0.791824  0.304990  0.227854  1
  F  F22  1  0.929655  0.817119  0.177644  1
  F  F23  1  0.070345  0.182881  0.822356  1
  F  F24  1  0.817285  0.114121  0.896459  1
  F  F25  1  0.182715  0.885879  0.103541  1
  F  F26  1  0.486006  0.592092  0.986287  1
  F  F27  1  0.513994  0.407908  0.013713  1
  F  F28  1  0.463080  0.087425  0.867178  1
  F  F29  1  0.536920  0.912575  0.132822  1
  F  F30  1  0.288562  0.240062  0.614185  1
  F  F31  1  0.711438  0.759938  0.385815  1
  F  F32  1  0.256419  0.397103  0.673937  1
  F  F33  1  0.743581  0.602897  0.326063  1
  F  F34  1  0.556942  0.911562  0.840037  1
  F  F35  1  0.443058  0.088438  0.159963  1
