# generated using pymatgen
data_Ce(Dy3Ni8)2
_symmetry_space_group_name_H-M   'P 1'
_cell_length_a   7.13082772
_cell_length_b   7.13082596
_cell_length_c   8.70913600
_cell_angle_alpha   114.20820318
_cell_angle_beta   114.25307227
_cell_angle_gamma   89.85683195
_symmetry_Int_Tables_number   1
_chemical_formula_structural   Ce(Dy3Ni8)2
_chemical_formula_sum   'Ce1 Dy6 Ni16'
_cell_volume   360.84963699
_cell_formula_units_Z   1
loop_
 _symmetry_equiv_pos_site_id
 _symmetry_equiv_pos_as_xyz
  1  'x, y, z'
loop_
 _atom_site_type_symbol
 _atom_site_label
 _atom_site_symmetry_multiplicity
 _atom_site_fract_x
 _atom_site_fract_y
 _atom_site_fract_z
 _atom_site_occupancy
  Ce  Ce0  1  0.217880  0.589489  0.807369  1
  Dy  Dy1  1  0.999799  0.997391  0.997190  1
  Dy  Dy2  1  0.402000  0.401888  0.208842  1
  Dy  Dy3  1  0.806953  0.806842  0.208842  1
  Dy  Dy4  1  0.751332  0.254170  0.500680  1
  Dy  Dy5  1  0.246511  0.749350  0.500680  1
  Dy  Dy6  1  0.600057  0.191448  0.791505  1
  Ni  Ni7  1  0.697777  0.181202  0.131190  1
  Ni  Ni8  1  0.949988  0.433413  0.131190  1
  Ni  Ni9  1  0.180280  0.698698  0.130042  1
  Ni  Ni10  1  0.431345  0.949763  0.130042  1
  Ni  Ni11  1  0.308755  0.066358  0.375115  1
  Ni  Ni12  1  0.065296  0.305600  0.370897  1
  Ni  Ni13  1  0.832350  0.560455  0.392806  1
  Ni  Ni14  1  0.558915  0.833688  0.392603  1
  Ni  Ni15  1  0.166322  0.169159  0.606895  1
  Ni  Ni16  1  0.437735  0.440572  0.606895  1
  Ni  Ni17  1  0.689180  0.693141  0.624125  1
  Ni  Ni18  1  0.930984  0.934944  0.624125  1
  Ni  Ni19  1  0.300667  0.052958  0.867549  1
  Ni  Ni20  1  0.048560  0.304212  0.866933  1
  Ni  Ni21  1  0.814592  0.566884  0.867549  1
  Ni  Ni22  1  0.562722  0.818373  0.866933  1
