# generated using pymatgen
data_SrCa3Si2(S2O7)8
_symmetry_space_group_name_H-M   'P 1'
_cell_length_a   12.87833950
_cell_length_b   6.99037120
_cell_length_c   13.51774941
_cell_angle_alpha   65.71720490
_cell_angle_beta   90.25773218
_cell_angle_gamma   90.37981358
_symmetry_Int_Tables_number   1
_chemical_formula_structural   SrCa3Si2(S2O7)8
_chemical_formula_sum   'Sr1 Ca3 Si2 S16 O56'
_cell_volume   1109.23504167
_cell_formula_units_Z   1
loop_
 _symmetry_equiv_pos_site_id
 _symmetry_equiv_pos_as_xyz
  1  'x, y, z'
loop_
 _atom_site_type_symbol
 _atom_site_label
 _atom_site_symmetry_multiplicity
 _atom_site_fract_x
 _atom_site_fract_y
 _atom_site_fract_z
 _atom_site_occupancy
  Sr  Sr0  1  0.134491  0.360009  0.342428  1
  Ca  Ca1  1  0.633655  0.637518  0.154043  1
  Ca  Ca2  1  0.866223  0.633448  0.658330  1
  Ca  Ca3  1  0.367891  0.360430  0.844160  1
  Si  Si4  1  0.501729  0.999131  0.500632  1
  Si  Si5  1  0.999462  0.000818  0.000460  1
  S  S6  1  0.530930  0.178572  0.103355  1
  S  S7  1  0.967248  0.176529  0.608548  1
  S  S8  1  0.472061  0.819302  0.895180  1
  S  S9  1  0.021790  0.818272  0.395417  1
  S  S10  1  0.419772  0.260574  0.272588  1
  S  S11  1  0.084912  0.263428  0.773703  1
  S  S12  1  0.585422  0.735900  0.727581  1
  S  S13  1  0.910196  0.739232  0.224361  1
  S  S14  1  0.718259  0.133408  0.407468  1
  S  S15  1  0.782459  0.132385  0.906540  1
  S  S16  1  0.283663  0.867590  0.592212  1
  S  S17  1  0.218731  0.874137  0.090109  1
  S  S18  1  0.649400  0.720245  0.442213  1
  S  S19  1  0.850155  0.720550  0.941402  1
  S  S20  1  0.354775  0.278467  0.560637  1
  S  S21  1  0.149900  0.282844  0.057466  1
  O  O22  1  0.477335  0.077302  0.359134  1
  O  O23  1  0.026640  0.078670  0.859927  1
  O  O24  1  0.526795  0.919627  0.641835  1
  O  O25  1  0.972073  0.923109  0.141582  1
  O  O26  1  0.606890  0.312236  0.123213  1
  O  O27  1  0.892585  0.306610  0.631613  1
  O  O28  1  0.396335  0.686186  0.874432  1
  O  O29  1  0.099569  0.690369  0.375322  1
  O  O30  1  0.622007  0.138793  0.471139  1
  O  O31  1  0.879709  0.140768  0.968849  1
  O  O32  1  0.380216  0.861817  0.529170  1
  O  O33  1  0.119179  0.859497  0.032821  1
  O  O34  1  0.419311  0.196973  0.173585  1
  O  O35  1  0.082495  0.200295  0.674644  1
  O  O36  1  0.585066  0.799150  0.826838  1
  O  O37  1  0.910224  0.793319  0.326704  1
  O  O38  1  0.552584  0.956290  0.154182  1
  O  O39  1  0.946734  0.953225  0.660074  1
  O  O40  1  0.450747  0.041684  0.844144  1
  O  O41  1  0.040842  0.041485  0.343430  1
  O  O42  1  0.311811  0.256749  0.300002  1
  O  O43  1  0.193490  0.259800  0.800722  1
  O  O44  1  0.693544  0.740637  0.699739  1
  O  O45  1  0.802153  0.751576  0.194094  1
  O  O46  1  0.475638  0.455298  0.246169  1
  O  O47  1  0.029804  0.457618  0.748203  1
  O  O48  1  0.529497  0.541255  0.753826  1
  O  O49  1  0.962627  0.543398  0.248693  1
  O  O50  1  0.805071  0.056016  0.478885  1
  O  O51  1  0.696103  0.053366  0.978333  1
  O  O52  1  0.196998  0.946598  0.520350  1
  O  O53  1  0.301906  0.958350  0.014345  1
  O  O54  1  0.728710  0.322090  0.310597  1
  O  O55  1  0.770843  0.320956  0.809936  1
  O  O56  1  0.272128  0.678052  0.688394  1
  O  O57  1  0.235293  0.686901  0.186119  1
  O  O58  1  0.487079  0.256825  0.995477  1
  O  O59  1  0.006826  0.256685  0.499383  1
  O  O60  1  0.514094  0.740977  0.003847  1
  O  O61  1  0.980361  0.738749  0.504129  1
  O  O62  1  0.688232  0.956725  0.359705  1
  O  O63  1  0.811654  0.956302  0.858639  1
  O  O64  1  0.313611  0.042217  0.641270  1
  O  O65  1  0.189893  0.047917  0.139639  1
  O  O66  1  0.558898  0.764838  0.502213  1
  O  O67  1  0.941162  0.766704  0.001171  1
  O  O68  1  0.443913  0.233165  0.499509  1
  O  O69  1  0.058386  0.235045  0.999182  1
  O  O70  1  0.615022  0.630904  0.369975  1
  O  O71  1  0.883779  0.630310  0.869728  1
  O  O72  1  0.390438  0.362889  0.634587  1
  O  O73  1  0.116746  0.371429  0.130082  1
  O  O74  1  0.731651  0.618692  0.517665  1
  O  O75  1  0.767899  0.618437  0.016686  1
  O  O76  1  0.273067  0.385603  0.485879  1
  O  O77  1  0.231216  0.386730  0.981359  1
