# generated using pymatgen
data_Y4Ni3Pt
_symmetry_space_group_name_H-M   'P 1'
_cell_length_a   4.28362200
_cell_length_b   5.47994487
_cell_length_c   7.13198965
_cell_angle_alpha   90.16776796
_cell_angle_beta   90.00000000
_cell_angle_gamma   90.00000000
_symmetry_Int_Tables_number   1
_chemical_formula_structural   Y4Ni3Pt
_chemical_formula_sum   'Y4 Ni3 Pt1'
_cell_volume   167.41569575
_cell_formula_units_Z   1
loop_
 _symmetry_equiv_pos_site_id
 _symmetry_equiv_pos_as_xyz
  1  'x, y, z'
loop_
 _atom_site_type_symbol
 _atom_site_label
 _atom_site_symmetry_multiplicity
 _atom_site_fract_x
 _atom_site_fract_y
 _atom_site_fract_z
 _atom_site_occupancy
  Y  Y0  1  0.750000  0.869136  0.816746  1
  Y  Y1  1  0.250000  0.367547  0.675511  1
  Y  Y2  1  0.250000  0.127952  0.182914  1
  Y  Y3  1  0.750000  0.633780  0.322650  1
  Ni  Ni4  1  0.250000  0.878208  0.535034  1
  Ni  Ni5  1  0.250000  0.637088  0.041227  1
  Ni  Ni6  1  0.750000  0.119880  0.465080  1
  Pt  Pt7  1  0.750000  0.366409  0.960837  1
