# generated using pymatgen
data_Sm2TmZn3(Ni5B)2
_symmetry_space_group_name_H-M   'P 1'
_cell_length_a   5.08556764
_cell_length_b   5.08572784
_cell_length_c   10.81339164
_cell_angle_alpha   90.00152135
_cell_angle_beta   89.99833398
_cell_angle_gamma   120.04922010
_symmetry_Int_Tables_number   1
_chemical_formula_structural   Sm2TmZn3(Ni5B)2
_chemical_formula_sum   'Sm2 Tm1 Zn3 Ni10 B2'
_cell_volume   242.08590337
_cell_formula_units_Z   1
loop_
 _symmetry_equiv_pos_site_id
 _symmetry_equiv_pos_as_xyz
  1  'x, y, z'
loop_
 _atom_site_type_symbol
 _atom_site_label
 _atom_site_symmetry_multiplicity
 _atom_site_fract_x
 _atom_site_fract_y
 _atom_site_fract_z
 _atom_site_occupancy
  Sm  Sm0  1  0.999990  0.000009  0.660125  1
  Sm  Sm1  1  0.999952  0.000076  0.327291  1
  Tm  Tm2  1  0.000015  0.999985  0.998799  1
  Zn  Zn3  1  0.666646  0.333379  0.686242  1
  Zn  Zn4  1  0.333353  0.666621  0.685905  1
  Zn  Zn5  1  0.333302  0.666660  0.316124  1
  Ni  Ni6  1  0.501558  0.498439  0.500029  1
  Ni  Ni7  1  0.501532  0.003059  0.500050  1
  Ni  Ni8  1  0.996938  0.498465  0.500050  1
  Ni  Ni9  1  0.666612  0.333402  0.317846  1
  Ni  Ni10  1  0.499785  0.500218  0.873630  1
  Ni  Ni11  1  0.499825  0.999456  0.873648  1
  Ni  Ni12  1  0.000546  0.500176  0.873641  1
  Ni  Ni13  1  0.501482  0.498519  0.128374  1
  Ni  Ni14  1  0.501456  0.002998  0.128417  1
  Ni  Ni15  1  0.997002  0.498543  0.128411  1
  B  B16  1  0.666663  0.333311  0.000669  1
  B  B17  1  0.333342  0.666687  0.000751  1
