# generated using pymatgen
data_MnNbOF5
_symmetry_space_group_name_H-M   'P 1'
_cell_length_a   5.68649288
_cell_length_b   5.74871601
_cell_length_c   5.64267078
_cell_angle_alpha   118.46331486
_cell_angle_beta   118.98183974
_cell_angle_gamma   91.46920980
_symmetry_Int_Tables_number   1
_chemical_formula_structural   MnNbOF5
_chemical_formula_sum   'Mn1 Nb1 O1 F5'
_cell_volume   133.72781402
_cell_formula_units_Z   1
loop_
 _symmetry_equiv_pos_site_id
 _symmetry_equiv_pos_as_xyz
  1  'x, y, z'
loop_
 _atom_site_type_symbol
 _atom_site_label
 _atom_site_symmetry_multiplicity
 _atom_site_fract_x
 _atom_site_fract_y
 _atom_site_fract_z
 _atom_site_occupancy
  Mn  Mn0  1  0.159328  0.475437  0.317839  1
  Nb  Nb1  1  0.682723  0.994747  0.321985  1
  O  O2  1  0.944937  0.215652  0.365034  1
  F  F3  1  0.362834  0.731329  0.264634  1
  F  F4  1  0.404248  0.196259  0.239598  1
  F  F5  1  0.481710  0.723560  0.841854  1
  F  F6  1  0.900062  0.742012  0.390639  1
  F  F7  1  0.825313  0.216238  0.791894  1
