# generated using pymatgen
data_LaEu(AlPt)2
_symmetry_space_group_name_H-M   'P 1'
_cell_length_a   4.49549900
_cell_length_b   7.25650300
_cell_length_c   7.95636200
_cell_angle_alpha   90.00000000
_cell_angle_beta   90.00000000
_cell_angle_gamma   90.00000000
_symmetry_Int_Tables_number   1
_chemical_formula_structural   LaEu(AlPt)2
_chemical_formula_sum   'La2 Eu2 Al4 Pt4'
_cell_volume   259.54927437
_cell_formula_units_Z   2
loop_
 _symmetry_equiv_pos_site_id
 _symmetry_equiv_pos_as_xyz
  1  'x, y, z'
loop_
 _atom_site_type_symbol
 _atom_site_label
 _atom_site_symmetry_multiplicity
 _atom_site_fract_x
 _atom_site_fract_y
 _atom_site_fract_z
 _atom_site_occupancy
  La  La0  1  0.750000  0.970329  0.324465  1
  La  La1  1  0.750000  0.470329  0.175535  1
  Eu  Eu2  1  0.250000  0.030082  0.681931  1
  Eu  Eu3  1  0.250000  0.530082  0.818069  1
  Al  Al4  1  0.250000  0.141557  0.062487  1
  Al  Al5  1  0.250000  0.641557  0.437513  1
  Al  Al6  1  0.750000  0.857509  0.931564  1
  Al  Al7  1  0.750000  0.357509  0.568436  1
  Pt  Pt8  1  0.250000  0.286675  0.381168  1
  Pt  Pt9  1  0.250000  0.786675  0.118832  1
  Pt  Pt10  1  0.750000  0.713848  0.613790  1
  Pt  Pt11  1  0.750000  0.213848  0.886210  1
