# generated using pymatgen
data_EuFe2(P6Ir)2
_symmetry_space_group_name_H-M   'P 1'
_cell_length_a   6.89053926
_cell_length_b   6.89057151
_cell_length_c   6.91396303
_cell_angle_alpha   109.47050233
_cell_angle_beta   109.43558882
_cell_angle_gamma   109.37203521
_symmetry_Int_Tables_number   1
_chemical_formula_structural   EuFe2(P6Ir)2
_chemical_formula_sum   'Eu1 Fe2 P12 Ir2'
_cell_volume   253.12654423
_cell_formula_units_Z   1
loop_
 _symmetry_equiv_pos_site_id
 _symmetry_equiv_pos_as_xyz
  1  'x, y, z'
loop_
 _atom_site_type_symbol
 _atom_site_label
 _atom_site_symmetry_multiplicity
 _atom_site_fract_x
 _atom_site_fract_y
 _atom_site_fract_z
 _atom_site_occupancy
  Eu  Eu0  1  0.000000  0.000000  0.000000  1
  Fe  Fe1  1  0.000000  0.000000  0.500000  1
  Fe  Fe2  1  0.500000  0.500000  0.500000  1
  P  P3  1  0.500891  0.844117  0.635739  1
  P  P4  1  0.208385  0.865158  0.364268  1
  P  P5  1  0.791615  0.134842  0.635732  1
  P  P6  1  0.150122  0.347726  0.497848  1
  P  P7  1  0.363817  0.498920  0.155478  1
  P  P8  1  0.499109  0.155883  0.364261  1
  P  P9  1  0.139757  0.639567  0.779328  1
  P  P10  1  0.343444  0.208343  0.844524  1
  P  P11  1  0.849878  0.652274  0.502152  1
  P  P12  1  0.656556  0.791657  0.155476  1
  P  P13  1  0.860243  0.360433  0.220672  1
  P  P14  1  0.636183  0.501080  0.844522  1
  Ir  Ir15  1  0.500000  0.000000  0.000000  1
  Ir  Ir16  1  0.000000  0.500000  0.000000  1
