# generated using pymatgen
data_Rb3AsSO3
_symmetry_space_group_name_H-M   'P 1'
_cell_length_a   6.25480900
_cell_length_b   6.89571951
_cell_length_c   9.21012949
_cell_angle_alpha   78.76132662
_cell_angle_beta   90.00000000
_cell_angle_gamma   90.00000000
_symmetry_Int_Tables_number   1
_chemical_formula_structural   Rb3AsSO3
_chemical_formula_sum   'Rb6 As2 S2 O6'
_cell_volume   389.62820221
_cell_formula_units_Z   2
loop_
 _symmetry_equiv_pos_site_id
 _symmetry_equiv_pos_as_xyz
  1  'x, y, z'
loop_
 _atom_site_type_symbol
 _atom_site_label
 _atom_site_symmetry_multiplicity
 _atom_site_fract_x
 _atom_site_fract_y
 _atom_site_fract_z
 _atom_site_occupancy
  Rb  Rb0  1  0.750000  0.686106  0.469669  1
  Rb  Rb1  1  0.250000  0.248715  0.002272  1
  Rb  Rb2  1  0.250000  0.313894  0.530331  1
  Rb  Rb3  1  0.750000  0.751285  0.997728  1
  Rb  Rb4  1  0.250000  0.769582  0.733788  1
  Rb  Rb5  1  0.750000  0.230418  0.266212  1
  As  As6  1  0.750000  0.305795  0.788590  1
  As  As7  1  0.250000  0.694205  0.211410  1
  S  S8  1  0.750000  0.071579  0.653298  1
  S  S9  1  0.250000  0.928421  0.346702  1
  O  O10  1  0.250000  0.800652  0.026016  1
  O  O11  1  0.750000  0.199348  0.973984  1
  O  O12  1  0.974934  0.450411  0.744149  1
  O  O13  1  0.025066  0.549589  0.255851  1
  O  O14  1  0.525066  0.450411  0.744149  1
  O  O15  1  0.474934  0.549589  0.255851  1
