# generated using pymatgen
data_Pr2MnCrF14
_symmetry_space_group_name_H-M   'P 1'
_cell_length_a   5.61126600
_cell_length_b   9.08862216
_cell_length_c   12.09808463
_cell_angle_alpha   62.07163036
_cell_angle_beta   90.00000000
_cell_angle_gamma   90.00000000
_symmetry_Int_Tables_number   1
_chemical_formula_structural   Pr2MnCrF14
_chemical_formula_sum   'Pr4 Mn2 Cr2 F28'
_cell_volume   545.12827243
_cell_formula_units_Z   2
loop_
 _symmetry_equiv_pos_site_id
 _symmetry_equiv_pos_as_xyz
  1  'x, y, z'
loop_
 _atom_site_type_symbol
 _atom_site_label
 _atom_site_symmetry_multiplicity
 _atom_site_fract_x
 _atom_site_fract_y
 _atom_site_fract_z
 _atom_site_occupancy
  Pr  Pr0  1  0.763410  0.809404  0.763507  1
  Pr  Pr1  1  0.263410  0.190596  0.736493  1
  Pr  Pr2  1  0.236882  0.193667  0.234989  1
  Pr  Pr3  1  0.736882  0.806333  0.265011  1
  Mn  Mn4  1  0.242714  0.725277  0.042315  1
  Mn  Mn5  1  0.742714  0.274723  0.457685  1
  Cr  Cr6  1  0.756162  0.275272  0.957391  1
  Cr  Cr7  1  0.256162  0.724728  0.542609  1
  F  F8  1  0.429842  0.708528  0.923734  1
  F  F9  1  0.929842  0.291472  0.576266  1
  F  F10  1  0.569728  0.290377  0.076992  1
  F  F11  1  0.069728  0.709623  0.423008  1
  F  F12  1  0.468379  0.285499  0.538499  1
  F  F13  1  0.968379  0.714501  0.961501  1
  F  F14  1  0.536646  0.715791  0.458754  1
  F  F15  1  0.036646  0.284209  0.041246  1
  F  F16  1  0.764288  0.504148  0.865604  1
  F  F17  1  0.264288  0.495852  0.634396  1
  F  F18  1  0.236796  0.496262  0.135539  1
  F  F19  1  0.736796  0.503738  0.364461  1
  F  F20  1  0.758780  0.046810  0.045813  1
  F  F21  1  0.258780  0.953190  0.454187  1
  F  F22  1  0.237444  0.953768  0.953375  1
  F  F23  1  0.737444  0.046232  0.546625  1
  F  F24  1  0.980379  0.729000  0.630456  1
  F  F25  1  0.480379  0.271000  0.869544  1
  F  F26  1  0.012956  0.269195  0.372852  1
  F  F27  1  0.512956  0.730805  0.127148  1
  F  F28  1  0.057784  0.739759  0.163829  1
  F  F29  1  0.557784  0.260241  0.336171  1
  F  F30  1  0.942197  0.260720  0.835478  1
  F  F31  1  0.442197  0.739280  0.664522  1
  F  F32  1  0.400305  0.969621  0.224955  1
  F  F33  1  0.900305  0.030379  0.275045  1
  F  F34  1  0.605308  0.034195  0.774067  1
  F  F35  1  0.105308  0.965805  0.725933  1
