# generated using pymatgen
data_Ho5Al2AuC4
_symmetry_space_group_name_H-M   'P 1'
_cell_length_a   10.80780600
_cell_length_b   10.80780600
_cell_length_c   3.49812000
_cell_angle_alpha   90.00000000
_cell_angle_beta   90.00000000
_cell_angle_gamma   90.00000000
_symmetry_Int_Tables_number   1
_chemical_formula_structural   Ho5Al2AuC4
_chemical_formula_sum   'Ho10 Al4 Au2 C8'
_cell_volume   408.61074657
_cell_formula_units_Z   2
loop_
 _symmetry_equiv_pos_site_id
 _symmetry_equiv_pos_as_xyz
  1  'x, y, z'
loop_
 _atom_site_type_symbol
 _atom_site_label
 _atom_site_symmetry_multiplicity
 _atom_site_fract_x
 _atom_site_fract_y
 _atom_site_fract_z
 _atom_site_occupancy
  Ho  Ho0  1  0.549179  0.728740  0.500000  1
  Ho  Ho1  1  0.450821  0.271260  0.500000  1
  Ho  Ho2  1  0.049179  0.771260  0.500000  1
  Ho  Ho3  1  0.950821  0.228740  0.500000  1
  Ho  Ho4  1  0.271260  0.549179  0.500000  1
  Ho  Ho5  1  0.728740  0.450821  0.500000  1
  Ho  Ho6  1  0.228740  0.049179  0.500000  1
  Ho  Ho7  1  0.771260  0.950821  0.500000  1
  Ho  Ho8  1  0.500000  0.000000  0.000000  1
  Ho  Ho9  1  0.000000  0.500000  0.000000  1
  Al  Al10  1  0.703533  0.203533  0.000000  1
  Al  Al11  1  0.296467  0.796467  0.000000  1
  Al  Al12  1  0.203533  0.296467  0.000000  1
  Al  Al13  1  0.796467  0.703533  0.000000  1
  Au  Au14  1  0.500000  0.500000  0.000000  1
  Au  Au15  1  0.000000  0.000000  0.000000  1
  C  C16  1  0.631268  0.131268  0.500000  1
  C  C17  1  0.368732  0.868732  0.500000  1
  C  C18  1  0.131268  0.368732  0.500000  1
  C  C19  1  0.868732  0.631268  0.500000  1
  C  C20  1  0.162105  0.662105  0.000000  1
  C  C21  1  0.837895  0.337895  0.000000  1
  C  C22  1  0.662105  0.837895  0.000000  1
  C  C23  1  0.337895  0.162105  0.000000  1
