# generated using pymatgen
data_CeTh5Ir18
_symmetry_space_group_name_H-M   'P 1'
_cell_length_a   5.37387600
_cell_length_b   5.37387502
_cell_length_c   17.76480800
_cell_angle_alpha   90.00000000
_cell_angle_beta   90.00000000
_cell_angle_gamma   120.00000604
_symmetry_Int_Tables_number   1
_chemical_formula_structural   CeTh5Ir18
_chemical_formula_sum   'Ce1 Th5 Ir18'
_cell_volume   444.28978291
_cell_formula_units_Z   1
loop_
 _symmetry_equiv_pos_site_id
 _symmetry_equiv_pos_as_xyz
  1  'x, y, z'
loop_
 _atom_site_type_symbol
 _atom_site_label
 _atom_site_symmetry_multiplicity
 _atom_site_fract_x
 _atom_site_fract_y
 _atom_site_fract_z
 _atom_site_occupancy
  Ce  Ce0  1  0.333333  0.666667  0.542764  1
  Th  Th1  1  0.333333  0.666667  0.956799  1
  Th  Th2  1  0.666667  0.333333  0.042372  1
  Th  Th3  1  0.666667  0.333333  0.459539  1
  Th  Th4  1  0.333333  0.666667  0.748830  1
  Th  Th5  1  0.666667  0.333333  0.250506  1
  Ir  Ir6  1  0.167267  0.832733  0.373509  1
  Ir  Ir7  1  0.167267  0.334534  0.373509  1
  Ir  Ir8  1  0.665466  0.832733  0.373509  1
  Ir  Ir9  1  0.832981  0.167019  0.626374  1
  Ir  Ir10  1  0.832981  0.665960  0.626374  1
  Ir  Ir11  1  0.334040  0.167019  0.626374  1
  Ir  Ir12  1  0.832891  0.167109  0.872724  1
  Ir  Ir13  1  0.832891  0.665780  0.872724  1
  Ir  Ir14  1  0.334220  0.167109  0.872724  1
  Ir  Ir15  1  0.167135  0.832865  0.127069  1
  Ir  Ir16  1  0.167135  0.334271  0.127069  1
  Ir  Ir17  1  0.665729  0.832865  0.127069  1
  Ir  Ir18  1  0.333333  0.666667  0.250192  1
  Ir  Ir19  1  0.666667  0.333333  0.749769  1
  Ir  Ir20  1  0.000000  0.000000  0.250216  1
  Ir  Ir21  1  0.000000  0.000000  0.749694  1
  Ir  Ir22  1  0.000000  0.000000  0.500439  1
  Ir  Ir23  1  0.000000  0.000000  0.999851  1
