# generated using pymatgen
data_LiDy(TaS2)8
_symmetry_space_group_name_H-M   'P 1'
_cell_length_a   6.69256700
_cell_length_b   6.69256635
_cell_length_c   13.20009300
_cell_angle_alpha   90.00000000
_cell_angle_beta   90.00000000
_cell_angle_gamma   120.00000815
_symmetry_Int_Tables_number   1
_chemical_formula_structural   LiDy(TaS2)8
_chemical_formula_sum   'Li1 Dy1 Ta8 S16'
_cell_volume   512.02716217
_cell_formula_units_Z   1
loop_
 _symmetry_equiv_pos_site_id
 _symmetry_equiv_pos_as_xyz
  1  'x, y, z'
loop_
 _atom_site_type_symbol
 _atom_site_label
 _atom_site_symmetry_multiplicity
 _atom_site_fract_x
 _atom_site_fract_y
 _atom_site_fract_z
 _atom_site_occupancy
  Li  Li0  1  0.000000  0.000000  0.000000  1
  Dy  Dy1  1  0.000000  0.000000  0.500000  1
  Ta  Ta2  1  0.505316  0.494684  0.762386  1
  Ta  Ta3  1  0.010630  0.505316  0.237614  1
  Ta  Ta4  1  0.494684  0.989370  0.237614  1
  Ta  Ta5  1  0.505316  0.010630  0.762386  1
  Ta  Ta6  1  0.989370  0.494684  0.762386  1
  Ta  Ta7  1  0.494684  0.505316  0.237614  1
  Ta  Ta8  1  0.000000  0.000000  0.761809  1
  Ta  Ta9  1  0.000000  0.000000  0.238191  1
  S  S10  1  0.831523  0.168477  0.356413  1
  S  S11  1  0.831523  0.663045  0.356413  1
  S  S12  1  0.336955  0.168477  0.356413  1
  S  S13  1  0.664341  0.832171  0.878113  1
  S  S14  1  0.168477  0.336955  0.643587  1
  S  S15  1  0.167829  0.832171  0.878113  1
  S  S16  1  0.167829  0.335659  0.878113  1
  S  S17  1  0.832171  0.167829  0.121887  1
  S  S18  1  0.335659  0.167829  0.121887  1
  S  S19  1  0.663045  0.831523  0.643587  1
  S  S20  1  0.333333  0.666667  0.118372  1
  S  S21  1  0.666667  0.333333  0.641290  1
  S  S22  1  0.666667  0.333333  0.881628  1
  S  S23  1  0.333333  0.666667  0.358710  1
  S  S24  1  0.832171  0.664341  0.121887  1
  S  S25  1  0.168477  0.831523  0.643587  1
