# generated using pymatgen
data_Y3LuTc4F28
_symmetry_space_group_name_H-M   'P 1'
_cell_length_a   5.57775735
_cell_length_b   8.88083469
_cell_length_c   12.00140267
_cell_angle_alpha   62.65776052
_cell_angle_beta   90.04960593
_cell_angle_gamma   89.97457907
_symmetry_Int_Tables_number   1
_chemical_formula_structural   Y3LuTc4F28
_chemical_formula_sum   'Y3 Lu1 Tc4 F28'
_cell_volume   528.07351044
_cell_formula_units_Z   1
loop_
 _symmetry_equiv_pos_site_id
 _symmetry_equiv_pos_as_xyz
  1  'x, y, z'
loop_
 _atom_site_type_symbol
 _atom_site_label
 _atom_site_symmetry_multiplicity
 _atom_site_fract_x
 _atom_site_fract_y
 _atom_site_fract_z
 _atom_site_occupancy
  Y  Y0  1  0.740707  0.186551  0.735118  1
  Y  Y1  1  0.758593  0.183983  0.235281  1
  Y  Y2  1  0.240450  0.812721  0.764590  1
  Lu  Lu3  1  0.260364  0.812910  0.264601  1
  Tc  Tc4  1  0.759712  0.727464  0.046131  1
  Tc  Tc5  1  0.243181  0.271323  0.957746  1
  Tc  Tc6  1  0.257446  0.276035  0.455283  1
  Tc  Tc7  1  0.741567  0.726717  0.540785  1
  F  F8  1  0.946926  0.706499  0.416334  1
  F  F9  1  0.056567  0.295072  0.581693  1
  F  F10  1  0.443593  0.293694  0.083103  1
  F  F11  1  0.554900  0.706938  0.921383  1
  F  F12  1  0.478361  0.730156  0.144356  1
  F  F13  1  0.528707  0.271886  0.862382  1
  F  F14  1  0.973237  0.271803  0.360339  1
  F  F15  1  0.024819  0.727306  0.637669  1
  F  F16  1  0.963394  0.748596  0.173634  1
  F  F17  1  0.048643  0.252838  0.827261  1
  F  F18  1  0.452928  0.255910  0.325888  1
  F  F19  1  0.544449  0.745587  0.670678  1
  F  F20  1  0.775248  0.479681  0.142434  1
  F  F21  1  0.226206  0.519430  0.859846  1
  F  F22  1  0.271107  0.524721  0.357706  1
  F  F23  1  0.723705  0.479484  0.639444  1
  F  F24  1  0.946538  0.276491  0.045522  1
  F  F25  1  0.051661  0.722198  0.955487  1
  F  F26  1  0.445705  0.723876  0.450087  1
  F  F27  1  0.553334  0.279674  0.543953  1
  F  F28  1  0.743620  0.973953  0.446597  1
  F  F29  1  0.256613  0.028876  0.551257  1
  F  F30  1  0.245244  0.024273  0.054472  1
  F  F31  1  0.757899  0.974220  0.949132  1
  F  F32  1  0.573532  0.968075  0.232772  1
  F  F33  1  0.414686  0.030367  0.768487  1
  F  F34  1  0.082256  0.021924  0.267420  1
  F  F35  1  0.914099  0.968766  0.731126  1
