# generated using pymatgen
data_La4DyTa2BiO14
_symmetry_space_group_name_H-M   'P 1'
_cell_length_a   6.70267997
_cell_length_b   6.74381739
_cell_length_c   7.75779200
_cell_angle_alpha   90.00000000
_cell_angle_beta   90.00000000
_cell_angle_gamma   111.07096806
_symmetry_Int_Tables_number   1
_chemical_formula_structural   La4DyTa2BiO14
_chemical_formula_sum   'La4 Dy1 Ta2 Bi1 O14'
_cell_volume   327.21807137
_cell_formula_units_Z   1
loop_
 _symmetry_equiv_pos_site_id
 _symmetry_equiv_pos_as_xyz
  1  'x, y, z'
loop_
 _atom_site_type_symbol
 _atom_site_label
 _atom_site_symmetry_multiplicity
 _atom_site_fract_x
 _atom_site_fract_y
 _atom_site_fract_z
 _atom_site_occupancy
  La  La0  1  0.989181  0.000841  0.003636  1
  La  La1  1  0.989181  0.000841  0.496364  1
  La  La2  1  0.948952  0.488380  0.750000  1
  La  La3  1  0.066088  0.524918  0.250000  1
  Dy  Dy4  1  0.510784  0.057374  0.250000  1
  Ta  Ta5  1  0.506850  0.504515  0.002034  1
  Ta  Ta6  1  0.506850  0.504515  0.497966  1
  Bi  Bi7  1  0.473692  0.971120  0.750000  1
  O  O8  1  0.835455  0.115249  0.750000  1
  O  O9  1  0.155303  0.899772  0.250000  1
  O  O10  1  0.100342  0.863543  0.750000  1
  O  O11  1  0.869006  0.158369  0.250000  1
  O  O12  1  0.454549  0.179967  0.971612  1
  O  O13  1  0.548528  0.799442  0.448341  1
  O  O14  1  0.189607  0.423457  0.527510  1
  O  O15  1  0.823097  0.576432  0.028923  1
  O  O16  1  0.452199  0.410421  0.250000  1
  O  O17  1  0.564556  0.541547  0.750000  1
  O  O18  1  0.189607  0.423457  0.972490  1
  O  O19  1  0.823097  0.576432  0.471077  1
  O  O20  1  0.454549  0.179967  0.528388  1
  O  O21  1  0.548528  0.799442  0.051659  1
