# generated using pymatgen
data_Dy2TaNbN4
_symmetry_space_group_name_H-M   'P 1'
_cell_length_a   3.25522400
_cell_length_b   5.68644749
_cell_length_c   10.99414540
_cell_angle_alpha   89.77955769
_cell_angle_beta   90.00000000
_cell_angle_gamma   90.00000000
_symmetry_Int_Tables_number   1
_chemical_formula_structural   Dy2TaNbN4
_chemical_formula_sum   'Dy4 Ta2 Nb2 N8'
_cell_volume   203.50738511
_cell_formula_units_Z   2
loop_
 _symmetry_equiv_pos_site_id
 _symmetry_equiv_pos_as_xyz
  1  'x, y, z'
loop_
 _atom_site_type_symbol
 _atom_site_label
 _atom_site_symmetry_multiplicity
 _atom_site_fract_x
 _atom_site_fract_y
 _atom_site_fract_z
 _atom_site_occupancy
  Dy  Dy0  1  0.250000  0.586785  0.864175  1
  Dy  Dy1  1  0.750000  0.413215  0.135825  1
  Dy  Dy2  1  0.750000  0.910693  0.361716  1
  Dy  Dy3  1  0.250000  0.089307  0.638284  1
  Ta  Ta4  1  0.750000  0.584349  0.613239  1
  Ta  Ta5  1  0.250000  0.415651  0.386761  1
  Nb  Nb6  1  0.250000  0.917151  0.109328  1
  Nb  Nb7  1  0.750000  0.082849  0.890672  1
  N  N8  1  0.250000  0.659402  0.246115  1
  N  N9  1  0.750000  0.340598  0.753885  1
  N  N10  1  0.750000  0.838539  0.741965  1
  N  N11  1  0.250000  0.161461  0.258035  1
  N  N12  1  0.250000  0.741950  0.505319  1
  N  N13  1  0.750000  0.258050  0.494681  1
  N  N14  1  0.750000  0.750021  0.003749  1
  N  N15  1  0.250000  0.249979  0.996251  1
