# generated using pymatgen
data_NdHo5(AuO7)2
_symmetry_space_group_name_H-M   'P 1'
_cell_length_a   6.50083941
_cell_length_b   6.50083944
_cell_length_c   7.46894900
_cell_angle_alpha   89.88978103
_cell_angle_beta   90.11021744
_cell_angle_gamma   108.66103909
_symmetry_Int_Tables_number   1
_chemical_formula_structural   NdHo5(AuO7)2
_chemical_formula_sum   'Nd1 Ho5 Au2 O14'
_cell_volume   299.04972272
_cell_formula_units_Z   1
loop_
 _symmetry_equiv_pos_site_id
 _symmetry_equiv_pos_as_xyz
  1  'x, y, z'
loop_
 _atom_site_type_symbol
 _atom_site_label
 _atom_site_symmetry_multiplicity
 _atom_site_fract_x
 _atom_site_fract_y
 _atom_site_fract_z
 _atom_site_occupancy
  Nd  Nd0  1  0.499589  0.499589  0.500000  1
  Ho  Ho1  1  0.484447  0.484447  0.000000  1
  Ho  Ho2  1  0.996627  0.530621  0.244503  1
  Ho  Ho3  1  0.999950  0.472946  0.750359  1
  Ho  Ho4  1  0.530621  0.996627  0.755497  1
  Ho  Ho5  1  0.472946  0.999950  0.249641  1
  Au  Au6  1  0.999893  0.999893  0.500000  1
  Au  Au7  1  0.002341  0.002341  0.000000  1
  O  O8  1  0.922176  0.081023  0.750051  1
  O  O9  1  0.081023  0.922176  0.249949  1
  O  O10  1  0.357612  0.640442  0.240611  1
  O  O11  1  0.640442  0.357612  0.759389  1
  O  O12  1  0.363370  0.634563  0.759266  1
  O  O13  1  0.634563  0.363370  0.240734  1
  O  O14  1  0.332339  0.085014  0.976784  1
  O  O15  1  0.669580  0.923210  0.478084  1
  O  O16  1  0.329328  0.074780  0.526273  1
  O  O17  1  0.675013  0.925137  0.027054  1
  O  O18  1  0.074780  0.329328  0.473727  1
  O  O19  1  0.925137  0.675013  0.972946  1
  O  O20  1  0.923210  0.669580  0.521916  1
  O  O21  1  0.085014  0.332339  0.023216  1
