# generated using pymatgen
data_Eu6TaWO14
_symmetry_space_group_name_H-M   'P 1'
_cell_length_a   6.62361320
_cell_length_b   6.62361236
_cell_length_c   7.70953614
_cell_angle_alpha   90.25018488
_cell_angle_beta   89.74981486
_cell_angle_gamma   110.02477011
_symmetry_Int_Tables_number   1
_chemical_formula_structural   Eu6TaWO14
_chemical_formula_sum   'Eu6 Ta1 W1 O14'
_cell_volume   317.78206641
_cell_formula_units_Z   1
loop_
 _symmetry_equiv_pos_site_id
 _symmetry_equiv_pos_as_xyz
  1  'x, y, z'
loop_
 _atom_site_type_symbol
 _atom_site_label
 _atom_site_symmetry_multiplicity
 _atom_site_fract_x
 _atom_site_fract_y
 _atom_site_fract_z
 _atom_site_occupancy
  Eu  Eu0  1  0.508745  0.508745  0.500000  1
  Eu  Eu1  1  0.492971  0.492971  0.000000  1
  Eu  Eu2  1  0.470296  0.002689  0.248111  1
  Eu  Eu3  1  0.529376  0.997751  0.756121  1
  Eu  Eu4  1  0.002689  0.470296  0.751889  1
  Eu  Eu5  1  0.997751  0.529376  0.243879  1
  Ta  Ta6  1  0.999827  0.999827  0.000000  1
  W  W7  1  0.999684  0.999684  0.500000  1
  O  O8  1  0.303486  0.059693  0.533206  1
  O  O9  1  0.687603  0.935832  0.029572  1
  O  O10  1  0.059693  0.303486  0.466794  1
  O  O11  1  0.935832  0.687603  0.970428  1
  O  O12  1  0.931629  0.690284  0.528674  1
  O  O13  1  0.072762  0.317845  0.024791  1
  O  O14  1  0.690284  0.931629  0.471326  1
  O  O15  1  0.317845  0.072762  0.975209  1
  O  O16  1  0.629187  0.371034  0.251203  1
  O  O17  1  0.371034  0.629187  0.748797  1
  O  O18  1  0.361890  0.638270  0.252572  1
  O  O19  1  0.638270  0.361890  0.747428  1
  O  O20  1  0.050338  0.948808  0.253381  1
  O  O21  1  0.948808  0.050338  0.746619  1
