# generated using pymatgen
data_PrYCdIrO7
_symmetry_space_group_name_H-M   'P 1'
_cell_length_a   6.45919083
_cell_length_b   6.62372711
_cell_length_c   7.62148700
_cell_angle_alpha   90.00000000
_cell_angle_beta   90.00000000
_cell_angle_gamma   111.58003571
_symmetry_Int_Tables_number   1
_chemical_formula_structural   PrYCdIrO7
_chemical_formula_sum   'Pr2 Y2 Cd2 Ir2 O14'
_cell_volume   303.22060021
_cell_formula_units_Z   2
loop_
 _symmetry_equiv_pos_site_id
 _symmetry_equiv_pos_as_xyz
  1  'x, y, z'
loop_
 _atom_site_type_symbol
 _atom_site_label
 _atom_site_symmetry_multiplicity
 _atom_site_fract_x
 _atom_site_fract_y
 _atom_site_fract_z
 _atom_site_occupancy
  Pr  Pr0  1  0.000000  0.000000  0.000000  1
  Pr  Pr1  1  0.000000  0.000000  0.500000  1
  Y  Y2  1  0.954530  0.488885  0.750000  1
  Y  Y3  1  0.045470  0.511115  0.250000  1
  Cd  Cd4  1  0.485466  0.980426  0.750000  1
  Cd  Cd5  1  0.514534  0.019574  0.250000  1
  Ir  Ir6  1  0.500000  0.500000  0.000000  1
  Ir  Ir7  1  0.500000  0.500000  0.500000  1
  O  O8  1  0.597517  0.515278  0.750000  1
  O  O9  1  0.402483  0.484722  0.250000  1
  O  O10  1  0.841365  0.123939  0.750000  1
  O  O11  1  0.158635  0.876061  0.250000  1
  O  O12  1  0.128522  0.853767  0.750000  1
  O  O13  1  0.871478  0.146233  0.250000  1
  O  O14  1  0.434793  0.197147  0.998542  1
  O  O15  1  0.565207  0.802853  0.498542  1
  O  O16  1  0.173950  0.428282  0.967725  1
  O  O17  1  0.826050  0.571718  0.467725  1
  O  O18  1  0.434793  0.197147  0.501458  1
  O  O19  1  0.565207  0.802853  0.001458  1
  O  O20  1  0.826050  0.571718  0.032275  1
  O  O21  1  0.173950  0.428282  0.532275  1
