# generated using pymatgen
data_Ho4Tm2Si24OsRu7
_symmetry_space_group_name_H-M   'P 1'
_cell_length_a   10.09400115
_cell_length_b   10.09400176
_cell_length_c   8.12077000
_cell_angle_alpha   89.99627831
_cell_angle_beta   89.99628186
_cell_angle_gamma   132.55515634
_symmetry_Int_Tables_number   1
_chemical_formula_structural   Ho4Tm2Si24OsRu7
_chemical_formula_sum   'Ho4 Tm2 Si24 Os1 Ru7'
_cell_volume   609.49668398
_cell_formula_units_Z   1
loop_
 _symmetry_equiv_pos_site_id
 _symmetry_equiv_pos_as_xyz
  1  'x, y, z'
loop_
 _atom_site_type_symbol
 _atom_site_label
 _atom_site_symmetry_multiplicity
 _atom_site_fract_x
 _atom_site_fract_y
 _atom_site_fract_z
 _atom_site_occupancy
  Ho  Ho0  1  0.502637  0.002725  0.750213  1
  Ho  Ho1  1  0.997275  0.497363  0.249787  1
  Ho  Ho2  1  0.497422  0.997189  0.249717  1
  Ho  Ho3  1  0.002811  0.502578  0.750283  1
  Tm  Tm4  1  0.499979  0.500021  0.500000  1
  Tm  Tm5  1  0.000006  0.999994  0.000000  1
  Si  Si6  1  0.795753  0.204247  0.500000  1
  Si  Si7  1  0.295107  0.704893  0.000000  1
  Si  Si8  1  0.204888  0.795112  0.500000  1
  Si  Si9  1  0.704993  0.295007  0.000000  1
  Si  Si10  1  0.332357  0.332496  0.833478  1
  Si  Si11  1  0.667504  0.667643  0.166522  1
  Si  Si12  1  0.167043  0.166829  0.332695  1
  Si  Si13  1  0.833171  0.832957  0.667305  1
  Si  Si14  1  0.122298  0.888191  0.729123  1
  Si  Si15  1  0.111809  0.877702  0.270877  1
  Si  Si16  1  0.611863  0.377889  0.227412  1
  Si  Si17  1  0.622111  0.388137  0.772588  1
  Si  Si18  1  0.877150  0.111085  0.270462  1
  Si  Si19  1  0.888915  0.122850  0.729538  1
  Si  Si20  1  0.388011  0.622473  0.771562  1
  Si  Si21  1  0.377527  0.611989  0.228438  1
  Si  Si22  1  0.344416  0.111133  0.505681  1
  Si  Si23  1  0.888867  0.655584  0.494319  1
  Si  Si24  1  0.387501  0.153863  0.005299  1
  Si  Si25  1  0.846137  0.612499  0.994701  1
  Si  Si26  1  0.653746  0.887493  0.493578  1
  Si  Si27  1  0.112507  0.346254  0.506422  1
  Si  Si28  1  0.612288  0.845881  0.994636  1
  Si  Si29  1  0.154119  0.387712  0.005364  1
  Os  Os30  1  0.669332  0.330668  0.500000  1
  Ru  Ru31  1  0.169395  0.830605  0.000000  1
  Ru  Ru32  1  0.330617  0.669383  0.500000  1
  Ru  Ru33  1  0.830615  0.169385  0.000000  1
  Ru  Ru34  1  0.127450  0.127714  0.627219  1
  Ru  Ru35  1  0.872286  0.872550  0.372781  1
  Ru  Ru36  1  0.373635  0.373544  0.127986  1
  Ru  Ru37  1  0.626456  0.626365  0.872014  1
