# generated using pymatgen
data_Ho2Er6Ti10Nb2Si15As
_symmetry_space_group_name_H-M   'P 1'
_cell_length_a   7.04152785
_cell_length_b   7.03456369
_cell_length_c   12.93093300
_cell_angle_alpha   89.97598885
_cell_angle_beta   89.82499259
_cell_angle_gamma   89.93112704
_symmetry_Int_Tables_number   1
_chemical_formula_structural   Ho2Er6Ti10Nb2Si15As
_chemical_formula_sum   'Ho2 Er6 Ti10 Nb2 Si15 As1'
_cell_volume   640.51831349
_cell_formula_units_Z   1
loop_
 _symmetry_equiv_pos_site_id
 _symmetry_equiv_pos_as_xyz
  1  'x, y, z'
loop_
 _atom_site_type_symbol
 _atom_site_label
 _atom_site_symmetry_multiplicity
 _atom_site_fract_x
 _atom_site_fract_y
 _atom_site_fract_z
 _atom_site_occupancy
  Ho  Ho0  1  0.341346  0.001004  0.465946  1
  Ho  Ho1  1  0.497940  0.841865  0.717481  1
  Er  Er2  1  0.501205  0.158432  0.216502  1
  Er  Er3  1  0.840181  0.497901  0.282946  1
  Er  Er4  1  0.158886  0.500665  0.783447  1
  Er  Er5  1  0.661032  0.996120  0.967887  1
  Er  Er6  1  0.998503  0.343317  0.531775  1
  Er  Er7  1  0.999385  0.658791  0.033426  1
  Ti  Ti8  1  0.824204  0.174174  0.750093  1
  Ti  Ti9  1  0.672459  0.672787  0.500142  1
  Ti  Ti10  1  0.155535  0.009870  0.875408  1
  Ti  Ti11  1  0.491344  0.652185  0.124818  1
  Ti  Ti12  1  0.508292  0.347513  0.626270  1
  Ti  Ti13  1  0.654652  0.495112  0.876208  1
  Ti  Ti14  1  0.345736  0.507886  0.374305  1
  Ti  Ti15  1  0.847403  0.992290  0.374526  1
  Ti  Ti16  1  0.008507  0.151802  0.125027  1
  Ti  Ti17  1  0.989925  0.843844  0.623668  1
  Nb  Nb18  1  0.326571  0.326964  0.999834  1
  Nb  Nb19  1  0.172813  0.827032  0.250009  1
  Si  Si20  1  0.369158  0.704342  0.932867  1
  Si  Si21  1  0.629428  0.297806  0.433934  1
  Si  Si22  1  0.704380  0.369341  0.067037  1
  Si  Si23  1  0.296677  0.629897  0.566619  1
  Si  Si24  1  0.796100  0.868932  0.183606  1
  Si  Si25  1  0.130087  0.204114  0.316918  1
  Si  Si26  1  0.870923  0.797875  0.816079  1
  Si  Si27  1  0.293194  0.953025  0.063608  1
  Si  Si28  1  0.547459  0.790791  0.314587  1
  Si  Si29  1  0.463624  0.209714  0.818369  1
  Si  Si30  1  0.791646  0.546283  0.685272  1
  Si  Si31  1  0.207173  0.452836  0.186357  1
  Si  Si32  1  0.708006  0.046407  0.564381  1
  Si  Si33  1  0.953106  0.291642  0.935297  1
  Si  Si34  1  0.045039  0.707447  0.435769  1
  As  As35  1  0.198082  0.129989  0.679583  1
