# generated using pymatgen
data_Lu2ThCo11B4
_symmetry_space_group_name_H-M   'P 1'
_cell_length_a   4.97409700
_cell_length_b   4.97244270
_cell_length_c   9.80436800
_cell_angle_alpha   90.00009002
_cell_angle_beta   90.00001195
_cell_angle_gamma   120.01214728
_symmetry_Int_Tables_number   1
_chemical_formula_structural   Lu2ThCo11B4
_chemical_formula_sum   'Lu2 Th1 Co11 B4'
_cell_volume   209.98153244
_cell_formula_units_Z   1
loop_
 _symmetry_equiv_pos_site_id
 _symmetry_equiv_pos_as_xyz
  1  'x, y, z'
loop_
 _atom_site_type_symbol
 _atom_site_label
 _atom_site_symmetry_multiplicity
 _atom_site_fract_x
 _atom_site_fract_y
 _atom_site_fract_z
 _atom_site_occupancy
  Lu  Lu0  1  0.999995  0.999993  0.344637  1
  Lu  Lu1  1  0.000005  0.000003  0.655332  1
  Th  Th2  1  0.999985  0.999996  0.999895  1
  Co  Co3  1  0.333903  0.667526  0.000018  1
  Co  Co4  1  0.666082  0.332492  0.000018  1
  Co  Co5  1  0.499998  0.000001  0.500015  1
  Co  Co6  1  0.499996  0.499998  0.500023  1
  Co  Co7  1  0.999993  0.499996  0.500019  1
  Co  Co8  1  0.500012  0.000037  0.204311  1
  Co  Co9  1  0.500009  0.499975  0.204117  1
  Co  Co10  1  0.999951  0.499976  0.204062  1
  Co  Co11  1  0.500019  0.000045  0.795652  1
  Co  Co12  1  0.500019  0.499982  0.795873  1
  Co  Co13  1  0.999957  0.499982  0.795939  1
  B  B14  1  0.333190  0.666457  0.350972  1
  B  B15  1  0.666793  0.333539  0.350940  1
  B  B16  1  0.666788  0.333512  0.649105  1
  B  B17  1  0.333203  0.666489  0.649074  1
