# generated using pymatgen
data_TmTh2(Si3Pd10)2
_symmetry_space_group_name_H-M   'P 1'
_cell_length_a   8.75866887
_cell_length_b   8.75866934
_cell_length_c   8.75866900
_cell_angle_alpha   60.00000507
_cell_angle_beta   60.00000330
_cell_angle_gamma   60.00000397
_symmetry_Int_Tables_number   1
_chemical_formula_structural   TmTh2(Si3Pd10)2
_chemical_formula_sum   'Tm1 Th2 Si6 Pd20'
_cell_volume   475.11571544
_cell_formula_units_Z   1
loop_
 _symmetry_equiv_pos_site_id
 _symmetry_equiv_pos_as_xyz
  1  'x, y, z'
loop_
 _atom_site_type_symbol
 _atom_site_label
 _atom_site_symmetry_multiplicity
 _atom_site_fract_x
 _atom_site_fract_y
 _atom_site_fract_z
 _atom_site_occupancy
  Tm  Tm0  1  0.000000  0.000000  0.000000  1
  Th  Th1  1  0.250000  0.250000  0.250000  1
  Th  Th2  1  0.750000  0.750000  0.750000  1
  Si  Si3  1  0.734644  0.265356  0.265356  1
  Si  Si4  1  0.265356  0.734644  0.734644  1
  Si  Si5  1  0.265356  0.734644  0.265356  1
  Si  Si6  1  0.734644  0.265356  0.734644  1
  Si  Si7  1  0.265356  0.265356  0.734644  1
  Si  Si8  1  0.734644  0.734644  0.265356  1
  Pd  Pd9  1  0.345992  0.000000  0.000000  1
  Pd  Pd10  1  0.654008  0.000000  0.000000  1
  Pd  Pd11  1  0.000000  0.345992  0.654008  1
  Pd  Pd12  1  0.000000  0.654008  0.345992  1
  Pd  Pd13  1  0.000000  0.345992  0.000000  1
  Pd  Pd14  1  0.654008  0.000000  0.345992  1
  Pd  Pd15  1  0.000000  0.654008  0.000000  1
  Pd  Pd16  1  0.345992  0.000000  0.654008  1
  Pd  Pd17  1  0.000000  0.000000  0.345992  1
  Pd  Pd18  1  0.000000  0.000000  0.654008  1
  Pd  Pd19  1  0.654008  0.345992  0.000000  1
  Pd  Pd20  1  0.345992  0.654008  0.000000  1
  Pd  Pd21  1  0.384225  0.384225  0.384225  1
  Pd  Pd22  1  0.615775  0.615775  0.615775  1
  Pd  Pd23  1  0.384225  0.384225  0.847327  1
  Pd  Pd24  1  0.384225  0.847327  0.384225  1
  Pd  Pd25  1  0.615775  0.615775  0.152673  1
  Pd  Pd26  1  0.615775  0.152673  0.615775  1
  Pd  Pd27  1  0.847327  0.384225  0.384225  1
  Pd  Pd28  1  0.152673  0.615775  0.615775  1
