# generated using pymatgen
data_Ho8Tm12Si15Os
_symmetry_space_group_name_H-M   'P 1'
_cell_length_a   7.28928028
_cell_length_b   7.68520095
_cell_length_c   14.41345800
_cell_angle_alpha   90.00000000
_cell_angle_beta   90.00000000
_cell_angle_gamma   90.15079508
_symmetry_Int_Tables_number   1
_chemical_formula_structural   Ho8Tm12Si15Os
_chemical_formula_sum   'Ho8 Tm12 Si15 Os1'
_cell_volume   807.43312082
_cell_formula_units_Z   1
loop_
 _symmetry_equiv_pos_site_id
 _symmetry_equiv_pos_as_xyz
  1  'x, y, z'
loop_
 _atom_site_type_symbol
 _atom_site_label
 _atom_site_symmetry_multiplicity
 _atom_site_fract_x
 _atom_site_fract_y
 _atom_site_fract_z
 _atom_site_occupancy
  Ho  Ho0  1  0.016150  0.183243  0.096790  1
  Ho  Ho1  1  0.987073  0.827762  0.903483  1
  Ho  Ho2  1  0.484347  0.679869  0.904428  1
  Ho  Ho3  1  0.987073  0.827762  0.596517  1
  Ho  Ho4  1  0.515420  0.319498  0.096553  1
  Ho  Ho5  1  0.016150  0.183243  0.403210  1
  Ho  Ho6  1  0.515420  0.319498  0.403447  1
  Ho  Ho7  1  0.484347  0.679869  0.595572  1
  Tm  Tm8  1  0.156091  0.509126  0.750000  1
  Tm  Tm9  1  0.838374  0.488227  0.250000  1
  Tm  Tm10  1  0.339598  0.014071  0.250000  1
  Tm  Tm11  1  0.667590  0.988930  0.750000  1
  Tm  Tm12  1  0.315475  0.174039  0.626587  1
  Tm  Tm13  1  0.674804  0.823567  0.375136  1
  Tm  Tm14  1  0.173538  0.680298  0.375559  1
  Tm  Tm15  1  0.674804  0.823567  0.124864  1
  Tm  Tm16  1  0.836975  0.314186  0.626369  1
  Tm  Tm17  1  0.315475  0.174039  0.873413  1
  Tm  Tm18  1  0.836975  0.314186  0.873631  1
  Tm  Tm19  1  0.173538  0.680298  0.124441  1
  Si  Si20  1  0.969646  0.894434  0.250000  1
  Si  Si21  1  0.470384  0.606809  0.250000  1
  Si  Si22  1  0.529681  0.397734  0.750000  1
  Si  Si23  1  0.280501  0.864252  0.750000  1
  Si  Si24  1  0.717783  0.132342  0.250000  1
  Si  Si25  1  0.219313  0.369822  0.250000  1
  Si  Si26  1  0.771115  0.625424  0.750000  1
  Si  Si27  1  0.159268  0.472296  0.537109  1
  Si  Si28  1  0.844935  0.532228  0.462235  1
  Si  Si29  1  0.345345  0.969616  0.460738  1
  Si  Si30  1  0.844935  0.532228  0.037765  1
  Si  Si31  1  0.652084  0.030822  0.537625  1
  Si  Si32  1  0.159268  0.472296  0.962891  1
  Si  Si33  1  0.652084  0.030822  0.962375  1
  Si  Si34  1  0.345345  0.969616  0.039262  1
  Os  Os35  1  0.029097  0.093983  0.750000  1
