# generated using pymatgen
data_Tb7TmSe12
_symmetry_space_group_name_H-M   'P 1'
_cell_length_a   13.63882213
_cell_length_b   13.01985826
_cell_length_c   7.13163112
_cell_angle_alpha   79.33765404
_cell_angle_beta   69.74079061
_cell_angle_gamma   30.76923105
_symmetry_Int_Tables_number   1
_chemical_formula_structural   Tb7TmSe12
_chemical_formula_sum   'Tb7 Tm1 Se12'
_cell_volume   590.85314577
_cell_formula_units_Z   1
loop_
 _symmetry_equiv_pos_site_id
 _symmetry_equiv_pos_as_xyz
  1  'x, y, z'
loop_
 _atom_site_type_symbol
 _atom_site_label
 _atom_site_symmetry_multiplicity
 _atom_site_fract_x
 _atom_site_fract_y
 _atom_site_fract_z
 _atom_site_occupancy
  Tb  Tb0  1  0.333734  0.333734  0.166266  1
  Tb  Tb1  1  0.166306  0.166306  0.333694  1
  Tb  Tb2  1  0.915950  0.915950  0.084050  1
  Tb  Tb3  1  0.084251  0.084251  0.915749  1
  Tb  Tb4  1  0.997406  0.997406  0.502594  1
  Tb  Tb5  1  0.502665  0.502665  0.997335  1
  Tb  Tb6  1  0.252529  0.252529  0.747471  1
  Tm  Tm7  1  0.747755  0.747755  0.252245  1
  Se  Se8  1  0.005067  0.494856  0.490447  1
  Se  Se9  1  0.494856  0.005067  0.009631  1
  Se  Se10  1  0.242340  0.757705  0.757636  1
  Se  Se11  1  0.757705  0.242340  0.242319  1
  Se  Se12  1  0.663950  0.173899  0.841690  1
  Se  Se13  1  0.841638  0.320510  0.664269  1
  Se  Se14  1  0.320510  0.841638  0.173582  1
  Se  Se15  1  0.173899  0.663950  0.320462  1
  Se  Se16  1  0.587949  0.072072  0.406840  1
  Se  Se17  1  0.412136  0.927281  0.582551  1
  Se  Se18  1  0.927281  0.412136  0.078031  1
  Se  Se19  1  0.072072  0.587949  0.933139  1
