# generated using pymatgen
data_LiTi4(NbB4)5
_symmetry_space_group_name_H-M   'P 1'
_cell_length_a   6.14311468
_cell_length_b   6.96458821
_cell_length_c   7.27366207
_cell_angle_alpha   93.26330112
_cell_angle_beta   102.19539469
_cell_angle_gamma   116.13219808
_symmetry_Int_Tables_number   1
_chemical_formula_structural   LiTi4(NbB4)5
_chemical_formula_sum   'Li1 Ti4 Nb5 B20'
_cell_volume   269.06527088
_cell_formula_units_Z   1
loop_
 _symmetry_equiv_pos_site_id
 _symmetry_equiv_pos_as_xyz
  1  'x, y, z'
loop_
 _atom_site_type_symbol
 _atom_site_label
 _atom_site_symmetry_multiplicity
 _atom_site_fract_x
 _atom_site_fract_y
 _atom_site_fract_z
 _atom_site_occupancy
  Li  Li0  1  0.000202  0.000367  0.001844  1
  Ti  Ti1  1  0.499436  0.799979  0.399132  1
  Ti  Ti2  1  0.000725  0.397429  0.200238  1
  Ti  Ti3  1  0.500607  0.200602  0.599886  1
  Ti  Ti4  1  0.998470  0.797785  0.399406  1
  Nb  Nb5  1  0.499365  0.998966  0.999634  1
  Nb  Nb6  1  0.502668  0.600784  0.801016  1
  Nb  Nb7  1  0.498090  0.399066  0.199657  1
  Nb  Nb8  1  0.001788  0.203529  0.600799  1
  Nb  Nb9  1  0.998952  0.602208  0.799657  1
  B  B10  1  0.330831  0.229925  0.867576  1
  B  B11  1  0.332261  0.632236  0.072824  1
  B  B12  1  0.163312  0.361447  0.939005  1
  B  B13  1  0.330641  0.029877  0.271118  1
  B  B14  1  0.165491  0.765892  0.137897  1
  B  B15  1  0.834145  0.230565  0.870904  1
  B  B16  1  0.164856  0.164187  0.331358  1
  B  B17  1  0.837098  0.635963  0.069314  1
  B  B18  1  0.332882  0.434005  0.463024  1
  B  B19  1  0.668536  0.366324  0.933260  1
  B  B20  1  0.835685  0.032984  0.266163  1
  B  B21  1  0.671059  0.769007  0.135991  1
  B  B22  1  0.333901  0.838528  0.658144  1
  B  B23  1  0.167305  0.571281  0.524931  1
  B  B24  1  0.665343  0.163452  0.335552  1
  B  B25  1  0.833265  0.434190  0.463419  1
  B  B26  1  0.165895  0.967743  0.731276  1
  B  B27  1  0.833242  0.835107  0.664620  1
  B  B28  1  0.666825  0.568758  0.530892  1
  B  B29  1  0.667125  0.967815  0.731465  1
