# generated using pymatgen
data_Tb7Tm3(In3Cl)2
_symmetry_space_group_name_H-M   'P 1'
_cell_length_a   9.12272600
_cell_length_b   9.12272783
_cell_length_c   6.68558900
_cell_angle_alpha   90.00000000
_cell_angle_beta   90.00000000
_cell_angle_gamma   120.00000063
_symmetry_Int_Tables_number   1
_chemical_formula_structural   Tb7Tm3(In3Cl)2
_chemical_formula_sum   'Tb7 Tm3 In6 Cl2'
_cell_volume   481.85864237
_cell_formula_units_Z   1
loop_
 _symmetry_equiv_pos_site_id
 _symmetry_equiv_pos_as_xyz
  1  'x, y, z'
loop_
 _atom_site_type_symbol
 _atom_site_label
 _atom_site_symmetry_multiplicity
 _atom_site_fract_x
 _atom_site_fract_y
 _atom_site_fract_z
 _atom_site_occupancy
  Tb  Tb0  1  0.741268  0.741875  0.250528  1
  Tb  Tb1  1  0.000608  0.741875  0.749472  1
  Tb  Tb2  1  0.741268  0.999392  0.749472  1
  Tb  Tb3  1  0.258125  0.258732  0.749472  1
  Tb  Tb4  1  0.000608  0.258732  0.250528  1
  Tb  Tb5  1  0.258125  0.999392  0.250528  1
  Tb  Tb6  1  0.666667  0.333333  0.000000  1
  Tm  Tm7  1  0.333333  0.666667  0.500000  1
  Tm  Tm8  1  0.666667  0.333333  0.500000  1
  Tm  Tm9  1  0.333333  0.666667  0.000000  1
  In  In10  1  0.395274  0.998941  0.749472  1
  In  In11  1  0.001059  0.604726  0.250528  1
  In  In12  1  0.603667  0.998941  0.250528  1
  In  In13  1  0.001059  0.396333  0.749472  1
  In  In14  1  0.395274  0.396333  0.250528  1
  In  In15  1  0.603667  0.604726  0.749472  1
  Cl  Cl16  1  0.000000  0.000000  0.500000  1
  Cl  Cl17  1  0.000000  0.000000  0.000000  1
