# generated using pymatgen
data_Ce2HoMg(InRu)2
_symmetry_space_group_name_H-M   'P 1'
_cell_length_a   8.27356858
_cell_length_b   8.27356731
_cell_length_c   4.94664145
_cell_angle_alpha   83.31763133
_cell_angle_beta   83.31762917
_cell_angle_gamma   34.42880953
_symmetry_Int_Tables_number   1
_chemical_formula_structural   Ce2HoMg(InRu)2
_chemical_formula_sum   'Ce2 Ho1 Mg1 In2 Ru2'
_cell_volume   190.01644249
_cell_formula_units_Z   1
loop_
 _symmetry_equiv_pos_site_id
 _symmetry_equiv_pos_as_xyz
  1  'x, y, z'
loop_
 _atom_site_type_symbol
 _atom_site_label
 _atom_site_symmetry_multiplicity
 _atom_site_fract_x
 _atom_site_fract_y
 _atom_site_fract_z
 _atom_site_occupancy
  Ce  Ce0  1  0.830389  0.830389  0.570305  1
  Ce  Ce1  1  0.171599  0.171599  0.425361  1
  Ho  Ho2  1  0.000322  0.000322  0.000431  1
  Mg  Mg3  1  0.369535  0.369535  0.045154  1
  In  In4  1  0.498523  0.498523  0.500316  1
  In  In5  1  0.627459  0.627459  0.955646  1
  Ru  Ru6  1  0.794570  0.794570  0.123065  1
  Ru  Ru7  1  0.207604  0.207604  0.879724  1
