# generated using pymatgen
data_Zr3Ag2OF12
_symmetry_space_group_name_H-M   'P 1'
_cell_length_a   10.32041314
_cell_length_b   10.32041281
_cell_length_c   10.32041311
_cell_angle_alpha   44.20270430
_cell_angle_beta   44.20270644
_cell_angle_gamma   44.20270392
_symmetry_Int_Tables_number   1
_chemical_formula_structural   Zr3Ag2OF12
_chemical_formula_sum   'Zr6 Ag4 O2 F24'
_cell_volume   485.51626480
_cell_formula_units_Z   2
loop_
 _symmetry_equiv_pos_site_id
 _symmetry_equiv_pos_as_xyz
  1  'x, y, z'
loop_
 _atom_site_type_symbol
 _atom_site_label
 _atom_site_symmetry_multiplicity
 _atom_site_fract_x
 _atom_site_fract_y
 _atom_site_fract_z
 _atom_site_occupancy
  Zr  Zr0  1  0.580609  0.580609  0.035779  1
  Zr  Zr1  1  0.035779  0.580609  0.580609  1
  Zr  Zr2  1  0.580609  0.035779  0.580609  1
  Zr  Zr3  1  0.419391  0.964221  0.419391  1
  Zr  Zr4  1  0.964221  0.419391  0.419391  1
  Zr  Zr5  1  0.419391  0.419391  0.964221  1
  Ag  Ag6  1  0.000000  0.000000  0.000000  1
  Ag  Ag7  1  0.500000  0.500000  0.500000  1
  Ag  Ag8  1  0.137043  0.137043  0.137043  1
  Ag  Ag9  1  0.862957  0.862957  0.862957  1
  O  O10  1  0.717162  0.717162  0.717162  1
  O  O11  1  0.282838  0.282838  0.282838  1
  F  F12  1  0.700427  0.700427  0.364280  1
  F  F13  1  0.364280  0.700427  0.700427  1
  F  F14  1  0.700427  0.364280  0.700427  1
  F  F15  1  0.299573  0.635720  0.299573  1
  F  F16  1  0.299573  0.299573  0.635720  1
  F  F17  1  0.635720  0.299573  0.299573  1
  F  F18  1  0.920231  0.920231  0.403027  1
  F  F19  1  0.403027  0.920231  0.920231  1
  F  F20  1  0.652395  0.347605  0.000000  1
  F  F21  1  0.347605  0.000000  0.652395  1
  F  F22  1  0.000000  0.652395  0.347605  1
  F  F23  1  0.347605  0.652395  0.000000  1
  F  F24  1  0.652395  0.000000  0.347605  1
  F  F25  1  0.000000  0.347605  0.652395  1
  F  F26  1  0.906546  0.339789  0.339789  1
  F  F27  1  0.339789  0.339789  0.906546  1
  F  F28  1  0.339789  0.906546  0.339789  1
  F  F29  1  0.660211  0.093454  0.660211  1
  F  F30  1  0.093454  0.660211  0.660211  1
  F  F31  1  0.660211  0.660211  0.093454  1
  F  F32  1  0.596973  0.079769  0.079769  1
  F  F33  1  0.079769  0.079769  0.596973  1
  F  F34  1  0.079769  0.596973  0.079769  1
  F  F35  1  0.920231  0.403027  0.920231  1
