# generated using pymatgen
data_Ba11Sr(SnAu)12
_symmetry_space_group_name_H-M   'P 1'
_cell_length_a   5.03580300
_cell_length_b   8.49674284
_cell_length_c   25.03847045
_cell_angle_alpha   90.09107343
_cell_angle_beta   90.00000000
_cell_angle_gamma   90.00000000
_symmetry_Int_Tables_number   1
_chemical_formula_structural   Ba11Sr(SnAu)12
_chemical_formula_sum   'Ba11 Sr1 Sn12 Au12'
_cell_volume   1071.34279476
_cell_formula_units_Z   1
loop_
 _symmetry_equiv_pos_site_id
 _symmetry_equiv_pos_as_xyz
  1  'x, y, z'
loop_
 _atom_site_type_symbol
 _atom_site_label
 _atom_site_symmetry_multiplicity
 _atom_site_fract_x
 _atom_site_fract_y
 _atom_site_fract_z
 _atom_site_occupancy
  Ba  Ba0  1  0.750000  0.208648  0.497339  1
  Ba  Ba1  1  0.250000  0.795197  0.166082  1
  Ba  Ba2  1  0.250000  0.791474  0.502440  1
  Ba  Ba3  1  0.250000  0.793638  0.833557  1
  Ba  Ba4  1  0.250000  0.706621  0.332727  1
  Ba  Ba5  1  0.750000  0.206630  0.834143  1
  Ba  Ba6  1  0.750000  0.289981  0.998126  1
  Ba  Ba7  1  0.750000  0.293171  0.666751  1
  Ba  Ba8  1  0.750000  0.293061  0.333060  1
  Ba  Ba9  1  0.250000  0.705987  0.666086  1
  Ba  Ba10  1  0.250000  0.709366  0.003226  1
  Sr  Sr11  1  0.750000  0.210097  0.166453  1
  Sn  Sn12  1  0.250000  0.414121  0.562669  1
  Sn  Sn13  1  0.250000  0.082806  0.395063  1
  Sn  Sn14  1  0.250000  0.087715  0.065336  1
  Sn  Sn15  1  0.250000  0.417942  0.895781  1
  Sn  Sn16  1  0.750000  0.577676  0.105234  1
  Sn  Sn17  1  0.250000  0.418867  0.771673  1
  Sn  Sn18  1  0.750000  0.576972  0.227694  1
  Sn  Sn19  1  0.750000  0.585874  0.436915  1
  Sn  Sn20  1  0.750000  0.914344  0.937792  1
  Sn  Sn21  1  0.250000  0.081389  0.269599  1
  Sn  Sn22  1  0.750000  0.917553  0.604486  1
  Sn  Sn23  1  0.750000  0.918804  0.728450  1
  Au  Au24  1  0.250000  0.086662  0.593807  1
  Au  Au25  1  0.250000  0.086097  0.739835  1
  Au  Au26  1  0.750000  0.587407  0.906570  1
  Au  Au27  1  0.750000  0.913001  0.405947  1
  Au  Au28  1  0.750000  0.581112  0.566702  1
  Au  Au29  1  0.750000  0.586207  0.760328  1
  Au  Au30  1  0.250000  0.418522  0.433329  1
  Au  Au31  1  0.250000  0.409206  0.237074  1
  Au  Au32  1  0.750000  0.923887  0.068509  1
  Au  Au33  1  0.250000  0.410076  0.096288  1
  Au  Au34  1  0.250000  0.081731  0.932907  1
  Au  Au35  1  0.750000  0.918157  0.258021  1
