# generated using pymatgen
data_ErTmFe2Co10P7
_symmetry_space_group_name_H-M   'P 1'
_cell_length_a   8.98430300
_cell_length_b   8.98010136
_cell_length_c   3.60800700
_cell_angle_alpha   90.00000000
_cell_angle_beta   90.00000000
_cell_angle_gamma   119.95738796
_symmetry_Int_Tables_number   1
_chemical_formula_structural   ErTmFe2Co10P7
_chemical_formula_sum   'Er1 Tm1 Fe2 Co10 P7'
_cell_volume   252.20282817
_cell_formula_units_Z   1
loop_
 _symmetry_equiv_pos_site_id
 _symmetry_equiv_pos_as_xyz
  1  'x, y, z'
loop_
 _atom_site_type_symbol
 _atom_site_label
 _atom_site_symmetry_multiplicity
 _atom_site_fract_x
 _atom_site_fract_y
 _atom_site_fract_z
 _atom_site_occupancy
  Er  Er0  1  0.333866  0.666907  0.500000  1
  Tm  Tm1  1  0.000430  0.000491  0.000000  1
  Fe  Fe2  1  0.542595  0.427328  0.500000  1
  Fe  Fe3  1  0.572214  0.113686  0.500000  1
  Co  Co4  1  0.097545  0.704154  0.000000  1
  Co  Co5  1  0.295716  0.393917  0.000000  1
  Co  Co6  1  0.606722  0.902125  0.000000  1
  Co  Co7  1  0.824730  0.216945  0.000000  1
  Co  Co8  1  0.784829  0.607308  0.000000  1
  Co  Co9  1  0.390566  0.174999  0.000000  1
  Co  Co10  1  0.051076  0.283027  0.500000  1
  Co  Co11  1  0.717675  0.768441  0.500000  1
  Co  Co12  1  0.230792  0.948045  0.500000  1
  Co  Co13  1  0.884748  0.459044  0.500000  1
  P  P14  1  0.077660  0.446895  0.000000  1
  P  P15  1  0.553276  0.630190  0.000000  1
  P  P16  1  0.370280  0.922999  0.000000  1
  P  P17  1  0.780256  0.043722  0.500000  1
  P  P18  1  0.956548  0.738152  0.500000  1
  P  P19  1  0.263301  0.219965  0.500000  1
  P  P20  1  0.665174  0.331655  0.000000  1
