# generated using pymatgen
data_Tm3Lu3Co16(P6Ru)2
_symmetry_space_group_name_H-M   'P 1'
_cell_length_a   3.67805800
_cell_length_b   10.47054902
_cell_length_c   12.17066000
_cell_angle_alpha   89.99582000
_cell_angle_beta   90.00000000
_cell_angle_gamma   90.00000000
_symmetry_Int_Tables_number   1
_chemical_formula_structural   Tm3Lu3Co16(P6Ru)2
_chemical_formula_sum   'Tm3 Lu3 Co16 P12 Ru2'
_cell_volume   468.70777419
_cell_formula_units_Z   1
loop_
 _symmetry_equiv_pos_site_id
 _symmetry_equiv_pos_as_xyz
  1  'x, y, z'
loop_
 _atom_site_type_symbol
 _atom_site_label
 _atom_site_symmetry_multiplicity
 _atom_site_fract_x
 _atom_site_fract_y
 _atom_site_fract_z
 _atom_site_occupancy
  Tm  Tm0  1  0.000000  0.500131  0.525532  1
  Tm  Tm1  1  0.500000  0.000045  0.474154  1
  Tm  Tm2  1  0.000000  0.317798  0.792924  1
  Lu  Lu3  1  0.500000  0.817911  0.207265  1
  Lu  Lu4  1  0.500000  0.181978  0.207073  1
  Lu  Lu5  1  0.000000  0.682219  0.792935  1
  Co  Co6  1  0.500000  0.500443  0.703920  1
  Co  Co7  1  0.000000  0.999974  0.295873  1
  Co  Co8  1  0.000000  0.500420  0.986601  1
  Co  Co9  1  0.500000  0.999511  0.013912  1
  Co  Co10  1  0.500000  0.332188  0.990616  1
  Co  Co11  1  0.500000  0.667960  0.990153  1
  Co  Co12  1  0.000000  0.167558  0.010197  1
  Co  Co13  1  0.000000  0.832166  0.010162  1
  Co  Co14  1  0.500000  0.297441  0.430930  1
  Co  Co15  1  0.500000  0.702802  0.431322  1
  Co  Co16  1  0.000000  0.202715  0.568151  1
  Co  Co17  1  0.000000  0.797361  0.568614  1
  Co  Co18  1  0.500000  0.877706  0.707332  1
  Co  Co19  1  0.500000  0.121546  0.706944  1
  Co  Co20  1  0.000000  0.622186  0.292821  1
  Co  Co21  1  0.000000  0.377911  0.292484  1
  P  P22  1  0.500000  0.500460  0.881092  1
  P  P23  1  0.000000  0.999743  0.119306  1
  P  P24  1  0.500000  0.500058  0.352052  1
  P  P25  1  0.000000  0.000091  0.647892  1
  P  P26  1  0.500000  0.312756  0.616427  1
  P  P27  1  0.500000  0.687352  0.617090  1
  P  P28  1  0.000000  0.187235  0.382550  1
  P  P29  1  0.000000  0.812814  0.382859  1
  P  P30  1  0.500000  0.845540  0.892019  1
  P  P31  1  0.500000  0.153980  0.892414  1
  P  P32  1  0.000000  0.654568  0.108255  1
  P  P33  1  0.000000  0.345435  0.108006  1
  Ru  Ru34  1  0.500000  0.500366  0.160173  1
  Ru  Ru35  1  0.000000  0.999633  0.839949  1
