# generated using pymatgen
data_TbLu3Zr4F28
_symmetry_space_group_name_H-M   'P 1'
_cell_length_a   5.68340087
_cell_length_b   8.99216517
_cell_length_c   12.10497300
_cell_angle_alpha   62.55379617
_cell_angle_beta   89.96829447
_cell_angle_gamma   90.03572320
_symmetry_Int_Tables_number   1
_chemical_formula_structural   TbLu3Zr4F28
_chemical_formula_sum   'Tb1 Lu3 Zr4 F28'
_cell_volume   549.00596341
_cell_formula_units_Z   1
loop_
 _symmetry_equiv_pos_site_id
 _symmetry_equiv_pos_as_xyz
  1  'x, y, z'
loop_
 _atom_site_type_symbol
 _atom_site_label
 _atom_site_symmetry_multiplicity
 _atom_site_fract_x
 _atom_site_fract_y
 _atom_site_fract_z
 _atom_site_occupancy
  Tb  Tb0  1  0.756736  0.818080  0.766120  1
  Lu  Lu1  1  0.743776  0.818877  0.265746  1
  Lu  Lu2  1  0.243806  0.182602  0.234357  1
  Lu  Lu3  1  0.257400  0.185647  0.733757  1
  Zr  Zr4  1  0.743848  0.277002  0.453137  1
  Zr  Zr5  1  0.244466  0.725126  0.048484  1
  Zr  Zr6  1  0.255193  0.725238  0.542176  1
  Zr  Zr7  1  0.755615  0.271739  0.956047  1
  F  F8  1  0.466085  0.709635  0.922296  1
  F  F9  1  0.969413  0.288970  0.579311  1
  F  F10  1  0.528952  0.287315  0.080544  1
  F  F11  1  0.028725  0.710869  0.417679  1
  F  F12  1  0.449977  0.280082  0.551340  1
  F  F13  1  0.950555  0.717805  0.953113  1
  F  F14  1  0.551548  0.721033  0.446349  1
  F  F15  1  0.049321  0.277715  0.053413  1
  F  F16  1  0.769538  0.524942  0.858077  1
  F  F17  1  0.268152  0.470932  0.641700  1
  F  F18  1  0.233783  0.470520  0.144731  1
  F  F19  1  0.732254  0.530385  0.355493  1
  F  F20  1  0.759504  0.018285  0.060531  1
  F  F21  1  0.258953  0.979353  0.439068  1
  F  F22  1  0.240024  0.978354  0.941251  1
  F  F23  1  0.739752  0.023082  0.556490  1
  F  F24  1  0.981675  0.732492  0.648195  1
  F  F25  1  0.481787  0.265507  0.849004  1
  F  F26  1  0.015589  0.264900  0.346874  1
  F  F27  1  0.517279  0.735330  0.154145  1
  F  F28  1  0.029371  0.747598  0.176624  1
  F  F29  1  0.527862  0.253190  0.325196  1
  F  F30  1  0.971037  0.251015  0.826600  1
  F  F31  1  0.464588  0.745004  0.672835  1
  F  F32  1  0.433414  0.976077  0.235893  1
  F  F33  1  0.933805  0.024882  0.264228  1
  F  F34  1  0.567788  0.032745  0.765045  1
  F  F35  1  0.078426  0.977671  0.734150  1
