# generated using pymatgen
data_Tm2Co9CuP6
_symmetry_space_group_name_H-M   'P 1'
_cell_length_a   3.65141000
_cell_length_b   10.21677000
_cell_length_c   11.76814300
_cell_angle_alpha   90.00000000
_cell_angle_beta   90.00000000
_cell_angle_gamma   90.00000000
_symmetry_Int_Tables_number   1
_chemical_formula_structural   Tm2Co9CuP6
_chemical_formula_sum   'Tm4 Co18 Cu2 P12'
_cell_volume   439.01782551
_cell_formula_units_Z   2
loop_
 _symmetry_equiv_pos_site_id
 _symmetry_equiv_pos_as_xyz
  1  'x, y, z'
loop_
 _atom_site_type_symbol
 _atom_site_label
 _atom_site_symmetry_multiplicity
 _atom_site_fract_x
 _atom_site_fract_y
 _atom_site_fract_z
 _atom_site_occupancy
  Tm  Tm0  1  0.250000  0.579165  0.702283  1
  Tm  Tm1  1  0.250000  0.920835  0.202283  1
  Tm  Tm2  1  0.750000  0.418360  0.296803  1
  Tm  Tm3  1  0.750000  0.081640  0.796803  1
  Co  Co4  1  0.750000  0.286476  0.008500  1
  Co  Co5  1  0.750000  0.213524  0.508500  1
  Co  Co6  1  0.250000  0.405414  0.486495  1
  Co  Co7  1  0.250000  0.094586  0.986495  1
  Co  Co8  1  0.750000  0.592246  0.515783  1
  Co  Co9  1  0.750000  0.907754  0.015783  1
  Co  Co10  1  0.250000  0.222814  0.175702  1
  Co  Co11  1  0.250000  0.277186  0.675702  1
  Co  Co12  1  0.750000  0.778124  0.825608  1
  Co  Co13  1  0.750000  0.721876  0.325608  1
  Co  Co14  1  0.250000  0.882337  0.698972  1
  Co  Co15  1  0.250000  0.617663  0.198972  1
  Co  Co16  1  0.750000  0.119858  0.299901  1
  Co  Co17  1  0.750000  0.380142  0.799901  1
  Co  Co18  1  0.250000  0.465216  0.931337  1
  Co  Co19  1  0.250000  0.034784  0.431337  1
  Co  Co20  1  0.750000  0.534384  0.066898  1
  Co  Co21  1  0.750000  0.965616  0.566898  1
  Cu  Cu22  1  0.250000  0.711117  0.990513  1
  Cu  Cu23  1  0.250000  0.788883  0.490513  1
  P  P24  1  0.250000  0.419987  0.112569  1
  P  P25  1  0.250000  0.080013  0.612569  1
  P  P26  1  0.750000  0.576684  0.883422  1
  P  P27  1  0.750000  0.923316  0.383422  1
  P  P28  1  0.250000  0.268020  0.867987  1
  P  P29  1  0.250000  0.231980  0.367987  1
  P  P30  1  0.750000  0.731140  0.138420  1
  P  P31  1  0.750000  0.768860  0.638420  1
  P  P32  1  0.250000  0.598120  0.390696  1
  P  P33  1  0.250000  0.901880  0.890696  1
  P  P34  1  0.750000  0.397263  0.608113  1
  P  P35  1  0.750000  0.102737  0.108113  1
