# generated using pymatgen
data_Er4SbRh3O14
_symmetry_space_group_name_H-M   'P 1'
_cell_length_a   7.27786736
_cell_length_b   7.27786694
_cell_length_c   7.27786911
_cell_angle_alpha   59.10933980
_cell_angle_beta   59.10933924
_cell_angle_gamma   59.10934289
_symmetry_Int_Tables_number   1
_chemical_formula_structural   Er4SbRh3O14
_chemical_formula_sum   'Er4 Sb1 Rh3 O14'
_cell_volume   267.04787016
_cell_formula_units_Z   1
loop_
 _symmetry_equiv_pos_site_id
 _symmetry_equiv_pos_as_xyz
  1  'x, y, z'
loop_
 _atom_site_type_symbol
 _atom_site_label
 _atom_site_symmetry_multiplicity
 _atom_site_fract_x
 _atom_site_fract_y
 _atom_site_fract_z
 _atom_site_occupancy
  Er  Er0  1  0.125000  0.625000  0.125000  1
  Er  Er1  1  0.125000  0.125000  0.625000  1
  Er  Er2  1  0.625000  0.125000  0.125000  1
  Er  Er3  1  0.125000  0.125000  0.125000  1
  Sb  Sb4  1  0.625000  0.625000  0.625000  1
  Rh  Rh5  1  0.125000  0.625000  0.625000  1
  Rh  Rh6  1  0.625000  0.125000  0.625000  1
  Rh  Rh7  1  0.625000  0.625000  0.125000  1
  O  O8  1  0.288320  0.713197  0.713197  1
  O  O9  1  0.540870  0.964586  0.964586  1
  O  O10  1  0.713197  0.288320  0.713197  1
  O  O11  1  0.285414  0.285414  0.709130  1
  O  O12  1  0.713197  0.713197  0.288320  1
  O  O13  1  0.000421  0.000421  0.000421  1
  O  O14  1  0.285414  0.709130  0.285414  1
  O  O15  1  0.964586  0.540870  0.964586  1
  O  O16  1  0.964586  0.964586  0.540870  1
  O  O17  1  0.536803  0.536803  0.961680  1
  O  O18  1  0.249579  0.249579  0.249579  1
  O  O19  1  0.536803  0.961680  0.536803  1
  O  O20  1  0.709130  0.285414  0.285414  1
  O  O21  1  0.961680  0.536803  0.536803  1
