# generated using pymatgen
data_Ce4H9N2
_symmetry_space_group_name_H-M   'P 1'
_cell_length_a   6.56230442
_cell_length_b   6.55483207
_cell_length_c   6.55483178
_cell_angle_alpha   130.55457673
_cell_angle_beta   130.23213044
_cell_angle_gamma   72.75511537
_symmetry_Int_Tables_number   1
_chemical_formula_structural   Ce4H9N2
_chemical_formula_sum   'Ce4 H9 N2'
_cell_volume   159.79830529
_cell_formula_units_Z   1
loop_
 _symmetry_equiv_pos_site_id
 _symmetry_equiv_pos_as_xyz
  1  'x, y, z'
loop_
 _atom_site_type_symbol
 _atom_site_label
 _atom_site_symmetry_multiplicity
 _atom_site_fract_x
 _atom_site_fract_y
 _atom_site_fract_z
 _atom_site_occupancy
  Ce  Ce0  1  0.500000  0.001354  0.501354  1
  Ce  Ce1  1  0.268474  0.252493  0.004874  1
  Ce  Ce2  1  0.000000  0.471523  0.471523  1
  Ce  Ce3  1  0.731526  0.736400  0.984019  1
  H  H4  1  0.106995  0.664064  0.994019  1
  H  H5  1  0.893005  0.887024  0.557069  1
  H  H6  1  0.877038  0.358319  0.987172  1
  H  H7  1  0.641264  0.625117  0.516125  1
  H  H8  1  0.358736  0.874860  0.983853  1
  H  H9  1  0.122962  0.110134  0.481281  1
  H  H10  1  0.828761  0.254440  0.575013  1
  H  H11  1  0.500000  0.567151  0.067151  1
  H  H12  1  0.171239  0.746252  0.425679  1
  N  N13  1  0.644787  0.105105  0.990549  1
  N  N14  1  0.355213  0.345762  0.460318  1
