# generated using pymatgen
data_Zr6Zn20GaPd3
_symmetry_space_group_name_H-M   'P 1'
_cell_length_a   8.83830319
_cell_length_b   8.83830330
_cell_length_c   8.78038200
_cell_angle_alpha   60.21655781
_cell_angle_beta   60.21655740
_cell_angle_gamma   59.56689798
_symmetry_Int_Tables_number   1
_chemical_formula_structural   Zr6Zn20GaPd3
_chemical_formula_sum   'Zr6 Zn20 Ga1 Pd3'
_cell_volume   484.95248492
_cell_formula_units_Z   1
loop_
 _symmetry_equiv_pos_site_id
 _symmetry_equiv_pos_as_xyz
  1  'x, y, z'
loop_
 _atom_site_type_symbol
 _atom_site_label
 _atom_site_symmetry_multiplicity
 _atom_site_fract_x
 _atom_site_fract_y
 _atom_site_fract_z
 _atom_site_occupancy
  Zr  Zr0  1  0.716087  0.283913  0.283913  1
  Zr  Zr1  1  0.283913  0.716087  0.716087  1
  Zr  Zr2  1  0.283913  0.716087  0.283913  1
  Zr  Zr3  1  0.716087  0.283913  0.716087  1
  Zr  Zr4  1  0.283857  0.283857  0.716143  1
  Zr  Zr5  1  0.716143  0.716143  0.283857  1
  Zn  Zn6  1  0.123296  0.123296  0.124870  1
  Zn  Zn7  1  0.876704  0.876704  0.875130  1
  Zn  Zn8  1  0.123296  0.123296  0.628538  1
  Zn  Zn9  1  0.124870  0.628538  0.123296  1
  Zn  Zn10  1  0.876704  0.876704  0.371462  1
  Zn  Zn11  1  0.875130  0.371462  0.876704  1
  Zn  Zn12  1  0.628538  0.124870  0.123296  1
  Zn  Zn13  1  0.371462  0.875130  0.876704  1
  Zn  Zn14  1  0.500000  0.000000  0.000000  1
  Zn  Zn15  1  0.000000  0.500000  0.500000  1
  Zn  Zn16  1  0.000000  0.500000  0.000000  1
  Zn  Zn17  1  0.500000  0.000000  0.500000  1
  Zn  Zn18  1  0.339958  0.339958  0.339709  1
  Zn  Zn19  1  0.660042  0.660042  0.660291  1
  Zn  Zn20  1  0.339958  0.339958  0.980377  1
  Zn  Zn21  1  0.339709  0.980377  0.339958  1
  Zn  Zn22  1  0.660042  0.660042  0.019623  1
  Zn  Zn23  1  0.660291  0.019623  0.660042  1
  Zn  Zn24  1  0.980377  0.339709  0.339958  1
  Zn  Zn25  1  0.019623  0.660291  0.660042  1
  Ga  Ga26  1  0.500000  0.500000  0.500000  1
  Pd  Pd27  1  0.000000  0.000000  0.500000  1
  Pd  Pd28  1  0.500000  0.500000  0.000000  1
  Pd  Pd29  1  0.000000  0.000000  0.000000  1
