# generated using pymatgen
data_YEr6Lu3(In2Pt)4
_symmetry_space_group_name_H-M   'P 1'
_cell_length_a   3.59852400
_cell_length_b   8.10051449
_cell_length_c   18.07218300
_cell_angle_alpha   89.94681025
_cell_angle_beta   90.00000000
_cell_angle_gamma   90.00000000
_symmetry_Int_Tables_number   1
_chemical_formula_structural   YEr6Lu3(In2Pt)4
_chemical_formula_sum   'Y1 Er6 Lu3 In8 Pt4'
_cell_volume   526.80202445
_cell_formula_units_Z   1
loop_
 _symmetry_equiv_pos_site_id
 _symmetry_equiv_pos_as_xyz
  1  'x, y, z'
loop_
 _atom_site_type_symbol
 _atom_site_label
 _atom_site_symmetry_multiplicity
 _atom_site_fract_x
 _atom_site_fract_y
 _atom_site_fract_z
 _atom_site_occupancy
  Y  Y0  1  0.000000  0.499821  0.500552  1
  Er  Er1  1  0.000000  0.616500  0.084832  1
  Er  Er2  1  0.000000  0.242524  0.219588  1
  Er  Er3  1  0.000000  0.758771  0.780915  1
  Er  Er4  1  0.000000  0.258911  0.718517  1
  Er  Er5  1  0.000000  0.741155  0.281548  1
  Er  Er6  1  0.000000  0.999497  0.999365  1
  Lu  Lu7  1  0.000000  0.116159  0.414079  1
  Lu  Lu8  1  0.000000  0.883408  0.586121  1
  Lu  Lu9  1  0.000000  0.383234  0.913511  1
  In  In10  1  0.500000  0.419200  0.351580  1
  In  In11  1  0.500000  0.581422  0.649233  1
  In  In12  1  0.500000  0.080520  0.850881  1
  In  In13  1  0.500000  0.922590  0.149111  1
  In  In14  1  0.500000  0.291979  0.064513  1
  In  In15  1  0.500000  0.705650  0.934345  1
  In  In16  1  0.500000  0.203029  0.564493  1
  In  In17  1  0.500000  0.796234  0.435828  1
  Pt  Pt18  1  0.500000  0.025499  0.304801  1
  Pt  Pt19  1  0.500000  0.974592  0.695373  1
  Pt  Pt20  1  0.500000  0.473815  0.804165  1
  Pt  Pt21  1  0.500000  0.525489  0.196646  1
