# generated using pymatgen
data_Yb2Sc2Os5Ru3
_symmetry_space_group_name_H-M   'P 1'
_cell_length_a   5.21711070
_cell_length_b   5.21711107
_cell_length_c   8.82725996
_cell_angle_alpha   90.22164281
_cell_angle_beta   89.77835976
_cell_angle_gamma   120.90867725
_symmetry_Int_Tables_number   1
_chemical_formula_structural   Yb2Sc2Os5Ru3
_chemical_formula_sum   'Yb2 Sc2 Os5 Ru3'
_cell_volume   206.14012100
_cell_formula_units_Z   1
loop_
 _symmetry_equiv_pos_site_id
 _symmetry_equiv_pos_as_xyz
  1  'x, y, z'
loop_
 _atom_site_type_symbol
 _atom_site_label
 _atom_site_symmetry_multiplicity
 _atom_site_fract_x
 _atom_site_fract_y
 _atom_site_fract_z
 _atom_site_occupancy
  Yb  Yb0  1  0.335017  0.664983  0.438145  1
  Yb  Yb1  1  0.668278  0.331722  0.560585  1
  Sc  Sc2  1  0.665477  0.334523  0.929469  1
  Sc  Sc3  1  0.333062  0.666938  0.070708  1
  Os  Os4  1  0.168776  0.345256  0.758219  1
  Os  Os5  1  0.168226  0.831774  0.752740  1
  Os  Os6  1  0.339357  0.175566  0.245529  1
  Os  Os7  1  0.824434  0.660643  0.245529  1
  Os  Os8  1  0.654744  0.831224  0.758219  1
  Ru  Ru9  1  0.009015  0.990985  0.001043  1
  Ru  Ru10  1  0.824519  0.175481  0.240346  1
  Ru  Ru11  1  0.009092  0.990908  0.499470  1
