# generated using pymatgen
data_Sm3Zn2Cu(Ni5B)2
_symmetry_space_group_name_H-M   'P 1'
_cell_length_a   5.09766632
_cell_length_b   5.09766704
_cell_length_c   10.81660755
_cell_angle_alpha   90.00388254
_cell_angle_beta   89.99610927
_cell_angle_gamma   119.99758506
_symmetry_Int_Tables_number   1
_chemical_formula_structural   Sm3Zn2Cu(Ni5B)2
_chemical_formula_sum   'Sm3 Zn2 Cu1 Ni10 B2'
_cell_volume   243.43058425
_cell_formula_units_Z   1
loop_
 _symmetry_equiv_pos_site_id
 _symmetry_equiv_pos_as_xyz
  1  'x, y, z'
loop_
 _atom_site_type_symbol
 _atom_site_label
 _atom_site_symmetry_multiplicity
 _atom_site_fract_x
 _atom_site_fract_y
 _atom_site_fract_z
 _atom_site_occupancy
  Sm  Sm0  1  0.000016  0.999984  0.999421  1
  Sm  Sm1  1  0.000011  0.999989  0.662210  1
  Sm  Sm2  1  0.999967  0.000033  0.329897  1
  Zn  Zn3  1  0.333372  0.666628  0.684402  1
  Zn  Zn4  1  0.333326  0.666674  0.316761  1
  Cu  Cu5  1  0.666639  0.333361  0.683581  1
  Ni  Ni6  1  0.501981  0.498019  0.499811  1
  Ni  Ni7  1  0.502007  0.004029  0.499809  1
  Ni  Ni8  1  0.995971  0.497993  0.499809  1
  Ni  Ni9  1  0.666590  0.333410  0.318742  1
  Ni  Ni10  1  0.500420  0.499580  0.871471  1
  Ni  Ni11  1  0.500451  0.000722  0.871458  1
  Ni  Ni12  1  0.999278  0.499549  0.871458  1
  Ni  Ni13  1  0.501498  0.498502  0.130019  1
  Ni  Ni14  1  0.501483  0.003034  0.130061  1
  Ni  Ni15  1  0.996966  0.498517  0.130061  1
  B  B16  1  0.666699  0.333301  0.000243  1
  B  B17  1  0.333323  0.666677  0.000785  1
