# generated using pymatgen
data_Li6Si7Ni16
_symmetry_space_group_name_H-M   'P 1'
_cell_length_a   7.88086526
_cell_length_b   7.88169620
_cell_length_c   7.88067504
_cell_angle_alpha   59.99518177
_cell_angle_beta   59.99154461
_cell_angle_gamma   59.99597478
_symmetry_Int_Tables_number   1
_chemical_formula_structural   Li6Si7Ni16
_chemical_formula_sum   'Li6 Si7 Ni16'
_cell_volume   346.08695506
_cell_formula_units_Z   1
loop_
 _symmetry_equiv_pos_site_id
 _symmetry_equiv_pos_as_xyz
  1  'x, y, z'
loop_
 _atom_site_type_symbol
 _atom_site_label
 _atom_site_symmetry_multiplicity
 _atom_site_fract_x
 _atom_site_fract_y
 _atom_site_fract_z
 _atom_site_occupancy
  Li  Li0  1  0.204853  0.204874  0.795147  1
  Li  Li1  1  0.204846  0.795132  0.795141  1
  Li  Li2  1  0.795154  0.204868  0.204859  1
  Li  Li3  1  0.204857  0.795143  0.204870  1
  Li  Li4  1  0.795143  0.204857  0.795130  1
  Li  Li5  1  0.795147  0.795126  0.204853  1
  Si  Si6  1  0.500000  0.500000  0.500000  1
  Si  Si7  1  0.500000  0.500000  0.000000  1
  Si  Si8  1  0.000000  0.500000  0.500000  1
  Si  Si9  1  0.500000  0.000000  0.000000  1
  Si  Si10  1  0.000000  0.000000  0.500000  1
  Si  Si11  1  0.000000  0.500000  0.000000  1
  Si  Si12  1  0.500000  0.000000  0.500000  1
  Ni  Ni13  1  0.831893  0.504358  0.831869  1
  Ni  Ni14  1  0.168113  0.168123  0.495640  1
  Ni  Ni15  1  0.495627  0.168120  0.168131  1
  Ni  Ni16  1  0.168106  0.168116  0.168127  1
  Ni  Ni17  1  0.504373  0.831880  0.831869  1
  Ni  Ni18  1  0.831894  0.831884  0.831873  1
  Ni  Ni19  1  0.831887  0.831877  0.504360  1
  Ni  Ni20  1  0.168107  0.495642  0.168131  1
  Ni  Ni21  1  0.618011  0.145980  0.618008  1
  Ni  Ni22  1  0.381990  0.381997  0.854015  1
  Ni  Ni23  1  0.854020  0.381992  0.381990  1
  Ni  Ni24  1  0.381992  0.381997  0.381993  1
  Ni  Ni25  1  0.145980  0.618008  0.618010  1
  Ni  Ni26  1  0.618008  0.618003  0.618007  1
  Ni  Ni27  1  0.618010  0.618003  0.145985  1
  Ni  Ni28  1  0.381989  0.854020  0.381992  1
