# generated using pymatgen
data_Tm8Hg3Ir
_symmetry_space_group_name_H-M   'P 1'
_cell_length_a   10.02995400
_cell_length_b   10.02995267
_cell_length_c   7.18791700
_cell_angle_alpha   90.00000000
_cell_angle_beta   90.00000000
_cell_angle_gamma   119.99999780
_symmetry_Int_Tables_number   1
_chemical_formula_structural   Tm8Hg3Ir
_chemical_formula_sum   'Tm16 Hg6 Ir2'
_cell_volume   626.22661239
_cell_formula_units_Z   2
loop_
 _symmetry_equiv_pos_site_id
 _symmetry_equiv_pos_as_xyz
  1  'x, y, z'
loop_
 _atom_site_type_symbol
 _atom_site_label
 _atom_site_symmetry_multiplicity
 _atom_site_fract_x
 _atom_site_fract_y
 _atom_site_fract_z
 _atom_site_occupancy
  Tm  Tm0  1  0.462286  0.537714  0.477062  1
  Tm  Tm1  1  0.075428  0.537714  0.477062  1
  Tm  Tm2  1  0.462286  0.924572  0.477062  1
  Tm  Tm3  1  0.537714  0.462286  0.977062  1
  Tm  Tm4  1  0.924572  0.462286  0.977062  1
  Tm  Tm5  1  0.537714  0.075428  0.977062  1
  Tm  Tm6  1  0.827079  0.172921  0.287100  1
  Tm  Tm7  1  0.345840  0.172921  0.287100  1
  Tm  Tm8  1  0.827079  0.654160  0.287100  1
  Tm  Tm9  1  0.172921  0.827079  0.787100  1
  Tm  Tm10  1  0.654160  0.827079  0.787100  1
  Tm  Tm11  1  0.172921  0.345840  0.787100  1
  Tm  Tm12  1  0.333333  0.666667  0.094621  1
  Tm  Tm13  1  0.666667  0.333333  0.594621  1
  Tm  Tm14  1  0.000000  0.000000  0.509281  1
  Tm  Tm15  1  0.000000  0.000000  0.009281  1
  Hg  Hg16  1  0.166955  0.833045  0.220513  1
  Hg  Hg17  1  0.666091  0.833045  0.220513  1
  Hg  Hg18  1  0.166955  0.333909  0.220513  1
  Hg  Hg19  1  0.833045  0.166955  0.720513  1
  Hg  Hg20  1  0.333909  0.166955  0.720513  1
  Hg  Hg21  1  0.833045  0.666091  0.720513  1
  Ir  Ir22  1  0.333333  0.666667  0.714355  1
  Ir  Ir23  1  0.666667  0.333333  0.214355  1
