# generated using pymatgen
data_CeTh3FeCuSi6
_symmetry_space_group_name_H-M   'P 1'
_cell_length_a   8.11915100
_cell_length_b   8.11915123
_cell_length_c   4.18385000
_cell_angle_alpha   90.00000000
_cell_angle_beta   90.00000000
_cell_angle_gamma   120.00000314
_symmetry_Int_Tables_number   1
_chemical_formula_structural   CeTh3FeCuSi6
_chemical_formula_sum   'Ce1 Th3 Fe1 Cu1 Si6'
_cell_volume   238.85149999
_cell_formula_units_Z   1
loop_
 _symmetry_equiv_pos_site_id
 _symmetry_equiv_pos_as_xyz
  1  'x, y, z'
loop_
 _atom_site_type_symbol
 _atom_site_label
 _atom_site_symmetry_multiplicity
 _atom_site_fract_x
 _atom_site_fract_y
 _atom_site_fract_z
 _atom_site_occupancy
  Ce  Ce0  1  0.000000  0.000000  0.000000  1
  Th  Th1  1  0.507284  0.492716  0.000000  1
  Th  Th2  1  0.985430  0.492716  0.000000  1
  Th  Th3  1  0.507284  0.014570  0.000000  1
  Fe  Fe4  1  0.666667  0.333333  0.500000  1
  Cu  Cu5  1  0.333333  0.666667  0.500000  1
  Si  Si6  1  0.829406  0.658811  0.500000  1
  Si  Si7  1  0.166724  0.833276  0.500000  1
  Si  Si8  1  0.666553  0.833276  0.500000  1
  Si  Si9  1  0.166724  0.333447  0.500000  1
  Si  Si10  1  0.829406  0.170594  0.500000  1
  Si  Si11  1  0.341189  0.170594  0.500000  1
