# generated using pymatgen
data_SmLu2(Co3P2)3
_symmetry_space_group_name_H-M   'P 1'
_cell_length_a   3.69846300
_cell_length_b   10.52293200
_cell_length_c   12.17207500
_cell_angle_alpha   90.00000000
_cell_angle_beta   90.00000000
_cell_angle_gamma   90.00000000
_symmetry_Int_Tables_number   1
_chemical_formula_structural   SmLu2(Co3P2)3
_chemical_formula_sum   'Sm2 Lu4 Co18 P12'
_cell_volume   473.72102678
_cell_formula_units_Z   2
loop_
 _symmetry_equiv_pos_site_id
 _symmetry_equiv_pos_as_xyz
  1  'x, y, z'
loop_
 _atom_site_type_symbol
 _atom_site_label
 _atom_site_symmetry_multiplicity
 _atom_site_fract_x
 _atom_site_fract_y
 _atom_site_fract_z
 _atom_site_occupancy
  Sm  Sm0  1  0.000000  0.500000  0.522736  1
  Sm  Sm1  1  0.500000  0.000000  0.477264  1
  Lu  Lu2  1  0.500000  0.817741  0.205089  1
  Lu  Lu3  1  0.500000  0.182259  0.205089  1
  Lu  Lu4  1  0.000000  0.682259  0.794911  1
  Lu  Lu5  1  0.000000  0.317741  0.794911  1
  Co  Co6  1  0.500000  0.500000  0.157314  1
  Co  Co7  1  0.000000  0.000000  0.842686  1
  Co  Co8  1  0.500000  0.500000  0.706393  1
  Co  Co9  1  0.000000  0.000000  0.293607  1
  Co  Co10  1  0.000000  0.500000  0.985968  1
  Co  Co11  1  0.500000  0.000000  0.014032  1
  Co  Co12  1  0.500000  0.333143  0.994406  1
  Co  Co13  1  0.500000  0.666857  0.994406  1
  Co  Co14  1  0.000000  0.166857  0.005594  1
  Co  Co15  1  0.000000  0.833143  0.005594  1
  Co  Co16  1  0.500000  0.296790  0.429097  1
  Co  Co17  1  0.500000  0.703210  0.429097  1
  Co  Co18  1  0.000000  0.203210  0.570903  1
  Co  Co19  1  0.000000  0.796790  0.570903  1
  Co  Co20  1  0.500000  0.878537  0.712343  1
  Co  Co21  1  0.500000  0.121463  0.712343  1
  Co  Co22  1  0.000000  0.621463  0.287657  1
  Co  Co23  1  0.000000  0.378537  0.287657  1
  P  P24  1  0.500000  0.500000  0.882550  1
  P  P25  1  0.000000  0.000000  0.117450  1
  P  P26  1  0.500000  0.500000  0.341196  1
  P  P27  1  0.000000  0.000000  0.658804  1
  P  P28  1  0.500000  0.309154  0.618515  1
  P  P29  1  0.500000  0.690846  0.618515  1
  P  P30  1  0.000000  0.190846  0.381485  1
  P  P31  1  0.000000  0.809154  0.381485  1
  P  P32  1  0.500000  0.846315  0.893215  1
  P  P33  1  0.500000  0.153685  0.893215  1
  P  P34  1  0.000000  0.653685  0.106785  1
  P  P35  1  0.000000  0.346315  0.106785  1
