# generated using pymatgen
data_Tb5Lu8Th3(CdIr)4
_symmetry_space_group_name_H-M   'P 1'
_cell_length_a   9.63678649
_cell_length_b   9.62707647
_cell_length_c   9.62707607
_cell_angle_alpha   59.90819878
_cell_angle_beta   59.93347214
_cell_angle_gamma   59.93347489
_symmetry_Int_Tables_number   1
_chemical_formula_structural   Tb5Lu8Th3(CdIr)4
_chemical_formula_sum   'Tb5 Lu8 Th3 Cd4 Ir4'
_cell_volume   630.47376543
_cell_formula_units_Z   1
loop_
 _symmetry_equiv_pos_site_id
 _symmetry_equiv_pos_as_xyz
  1  'x, y, z'
loop_
 _atom_site_type_symbol
 _atom_site_label
 _atom_site_symmetry_multiplicity
 _atom_site_fract_x
 _atom_site_fract_y
 _atom_site_fract_z
 _atom_site_occupancy
  Tb  Tb0  1  0.813249  0.186801  0.186801  1
  Tb  Tb1  1  0.816418  0.184783  0.814331  1
  Tb  Tb2  1  0.188270  0.811685  0.187007  1
  Tb  Tb3  1  0.816418  0.814331  0.184783  1
  Tb  Tb4  1  0.188270  0.187007  0.811685  1
  Lu  Lu5  1  0.199001  0.601047  0.601047  1
  Lu  Lu6  1  0.062213  0.438345  0.438345  1
  Lu  Lu7  1  0.434315  0.065283  0.065283  1
  Lu  Lu8  1  0.434486  0.063741  0.436949  1
  Lu  Lu9  1  0.063911  0.437143  0.061706  1
  Lu  Lu10  1  0.434486  0.436949  0.063741  1
  Lu  Lu11  1  0.063911  0.061706  0.437143  1
  Lu  Lu12  1  0.189004  0.811827  0.811827  1
  Th  Th13  1  0.597226  0.600169  0.600169  1
  Th  Th14  1  0.598058  0.601573  0.200326  1
  Th  Th15  1  0.598058  0.200326  0.601573  1
  Cd  Cd16  1  0.836306  0.829578  0.829578  1
  Cd  Cd17  1  0.834468  0.829799  0.504994  1
  Cd  Cd18  1  0.834468  0.504994  0.829799  1
  Cd  Cd19  1  0.500884  0.831979  0.831979  1
  Ir  Ir20  1  0.391097  0.391980  0.391980  1
  Ir  Ir21  1  0.390485  0.392772  0.824522  1
  Ir  Ir22  1  0.390485  0.824522  0.392772  1
  Ir  Ir23  1  0.824517  0.391665  0.391665  1
