# generated using pymatgen
data_Pr4Mg(Ga2Pt)10
_symmetry_space_group_name_H-M   'P 1'
_cell_length_a   4.33435113
_cell_length_b   11.11011430
_cell_length_c   13.71504427
_cell_angle_alpha   80.40186069
_cell_angle_beta   80.51794092
_cell_angle_gamma   78.26919055
_symmetry_Int_Tables_number   1
_chemical_formula_structural   Pr4Mg(Ga2Pt)10
_chemical_formula_sum   'Pr4 Mg1 Ga20 Pt10'
_cell_volume   631.72043059
_cell_formula_units_Z   1
loop_
 _symmetry_equiv_pos_site_id
 _symmetry_equiv_pos_as_xyz
  1  'x, y, z'
loop_
 _atom_site_type_symbol
 _atom_site_label
 _atom_site_symmetry_multiplicity
 _atom_site_fract_x
 _atom_site_fract_y
 _atom_site_fract_z
 _atom_site_occupancy
  Pr  Pr0  1  0.121762  0.091742  0.662646  1
  Pr  Pr1  1  0.878238  0.908258  0.337354  1
  Pr  Pr2  1  0.769941  0.633545  0.820661  1
  Pr  Pr3  1  0.230059  0.366455  0.179339  1
  Mg  Mg4  1  0.500000  0.500000  0.500000  1
  Ga  Ga5  1  0.007260  0.075180  0.911485  1
  Ga  Ga6  1  0.992740  0.924820  0.088515  1
  Ga  Ga7  1  0.061531  0.674772  0.196877  1
  Ga  Ga8  1  0.938469  0.325228  0.803123  1
  Ga  Ga9  1  0.112916  0.329145  0.452569  1
  Ga  Ga10  1  0.887084  0.670855  0.547431  1
  Ga  Ga11  1  0.198540  0.604619  0.993569  1
  Ga  Ga12  1  0.801460  0.395381  0.006431  1
  Ga  Ga13  1  0.253806  0.787024  0.699910  1
  Ga  Ga14  1  0.746194  0.212976  0.300090  1
  Ga  Ga15  1  0.302288  0.895535  0.499626  1
  Ga  Ga16  1  0.697712  0.104465  0.500374  1
  Ga  Ga17  1  0.386559  0.519158  0.705682  1
  Ga  Ga18  1  0.613441  0.480842  0.294318  1
  Ga  Ga19  1  0.396850  0.199938  0.003052  1
  Ga  Ga20  1  0.603150  0.800062  0.996948  1
  Ga  Ga21  1  0.539472  0.284768  0.634130  1
  Ga  Ga22  1  0.460528  0.715232  0.365870  1
  Ga  Ga23  1  0.634439  0.937715  0.796636  1
  Ga  Ga24  1  0.365561  0.062285  0.203364  1
  Pt  Pt25  1  0.026657  0.567400  0.380471  1
  Pt  Pt26  1  0.973343  0.432600  0.619529  1
  Pt  Pt27  1  0.138363  0.839594  0.889019  1
  Pt  Pt28  1  0.861637  0.160406  0.110981  1
  Pt  Pt29  1  0.244142  0.123325  0.390222  1
  Pt  Pt30  1  0.755858  0.876675  0.609778  1
  Pt  Pt31  1  0.347327  0.417280  0.893884  1
  Pt  Pt32  1  0.652673  0.582720  0.106116  1
  Pt  Pt33  1  0.502247  0.171312  0.819788  1
  Pt  Pt34  1  0.497753  0.828688  0.180212  1
