# generated using pymatgen
data_Tm2ZnCd4Ni13B4
_symmetry_space_group_name_H-M   'P 1'
_cell_length_a   4.99904600
_cell_length_b   4.99904441
_cell_length_c   13.95679800
_cell_angle_alpha   90.00000000
_cell_angle_beta   90.00000000
_cell_angle_gamma   120.00001049
_symmetry_Int_Tables_number   1
_chemical_formula_structural   Tm2ZnCd4Ni13B4
_chemical_formula_sum   'Tm2 Zn1 Cd4 Ni13 B4'
_cell_volume   302.05811444
_cell_formula_units_Z   1
loop_
 _symmetry_equiv_pos_site_id
 _symmetry_equiv_pos_as_xyz
  1  'x, y, z'
loop_
 _atom_site_type_symbol
 _atom_site_label
 _atom_site_symmetry_multiplicity
 _atom_site_fract_x
 _atom_site_fract_y
 _atom_site_fract_z
 _atom_site_occupancy
  Tm  Tm0  1  0.333333  0.666667  0.750075  1
  Tm  Tm1  1  0.666667  0.333333  0.249925  1
  Zn  Zn2  1  0.000000  0.000000  0.000000  1
  Cd  Cd3  1  0.333333  0.666667  0.529151  1
  Cd  Cd4  1  0.666667  0.333333  0.031135  1
  Cd  Cd5  1  0.666667  0.333333  0.470849  1
  Cd  Cd6  1  0.333333  0.666667  0.968865  1
  Ni  Ni7  1  0.000000  0.000000  0.500000  1
  Ni  Ni8  1  0.167336  0.334672  0.147340  1
  Ni  Ni9  1  0.833884  0.667767  0.647095  1
  Ni  Ni10  1  0.665328  0.832664  0.147340  1
  Ni  Ni11  1  0.167336  0.832664  0.147340  1
  Ni  Ni12  1  0.833884  0.166116  0.647095  1
  Ni  Ni13  1  0.332233  0.166116  0.647095  1
  Ni  Ni14  1  0.832664  0.665328  0.852660  1
  Ni  Ni15  1  0.832664  0.167336  0.852660  1
  Ni  Ni16  1  0.334672  0.167336  0.852660  1
  Ni  Ni17  1  0.667767  0.833884  0.352905  1
  Ni  Ni18  1  0.166116  0.833884  0.352905  1
  Ni  Ni19  1  0.166116  0.332233  0.352905  1
  B  B20  1  0.333333  0.666667  0.250261  1
  B  B21  1  0.666667  0.333333  0.749739  1
  B  B22  1  0.000000  0.000000  0.249665  1
  B  B23  1  0.000000  0.000000  0.750335  1
