# generated using pymatgen
data_DyEr15In4(PdRu)2
_symmetry_space_group_name_H-M   'P 1'
_cell_length_a   9.63265187
_cell_length_b   9.61348048
_cell_length_c   9.61498559
_cell_angle_alpha   59.77103032
_cell_angle_beta   59.88865684
_cell_angle_gamma   59.87248888
_symmetry_Int_Tables_number   1
_chemical_formula_structural   DyEr15In4(PdRu)2
_chemical_formula_sum   'Dy1 Er15 In4 Pd2 Ru2'
_cell_volume   627.36367034
_cell_formula_units_Z   1
loop_
 _symmetry_equiv_pos_site_id
 _symmetry_equiv_pos_as_xyz
  1  'x, y, z'
loop_
 _atom_site_type_symbol
 _atom_site_label
 _atom_site_symmetry_multiplicity
 _atom_site_fract_x
 _atom_site_fract_y
 _atom_site_fract_z
 _atom_site_occupancy
  Dy  Dy0  1  0.061572  0.062982  0.440699  1
  Er  Er1  1  0.647618  0.046982  0.654445  1
  Er  Er2  1  0.196056  0.811149  0.183463  1
  Er  Er3  1  0.435022  0.062839  0.441109  1
  Er  Er4  1  0.195912  0.183506  0.811521  1
  Er  Er5  1  0.644517  0.651982  0.652212  1
  Er  Er6  1  0.052649  0.650961  0.651069  1
  Er  Er7  1  0.440192  0.059772  0.059279  1
  Er  Er8  1  0.647710  0.654279  0.046989  1
  Er  Er9  1  0.190600  0.810456  0.811208  1
  Er  Er10  1  0.809460  0.184471  0.811610  1
  Er  Er11  1  0.808996  0.191405  0.191301  1
  Er  Er12  1  0.809778  0.811234  0.184392  1
  Er  Er13  1  0.062761  0.437900  0.437019  1
  Er  Er14  1  0.434327  0.441144  0.062880  1
  Er  Er15  1  0.060876  0.441844  0.061847  1
  In  In16  1  0.748151  0.418127  0.417393  1
  In  In17  1  0.416433  0.417321  0.749796  1
  In  In18  1  0.417455  0.748980  0.417133  1
  In  In19  1  0.416918  0.416229  0.417035  1
  Pd  Pd20  1  0.858469  0.856046  0.426244  1
  Pd  Pd21  1  0.858611  0.426440  0.856349  1
  Ru  Ru22  1  0.859343  0.856992  0.857835  1
  Ru  Ru23  1  0.426578  0.856959  0.857174  1
