# generated using pymatgen
data_HfPa(GaPt)2
_symmetry_space_group_name_H-M   'P 1'
_cell_length_a   7.14065700
_cell_length_b   7.14065707
_cell_length_c   7.72286200
_cell_angle_alpha   90.00000000
_cell_angle_beta   90.00000000
_cell_angle_gamma   120.00000679
_symmetry_Int_Tables_number   1
_chemical_formula_structural   HfPa(GaPt)2
_chemical_formula_sum   'Hf3 Pa3 Ga6 Pt6'
_cell_volume   341.02422092
_cell_formula_units_Z   3
loop_
 _symmetry_equiv_pos_site_id
 _symmetry_equiv_pos_as_xyz
  1  'x, y, z'
loop_
 _atom_site_type_symbol
 _atom_site_label
 _atom_site_symmetry_multiplicity
 _atom_site_fract_x
 _atom_site_fract_y
 _atom_site_fract_z
 _atom_site_occupancy
  Hf  Hf0  1  0.395790  0.394853  0.250000  1
  Hf  Hf1  1  0.999063  0.604210  0.250000  1
  Hf  Hf2  1  0.605147  0.000937  0.250000  1
  Pa  Pa3  1  0.585926  0.999036  0.750000  1
  Pa  Pa4  1  0.413109  0.414074  0.750000  1
  Pa  Pa5  1  0.000964  0.586891  0.750000  1
  Ga  Ga6  1  0.254485  0.999814  0.010243  1
  Ga  Ga7  1  0.254485  0.999814  0.489757  1
  Ga  Ga8  1  0.000186  0.254671  0.489757  1
  Ga  Ga9  1  0.000186  0.254671  0.010243  1
  Ga  Ga10  1  0.745329  0.745515  0.010243  1
  Ga  Ga11  1  0.745329  0.745515  0.489757  1
  Pt  Pt12  1  0.666667  0.333333  0.477587  1
  Pt  Pt13  1  0.000000  0.000000  0.750000  1
  Pt  Pt14  1  0.666667  0.333333  0.022413  1
  Pt  Pt15  1  0.333333  0.666667  0.024223  1
  Pt  Pt16  1  0.333333  0.666667  0.475777  1
  Pt  Pt17  1  0.000000  0.000000  0.250000  1
