# generated using pymatgen
data_LiSc3Co16(TcP3)4
_symmetry_space_group_name_H-M   'P 1'
_cell_length_a   3.63483700
_cell_length_b   10.23196223
_cell_length_c   11.66976127
_cell_angle_alpha   89.97538019
_cell_angle_beta   90.00000000
_cell_angle_gamma   90.00000000
_symmetry_Int_Tables_number   1
_chemical_formula_structural   LiSc3Co16(TcP3)4
_chemical_formula_sum   'Li1 Sc3 Co16 Tc4 P12'
_cell_volume   434.01606028
_cell_formula_units_Z   1
loop_
 _symmetry_equiv_pos_site_id
 _symmetry_equiv_pos_as_xyz
  1  'x, y, z'
loop_
 _atom_site_type_symbol
 _atom_site_label
 _atom_site_symmetry_multiplicity
 _atom_site_fract_x
 _atom_site_fract_y
 _atom_site_fract_z
 _atom_site_occupancy
  Li  Li0  1  0.250000  0.581679  0.703413  1
  Sc  Sc1  1  0.250000  0.915704  0.205010  1
  Sc  Sc2  1  0.750000  0.415817  0.295373  1
  Sc  Sc3  1  0.750000  0.084018  0.795996  1
  Co  Co4  1  0.250000  0.406853  0.486289  1
  Co  Co5  1  0.250000  0.092666  0.986932  1
  Co  Co6  1  0.750000  0.591110  0.511579  1
  Co  Co7  1  0.750000  0.908926  0.014016  1
  Co  Co8  1  0.250000  0.221405  0.178080  1
  Co  Co9  1  0.250000  0.278664  0.676630  1
  Co  Co10  1  0.750000  0.781806  0.823540  1
  Co  Co11  1  0.750000  0.721548  0.321385  1
  Co  Co12  1  0.250000  0.887438  0.702425  1
  Co  Co13  1  0.250000  0.611575  0.202468  1
  Co  Co14  1  0.750000  0.112653  0.297871  1
  Co  Co15  1  0.750000  0.385888  0.797364  1
  Co  Co16  1  0.250000  0.466162  0.931478  1
  Co  Co17  1  0.250000  0.035363  0.432103  1
  Co  Co18  1  0.750000  0.536055  0.066764  1
  Co  Co19  1  0.750000  0.963113  0.569291  1
  Tc  Tc20  1  0.250000  0.712127  0.989150  1
  Tc  Tc21  1  0.250000  0.787701  0.490570  1
  Tc  Tc22  1  0.750000  0.288012  0.011331  1
  Tc  Tc23  1  0.750000  0.213684  0.511440  1
  P  P24  1  0.250000  0.419822  0.115809  1
  P  P25  1  0.250000  0.079684  0.617074  1
  P  P26  1  0.750000  0.581066  0.878351  1
  P  P27  1  0.750000  0.919305  0.384145  1
  P  P28  1  0.250000  0.266464  0.864071  1
  P  P29  1  0.250000  0.234970  0.365324  1
  P  P30  1  0.750000  0.735460  0.134504  1
  P  P31  1  0.750000  0.759567  0.637092  1
  P  P32  1  0.250000  0.593545  0.390055  1
  P  P33  1  0.250000  0.906548  0.888937  1
  P  P34  1  0.750000  0.410070  0.612567  1
  P  P35  1  0.750000  0.093536  0.111572  1
