# generated using pymatgen
data_NaGd9(Sn3N)2
_symmetry_space_group_name_H-M   'P 1'
_cell_length_a   9.25945334
_cell_length_b   9.25945268
_cell_length_c   9.25945300
_cell_angle_alpha   127.79062783
_cell_angle_beta   127.79062467
_cell_angle_gamma   76.96445514
_symmetry_Int_Tables_number   1
_chemical_formula_structural   NaGd9(Sn3N)2
_chemical_formula_sum   'Na1 Gd9 Sn6 N2'
_cell_volume   481.27993914
_cell_formula_units_Z   1
loop_
 _symmetry_equiv_pos_site_id
 _symmetry_equiv_pos_as_xyz
  1  'x, y, z'
loop_
 _atom_site_type_symbol
 _atom_site_label
 _atom_site_symmetry_multiplicity
 _atom_site_fract_x
 _atom_site_fract_y
 _atom_site_fract_z
 _atom_site_occupancy
  Na  Na0  1  0.500000  0.500000  0.000000  1
  Gd  Gd1  1  0.000000  0.000000  0.000000  1
  Gd  Gd2  1  0.493419  0.004740  0.807252  1
  Gd  Gd3  1  0.197489  0.686169  0.192748  1
  Gd  Gd4  1  0.004740  0.197489  0.511321  1
  Gd  Gd5  1  0.686169  0.493419  0.488679  1
  Gd  Gd6  1  0.506581  0.995260  0.192748  1
  Gd  Gd7  1  0.802511  0.313831  0.807252  1
  Gd  Gd8  1  0.995260  0.802511  0.488679  1
  Gd  Gd9  1  0.313831  0.506581  0.511321  1
  Sn  Sn10  1  0.239436  0.239436  0.000000  1
  Sn  Sn11  1  0.760564  0.760564  0.000000  1
  Sn  Sn12  1  0.870970  0.366455  0.237426  1
  Sn  Sn13  1  0.129030  0.633545  0.762574  1
  Sn  Sn14  1  0.366455  0.129030  0.495484  1
  Sn  Sn15  1  0.633545  0.870970  0.504516  1
  N  N16  1  0.250000  0.750000  0.500000  1
  N  N17  1  0.750000  0.250000  0.500000  1
