# generated using pymatgen
data_CeDy5SbO12
_symmetry_space_group_name_H-M   'P 1'
_cell_length_a   6.52396372
_cell_length_b   6.48585248
_cell_length_c   6.53235708
_cell_angle_alpha   98.93760361
_cell_angle_beta   98.96605564
_cell_angle_gamma   98.68748508
_symmetry_Int_Tables_number   1
_chemical_formula_structural   CeDy5SbO12
_chemical_formula_sum   'Ce1 Dy5 Sb1 O12'
_cell_volume   265.32819404
_cell_formula_units_Z   1
loop_
 _symmetry_equiv_pos_site_id
 _symmetry_equiv_pos_as_xyz
  1  'x, y, z'
loop_
 _atom_site_type_symbol
 _atom_site_label
 _atom_site_symmetry_multiplicity
 _atom_site_fract_x
 _atom_site_fract_y
 _atom_site_fract_z
 _atom_site_occupancy
  Ce  Ce0  1  0.690169  0.857992  0.395534  1
  Dy  Dy1  1  0.388500  0.689672  0.856789  1
  Dy  Dy2  1  0.861510  0.392418  0.698658  1
  Dy  Dy3  1  0.306829  0.144563  0.611696  1
  Dy  Dy4  1  0.607952  0.305073  0.134489  1
  Dy  Dy5  1  0.141733  0.606478  0.307546  1
  Sb  Sb6  1  0.002209  0.999904  0.002695  1
  O  O7  1  0.434840  0.591107  0.178219  1
  O  O8  1  0.174919  0.435080  0.587391  1
  O  O9  1  0.591916  0.172834  0.431806  1
  O  O10  1  0.565520  0.409990  0.820443  1
  O  O11  1  0.818028  0.569992  0.410769  1
  O  O12  1  0.412855  0.822553  0.565274  1
  O  O13  1  0.930160  0.043752  0.697924  1
  O  O14  1  0.957895  0.304168  0.071058  1
  O  O15  1  0.303397  0.072179  0.957927  1
  O  O16  1  0.073045  0.956784  0.304701  1
  O  O17  1  0.041780  0.696160  0.928209  1
  O  O18  1  0.696743  0.929301  0.038872  1
