# generated using pymatgen
data_Tm8Re11Si16Os
_symmetry_space_group_name_H-M   'P 1'
_cell_length_a   6.74562295
_cell_length_b   6.74649105
_cell_length_c   12.67811068
_cell_angle_alpha   90.01727914
_cell_angle_beta   89.94083210
_cell_angle_gamma   90.49152895
_symmetry_Int_Tables_number   1
_chemical_formula_structural   Tm8Re11Si16Os
_chemical_formula_sum   'Tm8 Re11 Si16 Os1'
_cell_volume   576.95018739
_cell_formula_units_Z   1
loop_
 _symmetry_equiv_pos_site_id
 _symmetry_equiv_pos_as_xyz
  1  'x, y, z'
loop_
 _atom_site_type_symbol
 _atom_site_label
 _atom_site_symmetry_multiplicity
 _atom_site_fract_x
 _atom_site_fract_y
 _atom_site_fract_z
 _atom_site_occupancy
  Tm  Tm0  1  0.004236  0.660132  0.029471  1
  Tm  Tm1  1  0.995608  0.339320  0.529965  1
  Tm  Tm2  1  0.339092  0.995723  0.470189  1
  Tm  Tm3  1  0.164785  0.489534  0.781248  1
  Tm  Tm4  1  0.835279  0.509388  0.280823  1
  Tm  Tm5  1  0.489643  0.164936  0.218755  1
  Tm  Tm6  1  0.509426  0.835314  0.719275  1
  Tm  Tm7  1  0.659691  0.004637  0.970460  1
  Re  Re8  1  0.161950  0.837774  0.249979  1
  Re  Re9  1  0.331913  0.332395  0.000176  1
  Re  Re10  1  0.030139  0.806924  0.631149  1
  Re  Re11  1  0.970891  0.191913  0.132470  1
  Re  Re12  1  0.807704  0.030267  0.368573  1
  Re  Re13  1  0.317012  0.486842  0.378185  1
  Re  Re14  1  0.684792  0.514588  0.878165  1
  Re  Re15  1  0.486294  0.315497  0.621065  1
  Re  Re16  1  0.513609  0.684103  0.122547  1
  Re  Re17  1  0.192117  0.971677  0.867644  1
  Re  Re18  1  0.837606  0.161999  0.749959  1
  Si  Si19  1  0.020533  0.732733  0.437670  1
  Si  Si20  1  0.612305  0.309165  0.435705  1
  Si  Si21  1  0.386448  0.691193  0.935582  1
  Si  Si22  1  0.198315  0.113839  0.682870  1
  Si  Si23  1  0.309637  0.611742  0.564115  1
  Si  Si24  1  0.691036  0.386491  0.064578  1
  Si  Si25  1  0.801733  0.885440  0.183268  1
  Si  Si26  1  0.114488  0.198526  0.317069  1
  Si  Si27  1  0.979598  0.267172  0.938035  1
  Si  Si28  1  0.733052  0.020004  0.562128  1
  Si  Si29  1  0.217095  0.478670  0.187299  1
  Si  Si30  1  0.781666  0.519509  0.688369  1
  Si  Si31  1  0.479371  0.218492  0.812381  1
  Si  Si32  1  0.520329  0.782998  0.312018  1
  Si  Si33  1  0.267214  0.979622  0.062154  1
  Si  Si34  1  0.885900  0.802045  0.816764  1
  Os  Os35  1  0.669493  0.669396  0.499900  1
