# generated using pymatgen
data_DyEr7MgSc(SiB4)4
_symmetry_space_group_name_H-M   'P 1'
_cell_length_a   7.13620000
_cell_length_b   7.13620009
_cell_length_c   7.77315100
_cell_angle_alpha   90.00000803
_cell_angle_beta   89.99999197
_cell_angle_gamma   89.99076677
_symmetry_Int_Tables_number   1
_chemical_formula_structural   DyEr7MgSc(SiB4)4
_chemical_formula_sum   'Dy1 Er7 Mg1 Sc1 Si4 B16'
_cell_volume   395.85043870
_cell_formula_units_Z   1
loop_
 _symmetry_equiv_pos_site_id
 _symmetry_equiv_pos_as_xyz
  1  'x, y, z'
loop_
 _atom_site_type_symbol
 _atom_site_label
 _atom_site_symmetry_multiplicity
 _atom_site_fract_x
 _atom_site_fract_y
 _atom_site_fract_z
 _atom_site_occupancy
  Dy  Dy0  1  0.181683  0.319534  0.232393  1
  Er  Er1  1  0.680645  0.181402  0.230420  1
  Er  Er2  1  0.319210  0.818396  0.769714  1
  Er  Er3  1  0.319339  0.818498  0.230451  1
  Er  Er4  1  0.818555  0.680614  0.230528  1
  Er  Er5  1  0.818484  0.680740  0.769330  1
  Er  Er6  1  0.680722  0.181363  0.769690  1
  Er  Er7  1  0.181456  0.319300  0.769176  1
  Mg  Mg8  1  0.500710  0.500520  0.500347  1
  Sc  Sc9  1  0.999198  0.999884  0.500061  1
  Si  Si10  1  0.111038  0.622060  0.500731  1
  Si  Si11  1  0.887331  0.379194  0.500920  1
  Si  Si12  1  0.378996  0.110889  0.501102  1
  Si  Si13  1  0.621811  0.887861  0.500141  1
  B  B14  1  0.172946  0.039291  0.999814  1
  B  B15  1  0.826838  0.960316  0.999847  1
  B  B16  1  0.960257  0.172763  0.999742  1
  B  B17  1  0.326030  0.539060  0.999573  1
  B  B18  1  0.039454  0.826926  0.999701  1
  B  B19  1  0.674427  0.461249  0.999625  1
  B  B20  1  0.538932  0.674444  0.999757  1
  B  B21  1  0.461608  0.325769  0.999650  1
  B  B22  1  0.088502  0.589312  0.999290  1
  B  B23  1  0.911505  0.410836  0.999395  1
  B  B24  1  0.410991  0.088284  0.999889  1
  B  B25  1  0.589038  0.911663  0.999829  1
  B  B26  1  0.999696  0.999444  0.168605  1
  B  B27  1  0.999883  0.000012  0.831006  1
  B  B28  1  0.500106  0.500079  0.835537  1
  B  B29  1  0.500608  0.500300  0.163736  1
