# generated using pymatgen
data_Dy2Co8Tc4P7
_symmetry_space_group_name_H-M   'P 1'
_cell_length_a   9.08574265
_cell_length_b   9.07677063
_cell_length_c   3.74936700
_cell_angle_alpha   90.00000000
_cell_angle_beta   90.00000000
_cell_angle_gamma   119.73637523
_symmetry_Int_Tables_number   1
_chemical_formula_structural   Dy2Co8Tc4P7
_chemical_formula_sum   'Dy2 Co8 Tc4 P7'
_cell_volume   268.48989366
_cell_formula_units_Z   1
loop_
 _symmetry_equiv_pos_site_id
 _symmetry_equiv_pos_as_xyz
  1  'x, y, z'
loop_
 _atom_site_type_symbol
 _atom_site_label
 _atom_site_symmetry_multiplicity
 _atom_site_fract_x
 _atom_site_fract_y
 _atom_site_fract_z
 _atom_site_occupancy
  Dy  Dy0  1  0.665834  0.333867  0.000000  1
  Dy  Dy1  1  0.331880  0.665406  0.500000  1
  Co  Co2  1  0.368232  0.937263  0.000000  1
  Co  Co3  1  0.067369  0.439499  0.000000  1
  Co  Co4  1  0.565868  0.624274  0.000000  1
  Co  Co5  1  0.878529  0.719267  0.000000  1
  Co  Co6  1  0.282352  0.159447  0.000000  1
  Co  Co7  1  0.948082  0.565142  0.500000  1
  Co  Co8  1  0.438769  0.384921  0.500000  1
  Co  Co9  1  0.606207  0.049488  0.500000  1
  Tc  Tc10  1  0.842344  0.121093  0.000000  1
  Tc  Tc11  1  0.124289  0.903398  0.500000  1
  Tc  Tc12  1  0.104270  0.226525  0.500000  1
  Tc  Tc13  1  0.775097  0.872370  0.500000  1
  P  P14  1  0.112060  0.701956  0.000000  1
  P  P15  1  0.300952  0.411263  0.000000  1
  P  P16  1  0.580426  0.881459  0.000000  1
  P  P17  1  0.708888  0.591090  0.500000  1
  P  P18  1  0.406892  0.116813  0.500000  1
  P  P19  1  0.885590  0.298410  0.500000  1
  P  P20  1  0.006070  0.997054  0.000000  1
