# generated using pymatgen
data_Nd3Mg2CdSn2Pt
_symmetry_space_group_name_H-M   'P 1'
_cell_length_a   7.56903781
_cell_length_b   7.63455971
_cell_length_c   4.63883100
_cell_angle_alpha   90.00000000
_cell_angle_beta   90.00000000
_cell_angle_gamma   120.28678379
_symmetry_Int_Tables_number   1
_chemical_formula_structural   Nd3Mg2CdSn2Pt
_chemical_formula_sum   'Nd3 Mg2 Cd1 Sn2 Pt1'
_cell_volume   231.47364539
_cell_formula_units_Z   1
loop_
 _symmetry_equiv_pos_site_id
 _symmetry_equiv_pos_as_xyz
  1  'x, y, z'
loop_
 _atom_site_type_symbol
 _atom_site_label
 _atom_site_symmetry_multiplicity
 _atom_site_fract_x
 _atom_site_fract_y
 _atom_site_fract_z
 _atom_site_occupancy
  Nd  Nd0  1  0.395234  0.396819  0.000000  1
  Nd  Nd1  1  0.604766  0.001585  0.000000  1
  Nd  Nd2  1  0.000000  0.600026  0.000000  1
  Mg  Mg3  1  0.772899  0.773677  0.500000  1
  Mg  Mg4  1  0.227101  0.000778  0.500000  1
  Cd  Cd5  1  0.000000  0.235790  0.500000  1
  Sn  Sn6  1  0.663611  0.334136  0.500000  1
  Sn  Sn7  1  0.336389  0.670527  0.500000  1
  Pt  Pt8  1  0.000000  0.986661  0.000000  1
