# generated using pymatgen
data_Y15Er5Bi12
_symmetry_space_group_name_H-M   'P 1'
_cell_length_a   8.25607537
_cell_length_b   9.52110306
_cell_length_c   12.07307347
_cell_angle_alpha   90.00390672
_cell_angle_beta   90.03162630
_cell_angle_gamma   90.01274581
_symmetry_Int_Tables_number   1
_chemical_formula_structural   Y15Er5Bi12
_chemical_formula_sum   'Y15 Er5 Bi12'
_cell_volume   949.02724523
_cell_formula_units_Z   1
loop_
 _symmetry_equiv_pos_site_id
 _symmetry_equiv_pos_as_xyz
  1  'x, y, z'
loop_
 _atom_site_type_symbol
 _atom_site_label
 _atom_site_symmetry_multiplicity
 _atom_site_fract_x
 _atom_site_fract_y
 _atom_site_fract_z
 _atom_site_occupancy
  Y  Y0  1  0.186176  0.749997  0.718976  1
  Y  Y1  1  0.686292  0.749994  0.781076  1
  Y  Y2  1  0.813816  0.250023  0.281045  1
  Y  Y3  1  0.313788  0.250170  0.218844  1
  Y  Y4  1  0.806388  0.062787  0.560080  1
  Y  Y5  1  0.693581  0.937284  0.059983  1
  Y  Y6  1  0.193745  0.562746  0.439951  1
  Y  Y7  1  0.693657  0.562653  0.060004  1
  Y  Y8  1  0.193717  0.937272  0.439956  1
  Y  Y9  1  0.306302  0.062929  0.940003  1
  Y  Y10  1  0.806323  0.437255  0.560066  1
  Y  Y11  1  0.354273  0.750092  0.215109  1
  Y  Y12  1  0.854158  0.750021  0.284957  1
  Y  Y13  1  0.645745  0.250240  0.785028  1
  Y  Y14  1  0.146083  0.250297  0.715217  1
  Er  Er15  1  0.026552  0.749970  0.988969  1
  Er  Er16  1  0.526508  0.750054  0.510989  1
  Er  Er17  1  0.973699  0.250249  0.010968  1
  Er  Er18  1  0.473594  0.250051  0.488952  1
  Er  Er19  1  0.306289  0.436240  0.940014  1
  Bi  Bi20  1  0.433779  0.003851  0.672817  1
  Bi  Bi21  1  0.934198  0.496401  0.827414  1
  Bi  Bi22  1  0.566104  0.503800  0.327130  1
  Bi  Bi23  1  0.066229  0.996300  0.172719  1
  Bi  Bi24  1  0.566188  0.996338  0.327203  1
  Bi  Bi25  1  0.066267  0.503894  0.172511  1
  Bi  Bi26  1  0.433610  0.496317  0.673002  1
  Bi  Bi27  1  0.933880  0.003899  0.827347  1
  Bi  Bi28  1  0.407756  0.748388  0.957952  1
  Bi  Bi29  1  0.908442  0.749987  0.541813  1
  Bi  Bi30  1  0.591272  0.250517  0.041579  1
  Bi  Bi31  1  0.091588  0.249985  0.458325  1
