# generated using pymatgen
data_Tb2Nd9In9NiIr3
_symmetry_space_group_name_H-M   'P 1'
_cell_length_a   13.34652448
_cell_length_b   13.34709409
_cell_length_c   3.82250600
_cell_angle_alpha   90.00000000
_cell_angle_beta   90.00000000
_cell_angle_gamma   111.79513791
_symmetry_Int_Tables_number   1
_chemical_formula_structural   Tb2Nd9In9NiIr3
_chemical_formula_sum   'Tb2 Nd9 In9 Ni1 Ir3'
_cell_volume   632.25620851
_cell_formula_units_Z   1
loop_
 _symmetry_equiv_pos_site_id
 _symmetry_equiv_pos_as_xyz
  1  'x, y, z'
loop_
 _atom_site_type_symbol
 _atom_site_label
 _atom_site_symmetry_multiplicity
 _atom_site_fract_x
 _atom_site_fract_y
 _atom_site_fract_z
 _atom_site_occupancy
  Tb  Tb0  1  0.080963  0.420264  0.000000  1
  Tb  Tb1  1  0.919103  0.580138  0.000000  1
  Nd  Nd2  1  0.420277  0.078041  0.000000  1
  Nd  Nd3  1  0.580659  0.919556  0.000000  1
  Nd  Nd4  1  0.626544  0.373563  0.000000  1
  Nd  Nd5  1  0.369485  0.625496  0.000000  1
  Nd  Nd6  1  0.841455  0.160011  0.000000  1
  Nd  Nd7  1  0.158405  0.838869  0.000000  1
  Nd  Nd8  1  0.999010  0.999697  0.000000  1
  Nd  Nd9  1  0.312009  0.312737  0.000000  1
  Nd  Nd10  1  0.689828  0.686265  0.000000  1
  In  In11  1  0.842569  0.368483  0.500000  1
  In  In12  1  0.157722  0.631544  0.500000  1
  In  In13  1  0.366183  0.837539  0.500000  1
  In  In14  1  0.635812  0.161467  0.500000  1
  In  In15  1  0.077356  0.221808  0.500000  1
  In  In16  1  0.922863  0.778133  0.500000  1
  In  In17  1  0.219315  0.078150  0.500000  1
  In  In18  1  0.779025  0.921391  0.500000  1
  In  In19  1  0.499102  0.502714  0.500000  1
  Ni  Ni20  1  0.548300  0.754212  0.500000  1
  Ir  Ir21  1  0.243001  0.453878  0.500000  1
  Ir  Ir22  1  0.757847  0.550267  0.500000  1
  Ir  Ir23  1  0.453167  0.245780  0.500000  1
