# generated using pymatgen
data_Pa5Co16Si7Os
_symmetry_space_group_name_H-M   'P 1'
_cell_length_a   8.21428874
_cell_length_b   8.21840154
_cell_length_c   8.21840200
_cell_angle_alpha   59.96689841
_cell_angle_beta   60.01655298
_cell_angle_gamma   60.01655655
_symmetry_Int_Tables_number   1
_chemical_formula_structural   Pa5Co16Si7Os
_chemical_formula_sum   'Pa5 Co16 Si7 Os1'
_cell_volume   392.31012155
_cell_formula_units_Z   1
loop_
 _symmetry_equiv_pos_site_id
 _symmetry_equiv_pos_as_xyz
  1  'x, y, z'
loop_
 _atom_site_type_symbol
 _atom_site_label
 _atom_site_symmetry_multiplicity
 _atom_site_fract_x
 _atom_site_fract_y
 _atom_site_fract_z
 _atom_site_occupancy
  Pa  Pa0  1  0.795905  0.785183  0.204095  1
  Pa  Pa1  1  0.775592  0.224408  0.224408  1
  Pa  Pa2  1  0.214817  0.204095  0.785183  1
  Pa  Pa3  1  0.795905  0.204095  0.785183  1
  Pa  Pa4  1  0.214817  0.785183  0.204095  1
  Co  Co5  1  0.620378  0.621727  0.137517  1
  Co  Co6  1  0.165480  0.493391  0.175647  1
  Co  Co7  1  0.862483  0.379622  0.379622  1
  Co  Co8  1  0.506609  0.834520  0.834520  1
  Co  Co9  1  0.503804  0.167763  0.167763  1
  Co  Co10  1  0.832237  0.839331  0.496196  1
  Co  Co11  1  0.165480  0.175647  0.493391  1
  Co  Co12  1  0.144158  0.620420  0.620420  1
  Co  Co13  1  0.160669  0.167763  0.167763  1
  Co  Co14  1  0.379580  0.384998  0.855842  1
  Co  Co15  1  0.615002  0.620420  0.620420  1
  Co  Co16  1  0.379580  0.855842  0.384998  1
  Co  Co17  1  0.378273  0.379622  0.379622  1
  Co  Co18  1  0.824353  0.834520  0.834520  1
  Co  Co19  1  0.620378  0.137517  0.621727  1
  Co  Co20  1  0.832237  0.496196  0.839331  1
  Si  Si21  1  0.485290  0.976888  0.514710  1
  Si  Si22  1  0.485290  0.514710  0.976888  1
  Si  Si23  1  0.501727  0.498273  0.498273  1
  Si  Si24  1  0.023112  0.976888  0.514710  1
  Si  Si25  1  0.023112  0.514710  0.976888  1
  Si  Si26  1  0.993872  0.506128  0.506128  1
  Si  Si27  1  0.493872  0.006128  0.006128  1
  Os  Os28  1  0.205986  0.794014  0.794014  1
