# generated using pymatgen
data_Tb15DyCd4TcNi3
_symmetry_space_group_name_H-M   'P 1'
_cell_length_a   9.64781757
_cell_length_b   9.64781709
_cell_length_c   9.64781828
_cell_angle_alpha   59.32461157
_cell_angle_beta   59.32461161
_cell_angle_gamma   59.32461059
_symmetry_Int_Tables_number   1
_chemical_formula_structural   Tb15DyCd4TcNi3
_chemical_formula_sum   'Tb15 Dy1 Cd4 Tc1 Ni3'
_cell_volume   625.23388009
_cell_formula_units_Z   1
loop_
 _symmetry_equiv_pos_site_id
 _symmetry_equiv_pos_as_xyz
  1  'x, y, z'
loop_
 _atom_site_type_symbol
 _atom_site_label
 _atom_site_symmetry_multiplicity
 _atom_site_fract_x
 _atom_site_fract_y
 _atom_site_fract_z
 _atom_site_occupancy
  Tb  Tb0  1  0.351087  0.351087  0.954903  1
  Tb  Tb1  1  0.351087  0.954903  0.351087  1
  Tb  Tb2  1  0.954903  0.351087  0.351087  1
  Tb  Tb3  1  0.810609  0.188078  0.188078  1
  Tb  Tb4  1  0.186992  0.810575  0.810575  1
  Tb  Tb5  1  0.188078  0.810609  0.188078  1
  Tb  Tb6  1  0.810575  0.186992  0.810575  1
  Tb  Tb7  1  0.188078  0.188078  0.810609  1
  Tb  Tb8  1  0.810575  0.810575  0.186992  1
  Tb  Tb9  1  0.936005  0.564997  0.564997  1
  Tb  Tb10  1  0.555514  0.938854  0.938854  1
  Tb  Tb11  1  0.564997  0.936005  0.564997  1
  Tb  Tb12  1  0.938854  0.555514  0.938854  1
  Tb  Tb13  1  0.564997  0.564997  0.936005  1
  Tb  Tb14  1  0.938854  0.938854  0.555514  1
  Dy  Dy15  1  0.347740  0.347740  0.347740  1
  Cd  Cd16  1  0.579932  0.579932  0.579932  1
  Cd  Cd17  1  0.579839  0.579839  0.256035  1
  Cd  Cd18  1  0.579839  0.256035  0.579839  1
  Cd  Cd19  1  0.256035  0.579839  0.579839  1
  Tc  Tc20  1  0.143612  0.143612  0.143612  1
  Ni  Ni21  1  0.143188  0.143188  0.575423  1
  Ni  Ni22  1  0.143188  0.575423  0.143188  1
  Ni  Ni23  1  0.575423  0.143188  0.143188  1
