# generated using pymatgen
data_CeDy3Er4(ReB6)4
_symmetry_space_group_name_H-M   'P 1'
_cell_length_a   3.68256900
_cell_length_b   9.16024575
_cell_length_c   11.54635804
_cell_angle_alpha   90.03953359
_cell_angle_beta   90.00000000
_cell_angle_gamma   90.00000000
_symmetry_Int_Tables_number   1
_chemical_formula_structural   CeDy3Er4(ReB6)4
_chemical_formula_sum   'Ce1 Dy3 Er4 Re4 B24'
_cell_volume   389.49593980
_cell_formula_units_Z   1
loop_
 _symmetry_equiv_pos_site_id
 _symmetry_equiv_pos_as_xyz
  1  'x, y, z'
loop_
 _atom_site_type_symbol
 _atom_site_label
 _atom_site_symmetry_multiplicity
 _atom_site_fract_x
 _atom_site_fract_y
 _atom_site_fract_z
 _atom_site_occupancy
  Ce  Ce0  1  0.000000  0.322981  0.414008  1
  Dy  Dy1  1  0.000000  0.677543  0.586692  1
  Dy  Dy2  1  0.000000  0.823091  0.085500  1
  Dy  Dy3  1  0.000000  0.176294  0.913921  1
  Er  Er4  1  0.000000  0.942734  0.369930  1
  Er  Er5  1  0.000000  0.056354  0.630511  1
  Er  Er6  1  0.000000  0.443361  0.129003  1
  Er  Er7  1  0.000000  0.557014  0.870394  1
  Re  Re8  1  0.000000  0.638536  0.320512  1
  Re  Re9  1  0.000000  0.361310  0.679229  1
  Re  Re10  1  0.000000  0.139323  0.179744  1
  Re  Re11  1  0.000000  0.861173  0.820668  1
  B  B12  1  0.500000  0.554006  0.432194  1
  B  B13  1  0.500000  0.446190  0.568046  1
  B  B14  1  0.500000  0.053421  0.067003  1
  B  B15  1  0.500000  0.946641  0.932794  1
  B  B16  1  0.500000  0.750046  0.418202  1
  B  B17  1  0.500000  0.250501  0.582748  1
  B  B18  1  0.500000  0.249376  0.081052  1
  B  B19  1  0.500000  0.750337  0.918331  1
  B  B20  1  0.500000  0.792336  0.265414  1
  B  B21  1  0.500000  0.207863  0.735185  1
  B  B22  1  0.500000  0.291633  0.233778  1
  B  B23  1  0.500000  0.707736  0.765537  1
  B  B24  1  0.500000  0.631142  0.184808  1
  B  B25  1  0.500000  0.369734  0.814914  1
  B  B26  1  0.500000  0.130456  0.313992  1
  B  B27  1  0.500000  0.869297  0.685664  1
  B  B28  1  0.500000  0.982254  0.211806  1
  B  B29  1  0.500000  0.017437  0.788023  1
  B  B30  1  0.500000  0.483507  0.287236  1
  B  B31  1  0.500000  0.517879  0.712998  1
  B  B32  1  0.500000  0.599991  0.027565  1
  B  B33  1  0.500000  0.400337  0.971863  1
  B  B34  1  0.500000  0.098730  0.472523  1
  B  B35  1  0.500000  0.899433  0.528212  1
