# generated using pymatgen
data_Pr4Zn4IrPtRh2
_symmetry_space_group_name_H-M   'P 1'
_cell_length_a   4.05745600
_cell_length_b   7.38647900
_cell_length_c   16.77257100
_cell_angle_alpha   90.00000000
_cell_angle_beta   90.00000000
_cell_angle_gamma   90.00000000
_symmetry_Int_Tables_number   1
_chemical_formula_structural   Pr4Zn4IrPtRh2
_chemical_formula_sum   'Pr8 Zn8 Ir2 Pt2 Rh4'
_cell_volume   502.67921170
_cell_formula_units_Z   2
loop_
 _symmetry_equiv_pos_site_id
 _symmetry_equiv_pos_as_xyz
  1  'x, y, z'
loop_
 _atom_site_type_symbol
 _atom_site_label
 _atom_site_symmetry_multiplicity
 _atom_site_fract_x
 _atom_site_fract_y
 _atom_site_fract_z
 _atom_site_occupancy
  Pr  Pr0  1  0.750000  0.454730  0.218380  1
  Pr  Pr1  1  0.750000  0.951773  0.284670  1
  Pr  Pr2  1  0.750000  0.829605  0.060561  1
  Pr  Pr3  1  0.250000  0.045270  0.718380  1
  Pr  Pr4  1  0.250000  0.166802  0.936561  1
  Pr  Pr5  1  0.250000  0.548227  0.784670  1
  Pr  Pr6  1  0.750000  0.333198  0.436561  1
  Pr  Pr7  1  0.250000  0.670395  0.560561  1
  Zn  Zn8  1  0.250000  0.996521  0.437622  1
  Zn  Zn9  1  0.750000  0.503479  0.937622  1
  Zn  Zn10  1  0.750000  0.998790  0.560295  1
  Zn  Zn11  1  0.250000  0.624518  0.349988  1
  Zn  Zn12  1  0.750000  0.377635  0.652599  1
  Zn  Zn13  1  0.750000  0.875482  0.849988  1
  Zn  Zn14  1  0.250000  0.501210  0.060295  1
  Zn  Zn15  1  0.250000  0.122365  0.152599  1
  Ir  Ir16  1  0.250000  0.246613  0.313042  1
  Ir  Ir17  1  0.750000  0.253387  0.813042  1
  Pt  Pt18  1  0.250000  0.242228  0.565412  1
  Pt  Pt19  1  0.750000  0.257772  0.065412  1
  Rh  Rh20  1  0.250000  0.742396  0.935463  1
  Rh  Rh21  1  0.750000  0.751372  0.685407  1
  Rh  Rh22  1  0.750000  0.757604  0.435463  1
  Rh  Rh23  1  0.250000  0.748628  0.185407  1
