# generated using pymatgen
data_Np2PdS4
_symmetry_space_group_name_H-M   'P 1'
_cell_length_a   8.47661803
_cell_length_b   7.77477077
_cell_length_c   6.69706008
_cell_angle_alpha   71.23400830
_cell_angle_beta   60.30165139
_cell_angle_gamma   48.46606160
_symmetry_Int_Tables_number   1
_chemical_formula_structural   Np2PdS4
_chemical_formula_sum   'Np4 Pd2 S8'
_cell_volume   286.97349341
_cell_formula_units_Z   2
loop_
 _symmetry_equiv_pos_site_id
 _symmetry_equiv_pos_as_xyz
  1  'x, y, z'
loop_
 _atom_site_type_symbol
 _atom_site_label
 _atom_site_symmetry_multiplicity
 _atom_site_fract_x
 _atom_site_fract_y
 _atom_site_fract_z
 _atom_site_occupancy
  Np  Np0  1  0.421191  0.530406  0.182628  1
  Np  Np1  1  0.865738  0.182612  0.530486  1
  Np  Np2  1  0.067458  0.384225  0.828544  1
  Np  Np3  1  0.719779  0.828557  0.384287  1
  Pd  Pd4  1  0.251473  0.248515  0.248516  1
  Pd  Pd5  1  0.001477  0.998526  0.998502  1
  S  S6  1  0.700801  0.553071  0.241472  1
  S  S7  1  0.504743  0.241362  0.553017  1
  S  S8  1  0.008530  0.745419  0.549089  1
  S  S9  1  0.696947  0.549139  0.745331  1
  S  S10  1  0.136463  0.588885  0.022896  1
  S  S11  1  0.251740  0.022912  0.588838  1
  S  S12  1  0.661471  0.113472  0.998066  1
  S  S13  1  0.226989  0.998096  0.113526  1
