# generated using pymatgen
data_Dy4TmCoBi2
_symmetry_space_group_name_H-M   'P 1'
_cell_length_a   7.99451987
_cell_length_b   8.87999705
_cell_length_c   12.43196086
_cell_angle_alpha   89.94447644
_cell_angle_beta   90.09682369
_cell_angle_gamma   90.00267719
_symmetry_Int_Tables_number   1
_chemical_formula_structural   Dy4TmCoBi2
_chemical_formula_sum   'Dy16 Tm4 Co4 Bi8'
_cell_volume   882.55954797
_cell_formula_units_Z   4
loop_
 _symmetry_equiv_pos_site_id
 _symmetry_equiv_pos_as_xyz
  1  'x, y, z'
loop_
 _atom_site_type_symbol
 _atom_site_label
 _atom_site_symmetry_multiplicity
 _atom_site_fract_x
 _atom_site_fract_y
 _atom_site_fract_z
 _atom_site_occupancy
  Dy  Dy0  1  0.847406  0.750346  0.801425  1
  Dy  Dy1  1  0.152987  0.249824  0.198689  1
  Dy  Dy2  1  0.347773  0.249652  0.698190  1
  Dy  Dy3  1  0.651847  0.750165  0.301971  1
  Dy  Dy4  1  0.379382  0.750247  0.687504  1
  Dy  Dy5  1  0.619387  0.249391  0.312515  1
  Dy  Dy6  1  0.880592  0.249753  0.811573  1
  Dy  Dy7  1  0.120778  0.750639  0.188502  1
  Dy  Dy8  1  0.951403  0.750662  0.502603  1
  Dy  Dy9  1  0.051066  0.249592  0.497343  1
  Dy  Dy10  1  0.449641  0.249307  0.997514  1
  Dy  Dy11  1  0.547717  0.750433  0.002421  1
  Dy  Dy12  1  0.824819  0.035094  0.063220  1
  Dy  Dy13  1  0.675419  0.465311  0.563044  1
  Dy  Dy14  1  0.824429  0.465140  0.063117  1
  Dy  Dy15  1  0.175620  0.535431  0.936568  1
  Tm  Tm16  1  0.672417  0.035074  0.562867  1
  Tm  Tm17  1  0.327542  0.964378  0.436837  1
  Tm  Tm18  1  0.172748  0.964244  0.936726  1
  Tm  Tm19  1  0.327205  0.535307  0.436941  1
  Co  Co20  1  0.558606  0.750656  0.507104  1
  Co  Co21  1  0.438584  0.249166  0.492439  1
  Co  Co22  1  0.062314  0.249322  0.991998  1
  Co  Co23  1  0.940253  0.750826  0.007642  1
  Bi  Bi24  1  0.569667  0.492209  0.826156  1
  Bi  Bi25  1  0.430322  0.507820  0.174226  1
  Bi  Bi26  1  0.069242  0.507880  0.673745  1
  Bi  Bi27  1  0.430569  0.992126  0.174256  1
  Bi  Bi28  1  0.931739  0.492497  0.326528  1
  Bi  Bi29  1  0.568562  0.007561  0.825998  1
  Bi  Bi30  1  0.931869  0.007594  0.326505  1
  Bi  Bi31  1  0.068091  0.992353  0.673834  1
