# generated using pymatgen
data_Sr2BiSbO6
_symmetry_space_group_name_H-M   'P 1'
_cell_length_a   5.99538500
_cell_length_b   5.89186600
_cell_length_c   10.22862191
_cell_angle_alpha   54.91938936
_cell_angle_beta   90.00000000
_cell_angle_gamma   90.00000000
_symmetry_Int_Tables_number   1
_chemical_formula_structural   Sr2BiSbO6
_chemical_formula_sum   'Sr4 Bi2 Sb2 O12'
_cell_volume   295.68078519
_cell_formula_units_Z   2
loop_
 _symmetry_equiv_pos_site_id
 _symmetry_equiv_pos_as_xyz
  1  'x, y, z'
loop_
 _atom_site_type_symbol
 _atom_site_label
 _atom_site_symmetry_multiplicity
 _atom_site_fract_x
 _atom_site_fract_y
 _atom_site_fract_z
 _atom_site_occupancy
  Sr  Sr0  1  0.456045  0.239420  0.749392  1
  Sr  Sr1  1  0.543955  0.760580  0.250608  1
  Sr  Sr2  1  0.956045  0.760580  0.750608  1
  Sr  Sr3  1  0.043955  0.239420  0.249392  1
  Bi  Bi4  1  0.000000  0.500000  0.500000  1
  Bi  Bi5  1  0.500000  0.500000  0.000000  1
  Sb  Sb6  1  0.000000  0.000000  0.000000  1
  Sb  Sb7  1  0.500000  0.000000  0.500000  1
  O  O8  1  0.724669  0.872915  0.944837  1
  O  O9  1  0.275331  0.127085  0.055163  1
  O  O10  1  0.224669  0.127085  0.555163  1
  O  O11  1  0.775331  0.872915  0.444837  1
  O  O12  1  0.035577  0.326906  0.770319  1
  O  O13  1  0.964423  0.673094  0.229681  1
  O  O14  1  0.535577  0.673094  0.729681  1
  O  O15  1  0.464423  0.326906  0.270319  1
  O  O16  1  0.188046  0.772155  0.952163  1
  O  O17  1  0.811954  0.227845  0.047837  1
  O  O18  1  0.688046  0.227845  0.547837  1
  O  O19  1  0.311954  0.772155  0.452163  1
