# generated using pymatgen
data_Ac2B4Ir5
_symmetry_space_group_name_H-M   'P 1'
_cell_length_a   7.73095212
_cell_length_b   6.39342906
_cell_length_c   5.89389067
_cell_angle_alpha   77.86229784
_cell_angle_beta   53.95001261
_cell_angle_gamma   48.18769822
_symmetry_Int_Tables_number   1
_chemical_formula_structural   Ac2B4Ir5
_chemical_formula_sum   'Ac2 B4 Ir5'
_cell_volume   167.34471013
_cell_formula_units_Z   1
loop_
 _symmetry_equiv_pos_site_id
 _symmetry_equiv_pos_as_xyz
  1  'x, y, z'
loop_
 _atom_site_type_symbol
 _atom_site_label
 _atom_site_symmetry_multiplicity
 _atom_site_fract_x
 _atom_site_fract_y
 _atom_site_fract_z
 _atom_site_occupancy
  Ac  Ac0  1  0.855718  0.855717  0.144283  1
  Ac  Ac1  1  0.144282  0.144282  0.855718  1
  B  B2  1  0.464954  0.791727  0.208273  1
  B  B3  1  0.208273  0.535045  0.464955  1
  B  B4  1  0.791727  0.464954  0.535046  1
  B  B5  1  0.535046  0.208272  0.791728  1
  Ir  Ir6  1  0.500000  0.500000  0.000000  1
  Ir  Ir7  1  0.249999  0.250000  0.250000  1
  Ir  Ir8  1  0.000000  0.000000  0.500000  1
  Ir  Ir9  1  0.500000  0.500000  0.500000  1
  Ir  Ir10  1  0.750000  0.750000  0.750000  1
