# generated using pymatgen
data_Tb10Sn7Bi
_symmetry_space_group_name_H-M   'P 1'
_cell_length_a   8.17378300
_cell_length_b   8.23926398
_cell_length_c   15.56095567
_cell_angle_alpha   90.24036662
_cell_angle_beta   90.00000000
_cell_angle_gamma   90.00000000
_symmetry_Int_Tables_number   1
_chemical_formula_structural   Tb10Sn7Bi
_chemical_formula_sum   'Tb20 Sn14 Bi2'
_cell_volume   1047.95821142
_cell_formula_units_Z   2
loop_
 _symmetry_equiv_pos_site_id
 _symmetry_equiv_pos_as_xyz
  1  'x, y, z'
loop_
 _atom_site_type_symbol
 _atom_site_label
 _atom_site_symmetry_multiplicity
 _atom_site_fract_x
 _atom_site_fract_y
 _atom_site_fract_z
 _atom_site_occupancy
  Tb  Tb0  1  0.380671  0.834472  0.878057  1
  Tb  Tb1  1  0.880671  0.665528  0.621943  1
  Tb  Tb2  1  0.622838  0.157448  0.377666  1
  Tb  Tb3  1  0.122838  0.342552  0.122334  1
  Tb  Tb4  1  0.627258  0.161184  0.121186  1
  Tb  Tb5  1  0.127258  0.338816  0.378814  1
  Tb  Tb6  1  0.376528  0.838459  0.621539  1
  Tb  Tb7  1  0.876528  0.661541  0.878461  1
  Tb  Tb8  1  0.537226  0.330165  0.896678  1
  Tb  Tb9  1  0.037226  0.169835  0.603322  1
  Tb  Tb10  1  0.459145  0.678142  0.396786  1
  Tb  Tb11  1  0.959145  0.821858  0.103214  1
  Tb  Tb12  1  0.468044  0.667898  0.101605  1
  Tb  Tb13  1  0.968044  0.832102  0.398395  1
  Tb  Tb14  1  0.526865  0.318706  0.602403  1
  Tb  Tb15  1  0.026865  0.181294  0.897597  1
  Tb  Tb16  1  0.207062  0.501504  0.749634  1
  Tb  Tb17  1  0.707062  0.998496  0.750366  1
  Tb  Tb18  1  0.792737  0.498415  0.247587  1
  Tb  Tb19  1  0.292737  0.001585  0.252413  1
  Sn  Sn20  1  0.717086  0.968820  0.542788  1
  Sn  Sn21  1  0.217086  0.531180  0.957212  1
  Sn  Sn22  1  0.718973  0.968550  0.956844  1
  Sn  Sn23  1  0.218973  0.531450  0.543156  1
  Sn  Sn24  1  0.286217  0.034412  0.457980  1
  Sn  Sn25  1  0.786217  0.465588  0.042020  1
  Sn  Sn26  1  0.575135  0.621789  0.747829  1
  Sn  Sn27  1  0.075135  0.878211  0.752171  1
  Sn  Sn28  1  0.427780  0.376419  0.249834  1
  Sn  Sn29  1  0.927780  0.123581  0.250166  1
  Sn  Sn30  1  0.340394  0.145582  0.752055  1
  Sn  Sn31  1  0.840394  0.354418  0.747945  1
  Sn  Sn32  1  0.656256  0.851814  0.249481  1
  Sn  Sn33  1  0.156256  0.648186  0.250519  1
  Bi  Bi34  1  0.279783  0.029549  0.042994  1
  Bi  Bi35  1  0.779783  0.470451  0.457006  1
