# generated using pymatgen
data_Nd4Fe3NiO12
_symmetry_space_group_name_H-M   'P 1'
_cell_length_a   5.48910612
_cell_length_b   5.64874666
_cell_length_c   7.83280027
_cell_angle_alpha   89.98411475
_cell_angle_beta   90.03679548
_cell_angle_gamma   89.94614681
_symmetry_Int_Tables_number   1
_chemical_formula_structural   Nd4Fe3NiO12
_chemical_formula_sum   'Nd4 Fe3 Ni1 O12'
_cell_volume   242.86810195
_cell_formula_units_Z   1
loop_
 _symmetry_equiv_pos_site_id
 _symmetry_equiv_pos_as_xyz
  1  'x, y, z'
loop_
 _atom_site_type_symbol
 _atom_site_label
 _atom_site_symmetry_multiplicity
 _atom_site_fract_x
 _atom_site_fract_y
 _atom_site_fract_z
 _atom_site_occupancy
  Nd  Nd0  1  0.012666  0.947599  0.753502  1
  Nd  Nd1  1  0.485705  0.443749  0.753811  1
  Nd  Nd2  1  0.514295  0.556251  0.246189  1
  Nd  Nd3  1  0.987334  0.052401  0.246498  1
  Fe  Fe4  1  0.500000  0.000000  0.500000  1
  Fe  Fe5  1  0.000000  0.500000  0.000000  1
  Fe  Fe6  1  0.000000  0.500000  0.500000  1
  Ni  Ni7  1  0.500000  0.000000  0.000000  1
  O  O8  1  0.707191  0.294153  0.449055  1
  O  O9  1  0.797163  0.788396  0.046755  1
  O  O10  1  0.205385  0.207171  0.550447  1
  O  O11  1  0.287401  0.702724  0.954126  1
  O  O12  1  0.292809  0.705847  0.550945  1
  O  O13  1  0.202837  0.211604  0.953245  1
  O  O14  1  0.794615  0.792829  0.449553  1
  O  O15  1  0.712599  0.297276  0.045874  1
  O  O16  1  0.091934  0.474245  0.251502  1
  O  O17  1  0.409316  0.974437  0.254566  1
  O  O18  1  0.590684  0.025563  0.745434  1
  O  O19  1  0.908066  0.525755  0.748498  1
