# generated using pymatgen
data_Yb5As4
_symmetry_space_group_name_H-M   'P 1'
_cell_length_a   7.69982975
_cell_length_b   7.71881000
_cell_length_c   8.49255602
_cell_angle_alpha   90.00000000
_cell_angle_beta   116.95741372
_cell_angle_gamma   90.00000000
_symmetry_Int_Tables_number   1
_chemical_formula_structural   Yb5As4
_chemical_formula_sum   'Yb10 As8'
_cell_volume   449.89907544
_cell_formula_units_Z   2
loop_
 _symmetry_equiv_pos_site_id
 _symmetry_equiv_pos_as_xyz
  1  'x, y, z'
loop_
 _atom_site_type_symbol
 _atom_site_label
 _atom_site_symmetry_multiplicity
 _atom_site_fract_x
 _atom_site_fract_y
 _atom_site_fract_z
 _atom_site_occupancy
  Yb  Yb0  1  0.184452  0.165280  0.707711  1
  Yb  Yb1  1  0.523259  0.834720  0.707711  1
  Yb  Yb2  1  0.023259  0.665280  0.707711  1
  Yb  Yb3  1  0.684452  0.334720  0.707711  1
  Yb  Yb4  1  0.815548  0.834720  0.292289  1
  Yb  Yb5  1  0.476741  0.165280  0.292289  1
  Yb  Yb6  1  0.976741  0.334720  0.292289  1
  Yb  Yb7  1  0.315548  0.665280  0.292289  1
  Yb  Yb8  1  0.500000  0.500000  0.000000  1
  Yb  Yb9  1  0.000000  0.000000  0.000000  1
  As  As10  1  0.301333  0.500000  0.602666  1
  As  As11  1  0.801333  0.000000  0.602666  1
  As  As12  1  0.698667  0.500000  0.397334  1
  As  As13  1  0.198667  0.000000  0.397334  1
  As  As14  1  0.616546  0.116834  0.000000  1
  As  As15  1  0.383454  0.883166  0.000000  1
  As  As16  1  0.883454  0.616834  0.000000  1
  As  As17  1  0.116546  0.383166  0.000000  1
