# generated using pymatgen
data_Li4Al8Ni3Rh
_symmetry_space_group_name_H-M   'P 1'
_cell_length_a   5.87720400
_cell_length_b   4.19532700
_cell_length_c   8.41348900
_cell_angle_alpha   89.99986362
_cell_angle_beta   90.00019283
_cell_angle_gamma   89.99925106
_symmetry_Int_Tables_number   1
_chemical_formula_structural   Li4Al8Ni3Rh
_chemical_formula_sum   'Li4 Al8 Ni3 Rh1'
_cell_volume   207.44965352
_cell_formula_units_Z   1
loop_
 _symmetry_equiv_pos_site_id
 _symmetry_equiv_pos_as_xyz
  1  'x, y, z'
loop_
 _atom_site_type_symbol
 _atom_site_label
 _atom_site_symmetry_multiplicity
 _atom_site_fract_x
 _atom_site_fract_y
 _atom_site_fract_z
 _atom_site_occupancy
  Li  Li0  1  0.250036  0.249999  0.124882  1
  Li  Li1  1  0.750031  0.750004  0.372982  1
  Li  Li2  1  0.249972  0.249996  0.624916  1
  Li  Li3  1  0.749969  0.749996  0.877198  1
  Al  Al4  1  0.007830  0.750009  0.125056  1
  Al  Al5  1  0.492200  0.749997  0.125073  1
  Al  Al6  1  0.001394  0.249987  0.377637  1
  Al  Al7  1  0.498630  0.250017  0.377656  1
  Al  Al8  1  0.500649  0.749991  0.625041  1
  Al  Al9  1  0.999324  0.750008  0.625061  1
  Al  Al10  1  0.498622  0.250005  0.872212  1
  Al  Al11  1  0.001365  0.249993  0.872227  1
  Ni  Ni12  1  0.249993  0.749990  0.379093  1
  Ni  Ni13  1  0.750001  0.250000  0.624945  1
  Ni  Ni14  1  0.249997  0.750009  0.871099  1
  Rh  Rh15  1  0.749990  0.250008  0.124922  1
