# generated using pymatgen
data_Nd8YErPb6
_symmetry_space_group_name_H-M   'P 1'
_cell_length_a   9.32780700
_cell_length_b   9.32780690
_cell_length_c   6.85127600
_cell_angle_alpha   90.00000000
_cell_angle_beta   90.00000000
_cell_angle_gamma   119.99999680
_symmetry_Int_Tables_number   1
_chemical_formula_structural   Nd8YErPb6
_chemical_formula_sum   'Nd8 Y1 Er1 Pb6'
_cell_volume   516.25135858
_cell_formula_units_Z   1
loop_
 _symmetry_equiv_pos_site_id
 _symmetry_equiv_pos_as_xyz
  1  'x, y, z'
loop_
 _atom_site_type_symbol
 _atom_site_label
 _atom_site_symmetry_multiplicity
 _atom_site_fract_x
 _atom_site_fract_y
 _atom_site_fract_z
 _atom_site_occupancy
  Nd  Nd0  1  0.666667  0.333333  0.000000  1
  Nd  Nd1  1  0.333333  0.666667  0.000000  1
  Nd  Nd2  1  0.759677  0.759611  0.748507  1
  Nd  Nd3  1  0.240389  0.000066  0.748507  1
  Nd  Nd4  1  0.999934  0.240323  0.748507  1
  Nd  Nd5  1  0.240389  0.240323  0.251493  1
  Nd  Nd6  1  0.759677  0.000066  0.251493  1
  Nd  Nd7  1  0.999934  0.759611  0.251493  1
  Y  Y8  1  0.333333  0.666667  0.500000  1
  Er  Er9  1  0.666667  0.333333  0.500000  1
  Pb  Pb10  1  0.396049  0.395735  0.744076  1
  Pb  Pb11  1  0.604265  0.000314  0.744076  1
  Pb  Pb12  1  0.999686  0.603951  0.744076  1
  Pb  Pb13  1  0.604265  0.603951  0.255924  1
  Pb  Pb14  1  0.396049  0.000314  0.255924  1
  Pb  Pb15  1  0.999686  0.395735  0.255924  1
