# generated using pymatgen
data_Sr4CaLaU2O12
_symmetry_space_group_name_H-M   'P 1'
_cell_length_a   6.02479368
_cell_length_b   6.19871262
_cell_length_c   8.66862472
_cell_angle_alpha   89.84170362
_cell_angle_beta   90.07741724
_cell_angle_gamma   89.84655585
_symmetry_Int_Tables_number   1
_chemical_formula_structural   Sr4CaLaU2O12
_chemical_formula_sum   'Sr4 Ca1 La1 U2 O12'
_cell_volume   323.73545686
_cell_formula_units_Z   1
loop_
 _symmetry_equiv_pos_site_id
 _symmetry_equiv_pos_as_xyz
  1  'x, y, z'
loop_
 _atom_site_type_symbol
 _atom_site_label
 _atom_site_symmetry_multiplicity
 _atom_site_fract_x
 _atom_site_fract_y
 _atom_site_fract_z
 _atom_site_occupancy
  Sr  Sr0  1  0.512228  0.542777  0.254655  1
  Sr  Sr1  1  0.987089  0.052418  0.259602  1
  Sr  Sr2  1  0.012911  0.947582  0.740397  1
  Sr  Sr3  1  0.487772  0.457223  0.745345  1
  Ca  Ca4  1  0.999999  0.500000  0.500000  1
  La  La5  1  0.500000  0.000000  0.000000  1
  U  U6  1  0.000000  0.500000  0.000000  1
  U  U7  1  0.499999  0.000000  0.500000  1
  O  O8  1  0.711623  0.317647  0.055302  1
  O  O9  1  0.820732  0.786084  0.065922  1
  O  O10  1  0.105528  0.453324  0.230203  1
  O  O11  1  0.389618  0.951729  0.264080  1
  O  O12  1  0.686952  0.279678  0.438636  1
  O  O13  1  0.782495  0.811164  0.451407  1
  O  O14  1  0.217505  0.188835  0.548593  1
  O  O15  1  0.313048  0.720322  0.561363  1
  O  O16  1  0.610382  0.048271  0.735921  1
  O  O17  1  0.894472  0.546676  0.769797  1
  O  O18  1  0.179268  0.213916  0.934078  1
  O  O19  1  0.288377  0.682353  0.944697  1
