# generated using pymatgen
data_Er12Co6Sn
_symmetry_space_group_name_H-M   'P 1'
_cell_length_a   8.29283916
_cell_length_b   8.29283913
_cell_length_c   8.29283900
_cell_angle_alpha   109.47121544
_cell_angle_beta   109.47121535
_cell_angle_gamma   109.47122601
_symmetry_Int_Tables_number   1
_chemical_formula_structural   Er12Co6Sn
_chemical_formula_sum   'Er12 Co6 Sn1'
_cell_volume   439.02358693
_cell_formula_units_Z   1
loop_
 _symmetry_equiv_pos_site_id
 _symmetry_equiv_pos_as_xyz
  1  'x, y, z'
loop_
 _atom_site_type_symbol
 _atom_site_label
 _atom_site_symmetry_multiplicity
 _atom_site_fract_x
 _atom_site_fract_y
 _atom_site_fract_z
 _atom_site_occupancy
  Er  Er0  1  0.805776  0.303156  0.108930  1
  Er  Er1  1  0.303156  0.497381  0.194225  1
  Er  Er2  1  0.696844  0.891070  0.194225  1
  Er  Er3  1  0.497381  0.194225  0.303156  1
  Er  Er4  1  0.108930  0.805776  0.303156  1
  Er  Er5  1  0.194225  0.303156  0.497381  1
  Er  Er6  1  0.805776  0.696844  0.502619  1
  Er  Er7  1  0.891070  0.194225  0.696844  1
  Er  Er8  1  0.502619  0.805776  0.696844  1
  Er  Er9  1  0.303156  0.108930  0.805776  1
  Er  Er10  1  0.696844  0.502619  0.805776  1
  Er  Er11  1  0.194225  0.696844  0.891070  1
  Co  Co12  1  0.613848  0.500000  0.113848  1
  Co  Co13  1  0.500000  0.886153  0.386153  1
  Co  Co14  1  0.886153  0.386153  0.500000  1
  Co  Co15  1  0.113848  0.613848  0.500000  1
  Co  Co16  1  0.500000  0.113848  0.613848  1
  Co  Co17  1  0.386153  0.500000  0.886153  1
  Sn  Sn18  1  0.000000  0.000000  0.000000  1
