# generated using pymatgen
data_MnSb(SeO3)4
_symmetry_space_group_name_H-M   'P 1'
_cell_length_a   8.17411400
_cell_length_b   8.46050520
_cell_length_c   8.11005788
_cell_angle_alpha   87.67086964
_cell_angle_beta   90.00000000
_cell_angle_gamma   90.00000000
_symmetry_Int_Tables_number   1
_chemical_formula_structural   MnSb(SeO3)4
_chemical_formula_sum   'Mn2 Sb2 Se8 O24'
_cell_volume   560.40500508
_cell_formula_units_Z   2
loop_
 _symmetry_equiv_pos_site_id
 _symmetry_equiv_pos_as_xyz
  1  'x, y, z'
loop_
 _atom_site_type_symbol
 _atom_site_label
 _atom_site_symmetry_multiplicity
 _atom_site_fract_x
 _atom_site_fract_y
 _atom_site_fract_z
 _atom_site_occupancy
  Mn  Mn0  1  0.000000  0.500000  0.000000  1
  Mn  Mn1  1  0.500000  0.500000  0.500000  1
  Sb  Sb2  1  0.000000  0.000000  0.500000  1
  Sb  Sb3  1  0.500000  0.000000  0.000000  1
  Se  Se4  1  0.326072  0.664175  0.173055  1
  Se  Se5  1  0.826072  0.335825  0.326945  1
  Se  Se6  1  0.663557  0.830284  0.669452  1
  Se  Se7  1  0.163557  0.169716  0.830548  1
  Se  Se8  1  0.673928  0.335825  0.826945  1
  Se  Se9  1  0.173928  0.664175  0.673055  1
  Se  Se10  1  0.336443  0.169716  0.330548  1
  Se  Se11  1  0.836443  0.830284  0.169452  1
  O  O12  1  0.241175  0.540672  0.034826  1
  O  O13  1  0.741175  0.459328  0.465174  1
  O  O14  1  0.758757  0.973097  0.532236  1
  O  O15  1  0.258757  0.026903  0.967764  1
  O  O16  1  0.529147  0.970937  0.756544  1
  O  O17  1  0.467104  0.535645  0.263266  1
  O  O18  1  0.967104  0.464355  0.236734  1
  O  O19  1  0.029147  0.029063  0.743456  1
  O  O20  1  0.969170  0.236184  0.464280  1
  O  O21  1  0.536361  0.750916  0.535261  1
  O  O22  1  0.469170  0.763816  0.035720  1
  O  O23  1  0.036361  0.249084  0.964739  1
  O  O24  1  0.758825  0.459328  0.965174  1
  O  O25  1  0.258825  0.540672  0.534826  1
  O  O26  1  0.241243  0.026903  0.467764  1
  O  O27  1  0.741243  0.973097  0.032236  1
  O  O28  1  0.470853  0.029063  0.243456  1
  O  O29  1  0.532896  0.464355  0.736734  1
  O  O30  1  0.032896  0.535645  0.763266  1
  O  O31  1  0.970853  0.970937  0.256544  1
  O  O32  1  0.030830  0.763816  0.535720  1
  O  O33  1  0.463639  0.249084  0.464739  1
  O  O34  1  0.530830  0.236184  0.964280  1
  O  O35  1  0.963639  0.750916  0.035261  1
