# generated using pymatgen
data_Ba(Sr2Cu3)2
_symmetry_space_group_name_H-M   'P 1'
_cell_length_a   16.34630793
_cell_length_b   16.34630762
_cell_length_c   4.38458300
_cell_angle_alpha   90.00000000
_cell_angle_beta   90.00000000
_cell_angle_gamma   165.20555387
_symmetry_Int_Tables_number   1
_chemical_formula_structural   Ba(Sr2Cu3)2
_chemical_formula_sum   'Ba1 Sr4 Cu6'
_cell_volume   299.16237324
_cell_formula_units_Z   1
loop_
 _symmetry_equiv_pos_site_id
 _symmetry_equiv_pos_as_xyz
  1  'x, y, z'
loop_
 _atom_site_type_symbol
 _atom_site_label
 _atom_site_symmetry_multiplicity
 _atom_site_fract_x
 _atom_site_fract_y
 _atom_site_fract_z
 _atom_site_occupancy
  Ba  Ba0  1  0.614079  0.385919  0.000000  1
  Sr  Sr1  1  0.999344  0.000656  0.000000  1
  Sr  Sr2  1  0.387449  0.612549  0.000000  1
  Sr  Sr3  1  0.803446  0.196552  0.500001  1
  Sr  Sr4  1  0.200115  0.799883  0.500001  1
  Cu  Cu5  1  0.730264  0.269734  0.000000  1
  Cu  Cu6  1  0.272454  0.727544  0.000000  1
  Cu  Cu7  1  0.919673  0.080326  0.500001  1
  Cu  Cu8  1  0.536869  0.463129  0.500001  1
  Cu  Cu9  1  0.459095  0.540903  0.500001  1
  Cu  Cu10  1  0.077202  0.922797  0.500001  1
