# generated using pymatgen
data_Tb4ZnSb5Rh7
_symmetry_space_group_name_H-M   'P 1'
_cell_length_a   7.57624720
_cell_length_b   7.57624788
_cell_length_c   7.57624746
_cell_angle_alpha   108.88700277
_cell_angle_beta   109.76411747
_cell_angle_gamma   109.76412112
_symmetry_Int_Tables_number   1
_chemical_formula_structural   Tb4ZnSb5Rh7
_chemical_formula_sum   'Tb4 Zn1 Sb5 Rh7'
_cell_volume   334.73931531
_cell_formula_units_Z   1
loop_
 _symmetry_equiv_pos_site_id
 _symmetry_equiv_pos_as_xyz
  1  'x, y, z'
loop_
 _atom_site_type_symbol
 _atom_site_label
 _atom_site_symmetry_multiplicity
 _atom_site_fract_x
 _atom_site_fract_y
 _atom_site_fract_z
 _atom_site_occupancy
  Tb  Tb0  1  0.513513  0.010286  0.010286  1
  Tb  Tb1  1  0.000000  0.496773  0.010286  1
  Tb  Tb2  1  0.000000  0.010286  0.496773  1
  Tb  Tb3  1  0.486487  0.496773  0.496773  1
  Zn  Zn4  1  0.000000  0.318061  0.318061  1
  Sb  Sb5  1  0.684956  0.002317  0.687273  1
  Sb  Sb6  1  0.684956  0.687273  0.002317  1
  Sb  Sb7  1  0.000000  0.674445  0.674445  1
  Sb  Sb8  1  0.315044  0.002317  0.317362  1
  Sb  Sb9  1  0.315044  0.317362  0.002317  1
  Rh  Rh10  1  0.000000  0.995092  0.995092  1
  Rh  Rh11  1  0.500000  0.751537  0.251537  1
  Rh  Rh12  1  0.751354  0.496485  0.247839  1
  Rh  Rh13  1  0.248646  0.745131  0.496485  1
  Rh  Rh14  1  0.248646  0.496485  0.745131  1
  Rh  Rh15  1  0.500000  0.251537  0.751537  1
  Rh  Rh16  1  0.751354  0.247839  0.496485  1
