# generated using pymatgen
data_Li4ThNi9As4P3
_symmetry_space_group_name_H-M   'P 1'
_cell_length_a   9.37993100
_cell_length_b   9.37992942
_cell_length_c   3.75121000
_cell_angle_alpha   90.00000000
_cell_angle_beta   90.00000000
_cell_angle_gamma   120.00000203
_symmetry_Int_Tables_number   1
_chemical_formula_structural   Li4ThNi9As4P3
_chemical_formula_sum   'Li4 Th1 Ni9 As4 P3'
_cell_volume   285.82565975
_cell_formula_units_Z   1
loop_
 _symmetry_equiv_pos_site_id
 _symmetry_equiv_pos_as_xyz
  1  'x, y, z'
loop_
 _atom_site_type_symbol
 _atom_site_label
 _atom_site_symmetry_multiplicity
 _atom_site_fract_x
 _atom_site_fract_y
 _atom_site_fract_z
 _atom_site_occupancy
  Li  Li0  1  0.775875  0.549939  0.500000  1
  Li  Li1  1  0.450061  0.225937  0.500000  1
  Li  Li2  1  0.774063  0.224125  0.500000  1
  Li  Li3  1  0.000000  0.000000  0.500000  1
  Th  Th4  1  0.333333  0.666667  0.000000  1
  Ni  Ni5  1  0.274622  0.385919  0.500000  1
  Ni  Ni6  1  0.614081  0.888702  0.500000  1
  Ni  Ni7  1  0.111298  0.725378  0.500000  1
  Ni  Ni8  1  0.499265  0.457042  0.000000  1
  Ni  Ni9  1  0.542958  0.042223  0.000000  1
  Ni  Ni10  1  0.957777  0.500735  0.000000  1
  Ni  Ni11  1  0.713000  0.755688  0.000000  1
  Ni  Ni12  1  0.244312  0.957312  0.000000  1
  Ni  Ni13  1  0.042688  0.287000  0.000000  1
  As  As14  1  0.966663  0.756681  0.000000  1
  As  As15  1  0.243319  0.209982  0.000000  1
  As  As16  1  0.790018  0.033337  0.000000  1
  As  As17  1  0.666667  0.333333  0.000000  1
  P  P18  1  0.548513  0.617622  0.500000  1
  P  P19  1  0.382378  0.930890  0.500000  1
  P  P20  1  0.069110  0.451487  0.500000  1
