# generated using pymatgen
data_Ta9Si3Ru16
_symmetry_space_group_name_H-M   'P 1'
_cell_length_a   5.43572684
_cell_length_b   4.31058500
_cell_length_c   18.08651492
_cell_angle_alpha   90.00000000
_cell_angle_beta   89.21784502
_cell_angle_gamma   90.00000000
_symmetry_Int_Tables_number   1
_chemical_formula_structural   Ta9Si3Ru16
_chemical_formula_sum   'Ta9 Si3 Ru16'
_cell_volume   423.74858475
_cell_formula_units_Z   1
loop_
 _symmetry_equiv_pos_site_id
 _symmetry_equiv_pos_as_xyz
  1  'x, y, z'
loop_
 _atom_site_type_symbol
 _atom_site_label
 _atom_site_symmetry_multiplicity
 _atom_site_fract_x
 _atom_site_fract_y
 _atom_site_fract_z
 _atom_site_occupancy
  Ta  Ta0  1  0.002104  0.250000  0.398101  1
  Ta  Ta1  1  0.509072  0.749999  0.892265  1
  Ta  Ta2  1  0.500611  0.250000  0.109875  1
  Ta  Ta3  1  0.995934  0.749999  0.600925  1
  Ta  Ta4  1  0.341804  0.250000  0.684036  1
  Ta  Ta5  1  0.158252  0.749999  0.191267  1
  Ta  Ta6  1  0.843504  0.250000  0.807402  1
  Ta  Ta7  1  0.657590  0.749999  0.314052  1
  Ta  Ta8  1  0.156902  0.250000  0.967480  1
  Si  Si9  1  0.335606  0.749999  0.464958  1
  Si  Si10  1  0.663197  0.250000  0.534064  1
  Si  Si11  1  0.836327  0.749999  0.035182  1
  Ru  Ru12  1  0.991505  0.250000  0.103104  1
  Ru  Ru13  1  0.494557  0.749999  0.598093  1
  Ru  Ru14  1  0.503928  0.250000  0.402026  1
  Ru  Ru15  1  0.999259  0.749999  0.896826  1
  Ru  Ru16  1  0.185790  0.250000  0.533853  1
  Ru  Ru17  1  0.327698  0.749999  0.036412  1
  Ru  Ru18  1  0.668560  0.250000  0.966435  1
  Ru  Ru19  1  0.813364  0.749999  0.465706  1
  Ru  Ru20  1  0.392868  0.250000  0.245818  1
  Ru  Ru21  1  0.113240  0.749999  0.738657  1
  Ru  Ru22  1  0.892953  0.250000  0.260615  1
  Ru  Ru23  1  0.613217  0.749999  0.755359  1
  Ru  Ru24  1  0.325608  0.250000  0.831118  1
  Ru  Ru25  1  0.174989  0.749999  0.335908  1
  Ru  Ru26  1  0.824099  0.250000  0.663315  1
  Ru  Ru27  1  0.677468  0.749999  0.167149  1
