# generated using pymatgen
data_Hf10ZnSiSn5Sb
_symmetry_space_group_name_H-M   'P 1'
_cell_length_a   8.63008238
_cell_length_b   8.62618989
_cell_length_c   5.81033326
_cell_angle_alpha   89.98286206
_cell_angle_beta   90.03426043
_cell_angle_gamma   120.01493574
_symmetry_Int_Tables_number   1
_chemical_formula_structural   Hf10ZnSiSn5Sb
_chemical_formula_sum   'Hf10 Zn1 Si1 Sn5 Sb1'
_cell_volume   374.54169401
_cell_formula_units_Z   1
loop_
 _symmetry_equiv_pos_site_id
 _symmetry_equiv_pos_as_xyz
  1  'x, y, z'
loop_
 _atom_site_type_symbol
 _atom_site_label
 _atom_site_symmetry_multiplicity
 _atom_site_fract_x
 _atom_site_fract_y
 _atom_site_fract_z
 _atom_site_occupancy
  Hf  Hf0  1  0.736168  0.736787  0.245311  1
  Hf  Hf1  1  0.734883  0.000000  0.753837  1
  Hf  Hf2  1  0.999382  0.263213  0.245311  1
  Hf  Hf3  1  0.999911  0.735516  0.754966  1
  Hf  Hf4  1  0.264395  0.264484  0.754966  1
  Hf  Hf5  1  0.264823  0.000000  0.245296  1
  Hf  Hf6  1  0.334154  0.667468  0.500284  1
  Hf  Hf7  1  0.666644  0.332792  0.999615  1
  Hf  Hf8  1  0.666686  0.332532  0.500284  1
  Hf  Hf9  1  0.333852  0.667208  0.999615  1
  Zn  Zn10  1  0.000872  0.000000  0.501130  1
  Si  Si11  1  0.000250  0.000000  0.998990  1
  Sn  Sn12  1  0.388346  0.000000  0.747846  1
  Sn  Sn13  1  0.389593  0.389697  0.252553  1
  Sn  Sn14  1  0.999896  0.610303  0.252553  1
  Sn  Sn15  1  0.000670  0.390105  0.747114  1
  Sn  Sn16  1  0.610566  0.609895  0.747114  1
  Sb  Sb17  1  0.608912  0.000000  0.253213  1
