# generated using pymatgen
data_Dy4Ho8InCo6
_symmetry_space_group_name_H-M   'P 1'
_cell_length_a   8.33194602
_cell_length_b   8.33194470
_cell_length_c   8.33194652
_cell_angle_alpha   109.42176741
_cell_angle_beta   109.36077219
_cell_angle_gamma   109.63124640
_symmetry_Int_Tables_number   1
_chemical_formula_structural   Dy4Ho8InCo6
_chemical_formula_sum   'Dy4 Ho8 In1 Co6'
_cell_volume   445.26109071
_cell_formula_units_Z   1
loop_
 _symmetry_equiv_pos_site_id
 _symmetry_equiv_pos_as_xyz
  1  'x, y, z'
loop_
 _atom_site_type_symbol
 _atom_site_label
 _atom_site_symmetry_multiplicity
 _atom_site_fract_x
 _atom_site_fract_y
 _atom_site_fract_z
 _atom_site_occupancy
  Dy  Dy0  1  0.806437  0.698227  0.504663  1
  Dy  Dy1  1  0.193563  0.301773  0.495337  1
  Dy  Dy2  1  0.193563  0.698227  0.891789  1
  Dy  Dy3  1  0.806437  0.301773  0.108211  1
  Ho  Ho4  1  0.697755  0.504385  0.806631  1
  Ho  Ho5  1  0.302245  0.495615  0.193369  1
  Ho  Ho6  1  0.697755  0.891124  0.193369  1
  Ho  Ho7  1  0.302245  0.108876  0.806631  1
  Ho  Ho8  1  0.504529  0.806832  0.697697  1
  Ho  Ho9  1  0.495471  0.193168  0.302303  1
  Ho  Ho10  1  0.109135  0.806832  0.302303  1
  Ho  Ho11  1  0.890865  0.193168  0.697697  1
  In  In12  1  0.000000  0.000000  0.000000  1
  Co  Co13  1  0.886050  0.386050  0.500000  1
  Co  Co14  1  0.113950  0.613950  0.500000  1
  Co  Co15  1  0.386689  0.500000  0.886689  1
  Co  Co16  1  0.613311  0.500000  0.113311  1
  Co  Co17  1  0.500000  0.886435  0.386435  1
  Co  Co18  1  0.500000  0.113565  0.613565  1
