# generated using pymatgen
data_Zr3Sc(Ti4Sn5)2
_symmetry_space_group_name_H-M   'P 1'
_cell_length_a   10.56399392
_cell_length_b   10.58344051
_cell_length_c   10.58343889
_cell_angle_alpha   149.11002458
_cell_angle_beta   131.58450557
_cell_angle_gamma   58.55917469
_symmetry_Int_Tables_number   1
_chemical_formula_structural   Zr3Sc(Ti4Sn5)2
_chemical_formula_sum   'Zr3 Sc1 Ti8 Sn10'
_cell_volume   450.82175168
_cell_formula_units_Z   1
loop_
 _symmetry_equiv_pos_site_id
 _symmetry_equiv_pos_as_xyz
  1  'x, y, z'
loop_
 _atom_site_type_symbol
 _atom_site_label
 _atom_site_symmetry_multiplicity
 _atom_site_fract_x
 _atom_site_fract_y
 _atom_site_fract_z
 _atom_site_occupancy
  Zr  Zr0  1  0.251544  0.143210  0.108335  1
  Zr  Zr1  1  0.748878  0.857189  0.891688  1
  Zr  Zr2  1  0.033912  0.643403  0.390509  1
  Sc  Sc3  1  0.964402  0.355789  0.608613  1
  Ti  Ti4  1  0.310615  0.558135  0.251048  1
  Ti  Ti5  1  0.690919  0.442431  0.751733  1
  Ti  Ti6  1  0.690919  0.939186  0.248488  1
  Ti  Ti7  1  0.310615  0.059567  0.752480  1
  Ti  Ti8  1  0.675443  0.434952  0.240490  1
  Ti  Ti9  1  0.324068  0.565383  0.758686  1
  Ti  Ti10  1  0.193133  0.935495  0.257638  1
  Ti  Ti11  1  0.807080  0.065148  0.741932  1
  Sn  Sn12  1  0.585308  0.287978  0.297330  1
  Sn  Sn13  1  0.417264  0.712318  0.704946  1
  Sn  Sn14  1  0.993732  0.788179  0.205553  1
  Sn  Sn15  1  0.007101  0.212278  0.794823  1
  Sn  Sn16  1  0.000064  0.250537  0.250301  1
  Sn  Sn17  1  0.000064  0.749762  0.749527  1
  Sn  Sn18  1  0.470417  0.067828  0.402588  1
  Sn  Sn19  1  0.529960  0.932539  0.597422  1
  Sn  Sn20  1  0.664169  0.567131  0.097038  1
  Sn  Sn21  1  0.330392  0.431562  0.898830  1
