# generated using pymatgen
data_YbHoPd2Pb
_symmetry_space_group_name_H-M   'P 1'
_cell_length_a   7.86535400
_cell_length_b   7.86309400
_cell_length_c   3.64691900
_cell_angle_alpha   90.00000000
_cell_angle_beta   90.00000000
_cell_angle_gamma   90.00000000
_symmetry_Int_Tables_number   1
_chemical_formula_structural   YbHoPd2Pb
_chemical_formula_sum   'Yb2 Ho2 Pd4 Pb2'
_cell_volume   225.54741755
_cell_formula_units_Z   2
loop_
 _symmetry_equiv_pos_site_id
 _symmetry_equiv_pos_as_xyz
  1  'x, y, z'
loop_
 _atom_site_type_symbol
 _atom_site_label
 _atom_site_symmetry_multiplicity
 _atom_site_fract_x
 _atom_site_fract_y
 _atom_site_fract_z
 _atom_site_occupancy
  Yb  Yb0  1  0.671142  0.172032  0.500000  1
  Yb  Yb1  1  0.171142  0.327968  0.500000  1
  Ho  Ho2  1  0.829188  0.670161  0.500000  1
  Ho  Ho3  1  0.329188  0.829839  0.500000  1
  Pd  Pd4  1  0.374099  0.123909  0.000000  1
  Pd  Pd5  1  0.126022  0.626755  0.000000  1
  Pd  Pd6  1  0.626022  0.873245  0.000000  1
  Pd  Pd7  1  0.874099  0.376091  0.000000  1
  Pb  Pb8  1  0.999549  0.000858  0.000000  1
  Pb  Pb9  1  0.499549  0.499142  0.000000  1
