# generated using pymatgen
data_RbH4Cl5
_symmetry_space_group_name_H-M   'P 1'
_cell_length_a   10.28628446
_cell_length_b   8.12506467
_cell_length_c   8.12348153
_cell_angle_alpha   89.99889825
_cell_angle_beta   113.31960354
_cell_angle_gamma   113.32307339
_symmetry_Int_Tables_number   1
_chemical_formula_structural   RbH4Cl5
_chemical_formula_sum   'Rb2 H8 Cl10'
_cell_volume   562.55413485
_cell_formula_units_Z   2
loop_
 _symmetry_equiv_pos_site_id
 _symmetry_equiv_pos_as_xyz
  1  'x, y, z'
loop_
 _atom_site_type_symbol
 _atom_site_label
 _atom_site_symmetry_multiplicity
 _atom_site_fract_x
 _atom_site_fract_y
 _atom_site_fract_z
 _atom_site_occupancy
  Rb  Rb0  1  0.749963  0.875061  0.124951  1
  Rb  Rb1  1  0.250038  0.124941  0.875049  1
  H  H2  1  0.126652  0.726919  0.193294  1
  H  H3  1  0.373377  0.566565  0.273266  1
  H  H4  1  0.626596  0.193335  0.399794  1
  H  H5  1  0.126641  0.399691  0.433278  1
  H  H6  1  0.873361  0.600312  0.566723  1
  H  H7  1  0.373404  0.806667  0.600206  1
  H  H8  1  0.626623  0.433436  0.726734  1
  H  H9  1  0.873347  0.273081  0.806705  1
  Cl  Cl10  1  0.042778  0.796658  0.064837  1
  Cl  Cl11  1  0.457577  0.521822  0.204137  1
  Cl  Cl12  1  0.542760  0.064561  0.246410  1
  Cl  Cl13  1  0.249967  0.624795  0.374729  1
  Cl  Cl14  1  0.042671  0.246519  0.478359  1
  Cl  Cl15  1  0.957331  0.753483  0.521642  1
  Cl  Cl16  1  0.750033  0.375206  0.625271  1
  Cl  Cl17  1  0.457240  0.935439  0.753590  1
  Cl  Cl18  1  0.542423  0.478178  0.795864  1
  Cl  Cl19  1  0.957222  0.203342  0.935163  1
