# generated using pymatgen
data_Rh2Pb2O7
_symmetry_space_group_name_H-M   'P 1'
_cell_length_a   7.30160352
_cell_length_b   7.30160275
_cell_length_c   7.30160300
_cell_angle_alpha   59.99999434
_cell_angle_beta   59.99999783
_cell_angle_gamma   59.99998983
_symmetry_Int_Tables_number   1
_chemical_formula_structural   Rh2Pb2O7
_chemical_formula_sum   'Rh4 Pb4 O14'
_cell_volume   275.25778269
_cell_formula_units_Z   2
loop_
 _symmetry_equiv_pos_site_id
 _symmetry_equiv_pos_as_xyz
  1  'x, y, z'
loop_
 _atom_site_type_symbol
 _atom_site_label
 _atom_site_symmetry_multiplicity
 _atom_site_fract_x
 _atom_site_fract_y
 _atom_site_fract_z
 _atom_site_occupancy
  Rh  Rh0  1  0.125000  0.625000  0.625000  1
  Rh  Rh1  1  0.625000  0.125000  0.625000  1
  Rh  Rh2  1  0.625000  0.625000  0.125000  1
  Rh  Rh3  1  0.625000  0.625000  0.625000  1
  Pb  Pb4  1  0.625000  0.125000  0.125000  1
  Pb  Pb5  1  0.125000  0.625000  0.125000  1
  Pb  Pb6  1  0.125000  0.125000  0.625000  1
  Pb  Pb7  1  0.125000  0.125000  0.125000  1
  O  O8  1  0.707567  0.707567  0.292433  1
  O  O9  1  0.292433  0.292433  0.707567  1
  O  O10  1  0.707567  0.292433  0.707567  1
  O  O11  1  0.292433  0.707567  0.292433  1
  O  O12  1  0.292433  0.707567  0.707567  1
  O  O13  1  0.707567  0.292433  0.292433  1
  O  O14  1  0.542433  0.542433  0.957567  1
  O  O15  1  0.957567  0.957567  0.542433  1
  O  O16  1  0.542433  0.957567  0.542433  1
  O  O17  1  0.957567  0.542433  0.957567  1
  O  O18  1  0.957567  0.542433  0.542433  1
  O  O19  1  0.542433  0.957567  0.957567  1
  O  O20  1  0.250000  0.250000  0.250000  1
  O  O21  1  0.000000  0.000000  0.000000  1
