# generated using pymatgen
data_Zr6Zn19Cu3SiRh
_symmetry_space_group_name_H-M   'P 1'
_cell_length_a   8.73129332
_cell_length_b   8.72930251
_cell_length_c   8.74927012
_cell_angle_alpha   59.93937554
_cell_angle_beta   60.09251469
_cell_angle_gamma   60.14382806
_symmetry_Int_Tables_number   1
_chemical_formula_structural   Zr6Zn19Cu3SiRh
_chemical_formula_sum   'Zr6 Zn19 Cu3 Si1 Rh1'
_cell_volume   472.15882030
_cell_formula_units_Z   1
loop_
 _symmetry_equiv_pos_site_id
 _symmetry_equiv_pos_as_xyz
  1  'x, y, z'
loop_
 _atom_site_type_symbol
 _atom_site_label
 _atom_site_symmetry_multiplicity
 _atom_site_fract_x
 _atom_site_fract_y
 _atom_site_fract_z
 _atom_site_occupancy
  Zr  Zr0  1  0.709728  0.290946  0.290272  1
  Zr  Zr1  1  0.290272  0.709054  0.709728  1
  Zr  Zr2  1  0.289714  0.710286  0.289714  1
  Zr  Zr3  1  0.710286  0.289714  0.710286  1
  Zr  Zr4  1  0.288522  0.289235  0.711478  1
  Zr  Zr5  1  0.711478  0.710765  0.288522  1
  Zn  Zn6  1  0.117641  0.124156  0.123635  1
  Zn  Zn7  1  0.882359  0.875844  0.876365  1
  Zn  Zn8  1  0.118977  0.119383  0.635667  1
  Zn  Zn9  1  0.123635  0.634568  0.117641  1
  Zn  Zn10  1  0.881023  0.880617  0.364333  1
  Zn  Zn11  1  0.876365  0.365432  0.882359  1
  Zn  Zn12  1  0.635667  0.125972  0.118977  1
  Zn  Zn13  1  0.364333  0.874028  0.881023  1
  Zn  Zn14  1  0.500000  0.000000  0.000000  1
  Zn  Zn15  1  0.000000  0.500000  0.500000  1
  Zn  Zn16  1  0.500000  0.000000  0.500000  1
  Zn  Zn17  1  0.338025  0.338294  0.331027  1
  Zn  Zn18  1  0.661975  0.661706  0.668973  1
  Zn  Zn19  1  0.333501  0.340192  0.992555  1
  Zn  Zn20  1  0.331027  0.992653  0.338025  1
  Zn  Zn21  1  0.666499  0.659808  0.007445  1
  Zn  Zn22  1  0.668973  0.007347  0.661975  1
  Zn  Zn23  1  0.992555  0.333752  0.333501  1
  Zn  Zn24  1  0.007445  0.666248  0.666499  1
  Cu  Cu25  1  0.000000  0.500000  0.000000  1
  Cu  Cu26  1  0.000000  0.000000  0.500000  1
  Cu  Cu27  1  0.500000  0.500000  0.000000  1
  Si  Si28  1  0.500000  0.500000  0.500000  1
  Rh  Rh29  1  0.000000  0.000000  0.000000  1
