# generated using pymatgen
data_La2Tb5YSb20
_symmetry_space_group_name_H-M   'P 1'
_cell_length_a   4.29064200
_cell_length_b   13.39323163
_cell_length_c   14.85507940
_cell_angle_alpha   77.90242938
_cell_angle_beta   90.00000000
_cell_angle_gamma   90.00000000
_symmetry_Int_Tables_number   1
_chemical_formula_structural   La2Tb5YSb20
_chemical_formula_sum   'La2 Tb5 Y1 Sb20'
_cell_volume   834.69761310
_cell_formula_units_Z   1
loop_
 _symmetry_equiv_pos_site_id
 _symmetry_equiv_pos_as_xyz
  1  'x, y, z'
loop_
 _atom_site_type_symbol
 _atom_site_label
 _atom_site_symmetry_multiplicity
 _atom_site_fract_x
 _atom_site_fract_y
 _atom_site_fract_z
 _atom_site_occupancy
  La  La0  1  0.250000  0.953289  0.361130  1
  La  La1  1  0.750000  0.046781  0.638767  1
  Tb  Tb2  1  0.250000  0.661556  0.857294  1
  Tb  Tb3  1  0.250000  0.664734  0.577809  1
  Tb  Tb4  1  0.750000  0.335172  0.422094  1
  Tb  Tb5  1  0.250000  0.397464  0.772825  1
  Tb  Tb6  1  0.750000  0.602388  0.227194  1
  Y  Y7  1  0.750000  0.338732  0.142810  1
  Sb  Sb8  1  0.750000  0.844361  0.826894  1
  Sb  Sb9  1  0.250000  0.853252  0.679560  1
  Sb  Sb10  1  0.250000  0.152066  0.475339  1
  Sb  Sb11  1  0.750000  0.284207  0.937703  1
  Sb  Sb12  1  0.250000  0.145161  0.785017  1
  Sb  Sb13  1  0.750000  0.574603  0.443133  1
  Sb  Sb14  1  0.750000  0.146864  0.320208  1
  Sb  Sb15  1  0.250000  0.705346  0.351653  1
  Sb  Sb16  1  0.750000  0.294586  0.648349  1
  Sb  Sb17  1  0.750000  0.854760  0.215110  1
  Sb  Sb18  1  0.250000  0.420789  0.975584  1
  Sb  Sb19  1  0.250000  0.425354  0.556881  1
  Sb  Sb20  1  0.750000  0.575965  0.735982  1
  Sb  Sb21  1  0.250000  0.424000  0.263993  1
  Sb  Sb22  1  0.750000  0.847856  0.524614  1
  Sb  Sb23  1  0.750000  0.030435  0.896211  1
  Sb  Sb24  1  0.250000  0.715743  0.062634  1
  Sb  Sb25  1  0.250000  0.969444  0.103846  1
  Sb  Sb26  1  0.250000  0.155802  0.172930  1
  Sb  Sb27  1  0.750000  0.579290  0.024441  1
