# generated using pymatgen
data_Er9Tm(SnSb)3
_symmetry_space_group_name_H-M   'P 1'
_cell_length_a   8.89189501
_cell_length_b   8.88625735
_cell_length_c   6.36810308
_cell_angle_alpha   90.01612982
_cell_angle_beta   89.99944442
_cell_angle_gamma   120.01583859
_symmetry_Int_Tables_number   1
_chemical_formula_structural   Er9Tm(SnSb)3
_chemical_formula_sum   'Er9 Tm1 Sn3 Sb3'
_cell_volume   435.69700156
_cell_formula_units_Z   1
loop_
 _symmetry_equiv_pos_site_id
 _symmetry_equiv_pos_as_xyz
  1  'x, y, z'
loop_
 _atom_site_type_symbol
 _atom_site_label
 _atom_site_symmetry_multiplicity
 _atom_site_fract_x
 _atom_site_fract_y
 _atom_site_fract_z
 _atom_site_occupancy
  Er  Er0  1  0.001046  0.759523  0.750029  1
  Er  Er1  1  0.001283  0.242670  0.249963  1
  Er  Er2  1  0.758662  0.757282  0.249980  1
  Er  Er3  1  0.757540  0.000045  0.749958  1
  Er  Er4  1  0.241558  0.240429  0.749974  1
  Er  Er5  1  0.239712  0.000048  0.250068  1
  Er  Er6  1  0.666441  0.333639  0.999769  1
  Er  Er7  1  0.666487  0.333715  0.500264  1
  Er  Er8  1  0.332779  0.666364  0.999752  1
  Tm  Tm9  1  0.332670  0.666295  0.500175  1
  Sn  Sn10  1  0.392742  0.999677  0.749499  1
  Sn  Sn11  1  0.392245  0.392499  0.250405  1
  Sn  Sn12  1  0.000399  0.607862  0.250373  1
  Sb  Sb13  1  0.999620  0.390937  0.749712  1
  Sb  Sb14  1  0.608282  0.609321  0.749748  1
  Sb  Sb15  1  0.608535  0.999692  0.250330  1
