# generated using pymatgen
data_TbDy7Hf3Si16W9
_symmetry_space_group_name_H-M   'P 1'
_cell_length_a   6.96880266
_cell_length_b   6.96870469
_cell_length_c   12.92374902
_cell_angle_alpha   89.97068594
_cell_angle_beta   90.02166925
_cell_angle_gamma   89.92449460
_symmetry_Int_Tables_number   1
_chemical_formula_structural   TbDy7Hf3Si16W9
_chemical_formula_sum   'Tb1 Dy7 Hf3 Si16 W9'
_cell_volume   627.62217227
_cell_formula_units_Z   1
loop_
 _symmetry_equiv_pos_site_id
 _symmetry_equiv_pos_as_xyz
  1  'x, y, z'
loop_
 _atom_site_type_symbol
 _atom_site_label
 _atom_site_symmetry_multiplicity
 _atom_site_fract_x
 _atom_site_fract_y
 _atom_site_fract_z
 _atom_site_occupancy
  Tb  Tb0  1  0.662850  0.003828  0.279599  1
  Dy  Dy1  1  0.001072  0.336413  0.216903  1
  Dy  Dy2  1  0.003658  0.662696  0.720447  1
  Dy  Dy3  1  0.162146  0.498149  0.468591  1
  Dy  Dy4  1  0.499978  0.839283  0.030783  1
  Dy  Dy5  1  0.839318  0.500063  0.969186  1
  Dy  Dy6  1  0.498079  0.162154  0.531409  1
  Dy  Dy7  1  0.336418  0.001037  0.783093  1
  Hf  Hf8  1  0.832705  0.832619  0.500036  1
  Hf  Hf9  1  0.330862  0.667394  0.247712  1
  Hf  Hf10  1  0.667429  0.330917  0.752282  1
  Si  Si11  1  0.372554  0.295016  0.317702  1
  Si  Si12  1  0.625726  0.706967  0.817794  1
  Si  Si13  1  0.205158  0.873353  0.568247  1
  Si  Si14  1  0.124883  0.801978  0.933519  1
  Si  Si15  1  0.802047  0.124886  0.066412  1
  Si  Si16  1  0.873594  0.205331  0.431878  1
  Si  Si17  1  0.294854  0.372679  0.682311  1
  Si  Si18  1  0.706980  0.625428  0.182146  1
  Si  Si19  1  0.289260  0.043673  0.184133  1
  Si  Si20  1  0.707934  0.959545  0.688531  1
  Si  Si21  1  0.458260  0.791139  0.437669  1
  Si  Si22  1  0.209917  0.532206  0.059227  1
  Si  Si23  1  0.532195  0.209925  0.940751  1
  Si  Si24  1  0.791284  0.458421  0.562431  1
  Si  Si25  1  0.043710  0.289610  0.815798  1
  Si  Si26  1  0.959732  0.707838  0.311468  1
  W  W27  1  0.166360  0.166356  0.000006  1
  W  W28  1  0.162085  0.995175  0.375050  1
  W  W29  1  0.833566  0.005272  0.876863  1
  W  W30  1  0.505718  0.661687  0.626752  1
  W  W31  1  0.340232  0.497384  0.873678  1
  W  W32  1  0.497226  0.340338  0.126225  1
  W  W33  1  0.661722  0.505780  0.373301  1
  W  W34  1  0.995200  0.162051  0.624993  1
  W  W35  1  0.005291  0.833410  0.123071  1
