# generated using pymatgen
data_Li4Cd7InPd4
_symmetry_space_group_name_H-M   'P 1'
_cell_length_a   6.51523500
_cell_length_b   4.62550500
_cell_length_c   9.46134500
_cell_angle_alpha   90.00000000
_cell_angle_beta   90.00359746
_cell_angle_gamma   90.00000000
_symmetry_Int_Tables_number   1
_chemical_formula_structural   Li4Cd7InPd4
_chemical_formula_sum   'Li4 Cd7 In1 Pd4'
_cell_volume   285.12947755
_cell_formula_units_Z   1
loop_
 _symmetry_equiv_pos_site_id
 _symmetry_equiv_pos_as_xyz
  1  'x, y, z'
loop_
 _atom_site_type_symbol
 _atom_site_label
 _atom_site_symmetry_multiplicity
 _atom_site_fract_x
 _atom_site_fract_y
 _atom_site_fract_z
 _atom_site_occupancy
  Li  Li0  1  0.252375  0.250000  0.126817  1
  Li  Li1  1  0.749322  0.750000  0.374598  1
  Li  Li2  1  0.252335  0.250000  0.623941  1
  Li  Li3  1  0.746415  0.750000  0.874542  1
  Cd  Cd4  1  0.003503  0.750000  0.127123  1
  Cd  Cd5  1  0.497127  0.750000  0.125929  1
  Cd  Cd6  1  0.996147  0.250000  0.375227  1
  Cd  Cd7  1  0.505514  0.250000  0.375234  1
  Cd  Cd8  1  0.497133  0.750000  0.623533  1
  Cd  Cd9  1  0.003479  0.750000  0.622358  1
  Cd  Cd10  1  0.499992  0.250000  0.875217  1
  In  In11  1  0.997608  0.250000  0.875446  1
  Pd  Pd12  1  0.753146  0.250000  0.121442  1
  Pd  Pd13  1  0.249819  0.750000  0.374677  1
  Pd  Pd14  1  0.753145  0.250000  0.629178  1
  Pd  Pd15  1  0.242939  0.750000  0.874738  1
