# generated using pymatgen
data_Dy2Tm10Co4SnPd
_symmetry_space_group_name_H-M   'P 1'
_cell_length_a   8.22612555
_cell_length_b   8.21346250
_cell_length_c   8.21346393
_cell_angle_alpha   111.63493208
_cell_angle_beta   110.05914008
_cell_angle_gamma   106.69918306
_symmetry_Int_Tables_number   1
_chemical_formula_structural   Dy2Tm10Co4SnPd
_chemical_formula_sum   'Dy2 Tm10 Co4 Sn1 Pd1'
_cell_volume   426.68621324
_cell_formula_units_Z   1
loop_
 _symmetry_equiv_pos_site_id
 _symmetry_equiv_pos_as_xyz
  1  'x, y, z'
loop_
 _atom_site_type_symbol
 _atom_site_label
 _atom_site_symmetry_multiplicity
 _atom_site_fract_x
 _atom_site_fract_y
 _atom_site_fract_z
 _atom_site_occupancy
  Dy  Dy0  1  0.420576  0.223941  0.196634  1
  Dy  Dy1  1  0.579424  0.776059  0.803366  1
  Tm  Tm2  1  0.027439  0.224163  0.803276  1
  Tm  Tm3  1  0.972561  0.775837  0.196724  1
  Tm  Tm4  1  0.181750  0.285381  0.468803  1
  Tm  Tm5  1  0.818250  0.714619  0.531197  1
  Tm  Tm6  1  0.181750  0.712947  0.896368  1
  Tm  Tm7  1  0.818250  0.287053  0.103632  1
  Tm  Tm8  1  0.322382  0.636733  0.311050  1
  Tm  Tm9  1  0.677618  0.363267  0.688950  1
  Tm  Tm10  1  0.322382  0.011333  0.685651  1
  Tm  Tm11  1  0.677618  0.988667  0.314349  1
  Co  Co12  1  0.348919  0.999304  0.349615  1
  Co  Co13  1  0.651081  0.000696  0.650385  1
  Co  Co14  1  0.112000  0.614182  0.497818  1
  Co  Co15  1  0.888000  0.385818  0.502182  1
  Sn  Sn16  1  0.500000  0.500000  0.000000  1
  Pd  Pd17  1  0.000000  0.000000  0.000000  1
