# generated using pymatgen
data_Tm3Lu5Tc3B24Ru
_symmetry_space_group_name_H-M   'P 1'
_cell_length_a   3.61644500
_cell_length_b   9.05658850
_cell_length_c   11.42223700
_cell_angle_alpha   89.91994806
_cell_angle_beta   90.00000000
_cell_angle_gamma   90.00000000
_symmetry_Int_Tables_number   1
_chemical_formula_structural   Tm3Lu5Tc3B24Ru
_chemical_formula_sum   'Tm3 Lu5 Tc3 B24 Ru1'
_cell_volume   374.10821356
_cell_formula_units_Z   1
loop_
 _symmetry_equiv_pos_site_id
 _symmetry_equiv_pos_as_xyz
  1  'x, y, z'
loop_
 _atom_site_type_symbol
 _atom_site_label
 _atom_site_symmetry_multiplicity
 _atom_site_fract_x
 _atom_site_fract_y
 _atom_site_fract_z
 _atom_site_occupancy
  Tm  Tm0  1  0.000000  0.323172  0.413795  1
  Tm  Tm1  1  0.000000  0.675712  0.584169  1
  Tm  Tm2  1  0.000000  0.822401  0.087487  1
  Lu  Lu3  1  0.000000  0.178624  0.914355  1
  Lu  Lu4  1  0.000000  0.942916  0.370580  1
  Lu  Lu5  1  0.000000  0.057488  0.630135  1
  Lu  Lu6  1  0.000000  0.443369  0.129632  1
  Lu  Lu7  1  0.000000  0.557360  0.869773  1
  Tc  Tc8  1  0.000000  0.638655  0.320343  1
  Tc  Tc9  1  0.000000  0.361292  0.680438  1
  Tc  Tc10  1  0.000000  0.138307  0.178395  1
  B  B11  1  0.500000  0.552976  0.433408  1
  B  B12  1  0.500000  0.446755  0.566433  1
  B  B13  1  0.500000  0.052956  0.065926  1
  B  B14  1  0.500000  0.946184  0.933256  1
  B  B15  1  0.500000  0.750014  0.419543  1
  B  B16  1  0.500000  0.249572  0.580696  1
  B  B17  1  0.500000  0.250599  0.080149  1
  B  B18  1  0.500000  0.750184  0.919154  1
  B  B19  1  0.500000  0.792852  0.265204  1
  B  B20  1  0.500000  0.207068  0.735854  1
  B  B21  1  0.500000  0.292825  0.234929  1
  B  B22  1  0.500000  0.708123  0.764825  1
  B  B23  1  0.500000  0.630653  0.184627  1
  B  B24  1  0.500000  0.369295  0.816191  1
  B  B25  1  0.500000  0.130077  0.315018  1
  B  B26  1  0.500000  0.869229  0.684697  1
  B  B27  1  0.500000  0.980741  0.211985  1
  B  B28  1  0.500000  0.017863  0.788130  1
  B  B29  1  0.500000  0.481026  0.287710  1
  B  B30  1  0.500000  0.518906  0.712086  1
  B  B31  1  0.500000  0.601075  0.027727  1
  B  B32  1  0.500000  0.400513  0.972053  1
  B  B33  1  0.500000  0.100399  0.472345  1
  B  B34  1  0.500000  0.899402  0.528355  1
  Ru  Ru35  1  0.000000  0.861416  0.820596  1
