# generated using pymatgen
data_Na2Nb3Ni9As3P4
_symmetry_space_group_name_H-M   'P 1'
_cell_length_a   9.49651200
_cell_length_b   9.49651281
_cell_length_c   3.73802700
_cell_angle_alpha   90.00000000
_cell_angle_beta   90.00000000
_cell_angle_gamma   120.00000414
_symmetry_Int_Tables_number   1
_chemical_formula_structural   Na2Nb3Ni9As3P4
_chemical_formula_sum   'Na2 Nb3 Ni9 As3 P4'
_cell_volume   291.94519209
_cell_formula_units_Z   1
loop_
 _symmetry_equiv_pos_site_id
 _symmetry_equiv_pos_as_xyz
  1  'x, y, z'
loop_
 _atom_site_type_symbol
 _atom_site_label
 _atom_site_symmetry_multiplicity
 _atom_site_fract_x
 _atom_site_fract_y
 _atom_site_fract_z
 _atom_site_occupancy
  Na  Na0  1  0.333333  0.666667  0.000000  1
  Na  Na1  1  0.666667  0.333333  0.500000  1
  Nb  Nb2  1  0.221845  0.119874  0.500000  1
  Nb  Nb3  1  0.880126  0.101970  0.500000  1
  Nb  Nb4  1  0.898030  0.778155  0.500000  1
  Ni  Ni5  1  0.118781  0.278168  0.000000  1
  Ni  Ni6  1  0.721832  0.840614  0.000000  1
  Ni  Ni7  1  0.159386  0.881219  0.000000  1
  Ni  Ni8  1  0.437008  0.365469  0.000000  1
  Ni  Ni9  1  0.634531  0.071539  0.000000  1
  Ni  Ni10  1  0.928461  0.562992  0.000000  1
  Ni  Ni11  1  0.040694  0.430037  0.500000  1
  Ni  Ni12  1  0.569963  0.610657  0.500000  1
  Ni  Ni13  1  0.389343  0.959306  0.500000  1
  As  As14  1  0.292588  0.418185  0.500000  1
  As  As15  1  0.581815  0.874403  0.500000  1
  As  As16  1  0.125597  0.707412  0.500000  1
  P  P17  1  0.416750  0.112861  0.000000  1
  P  P18  1  0.887139  0.303888  0.000000  1
  P  P19  1  0.696112  0.583250  0.000000  1
  P  P20  1  0.000000  0.000000  0.000000  1
