# generated using pymatgen
data_ErTm(CO3)3
_symmetry_space_group_name_H-M   'P 1'
_cell_length_a   8.08558228
_cell_length_b   8.29528486
_cell_length_c   8.33229902
_cell_angle_alpha   119.86970399
_cell_angle_beta   90.04292898
_cell_angle_gamma   89.97253052
_symmetry_Int_Tables_number   1
_chemical_formula_structural   ErTm(CO3)3
_chemical_formula_sum   'Er2 Tm2 C6 O18'
_cell_volume   484.62595442
_cell_formula_units_Z   2
loop_
 _symmetry_equiv_pos_site_id
 _symmetry_equiv_pos_as_xyz
  1  'x, y, z'
loop_
 _atom_site_type_symbol
 _atom_site_label
 _atom_site_symmetry_multiplicity
 _atom_site_fract_x
 _atom_site_fract_y
 _atom_site_fract_z
 _atom_site_occupancy
  Er  Er0  1  0.966430  0.665384  0.332349  1
  Er  Er1  1  0.533672  0.667596  0.333660  1
  Tm  Tm2  1  0.466003  0.332364  0.666292  1
  Tm  Tm3  1  0.033925  0.334558  0.667617  1
  C  C4  1  0.249264  0.966119  0.373293  1
  C  C5  1  0.250184  0.408358  0.035006  1
  C  C6  1  0.749722  0.370371  0.408011  1
  C  C7  1  0.250289  0.629240  0.592972  1
  C  C8  1  0.749821  0.590694  0.963622  1
  C  C9  1  0.750702  0.035270  0.627140  1
  O  O10  1  0.110606  0.880144  0.321545  1
  O  O11  1  0.388618  0.881413  0.321669  1
  O  O12  1  0.749753  0.663176  0.144003  1
  O  O13  1  0.388966  0.443603  0.120669  1
  O  O14  1  0.111190  0.440444  0.119850  1
  O  O15  1  0.749410  0.478404  0.334819  1
  O  O16  1  0.751114  0.854107  0.518580  1
  O  O17  1  0.111141  0.680139  0.558318  1
  O  O18  1  0.389050  0.681535  0.559303  1
  O  O19  1  0.610735  0.318623  0.442069  1
  O  O20  1  0.889077  0.320023  0.443057  1
  O  O21  1  0.248891  0.147194  0.482854  1
  O  O22  1  0.250582  0.520179  0.665066  1
  O  O23  1  0.889044  0.558150  0.878890  1
  O  O24  1  0.610817  0.555054  0.878098  1
  O  O25  1  0.250247  0.336917  0.854684  1
  O  O26  1  0.611142  0.119836  0.678211  1
  O  O27  1  0.889603  0.121102  0.678352  1
