# generated using pymatgen
data_Dy13Ho7Si15Pt
_symmetry_space_group_name_H-M   'P 1'
_cell_length_a   7.42163597
_cell_length_b   7.67735253
_cell_length_c   14.56540000
_cell_angle_alpha   89.82936662
_cell_angle_beta   89.74075812
_cell_angle_gamma   90.23945143
_symmetry_Int_Tables_number   1
_chemical_formula_structural   Dy13Ho7Si15Pt
_chemical_formula_sum   'Dy13 Ho7 Si15 Pt1'
_cell_volume   829.89540201
_cell_formula_units_Z   1
loop_
 _symmetry_equiv_pos_site_id
 _symmetry_equiv_pos_as_xyz
  1  'x, y, z'
loop_
 _atom_site_type_symbol
 _atom_site_label
 _atom_site_symmetry_multiplicity
 _atom_site_fract_x
 _atom_site_fract_y
 _atom_site_fract_z
 _atom_site_occupancy
  Dy  Dy0  1  0.648337  0.992345  0.249528  1
  Dy  Dy1  1  0.149207  0.511077  0.247935  1
  Dy  Dy2  1  0.846253  0.488080  0.755704  1
  Dy  Dy3  1  0.351476  0.011152  0.751559  1
  Dy  Dy4  1  0.974615  0.817167  0.098162  1
  Dy  Dy5  1  0.472271  0.682389  0.401563  1
  Dy  Dy6  1  0.527382  0.322197  0.901372  1
  Dy  Dy7  1  0.028626  0.183579  0.598734  1
  Dy  Dy8  1  0.028296  0.182436  0.901285  1
  Dy  Dy9  1  0.528395  0.317904  0.598042  1
  Dy  Dy10  1  0.474686  0.681774  0.100315  1
  Dy  Dy11  1  0.970594  0.817340  0.400744  1
  Dy  Dy12  1  0.680983  0.816181  0.880721  1
  Ho  Ho13  1  0.178665  0.681365  0.621691  1
  Ho  Ho14  1  0.818818  0.330577  0.120301  1
  Ho  Ho15  1  0.316809  0.177837  0.376225  1
  Ho  Ho16  1  0.321219  0.178327  0.123915  1
  Ho  Ho17  1  0.819760  0.319907  0.377243  1
  Ho  Ho18  1  0.178076  0.675380  0.877738  1
  Ho  Ho19  1  0.681881  0.820215  0.622466  1
  Si  Si20  1  0.765893  0.628916  0.252357  1
  Si  Si21  1  0.265980  0.873133  0.250988  1
  Si  Si22  1  0.733355  0.123677  0.748695  1
  Si  Si23  1  0.233256  0.374317  0.746117  1
  Si  Si24  1  0.020487  0.106682  0.249097  1
  Si  Si25  1  0.523933  0.395270  0.251942  1
  Si  Si26  1  0.471656  0.606929  0.746413  1
  Si  Si27  1  0.977005  0.895052  0.748021  1
  Si  Si28  1  0.353502  0.971737  0.539720  1
  Si  Si29  1  0.647052  0.027577  0.042586  1
  Si  Si30  1  0.148365  0.469722  0.460201  1
  Si  Si31  1  0.158323  0.470861  0.041224  1
  Si  Si32  1  0.645126  0.029240  0.459626  1
  Si  Si33  1  0.352123  0.968736  0.961995  1
  Si  Si34  1  0.853528  0.529472  0.538891  1
  Pt  Pt35  1  0.854060  0.521447  0.956880  1
