# generated using pymatgen
data_Ta5Mn2Nb(Al2C)2
_symmetry_space_group_name_H-M   'P 1'
_cell_length_a   8.24479278
_cell_length_b   8.24480679
_cell_length_c   8.23798333
_cell_angle_alpha   59.92110471
_cell_angle_beta   59.92083439
_cell_angle_gamma   59.94076600
_symmetry_Int_Tables_number   1
_chemical_formula_structural   Ta5Mn2Nb(Al2C)2
_chemical_formula_sum   'Ta10 Mn4 Nb2 Al8 C4'
_cell_volume   395.32291764
_cell_formula_units_Z   2
loop_
 _symmetry_equiv_pos_site_id
 _symmetry_equiv_pos_as_xyz
  1  'x, y, z'
loop_
 _atom_site_type_symbol
 _atom_site_label
 _atom_site_symmetry_multiplicity
 _atom_site_fract_x
 _atom_site_fract_y
 _atom_site_fract_z
 _atom_site_occupancy
  Ta  Ta0  1  0.693749  0.306394  0.306651  1
  Ta  Ta1  1  0.305949  0.693991  0.305905  1
  Ta  Ta2  1  0.694153  0.693471  0.306263  1
  Ta  Ta3  1  0.306342  0.306071  0.693985  1
  Ta  Ta4  1  0.556492  0.555884  0.943740  1
  Ta  Ta5  1  0.944485  0.555499  0.555573  1
  Ta  Ta6  1  0.556001  0.944041  0.944083  1
  Ta  Ta7  1  0.943925  0.943662  0.556017  1
  Ta  Ta8  1  0.694507  0.305522  0.694401  1
  Ta  Ta9  1  0.943615  0.556256  0.943366  1
  Mn  Mn10  1  0.124805  0.125194  0.125001  1
  Mn  Mn11  1  0.625136  0.126052  0.122884  1
  Mn  Mn12  1  0.123951  0.624878  0.127087  1
  Mn  Mn13  1  0.121945  0.128054  0.625000  1
  Nb  Nb14  1  0.556430  0.943671  0.556027  1
  Nb  Nb15  1  0.306318  0.693564  0.694006  1
  Al  Al16  1  0.917362  0.916340  0.917347  1
  Al  Al17  1  0.001218  0.332853  0.332039  1
  Al  Al18  1  0.332916  0.000952  0.333090  1
  Al  Al19  1  0.332320  0.333359  0.001098  1
  Al  Al20  1  0.917158  0.248774  0.917963  1
  Al  Al21  1  0.916655  0.917666  0.248905  1
  Al  Al22  1  0.249054  0.917068  0.916914  1
  Al  Al23  1  0.333642  0.332655  0.332655  1
  C  C24  1  0.627124  0.622877  0.624999  1
  C  C25  1  0.124132  0.624517  0.624656  1
  C  C26  1  0.625484  0.125869  0.625344  1
  C  C27  1  0.625134  0.624866  0.125000  1
