# generated using pymatgen
data_TlOsF6
_symmetry_space_group_name_H-M   'P 1'
_cell_length_a   7.57250691
_cell_length_b   7.57248324
_cell_length_c   8.53911400
_cell_angle_alpha   57.97768102
_cell_angle_beta   57.97727541
_cell_angle_gamma   54.01149586
_symmetry_Int_Tables_number   1
_chemical_formula_structural   TlOsF6
_chemical_formula_sum   'Tl2 Os2 F12'
_cell_volume   318.39106168
_cell_formula_units_Z   2
loop_
 _symmetry_equiv_pos_site_id
 _symmetry_equiv_pos_as_xyz
  1  'x, y, z'
loop_
 _atom_site_type_symbol
 _atom_site_label
 _atom_site_symmetry_multiplicity
 _atom_site_fract_x
 _atom_site_fract_y
 _atom_site_fract_z
 _atom_site_occupancy
  Tl  Tl0  1  0.758240  0.241730  0.750055  1
  Tl  Tl1  1  0.241760  0.758270  0.249945  1
  Os  Os2  1  0.500000  0.000000  0.500000  1
  Os  Os3  1  0.000000  0.500000  0.000000  1
  F  F4  1  0.369691  0.854567  0.769484  1
  F  F5  1  0.630309  0.145433  0.230516  1
  F  F6  1  0.145386  0.630239  0.730546  1
  F  F7  1  0.854614  0.369761  0.269454  1
  F  F8  1  0.717497  0.776595  0.990315  1
  F  F9  1  0.282503  0.223405  0.009685  1
  F  F10  1  0.223435  0.282532  0.509692  1
  F  F11  1  0.776565  0.717468  0.490308  1
  F  F12  1  0.373715  0.909491  0.425424  1
  F  F13  1  0.626285  0.090509  0.574576  1
  F  F14  1  0.090578  0.626286  0.074450  1
  F  F15  1  0.909422  0.373714  0.925550  1
