# generated using pymatgen
data_Lu2Sc8Si5Sn
_symmetry_space_group_name_H-M   'P 1'
_cell_length_a   8.07062000
_cell_length_b   8.06458843
_cell_length_c   5.92204600
_cell_angle_alpha   90.00000000
_cell_angle_beta   90.00000000
_cell_angle_gamma   120.02473546
_symmetry_Int_Tables_number   1
_chemical_formula_structural   Lu2Sc8Si5Sn
_chemical_formula_sum   'Lu2 Sc8 Si5 Sn1'
_cell_volume   333.72075218
_cell_formula_units_Z   1
loop_
 _symmetry_equiv_pos_site_id
 _symmetry_equiv_pos_as_xyz
  1  'x, y, z'
loop_
 _atom_site_type_symbol
 _atom_site_label
 _atom_site_symmetry_multiplicity
 _atom_site_fract_x
 _atom_site_fract_y
 _atom_site_fract_z
 _atom_site_occupancy
  Lu  Lu0  1  0.999306  0.241698  0.250000  1
  Lu  Lu1  1  0.757607  0.758302  0.250000  1
  Sc  Sc2  1  0.988720  0.749437  0.750000  1
  Sc  Sc3  1  0.766692  0.000000  0.750000  1
  Sc  Sc4  1  0.239283  0.250563  0.750000  1
  Sc  Sc5  1  0.240737  0.000000  0.250000  1
  Sc  Sc6  1  0.331112  0.657192  0.497427  1
  Sc  Sc7  1  0.673921  0.342808  0.002573  1
  Sc  Sc8  1  0.673921  0.342808  0.497427  1
  Sc  Sc9  1  0.331112  0.657192  0.002573  1
  Si  Si10  1  0.397097  0.391698  0.250000  1
  Si  Si11  1  0.005400  0.608302  0.250000  1
  Si  Si12  1  0.998679  0.394437  0.750000  1
  Si  Si13  1  0.604242  0.605563  0.750000  1
  Si  Si14  1  0.597108  0.000000  0.250000  1
  Sn  Sn15  1  0.395063  0.000000  0.750000  1
