# generated using pymatgen
data_Ho2Zn(PIr2)6
_symmetry_space_group_name_H-M   'P 1'
_cell_length_a   9.67229600
_cell_length_b   9.67229509
_cell_length_c   3.94988300
_cell_angle_alpha   90.00000000
_cell_angle_beta   90.00000000
_cell_angle_gamma   119.99999718
_symmetry_Int_Tables_number   1
_chemical_formula_structural   Ho2Zn(PIr2)6
_chemical_formula_sum   'Ho2 Zn1 P6 Ir12'
_cell_volume   320.01769456
_cell_formula_units_Z   1
loop_
 _symmetry_equiv_pos_site_id
 _symmetry_equiv_pos_as_xyz
  1  'x, y, z'
loop_
 _atom_site_type_symbol
 _atom_site_label
 _atom_site_symmetry_multiplicity
 _atom_site_fract_x
 _atom_site_fract_y
 _atom_site_fract_z
 _atom_site_occupancy
  Ho  Ho0  1  0.333333  0.666667  0.753005  1
  Ho  Ho1  1  0.666667  0.333333  0.246995  1
  Zn  Zn2  1  0.000000  0.000000  0.500000  1
  P  P3  1  0.403533  0.281876  0.746802  1
  P  P4  1  0.718124  0.121656  0.746802  1
  P  P5  1  0.878344  0.596467  0.746802  1
  P  P6  1  0.596467  0.718124  0.253198  1
  P  P7  1  0.281876  0.878344  0.253198  1
  P  P8  1  0.121656  0.403533  0.253198  1
  Ir  Ir9  1  0.457548  0.068928  0.748690  1
  Ir  Ir10  1  0.931072  0.388619  0.748690  1
  Ir  Ir11  1  0.611381  0.542452  0.748690  1
  Ir  Ir12  1  0.542452  0.931072  0.251310  1
  Ir  Ir13  1  0.068928  0.611381  0.251310  1
  Ir  Ir14  1  0.388619  0.457548  0.251310  1
  Ir  Ir15  1  0.161557  0.286465  0.756722  1
  Ir  Ir16  1  0.713535  0.875092  0.756722  1
  Ir  Ir17  1  0.124908  0.838443  0.756722  1
  Ir  Ir18  1  0.838443  0.713535  0.243278  1
  Ir  Ir19  1  0.286465  0.124908  0.243278  1
  Ir  Ir20  1  0.875092  0.161557  0.243278  1
