# generated using pymatgen
data_Lu2Ga9TcRu4
_symmetry_space_group_name_H-M   'P 1'
_cell_length_a   7.97901211
_cell_length_b   7.97901188
_cell_length_c   7.97901388
_cell_angle_alpha   134.47325485
_cell_angle_beta   134.47325256
_cell_angle_gamma   66.34975819
_symmetry_Int_Tables_number   1
_chemical_formula_structural   Lu2Ga9TcRu4
_chemical_formula_sum   'Lu2 Ga9 Tc1 Ru4'
_cell_volume   254.61935461
_cell_formula_units_Z   1
loop_
 _symmetry_equiv_pos_site_id
 _symmetry_equiv_pos_as_xyz
  1  'x, y, z'
loop_
 _atom_site_type_symbol
 _atom_site_label
 _atom_site_symmetry_multiplicity
 _atom_site_fract_x
 _atom_site_fract_y
 _atom_site_fract_z
 _atom_site_occupancy
  Lu  Lu0  1  0.000206  0.500206  0.500000  1
  Lu  Lu1  1  0.500206  0.000206  0.500000  1
  Ga  Ga2  1  0.435345  0.857330  0.000000  1
  Ga  Ga3  1  0.142489  0.142489  0.579254  1
  Ga  Ga4  1  0.857330  0.435345  0.000000  1
  Ga  Ga5  1  0.857330  0.857330  0.421984  1
  Ga  Ga6  1  0.563234  0.142489  0.000000  1
  Ga  Ga7  1  0.142489  0.563234  0.000000  1
  Ga  Ga8  1  0.563234  0.563234  0.420746  1
  Ga  Ga9  1  0.000128  0.000128  0.000000  1
  Ga  Ga10  1  0.435345  0.435345  0.578016  1
  Tc  Tc11  1  0.182988  0.182988  0.000000  1
  Ru  Ru12  1  0.817810  0.817810  0.000000  1
  Ru  Ru13  1  0.250702  0.750702  0.500000  1
  Ru  Ru14  1  0.750702  0.250702  0.500000  1
  Ru  Ru15  1  0.500463  0.500463  0.000000  1
