# generated using pymatgen
data_Cs4Ba2HfAs4
_symmetry_space_group_name_H-M   'P 1'
_cell_length_a   11.23818237
_cell_length_b   11.23818365
_cell_length_c   8.26073752
_cell_angle_alpha   87.59368807
_cell_angle_beta   87.59368481
_cell_angle_gamma   119.37690599
_symmetry_Int_Tables_number   1
_chemical_formula_structural   Cs4Ba2HfAs4
_chemical_formula_sum   'Cs8 Ba4 Hf2 As8'
_cell_volume   905.99621345
_cell_formula_units_Z   2
loop_
 _symmetry_equiv_pos_site_id
 _symmetry_equiv_pos_as_xyz
  1  'x, y, z'
loop_
 _atom_site_type_symbol
 _atom_site_label
 _atom_site_symmetry_multiplicity
 _atom_site_fract_x
 _atom_site_fract_y
 _atom_site_fract_z
 _atom_site_occupancy
  Cs  Cs0  1  0.474434  0.940034  0.389926  1
  Cs  Cs1  1  0.940034  0.474434  0.889926  1
  Cs  Cs2  1  0.869351  0.724428  0.157780  1
  Cs  Cs3  1  0.259693  0.123929  0.241278  1
  Cs  Cs4  1  0.857677  0.142906  0.190845  1
  Cs  Cs5  1  0.123929  0.259693  0.741278  1
  Cs  Cs6  1  0.724428  0.869351  0.657780  1
  Cs  Cs7  1  0.142906  0.857677  0.690845  1
  Ba  Ba8  1  0.075418  0.534900  0.400838  1
  Ba  Ba9  1  0.476249  0.531856  0.377298  1
  Ba  Ba10  1  0.534900  0.075418  0.900838  1
  Ba  Ba11  1  0.531856  0.476249  0.877298  1
  Hf  Hf12  1  0.663118  0.336800  0.489204  1
  Hf  Hf13  1  0.336800  0.663118  0.989204  1
  As  As14  1  0.631076  0.327077  0.172044  1
  As  As15  1  0.327077  0.631076  0.672044  1
  As  As16  1  0.217365  0.416316  0.138196  1
  As  As17  1  0.591770  0.788726  0.068440  1
  As  As18  1  0.218268  0.798418  0.091819  1
  As  As19  1  0.788726  0.591770  0.568440  1
  As  As20  1  0.416316  0.217365  0.638196  1
  As  As21  1  0.798418  0.218268  0.591819  1
