# generated using pymatgen
data_PrNd2RuBr3
_symmetry_space_group_name_H-M   'P 1'
_cell_length_a   4.23760800
_cell_length_b   9.09734109
_cell_length_c   12.20049313
_cell_angle_alpha   87.23968466
_cell_angle_beta   90.00000000
_cell_angle_gamma   90.00000000
_symmetry_Int_Tables_number   1
_chemical_formula_structural   PrNd2RuBr3
_chemical_formula_sum   'Pr2 Nd4 Ru2 Br6'
_cell_volume   469.79506725
_cell_formula_units_Z   2
loop_
 _symmetry_equiv_pos_site_id
 _symmetry_equiv_pos_as_xyz
  1  'x, y, z'
loop_
 _atom_site_type_symbol
 _atom_site_label
 _atom_site_symmetry_multiplicity
 _atom_site_fract_x
 _atom_site_fract_y
 _atom_site_fract_z
 _atom_site_occupancy
  Pr  Pr0  1  0.250000  0.879704  0.839338  1
  Pr  Pr1  1  0.750000  0.120296  0.160662  1
  Nd  Nd2  1  0.250000  0.319790  0.378836  1
  Nd  Nd3  1  0.750000  0.680210  0.621164  1
  Nd  Nd4  1  0.250000  0.897525  0.387860  1
  Nd  Nd5  1  0.750000  0.102475  0.612140  1
  Ru  Ru6  1  0.250000  0.887805  0.621987  1
  Ru  Ru7  1  0.750000  0.112195  0.378013  1
  Br  Br8  1  0.250000  0.394590  0.626250  1
  Br  Br9  1  0.750000  0.605410  0.373750  1
  Br  Br10  1  0.250000  0.885372  0.115436  1
  Br  Br11  1  0.750000  0.114628  0.884564  1
  Br  Br12  1  0.250000  0.354497  0.126182  1
  Br  Br13  1  0.750000  0.645503  0.873818  1
