# generated using pymatgen
data_HfMn4Nb3Si4
_symmetry_space_group_name_H-M   'P 1'
_cell_length_a   3.56168900
_cell_length_b   6.44155075
_cell_length_c   7.55045298
_cell_angle_alpha   90.39650540
_cell_angle_beta   90.00000000
_cell_angle_gamma   90.00000000
_symmetry_Int_Tables_number   1
_chemical_formula_structural   HfMn4Nb3Si4
_chemical_formula_sum   'Hf1 Mn4 Nb3 Si4'
_cell_volume   173.22438798
_cell_formula_units_Z   1
loop_
 _symmetry_equiv_pos_site_id
 _symmetry_equiv_pos_as_xyz
  1  'x, y, z'
loop_
 _atom_site_type_symbol
 _atom_site_label
 _atom_site_symmetry_multiplicity
 _atom_site_fract_x
 _atom_site_fract_y
 _atom_site_fract_z
 _atom_site_occupancy
  Hf  Hf0  1  0.750000  0.533452  0.825522  1
  Mn  Mn1  1  0.250000  0.362803  0.563459  1
  Mn  Mn2  1  0.250000  0.862328  0.937318  1
  Mn  Mn3  1  0.750000  0.637787  0.435870  1
  Mn  Mn4  1  0.750000  0.135517  0.063922  1
  Nb  Nb5  1  0.250000  0.968462  0.325939  1
  Nb  Nb6  1  0.250000  0.466690  0.176766  1
  Nb  Nb7  1  0.750000  0.033490  0.671044  1
  Si  Si8  1  0.250000  0.738824  0.624676  1
  Si  Si9  1  0.250000  0.227962  0.872898  1
  Si  Si10  1  0.750000  0.266339  0.371732  1
  Si  Si11  1  0.750000  0.766346  0.130855  1
