# generated using pymatgen
data_Dy5Sc5CoSi20Ir7
_symmetry_space_group_name_H-M   'P 1'
_cell_length_a   12.48491154
_cell_length_b   12.46143155
_cell_length_c   4.15681400
_cell_angle_alpha   90.00000000
_cell_angle_beta   90.00000000
_cell_angle_gamma   90.09783752
_symmetry_Int_Tables_number   1
_chemical_formula_structural   Dy5Sc5CoSi20Ir7
_chemical_formula_sum   'Dy5 Sc5 Co1 Si20 Ir7'
_cell_volume   646.71564134
_cell_formula_units_Z   1
loop_
 _symmetry_equiv_pos_site_id
 _symmetry_equiv_pos_as_xyz
  1  'x, y, z'
loop_
 _atom_site_type_symbol
 _atom_site_label
 _atom_site_symmetry_multiplicity
 _atom_site_fract_x
 _atom_site_fract_y
 _atom_site_fract_z
 _atom_site_occupancy
  Dy  Dy0  1  0.999941  0.999199  0.000000  1
  Dy  Dy1  1  0.882909  0.387015  0.500000  1
  Dy  Dy2  1  0.114683  0.614178  0.500000  1
  Dy  Dy3  1  0.385258  0.116606  0.500000  1
  Dy  Dy4  1  0.615339  0.882837  0.500000  1
  Sc  Sc5  1  0.505337  0.500485  0.000000  1
  Sc  Sc6  1  0.673105  0.177254  0.500000  1
  Sc  Sc7  1  0.326774  0.825589  0.500000  1
  Sc  Sc8  1  0.174529  0.327780  0.500000  1
  Sc  Sc9  1  0.824831  0.670489  0.500000  1
  Co  Co10  1  0.742621  0.520757  0.000000  1
  Si  Si11  1  0.566909  0.069071  0.000000  1
  Si  Si12  1  0.434320  0.931535  0.000000  1
  Si  Si13  1  0.067433  0.434177  0.000000  1
  Si  Si14  1  0.925207  0.563757  0.000000  1
  Si  Si15  1  0.666626  0.690536  0.000000  1
  Si  Si16  1  0.334795  0.301211  0.000000  1
  Si  Si17  1  0.165702  0.799458  0.000000  1
  Si  Si18  1  0.832309  0.203030  0.000000  1
  Si  Si19  1  0.301543  0.665642  0.000000  1
  Si  Si20  1  0.698697  0.343781  0.000000  1
  Si  Si21  1  0.199734  0.166243  0.000000  1
  Si  Si22  1  0.798441  0.831294  0.000000  1
  Si  Si23  1  0.661665  0.506642  0.500000  1
  Si  Si24  1  0.350726  0.492899  0.500000  1
  Si  Si25  1  0.157307  0.993819  0.500000  1
  Si  Si26  1  0.843154  0.007213  0.500000  1
  Si  Si27  1  0.489443  0.650660  0.500000  1
  Si  Si28  1  0.504737  0.349475  0.500000  1
  Si  Si29  1  0.005826  0.156990  0.500000  1
  Si  Si30  1  0.990596  0.841546  0.500000  1
  Ir  Ir31  1  0.256813  0.480160  0.000000  1
  Ir  Ir32  1  0.247521  0.979401  0.000000  1
  Ir  Ir33  1  0.752850  0.020071  0.000000  1
  Ir  Ir34  1  0.481970  0.743076  0.000000  1
  Ir  Ir35  1  0.521362  0.257856  0.000000  1
  Ir  Ir36  1  0.020085  0.247112  0.000000  1
  Ir  Ir37  1  0.978904  0.751156  0.000000  1
