# generated using pymatgen
data_PrY3(WO6)2
_symmetry_space_group_name_H-M   'P 1'
_cell_length_a   5.46495600
_cell_length_b   7.81141330
_cell_length_c   11.59098005
_cell_angle_alpha   75.64895491
_cell_angle_beta   90.00000000
_cell_angle_gamma   90.00000000
_symmetry_Int_Tables_number   1
_chemical_formula_structural   PrY3(WO6)2
_chemical_formula_sum   'Pr2 Y6 W4 O24'
_cell_volume   479.36736676
_cell_formula_units_Z   2
loop_
 _symmetry_equiv_pos_site_id
 _symmetry_equiv_pos_as_xyz
  1  'x, y, z'
loop_
 _atom_site_type_symbol
 _atom_site_label
 _atom_site_symmetry_multiplicity
 _atom_site_fract_x
 _atom_site_fract_y
 _atom_site_fract_z
 _atom_site_occupancy
  Pr  Pr0  1  0.314704  0.500000  0.750000  1
  Pr  Pr1  1  0.685296  0.500000  0.250000  1
  Y  Y2  1  0.187095  0.797126  0.076896  1
  Y  Y3  1  0.258142  0.000000  0.750000  1
  Y  Y4  1  0.741858  0.000000  0.250000  1
  Y  Y5  1  0.187095  0.202874  0.423104  1
  Y  Y6  1  0.812905  0.202874  0.923104  1
  Y  Y7  1  0.812905  0.797126  0.576896  1
  W  W8  1  0.746487  0.727904  0.884364  1
  W  W9  1  0.253513  0.727904  0.384364  1
  W  W10  1  0.746487  0.272096  0.615636  1
  W  W11  1  0.253513  0.272096  0.115636  1
  O  O12  1  0.853348  0.357682  0.454952  1
  O  O13  1  0.468180  0.845995  0.930468  1
  O  O14  1  0.853348  0.642318  0.045048  1
  O  O15  1  0.013664  0.280837  0.729767  1
  O  O16  1  0.986336  0.280837  0.229767  1
  O  O17  1  0.146652  0.357682  0.954952  1
  O  O18  1  0.651379  0.494691  0.887258  1
  O  O19  1  0.531820  0.154005  0.069532  1
  O  O20  1  0.146652  0.642318  0.545048  1
  O  O21  1  0.013664  0.719163  0.770233  1
  O  O22  1  0.455266  0.205656  0.272315  1
  O  O23  1  0.043009  0.940834  0.395726  1
  O  O24  1  0.468180  0.154005  0.569532  1
  O  O25  1  0.986336  0.719163  0.270233  1
  O  O26  1  0.956991  0.059166  0.604274  1
  O  O27  1  0.544734  0.205656  0.772315  1
  O  O28  1  0.544734  0.794344  0.727685  1
  O  O29  1  0.043009  0.059166  0.104274  1
  O  O30  1  0.651379  0.505309  0.612742  1
  O  O31  1  0.348621  0.505309  0.112742  1
  O  O32  1  0.455266  0.794344  0.227685  1
  O  O33  1  0.348621  0.494691  0.387258  1
  O  O34  1  0.531820  0.845995  0.430468  1
  O  O35  1  0.956991  0.940834  0.895726  1
