# generated using pymatgen
data_PrPt2(SO4)4
_symmetry_space_group_name_H-M   'P 1'
_cell_length_a   6.51386743
_cell_length_b   6.51386738
_cell_length_c   9.15000063
_cell_angle_alpha   73.07731882
_cell_angle_beta   73.07732951
_cell_angle_gamma   88.21512498
_symmetry_Int_Tables_number   1
_chemical_formula_structural   PrPt2(SO4)4
_chemical_formula_sum   'Pr1 Pt2 S4 O16'
_cell_volume   354.73467435
_cell_formula_units_Z   1
loop_
 _symmetry_equiv_pos_site_id
 _symmetry_equiv_pos_as_xyz
  1  'x, y, z'
loop_
 _atom_site_type_symbol
 _atom_site_label
 _atom_site_symmetry_multiplicity
 _atom_site_fract_x
 _atom_site_fract_y
 _atom_site_fract_z
 _atom_site_occupancy
  Pr  Pr0  1  0.000000  0.000000  0.000000  1
  Pt  Pt1  1  0.000000  0.000000  0.500000  1
  Pt  Pt2  1  0.500000  0.500000  0.500000  1
  S  S3  1  0.094143  0.597563  0.742622  1
  S  S4  1  0.597561  0.094144  0.742623  1
  S  S5  1  0.905857  0.402437  0.257378  1
  S  S6  1  0.402439  0.905856  0.257377  1
  O  O7  1  0.336673  0.639524  0.664509  1
  O  O8  1  0.639523  0.336674  0.664511  1
  O  O9  1  0.663327  0.360476  0.335491  1
  O  O10  1  0.360477  0.663326  0.335489  1
  O  O11  1  0.035126  0.715973  0.860508  1
  O  O12  1  0.715972  0.035127  0.860510  1
  O  O13  1  0.964874  0.284027  0.139492  1
  O  O14  1  0.284028  0.964873  0.139490  1
  O  O15  1  0.986858  0.682849  0.610483  1
  O  O16  1  0.682849  0.986858  0.610485  1
  O  O17  1  0.013142  0.317151  0.389517  1
  O  O18  1  0.317151  0.013142  0.389515  1
  O  O19  1  0.034268  0.367445  0.808449  1
  O  O20  1  0.367444  0.034268  0.808449  1
  O  O21  1  0.965732  0.632555  0.191551  1
  O  O22  1  0.632556  0.965732  0.191551  1
