# generated using pymatgen
data_DyLu15Tl5InCo2
_symmetry_space_group_name_H-M   'P 1'
_cell_length_a   10.13106555
_cell_length_b   10.13106691
_cell_length_c   6.96883201
_cell_angle_alpha   90.00608697
_cell_angle_beta   89.99390972
_cell_angle_gamma   119.96266653
_symmetry_Int_Tables_number   1
_chemical_formula_structural   DyLu15Tl5InCo2
_chemical_formula_sum   'Dy1 Lu15 Tl5 In1 Co2'
_cell_volume   619.67530677
_cell_formula_units_Z   1
loop_
 _symmetry_equiv_pos_site_id
 _symmetry_equiv_pos_as_xyz
  1  'x, y, z'
loop_
 _atom_site_type_symbol
 _atom_site_label
 _atom_site_symmetry_multiplicity
 _atom_site_fract_x
 _atom_site_fract_y
 _atom_site_fract_z
 _atom_site_occupancy
  Dy  Dy0  1  0.000568  0.999432  0.000044  1
  Lu  Lu1  1  0.534908  0.071513  0.513010  1
  Lu  Lu2  1  0.928487  0.465092  0.513010  1
  Lu  Lu3  1  0.536269  0.463731  0.514136  1
  Lu  Lu4  1  0.463738  0.927395  0.014572  1
  Lu  Lu5  1  0.072605  0.536262  0.014572  1
  Lu  Lu6  1  0.463451  0.536549  0.014140  1
  Lu  Lu7  1  0.179276  0.359150  0.716132  1
  Lu  Lu8  1  0.640850  0.820724  0.716132  1
  Lu  Lu9  1  0.179474  0.820526  0.718115  1
  Lu  Lu10  1  0.820051  0.640638  0.217428  1
  Lu  Lu11  1  0.359362  0.179949  0.217428  1
  Lu  Lu12  1  0.820392  0.179608  0.217629  1
  Lu  Lu13  1  0.666721  0.333279  0.903931  1
  Lu  Lu14  1  0.333164  0.666836  0.405488  1
  Lu  Lu15  1  0.000710  0.999290  0.498512  1
  Tl  Tl16  1  0.836759  0.673657  0.761240  1
  Tl  Tl17  1  0.326343  0.163241  0.761240  1
  Tl  Tl18  1  0.836726  0.163274  0.761092  1
  Tl  Tl19  1  0.163010  0.326221  0.264449  1
  Tl  Tl20  1  0.673779  0.836990  0.264449  1
  In  In21  1  0.163346  0.836654  0.263744  1
  Co  Co22  1  0.666580  0.333420  0.285859  1
  Co  Co23  1  0.333433  0.666567  0.787846  1
