# generated using pymatgen
data_Tb3Yb(Al8Pt3)3
_symmetry_space_group_name_H-M   'P 1'
_cell_length_a   7.54451091
_cell_length_b   7.56093431
_cell_length_c   13.20433944
_cell_angle_alpha   84.60204144
_cell_angle_beta   79.07910872
_cell_angle_gamma   59.91895945
_symmetry_Int_Tables_number   1
_chemical_formula_structural   Tb3Yb(Al8Pt3)3
_chemical_formula_sum   'Tb3 Yb1 Al24 Pt9'
_cell_volume   639.97219150
_cell_formula_units_Z   1
loop_
 _symmetry_equiv_pos_site_id
 _symmetry_equiv_pos_as_xyz
  1  'x, y, z'
loop_
 _atom_site_type_symbol
 _atom_site_label
 _atom_site_symmetry_multiplicity
 _atom_site_fract_x
 _atom_site_fract_y
 _atom_site_fract_z
 _atom_site_occupancy
  Tb  Tb0  1  0.605504  0.832392  0.191674  1
  Tb  Tb1  1  0.733945  0.498496  0.808005  1
  Tb  Tb2  1  0.266484  0.500825  0.191916  1
  Yb  Yb3  1  0.393795  0.168464  0.807487  1
  Al  Al4  1  0.684298  0.834028  0.944575  1
  Al  Al5  1  0.315464  0.166293  0.054632  1
  Al  Al6  1  0.146827  0.832362  0.561226  1
  Al  Al7  1  0.853173  0.167798  0.438221  1
  Al  Al8  1  0.479778  0.166696  0.559079  1
  Al  Al9  1  0.520308  0.833618  0.440970  1
  Al  Al10  1  0.217396  0.165159  0.329799  1
  Al  Al11  1  0.781976  0.835899  0.670171  1
  Al  Al12  1  0.437161  0.505706  0.669924  1
  Al  Al13  1  0.562821  0.493103  0.330045  1
  Al  Al14  1  0.110550  0.159991  0.668803  1
  Al  Al15  1  0.890271  0.840040  0.331226  1
  Al  Al16  1  0.352587  0.499170  0.944761  1
  Al  Al17  1  0.647089  0.500626  0.055649  1
  Al  Al18  1  0.015685  0.167803  0.953978  1
  Al  Al19  1  0.984534  0.831913  0.046485  1
  Al  Al20  1  0.186651  0.499063  0.441002  1
  Al  Al21  1  0.813714  0.500450  0.558558  1
  Al  Al22  1  0.734507  0.164346  0.183480  1
  Al  Al23  1  0.266060  0.834235  0.816786  1
  Al  Al24  1  0.060195  0.632538  0.815709  1
  Al  Al25  1  0.938186  0.368658  0.184741  1
  Al  Al26  1  0.856329  0.041908  0.816288  1
  Al  Al27  1  0.144933  0.958673  0.184056  1
  Pt  Pt28  1  0.120309  0.492518  0.637850  1
  Pt  Pt29  1  0.879734  0.508074  0.361702  1
  Pt  Pt30  1  0.657065  0.171140  0.000542  1
  Pt  Pt31  1  0.342283  0.828599  0.000901  1
  Pt  Pt32  1  0.537847  0.166708  0.361688  1
  Pt  Pt33  1  0.462118  0.832922  0.637806  1
  Pt  Pt34  1  0.779706  0.174588  0.636673  1
  Pt  Pt35  1  0.221041  0.824974  0.362772  1
  Pt  Pt36  1  0.999679  0.500226  0.000819  1
