# generated using pymatgen
data_Dy9Y7(ScIr3)4
_symmetry_space_group_name_H-M   'P 1'
_cell_length_a   10.80842802
_cell_length_b   10.80939210
_cell_length_c   6.29249305
_cell_angle_alpha   90.01396996
_cell_angle_beta   89.99902100
_cell_angle_gamma   89.99367091
_symmetry_Int_Tables_number   1
_chemical_formula_structural   Dy9Y7(ScIr3)4
_chemical_formula_sum   'Dy9 Y7 Sc4 Ir12'
_cell_volume   735.16789642
_cell_formula_units_Z   1
loop_
 _symmetry_equiv_pos_site_id
 _symmetry_equiv_pos_as_xyz
  1  'x, y, z'
loop_
 _atom_site_type_symbol
 _atom_site_label
 _atom_site_symmetry_multiplicity
 _atom_site_fract_x
 _atom_site_fract_y
 _atom_site_fract_z
 _atom_site_occupancy
  Dy  Dy0  1  0.414006  0.211816  0.878246  1
  Dy  Dy1  1  0.211774  0.414110  0.621665  1
  Dy  Dy2  1  0.211598  0.585858  0.121747  1
  Dy  Dy3  1  0.788435  0.414158  0.121641  1
  Dy  Dy4  1  0.788381  0.585815  0.621696  1
  Dy  Dy5  1  0.914156  0.711606  0.121661  1
  Dy  Dy6  1  0.914197  0.288376  0.621705  1
  Dy  Dy7  1  0.085860  0.711638  0.621714  1
  Dy  Dy8  1  0.085856  0.288399  0.121689  1
  Y  Y9  1  0.287725  0.086132  0.377627  1
  Y  Y10  1  0.287694  0.913854  0.877767  1
  Y  Y11  1  0.712266  0.086135  0.877826  1
  Y  Y12  1  0.712183  0.913889  0.377792  1
  Y  Y13  1  0.586140  0.787677  0.877732  1
  Y  Y14  1  0.586121  0.212286  0.377601  1
  Y  Y15  1  0.413939  0.787830  0.377805  1
  Sc  Sc16  1  0.000068  0.000010  0.500043  1
  Sc  Sc17  1  0.999994  0.999946  0.999959  1
  Sc  Sc18  1  0.500000  0.500025  0.999976  1
  Sc  Sc19  1  0.499949  0.500052  0.499779  1
  Ir  Ir20  1  0.853680  0.147707  0.250565  1
  Ir  Ir21  1  0.853672  0.852334  0.750549  1
  Ir  Ir22  1  0.146722  0.147752  0.750842  1
  Ir  Ir23  1  0.146284  0.852334  0.250576  1
  Ir  Ir24  1  0.647294  0.353397  0.750780  1
  Ir  Ir25  1  0.647690  0.646243  0.250596  1
  Ir  Ir26  1  0.352430  0.353333  0.249506  1
  Ir  Ir27  1  0.352290  0.646273  0.750560  1
  Ir  Ir28  1  0.499786  0.000569  0.122699  1
  Ir  Ir29  1  0.499809  0.000461  0.623919  1
  Ir  Ir30  1  0.000030  0.499972  0.876874  1
  Ir  Ir31  1  0.999972  0.500012  0.376863  1
