# generated using pymatgen
data_Zr10AlSi3As2O
_symmetry_space_group_name_H-M   'P 1'
_cell_length_a   8.05086909
_cell_length_b   8.03341707
_cell_length_c   5.57269369
_cell_angle_alpha   90.12252786
_cell_angle_beta   89.75548206
_cell_angle_gamma   120.07187517
_symmetry_Int_Tables_number   1
_chemical_formula_structural   Zr10AlSi3As2O
_chemical_formula_sum   'Zr10 Al1 Si3 As2 O1'
_cell_volume   311.90327192
_cell_formula_units_Z   1
loop_
 _symmetry_equiv_pos_site_id
 _symmetry_equiv_pos_as_xyz
  1  'x, y, z'
loop_
 _atom_site_type_symbol
 _atom_site_label
 _atom_site_symmetry_multiplicity
 _atom_site_fract_x
 _atom_site_fract_y
 _atom_site_fract_z
 _atom_site_occupancy
  Zr  Zr0  1  0.004703  0.758362  0.253765  1
  Zr  Zr1  1  0.246340  0.241639  0.253765  1
  Zr  Zr2  1  0.756664  0.000000  0.252635  1
  Zr  Zr3  1  0.002022  0.245835  0.745813  1
  Zr  Zr4  1  0.756186  0.754166  0.745814  1
  Zr  Zr5  1  0.241397  0.000000  0.749114  1
  Zr  Zr6  1  0.329448  0.662878  0.501695  1
  Zr  Zr7  1  0.666571  0.337122  0.501695  1
  Zr  Zr8  1  0.667073  0.337744  0.999231  1
  Zr  Zr9  1  0.329328  0.662256  0.999231  1
  Al  Al10  1  0.601659  0.000001  0.754894  1
  Si  Si11  1  0.400650  0.000001  0.244819  1
  Si  Si12  1  0.999832  0.608220  0.754908  1
  Si  Si13  1  0.391613  0.391780  0.754908  1
  As  As14  1  0.998675  0.391767  0.245342  1
  As  As15  1  0.606908  0.608232  0.245342  1
  O  O16  1  0.000930  0.999999  0.497030  1
