# generated using pymatgen
data_LaPr3PtPb3O14
_symmetry_space_group_name_H-M   'P 1'
_cell_length_a   7.73080975
_cell_length_b   7.75241736
_cell_length_c   7.75241600
_cell_angle_alpha   59.99999729
_cell_angle_beta   59.90749625
_cell_angle_gamma   59.90749089
_symmetry_Int_Tables_number   1
_chemical_formula_structural   LaPr3PtPb3O14
_chemical_formula_sum   'La1 Pr3 Pt1 Pb3 O14'
_cell_volume   328.07680815
_cell_formula_units_Z   1
loop_
 _symmetry_equiv_pos_site_id
 _symmetry_equiv_pos_as_xyz
  1  'x, y, z'
loop_
 _atom_site_type_symbol
 _atom_site_label
 _atom_site_symmetry_multiplicity
 _atom_site_fract_x
 _atom_site_fract_y
 _atom_site_fract_z
 _atom_site_occupancy
  La  La0  1  0.625000  0.125000  0.125000  1
  Pr  Pr1  1  0.125000  0.125000  0.125000  1
  Pr  Pr2  1  0.125000  0.625000  0.125000  1
  Pr  Pr3  1  0.125000  0.125000  0.625000  1
  Pt  Pt4  1  0.125000  0.625000  0.625000  1
  Pb  Pb5  1  0.625000  0.625000  0.125000  1
  Pb  Pb6  1  0.625000  0.625000  0.625000  1
  Pb  Pb7  1  0.625000  0.125000  0.625000  1
  O  O8  1  0.727348  0.280274  0.280274  1
  O  O9  1  0.727348  0.712104  0.280274  1
  O  O10  1  0.277579  0.710265  0.301891  1
  O  O11  1  0.002380  0.999207  0.999207  1
  O  O12  1  0.727348  0.280274  0.712104  1
  O  O13  1  0.972421  0.539735  0.539735  1
  O  O14  1  0.277579  0.710265  0.710265  1
  O  O15  1  0.522652  0.969726  0.537896  1
  O  O16  1  0.247620  0.250793  0.250793  1
  O  O17  1  0.972421  0.539735  0.948109  1
  O  O18  1  0.522652  0.537896  0.969726  1
  O  O19  1  0.972421  0.948109  0.539735  1
  O  O20  1  0.522652  0.969726  0.969726  1
  O  O21  1  0.277579  0.301891  0.710265  1
