# generated using pymatgen
data_Pr2ScBe2Rh5
_symmetry_space_group_name_H-M   'P 1'
_cell_length_a   9.93526300
_cell_length_b   9.93526300
_cell_length_c   3.35802300
_cell_angle_alpha   90.00000000
_cell_angle_beta   90.00000000
_cell_angle_gamma   90.00000000
_symmetry_Int_Tables_number   1
_chemical_formula_structural   Pr2ScBe2Rh5
_chemical_formula_sum   'Pr4 Sc2 Be4 Rh10'
_cell_volume   331.46860637
_cell_formula_units_Z   2
loop_
 _symmetry_equiv_pos_site_id
 _symmetry_equiv_pos_as_xyz
  1  'x, y, z'
loop_
 _atom_site_type_symbol
 _atom_site_label
 _atom_site_symmetry_multiplicity
 _atom_site_fract_x
 _atom_site_fract_y
 _atom_site_fract_z
 _atom_site_occupancy
  Pr  Pr0  1  0.822888  0.322888  0.000000  1
  Pr  Pr1  1  0.322888  0.177112  0.000000  1
  Pr  Pr2  1  0.677112  0.822888  0.000000  1
  Pr  Pr3  1  0.177112  0.677112  0.000000  1
  Sc  Sc4  1  0.000000  0.000000  0.000000  1
  Sc  Sc5  1  0.500000  0.500000  0.000000  1
  Be  Be6  1  0.619096  0.119096  0.000000  1
  Be  Be7  1  0.119096  0.380904  0.000000  1
  Be  Be8  1  0.880904  0.619096  0.000000  1
  Be  Be9  1  0.380904  0.880904  0.000000  1
  Rh  Rh10  1  0.067875  0.219565  0.500000  1
  Rh  Rh11  1  0.219565  0.932125  0.500000  1
  Rh  Rh12  1  0.780435  0.067875  0.500000  1
  Rh  Rh13  1  0.932125  0.780435  0.500000  1
  Rh  Rh14  1  0.432125  0.719565  0.500000  1
  Rh  Rh15  1  0.567875  0.280435  0.500000  1
  Rh  Rh16  1  0.719565  0.567875  0.500000  1
  Rh  Rh17  1  0.280435  0.432125  0.500000  1
  Rh  Rh18  1  0.500000  0.000000  0.500000  1
  Rh  Rh19  1  0.000000  0.500000  0.500000  1
