# generated using pymatgen
data_ErTm2Cr(Co4P3)2
_symmetry_space_group_name_H-M   'P 1'
_cell_length_a   3.66798800
_cell_length_b   10.49252600
_cell_length_c   12.13427000
_cell_angle_alpha   90.00000000
_cell_angle_beta   90.00000000
_cell_angle_gamma   90.00000000
_symmetry_Int_Tables_number   1
_chemical_formula_structural   ErTm2Cr(Co4P3)2
_chemical_formula_sum   'Er2 Tm4 Cr2 Co16 P12'
_cell_volume   467.00509040
_cell_formula_units_Z   2
loop_
 _symmetry_equiv_pos_site_id
 _symmetry_equiv_pos_as_xyz
  1  'x, y, z'
loop_
 _atom_site_type_symbol
 _atom_site_label
 _atom_site_symmetry_multiplicity
 _atom_site_fract_x
 _atom_site_fract_y
 _atom_site_fract_z
 _atom_site_occupancy
  Er  Er0  1  0.750000  0.250000  0.476941  1
  Er  Er1  1  0.250000  0.750000  0.523059  1
  Tm  Tm2  1  0.250000  0.931826  0.795107  1
  Tm  Tm3  1  0.250000  0.568174  0.795107  1
  Tm  Tm4  1  0.750000  0.068174  0.204893  1
  Tm  Tm5  1  0.750000  0.431826  0.204893  1
  Cr  Cr6  1  0.250000  0.250000  0.843665  1
  Cr  Cr7  1  0.750000  0.750000  0.156335  1
  Co  Co8  1  0.250000  0.250000  0.297725  1
  Co  Co9  1  0.750000  0.750000  0.702275  1
  Co  Co10  1  0.750000  0.250000  0.013444  1
  Co  Co11  1  0.250000  0.750000  0.986556  1
  Co  Co12  1  0.250000  0.417339  0.007397  1
  Co  Co13  1  0.250000  0.082661  0.007397  1
  Co  Co14  1  0.750000  0.582661  0.992603  1
  Co  Co15  1  0.750000  0.917339  0.992603  1
  Co  Co16  1  0.250000  0.453630  0.569167  1
  Co  Co17  1  0.250000  0.046370  0.569167  1
  Co  Co18  1  0.750000  0.546370  0.430833  1
  Co  Co19  1  0.750000  0.953630  0.430833  1
  Co  Co20  1  0.250000  0.871353  0.291117  1
  Co  Co21  1  0.250000  0.628647  0.291117  1
  Co  Co22  1  0.750000  0.128647  0.708883  1
  Co  Co23  1  0.750000  0.371353  0.708883  1
  P  P24  1  0.250000  0.250000  0.118756  1
  P  P25  1  0.750000  0.750000  0.881244  1
  P  P26  1  0.250000  0.250000  0.654422  1
  P  P27  1  0.750000  0.750000  0.345578  1
  P  P28  1  0.250000  0.437855  0.383360  1
  P  P29  1  0.250000  0.062145  0.383360  1
  P  P30  1  0.750000  0.562145  0.616640  1
  P  P31  1  0.750000  0.937855  0.616640  1
  P  P32  1  0.250000  0.903035  0.108264  1
  P  P33  1  0.250000  0.596965  0.108264  1
  P  P34  1  0.750000  0.096965  0.891736  1
  P  P35  1  0.750000  0.403035  0.891736  1
