# generated using pymatgen
data_SmDy2(TmRh6)3
_symmetry_space_group_name_H-M   'P 1'
_cell_length_a   5.26066800
_cell_length_b   5.26066875
_cell_length_c   17.53961900
_cell_angle_alpha   90.00000000
_cell_angle_beta   90.00000000
_cell_angle_gamma   119.99999526
_symmetry_Int_Tables_number   1
_chemical_formula_structural   SmDy2(TmRh6)3
_chemical_formula_sum   'Sm1 Dy2 Tm3 Rh18'
_cell_volume   420.37091382
_cell_formula_units_Z   1
loop_
 _symmetry_equiv_pos_site_id
 _symmetry_equiv_pos_as_xyz
  1  'x, y, z'
loop_
 _atom_site_type_symbol
 _atom_site_label
 _atom_site_symmetry_multiplicity
 _atom_site_fract_x
 _atom_site_fract_y
 _atom_site_fract_z
 _atom_site_occupancy
  Sm  Sm0  1  0.666667  0.333333  0.250135  1
  Dy  Dy1  1  0.333333  0.666667  0.958491  1
  Dy  Dy2  1  0.333333  0.666667  0.749660  1
  Tm  Tm3  1  0.666667  0.333333  0.041693  1
  Tm  Tm4  1  0.666667  0.333333  0.458883  1
  Tm  Tm5  1  0.333333  0.666667  0.541736  1
  Rh  Rh6  1  0.167459  0.832541  0.375560  1
  Rh  Rh7  1  0.167459  0.334919  0.375560  1
  Rh  Rh8  1  0.665081  0.832541  0.375560  1
  Rh  Rh9  1  0.832587  0.167413  0.625009  1
  Rh  Rh10  1  0.832587  0.665174  0.625009  1
  Rh  Rh11  1  0.334826  0.167413  0.625009  1
  Rh  Rh12  1  0.832624  0.167376  0.874332  1
  Rh  Rh13  1  0.832624  0.665249  0.874332  1
  Rh  Rh14  1  0.334751  0.167376  0.874332  1
  Rh  Rh15  1  0.167313  0.832687  0.124875  1
  Rh  Rh16  1  0.167313  0.334627  0.124875  1
  Rh  Rh17  1  0.665373  0.832687  0.124875  1
  Rh  Rh18  1  0.333333  0.666667  0.250095  1
  Rh  Rh19  1  0.666667  0.333333  0.749822  1
  Rh  Rh20  1  0.000000  0.000000  0.250277  1
  Rh  Rh21  1  0.000000  0.000000  0.749823  1
  Rh  Rh22  1  0.000000  0.000000  0.500202  1
  Rh  Rh23  1  0.000000  0.000000  0.999856  1
