# generated using pymatgen
data_Nd3Sc3Al6IrAu5
_symmetry_space_group_name_H-M   'P 1'
_cell_length_a   7.31096200
_cell_length_b   7.31096166
_cell_length_c   7.98672800
_cell_angle_alpha   90.00000000
_cell_angle_beta   90.00000000
_cell_angle_gamma   119.99999250
_symmetry_Int_Tables_number   1
_chemical_formula_structural   Nd3Sc3Al6IrAu5
_chemical_formula_sum   'Nd3 Sc3 Al6 Ir1 Au5'
_cell_volume   369.69926869
_cell_formula_units_Z   1
loop_
 _symmetry_equiv_pos_site_id
 _symmetry_equiv_pos_as_xyz
  1  'x, y, z'
loop_
 _atom_site_type_symbol
 _atom_site_label
 _atom_site_symmetry_multiplicity
 _atom_site_fract_x
 _atom_site_fract_y
 _atom_site_fract_z
 _atom_site_occupancy
  Nd  Nd0  1  0.580579  0.999400  0.750000  1
  Nd  Nd1  1  0.000600  0.581181  0.750000  1
  Nd  Nd2  1  0.418819  0.419421  0.750000  1
  Sc  Sc3  1  0.999089  0.607473  0.250000  1
  Sc  Sc4  1  0.608383  0.000911  0.250000  1
  Sc  Sc5  1  0.392527  0.391617  0.250000  1
  Al  Al6  1  0.756113  0.756542  0.022017  1
  Al  Al7  1  0.243458  0.999570  0.022017  1
  Al  Al8  1  0.000430  0.243887  0.022017  1
  Al  Al9  1  0.756113  0.756542  0.477983  1
  Al  Al10  1  0.243458  0.999570  0.477983  1
  Al  Al11  1  0.000430  0.243887  0.477983  1
  Ir  Ir12  1  0.000000  0.000000  0.250000  1
  Au  Au13  1  0.000000  0.000000  0.750000  1
  Au  Au14  1  0.666667  0.333333  0.031557  1
  Au  Au15  1  0.666667  0.333333  0.468443  1
  Au  Au16  1  0.333333  0.666667  0.466421  1
  Au  Au17  1  0.333333  0.666667  0.033579  1
