# generated using pymatgen
data_Tb9Nd6Dy(CdPt)4
_symmetry_space_group_name_H-M   'P 1'
_cell_length_a   9.82051909
_cell_length_b   9.82051976
_cell_length_c   9.80416300
_cell_angle_alpha   60.05507794
_cell_angle_beta   60.05507569
_cell_angle_gamma   60.08372160
_symmetry_Int_Tables_number   1
_chemical_formula_structural   Tb9Nd6Dy(CdPt)4
_chemical_formula_sum   'Tb9 Nd6 Dy1 Cd4 Pt4'
_cell_volume   669.57615476
_cell_formula_units_Z   1
loop_
 _symmetry_equiv_pos_site_id
 _symmetry_equiv_pos_as_xyz
  1  'x, y, z'
loop_
 _atom_site_type_symbol
 _atom_site_label
 _atom_site_symmetry_multiplicity
 _atom_site_fract_x
 _atom_site_fract_y
 _atom_site_fract_z
 _atom_site_occupancy
  Tb  Tb0  1  0.350456  0.350456  0.350177  1
  Tb  Tb1  1  0.350456  0.350456  0.948910  1
  Tb  Tb2  1  0.351189  0.947724  0.350543  1
  Tb  Tb3  1  0.947724  0.351189  0.350543  1
  Tb  Tb4  1  0.811301  0.188561  0.189057  1
  Tb  Tb5  1  0.188561  0.811301  0.811081  1
  Tb  Tb6  1  0.188561  0.811301  0.189057  1
  Tb  Tb7  1  0.811301  0.188561  0.811081  1
  Tb  Tb8  1  0.188900  0.188900  0.811100  1
  Nd  Nd9  1  0.938200  0.561926  0.562212  1
  Nd  Nd10  1  0.561926  0.938200  0.937662  1
  Nd  Nd11  1  0.561926  0.938200  0.562212  1
  Nd  Nd12  1  0.938200  0.561926  0.937662  1
  Nd  Nd13  1  0.562060  0.562060  0.937940  1
  Nd  Nd14  1  0.937953  0.937953  0.562047  1
  Dy  Dy15  1  0.811196  0.811196  0.188804  1
  Cd  Cd16  1  0.579954  0.579954  0.579791  1
  Cd  Cd17  1  0.579954  0.579954  0.260303  1
  Cd  Cd18  1  0.579940  0.260153  0.579954  1
  Cd  Cd19  1  0.260153  0.579940  0.579954  1
  Pt  Pt20  1  0.142913  0.142913  0.142990  1
  Pt  Pt21  1  0.142913  0.142913  0.571183  1
  Pt  Pt22  1  0.142373  0.571890  0.142868  1
  Pt  Pt23  1  0.571890  0.142373  0.142868  1
