# generated using pymatgen
data_TiFe4Mo2P4Ru
_symmetry_space_group_name_H-M   'P 1'
_cell_length_a   3.65427100
_cell_length_b   5.90008867
_cell_length_c   6.69218431
_cell_angle_alpha   89.71086410
_cell_angle_beta   90.00000000
_cell_angle_gamma   90.00000000
_symmetry_Int_Tables_number   1
_chemical_formula_structural   TiFe4Mo2P4Ru
_chemical_formula_sum   'Ti1 Fe4 Mo2 P4 Ru1'
_cell_volume   144.28515584
_cell_formula_units_Z   1
loop_
 _symmetry_equiv_pos_site_id
 _symmetry_equiv_pos_as_xyz
  1  'x, y, z'
loop_
 _atom_site_type_symbol
 _atom_site_label
 _atom_site_symmetry_multiplicity
 _atom_site_fract_x
 _atom_site_fract_y
 _atom_site_fract_z
 _atom_site_occupancy
  Ti  Ti0  1  0.250000  0.522479  0.681353  1
  Fe  Fe1  1  0.250000  0.137949  0.433970  1
  Fe  Fe2  1  0.250000  0.641524  0.061717  1
  Fe  Fe3  1  0.750000  0.860956  0.562417  1
  Fe  Fe4  1  0.750000  0.358846  0.934889  1
  Mo  Mo5  1  0.750000  0.974247  0.170380  1
  Mo  Mo6  1  0.750000  0.472831  0.327250  1
  P  P7  1  0.250000  0.770533  0.376888  1
  P  P8  1  0.250000  0.269900  0.115263  1
  P  P9  1  0.750000  0.225328  0.623291  1
  P  P10  1  0.750000  0.736370  0.881975  1
  Ru  Ru11  1  0.250000  0.029039  0.830607  1
