# generated using pymatgen
data_Tb2MnNi8P7W3
_symmetry_space_group_name_H-M   'P 1'
_cell_length_a   9.15647822
_cell_length_b   9.18252154
_cell_length_c   3.73630400
_cell_angle_alpha   90.00000000
_cell_angle_beta   90.00000000
_cell_angle_gamma   119.76093905
_symmetry_Int_Tables_number   1
_chemical_formula_structural   Tb2MnNi8P7W3
_chemical_formula_sum   'Tb2 Mn1 Ni8 P7 W3'
_cell_volume   272.71210443
_cell_formula_units_Z   1
loop_
 _symmetry_equiv_pos_site_id
 _symmetry_equiv_pos_as_xyz
  1  'x, y, z'
loop_
 _atom_site_type_symbol
 _atom_site_label
 _atom_site_symmetry_multiplicity
 _atom_site_fract_x
 _atom_site_fract_y
 _atom_site_fract_z
 _atom_site_occupancy
  Tb  Tb0  1  0.668351  0.332738  0.000000  1
  Tb  Tb1  1  0.334253  0.666399  0.500000  1
  Mn  Mn2  1  0.878696  0.156036  0.000000  1
  Ni  Ni3  1  0.063557  0.629444  0.000000  1
  Ni  Ni4  1  0.567167  0.935605  0.000000  1
  Ni  Ni5  1  0.368445  0.431633  0.000000  1
  Ni  Ni6  1  0.283648  0.126336  0.000000  1
  Ni  Ni7  1  0.844818  0.718816  0.000000  1
  Ni  Ni8  1  0.441066  0.056682  0.500000  1
  Ni  Ni9  1  0.615710  0.559679  0.500000  1
  Ni  Ni10  1  0.944784  0.386174  0.500000  1
  P  P11  1  0.298734  0.887951  0.000000  1
  P  P12  1  0.587738  0.699190  0.000000  1
  P  P13  1  0.110326  0.409648  0.000000  1
  P  P14  1  0.408077  0.292228  0.500000  1
  P  P15  1  0.881425  0.592115  0.500000  1
  P  P16  1  0.712170  0.120236  0.500000  1
  P  P17  1  0.000492  0.999744  0.000000  1
  W  W18  1  0.097192  0.882527  0.500000  1
  W  W19  1  0.778083  0.898489  0.500000  1
  W  W20  1  0.115269  0.218331  0.500000  1
