# generated using pymatgen
data_Hf4CdSnC2
_symmetry_space_group_name_H-M   'P 1'
_cell_length_a   3.31431500
_cell_length_b   3.31431476
_cell_length_c   14.85179900
_cell_angle_alpha   90.00000000
_cell_angle_beta   90.00000000
_cell_angle_gamma   119.99999239
_symmetry_Int_Tables_number   1
_chemical_formula_structural   Hf4CdSnC2
_chemical_formula_sum   'Hf4 Cd1 Sn1 C2'
_cell_volume   141.28539220
_cell_formula_units_Z   1
loop_
 _symmetry_equiv_pos_site_id
 _symmetry_equiv_pos_as_xyz
  1  'x, y, z'
loop_
 _atom_site_type_symbol
 _atom_site_label
 _atom_site_symmetry_multiplicity
 _atom_site_fract_x
 _atom_site_fract_y
 _atom_site_fract_z
 _atom_site_occupancy
  Hf  Hf0  1  0.333333  0.666667  0.085355  1
  Hf  Hf1  1  0.666667  0.333333  0.580222  1
  Hf  Hf2  1  0.666667  0.333333  0.919778  1
  Hf  Hf3  1  0.333333  0.666667  0.414645  1
  Cd  Cd4  1  0.333333  0.666667  0.750000  1
  Sn  Sn5  1  0.666667  0.333333  0.250000  1
  C  C6  1  0.000000  0.000000  0.002496  1
  C  C7  1  0.000000  0.000000  0.497504  1
