# generated using pymatgen
data_Th7Sc(Si4Mo3)4
_symmetry_space_group_name_H-M   'P 1'
_cell_length_a   6.97795408
_cell_length_b   7.03937908
_cell_length_c   13.11919373
_cell_angle_alpha   89.90101513
_cell_angle_beta   89.85745494
_cell_angle_gamma   89.78507514
_symmetry_Int_Tables_number   1
_chemical_formula_structural   Th7Sc(Si4Mo3)4
_chemical_formula_sum   'Th7 Sc1 Si16 Mo12'
_cell_volume   644.41340324
_cell_formula_units_Z   1
loop_
 _symmetry_equiv_pos_site_id
 _symmetry_equiv_pos_as_xyz
  1  'x, y, z'
loop_
 _atom_site_type_symbol
 _atom_site_label
 _atom_site_symmetry_multiplicity
 _atom_site_fract_x
 _atom_site_fract_y
 _atom_site_fract_z
 _atom_site_occupancy
  Th  Th0  1  0.490922  0.337862  0.095683  1
  Th  Th1  1  0.992324  0.161365  0.405212  1
  Th  Th2  1  0.508857  0.663543  0.595467  1
  Th  Th3  1  0.005361  0.835437  0.907737  1
  Th  Th4  1  0.507052  0.663469  0.907887  1
  Th  Th5  1  0.009443  0.837688  0.594605  1
  Th  Th6  1  0.489766  0.334190  0.401554  1
  Sc  Sc7  1  0.993491  0.170789  0.097800  1
  Si  Si8  1  0.655592  0.049684  0.548329  1
  Si  Si9  1  0.151098  0.444218  0.955333  1
  Si  Si10  1  0.332614  0.957832  0.050168  1
  Si  Si11  1  0.841871  0.548077  0.451270  1
  Si  Si12  1  0.348773  0.946497  0.448554  1
  Si  Si13  1  0.848619  0.537881  0.049927  1
  Si  Si14  1  0.658555  0.049475  0.955610  1
  Si  Si15  1  0.155839  0.451173  0.547730  1
  Si  Si16  1  0.539415  0.351041  0.751000  1
  Si  Si17  1  0.039562  0.147226  0.751438  1
  Si  Si18  1  0.461281  0.653341  0.252451  1
  Si  Si19  1  0.964071  0.863327  0.243083  1
  Si  Si20  1  0.815714  0.615770  0.751237  1
  Si  Si21  1  0.313364  0.883093  0.751518  1
  Si  Si22  1  0.177569  0.376195  0.245911  1
  Si  Si23  1  0.697783  0.119319  0.243986  1
  Mo  Mo24  1  0.831748  0.335549  0.625870  1
  Mo  Mo25  1  0.333037  0.163309  0.876265  1
  Mo  Mo26  1  0.167000  0.662288  0.125159  1
  Mo  Mo27  1  0.680357  0.841218  0.372040  1
  Mo  Mo28  1  0.159552  0.661478  0.371492  1
  Mo  Mo29  1  0.664701  0.835446  0.123131  1
  Mo  Mo30  1  0.831659  0.335929  0.876329  1
  Mo  Mo31  1  0.331901  0.161753  0.625617  1
  Mo  Mo32  1  0.670760  0.996521  0.752279  1
  Mo  Mo33  1  0.172656  0.501250  0.750451  1
  Mo  Mo34  1  0.329868  0.007377  0.248405  1
  Mo  Mo35  1  0.827822  0.499387  0.249476  1
