# generated using pymatgen
data_Hf3ZrW8
_symmetry_space_group_name_H-M   'P 1'
_cell_length_a   9.37103526
_cell_length_b   9.37103528
_cell_length_c   9.37103601
_cell_angle_alpha   33.44488437
_cell_angle_beta   33.44488342
_cell_angle_gamma   33.44488828
_symmetry_Int_Tables_number   1
_chemical_formula_structural   Hf3ZrW8
_chemical_formula_sum   'Hf3 Zr1 W8'
_cell_volume   222.60804149
_cell_formula_units_Z   1
loop_
 _symmetry_equiv_pos_site_id
 _symmetry_equiv_pos_as_xyz
  1  'x, y, z'
loop_
 _atom_site_type_symbol
 _atom_site_label
 _atom_site_symmetry_multiplicity
 _atom_site_fract_x
 _atom_site_fract_y
 _atom_site_fract_z
 _atom_site_occupancy
  Hf  Hf0  1  0.375036  0.375036  0.375036  1
  Hf  Hf1  1  0.000140  0.000140  0.000140  1
  Hf  Hf2  1  0.499789  0.499789  0.499789  1
  Zr  Zr3  1  0.874993  0.874993  0.874993  1
  W  W4  1  0.437601  0.938019  0.437601  1
  W  W5  1  0.937468  0.436888  0.937468  1
  W  W6  1  0.437601  0.437601  0.938019  1
  W  W7  1  0.937468  0.937468  0.436888  1
  W  W8  1  0.187523  0.187523  0.187523  1
  W  W9  1  0.687476  0.687476  0.687476  1
  W  W10  1  0.938019  0.437601  0.437601  1
  W  W11  1  0.436888  0.937468  0.937468  1
