# generated using pymatgen
data_SrY4Zr3(As3Pd4)4
_symmetry_space_group_name_H-M   'P 1'
_cell_length_a   13.59971700
_cell_length_b   13.59971690
_cell_length_c   4.13098800
_cell_angle_alpha   90.00000000
_cell_angle_beta   90.00000000
_cell_angle_gamma   120.00000268
_symmetry_Int_Tables_number   1
_chemical_formula_structural   SrY4Zr3(As3Pd4)4
_chemical_formula_sum   'Sr1 Y4 Zr3 As12 Pd16'
_cell_volume   661.67433925
_cell_formula_units_Z   1
loop_
 _symmetry_equiv_pos_site_id
 _symmetry_equiv_pos_as_xyz
  1  'x, y, z'
loop_
 _atom_site_type_symbol
 _atom_site_label
 _atom_site_symmetry_multiplicity
 _atom_site_fract_x
 _atom_site_fract_y
 _atom_site_fract_z
 _atom_site_occupancy
  Sr  Sr0  1  0.333333  0.666667  0.000000  1
  Y  Y1  1  0.188778  0.188497  0.500000  1
  Y  Y2  1  0.811503  0.000281  0.500000  1
  Y  Y3  1  0.999719  0.811222  0.500000  1
  Y  Y4  1  0.666667  0.333333  0.000000  1
  Zr  Zr5  1  0.559537  0.555752  0.000000  1
  Zr  Zr6  1  0.444248  0.003785  0.000000  1
  Zr  Zr7  1  0.996215  0.440463  0.000000  1
  As  As8  1  0.826975  0.826045  0.000000  1
  As  As9  1  0.173955  0.000931  0.000000  1
  As  As10  1  0.999069  0.173025  0.000000  1
  As  As11  1  0.161531  0.477609  0.500000  1
  As  As12  1  0.522391  0.683922  0.500000  1
  As  As13  1  0.316078  0.838469  0.500000  1
  As  As14  1  0.682755  0.515442  0.500000  1
  As  As15  1  0.832687  0.317245  0.500000  1
  As  As16  1  0.484558  0.167313  0.500000  1
  As  As17  1  0.358213  0.359371  0.000000  1
  As  As18  1  0.640629  0.998842  0.000000  1
  As  As19  1  0.001158  0.641787  0.000000  1
  Pd  Pd20  1  0.726098  0.722668  0.500000  1
  Pd  Pd21  1  0.277332  0.003430  0.500000  1
  Pd  Pd22  1  0.996570  0.273902  0.500000  1
  Pd  Pd23  1  0.180193  0.370327  0.000000  1
  Pd  Pd24  1  0.629673  0.809865  0.000000  1
  Pd  Pd25  1  0.190135  0.819807  0.000000  1
  Pd  Pd26  1  0.811423  0.628673  0.000000  1
  Pd  Pd27  1  0.817250  0.188577  0.000000  1
  Pd  Pd28  1  0.371327  0.182750  0.000000  1
  Pd  Pd29  1  0.358448  0.482239  0.500000  1
  Pd  Pd30  1  0.517761  0.876209  0.500000  1
  Pd  Pd31  1  0.123791  0.641552  0.500000  1
  Pd  Pd32  1  0.868886  0.515017  0.500000  1
  Pd  Pd33  1  0.646131  0.131114  0.500000  1
  Pd  Pd34  1  0.484983  0.353869  0.500000  1
  Pd  Pd35  1  0.000000  0.000000  0.000000  1
