# generated using pymatgen
data_Tm3Al12FeOs3
_symmetry_space_group_name_H-M   'P 1'
_cell_length_a   8.74107700
_cell_length_b   8.74107834
_cell_length_c   9.47894300
_cell_angle_alpha   90.00000000
_cell_angle_beta   90.00000000
_cell_angle_gamma   119.99999870
_symmetry_Int_Tables_number   1
_chemical_formula_structural   Tm3Al12FeOs3
_chemical_formula_sum   'Tm6 Al24 Fe2 Os6'
_cell_volume   627.22088033
_cell_formula_units_Z   2
loop_
 _symmetry_equiv_pos_site_id
 _symmetry_equiv_pos_as_xyz
  1  'x, y, z'
loop_
 _atom_site_type_symbol
 _atom_site_label
 _atom_site_symmetry_multiplicity
 _atom_site_fract_x
 _atom_site_fract_y
 _atom_site_fract_z
 _atom_site_occupancy
  Tm  Tm0  1  0.194417  0.388833  0.250000  1
  Tm  Tm1  1  0.805583  0.611167  0.750000  1
  Tm  Tm2  1  0.611167  0.805583  0.250000  1
  Tm  Tm3  1  0.388833  0.194417  0.750000  1
  Tm  Tm4  1  0.194417  0.805583  0.250000  1
  Tm  Tm5  1  0.805583  0.194417  0.750000  1
  Al  Al6  1  0.333333  0.666667  0.015961  1
  Al  Al7  1  0.666667  0.333333  0.984039  1
  Al  Al8  1  0.666667  0.333333  0.515961  1
  Al  Al9  1  0.333333  0.666667  0.484039  1
  Al  Al10  1  0.159160  0.318321  0.575829  1
  Al  Al11  1  0.840840  0.681679  0.424171  1
  Al  Al12  1  0.681679  0.840840  0.575829  1
  Al  Al13  1  0.840840  0.681679  0.075829  1
  Al  Al14  1  0.318321  0.159160  0.424171  1
  Al  Al15  1  0.159160  0.318321  0.924171  1
  Al  Al16  1  0.159160  0.840840  0.575829  1
  Al  Al17  1  0.318321  0.159160  0.075829  1
  Al  Al18  1  0.840840  0.159160  0.424171  1
  Al  Al19  1  0.681679  0.840840  0.924171  1
  Al  Al20  1  0.840840  0.159160  0.075829  1
  Al  Al21  1  0.159160  0.840840  0.924171  1
  Al  Al22  1  0.561162  0.122323  0.250000  1
  Al  Al23  1  0.438838  0.877677  0.750000  1
  Al  Al24  1  0.877677  0.438838  0.250000  1
  Al  Al25  1  0.122323  0.561162  0.750000  1
  Al  Al26  1  0.561162  0.438838  0.250000  1
  Al  Al27  1  0.438838  0.561162  0.750000  1
  Al  Al28  1  0.000000  0.000000  0.250000  1
  Al  Al29  1  0.000000  0.000000  0.750000  1
  Fe  Fe30  1  0.000000  0.000000  0.000000  1
  Fe  Fe31  1  0.000000  0.000000  0.500000  1
  Os  Os32  1  0.500000  0.000000  0.000000  1
  Os  Os33  1  0.000000  0.500000  0.000000  1
  Os  Os34  1  0.500000  0.000000  0.500000  1
  Os  Os35  1  0.500000  0.500000  0.000000  1
  Os  Os36  1  0.000000  0.500000  0.500000  1
  Os  Os37  1  0.500000  0.500000  0.500000  1
