# generated using pymatgen
data_Tm2MnTc3
_symmetry_space_group_name_H-M   'P 1'
_cell_length_a   5.27701200
_cell_length_b   5.27701248
_cell_length_c   8.85404500
_cell_angle_alpha   90.00000000
_cell_angle_beta   90.00000000
_cell_angle_gamma   119.99999700
_symmetry_Int_Tables_number   1
_chemical_formula_structural   Tm2MnTc3
_chemical_formula_sum   'Tm4 Mn2 Tc6'
_cell_volume   213.52492235
_cell_formula_units_Z   2
loop_
 _symmetry_equiv_pos_site_id
 _symmetry_equiv_pos_as_xyz
  1  'x, y, z'
loop_
 _atom_site_type_symbol
 _atom_site_label
 _atom_site_symmetry_multiplicity
 _atom_site_fract_x
 _atom_site_fract_y
 _atom_site_fract_z
 _atom_site_occupancy
  Tm  Tm0  1  0.333333  0.666667  0.435544  1
  Tm  Tm1  1  0.666667  0.333333  0.564456  1
  Tm  Tm2  1  0.666667  0.333333  0.935544  1
  Tm  Tm3  1  0.333333  0.666667  0.064456  1
  Mn  Mn4  1  0.000000  0.000000  0.500000  1
  Mn  Mn5  1  0.000000  0.000000  0.000000  1
  Tc  Tc6  1  0.831305  0.168695  0.250000  1
  Tc  Tc7  1  0.831305  0.662610  0.250000  1
  Tc  Tc8  1  0.337390  0.168695  0.250000  1
  Tc  Tc9  1  0.168695  0.831305  0.750000  1
  Tc  Tc10  1  0.168695  0.337390  0.750000  1
  Tc  Tc11  1  0.662610  0.831305  0.750000  1
