# generated using pymatgen
data_LiDy14Ho2Cd3Co3Ni
_symmetry_space_group_name_H-M   'P 1'
_cell_length_a   9.46972323
_cell_length_b   9.48334810
_cell_length_c   9.50301000
_cell_angle_alpha   60.06840812
_cell_angle_beta   60.05548192
_cell_angle_gamma   59.95239119
_symmetry_Int_Tables_number   1
_chemical_formula_structural   LiDy14Ho2Cd3Co3Ni
_chemical_formula_sum   'Li1 Dy14 Ho2 Cd3 Co3 Ni1'
_cell_volume   603.80173271
_cell_formula_units_Z   1
loop_
 _symmetry_equiv_pos_site_id
 _symmetry_equiv_pos_as_xyz
  1  'x, y, z'
loop_
 _atom_site_type_symbol
 _atom_site_label
 _atom_site_symmetry_multiplicity
 _atom_site_fract_x
 _atom_site_fract_y
 _atom_site_fract_z
 _atom_site_occupancy
  Li  Li0  1  0.571227  0.571655  0.285466  1
  Dy  Dy1  1  0.937149  0.936122  0.563032  1
  Dy  Dy2  1  0.816258  0.186617  0.186128  1
  Dy  Dy3  1  0.937149  0.563698  0.563032  1
  Dy  Dy4  1  0.938169  0.561436  0.938959  1
  Dy  Dy5  1  0.816258  0.810996  0.186128  1
  Dy  Dy6  1  0.342800  0.344986  0.348303  1
  Dy  Dy7  1  0.561466  0.937442  0.937240  1
  Dy  Dy8  1  0.564222  0.935763  0.564253  1
  Dy  Dy9  1  0.188415  0.812829  0.810437  1
  Dy  Dy10  1  0.188415  0.188321  0.810437  1
  Dy  Dy11  1  0.346376  0.348376  0.956876  1
  Dy  Dy12  1  0.342800  0.963914  0.348303  1
  Dy  Dy13  1  0.814505  0.189522  0.806452  1
  Dy  Dy14  1  0.561466  0.563852  0.937240  1
  Ho  Ho15  1  0.184651  0.814575  0.186198  1
  Ho  Ho16  1  0.965843  0.343162  0.347834  1
  Cd  Cd17  1  0.259050  0.581829  0.577294  1
  Cd  Cd18  1  0.581129  0.581903  0.577181  1
  Cd  Cd19  1  0.581129  0.259790  0.577181  1
  Co  Co20  1  0.141979  0.142368  0.138527  1
  Co  Co21  1  0.141979  0.577127  0.138527  1
  Co  Co22  1  0.141142  0.141177  0.576505  1
  Ni  Ni23  1  0.576428  0.142547  0.138478  1
