# generated using pymatgen
data_Dy11In8SnRu4
_symmetry_space_group_name_H-M   'P 1'
_cell_length_a   3.81086200
_cell_length_b   12.91435607
_cell_length_c   12.85922824
_cell_angle_alpha   112.43789188
_cell_angle_beta   90.00000000
_cell_angle_gamma   90.00000000
_symmetry_Int_Tables_number   1
_chemical_formula_structural   Dy11In8SnRu4
_chemical_formula_sum   'Dy11 In8 Sn1 Ru4'
_cell_volume   584.95294305
_cell_formula_units_Z   1
loop_
 _symmetry_equiv_pos_site_id
 _symmetry_equiv_pos_as_xyz
  1  'x, y, z'
loop_
 _atom_site_type_symbol
 _atom_site_label
 _atom_site_symmetry_multiplicity
 _atom_site_fract_x
 _atom_site_fract_y
 _atom_site_fract_z
 _atom_site_occupancy
  Dy  Dy0  1  0.000000  0.915897  0.582154  1
  Dy  Dy1  1  0.000000  0.083579  0.417528  1
  Dy  Dy2  1  0.000000  0.583041  0.915713  1
  Dy  Dy3  1  0.000000  0.417789  0.084197  1
  Dy  Dy4  1  0.000000  0.163242  0.834729  1
  Dy  Dy5  1  0.000000  0.837155  0.163172  1
  Dy  Dy6  1  0.000000  0.370479  0.631239  1
  Dy  Dy7  1  0.000000  0.629788  0.369775  1
  Dy  Dy8  1  0.000000  0.692556  0.692343  1
  Dy  Dy9  1  0.000000  0.307321  0.307676  1
  Dy  Dy10  1  0.000000  0.000592  0.999444  1
  In  In11  1  0.500000  0.846009  0.369259  1
  In  In12  1  0.500000  0.629716  0.151700  1
  In  In13  1  0.500000  0.373103  0.849400  1
  In  In14  1  0.500000  0.926699  0.782261  1
  In  In15  1  0.500000  0.072053  0.218659  1
  In  In16  1  0.500000  0.782147  0.928284  1
  In  In17  1  0.500000  0.218400  0.071494  1
  In  In18  1  0.500000  0.499494  0.500177  1
  Sn  Sn19  1  0.500000  0.152136  0.628469  1
  Ru  Ru20  1  0.500000  0.744521  0.548750  1
  Ru  Ru21  1  0.500000  0.255100  0.453775  1
  Ru  Ru22  1  0.500000  0.548558  0.743378  1
  Ru  Ru23  1  0.500000  0.450626  0.256427  1
