# generated using pymatgen
data_Hf5Zr(Zn2Au)8
_symmetry_space_group_name_H-M   'P 1'
_cell_length_a   8.93844974
_cell_length_b   8.93844987
_cell_length_c   8.92614500
_cell_angle_alpha   60.04553156
_cell_angle_beta   60.04553109
_cell_angle_gamma   59.90894784
_symmetry_Int_Tables_number   1
_chemical_formula_structural   Hf5Zr(Zn2Au)8
_chemical_formula_sum   'Hf5 Zr1 Zn16 Au8'
_cell_volume   504.27999710
_cell_formula_units_Z   1
loop_
 _symmetry_equiv_pos_site_id
 _symmetry_equiv_pos_as_xyz
  1  'x, y, z'
loop_
 _atom_site_type_symbol
 _atom_site_label
 _atom_site_symmetry_multiplicity
 _atom_site_fract_x
 _atom_site_fract_y
 _atom_site_fract_z
 _atom_site_occupancy
  Hf  Hf0  1  0.718196  0.282640  0.281804  1
  Hf  Hf1  1  0.282640  0.718196  0.717360  1
  Hf  Hf2  1  0.282640  0.718196  0.281804  1
  Hf  Hf3  1  0.718196  0.282640  0.717360  1
  Hf  Hf4  1  0.280893  0.280893  0.719107  1
  Zr  Zr5  1  0.714635  0.714635  0.285365  1
  Zn  Zn6  1  0.500756  0.999516  0.000484  1
  Zn  Zn7  1  0.999516  0.500756  0.499244  1
  Zn  Zn8  1  0.999516  0.500756  0.000484  1
  Zn  Zn9  1  0.500756  0.999516  0.499244  1
  Zn  Zn10  1  0.000009  0.000009  0.499991  1
  Zn  Zn11  1  0.500009  0.500009  0.999991  1
  Zn  Zn12  1  0.344858  0.344858  0.344893  1
  Zn  Zn13  1  0.655794  0.655794  0.657485  1
  Zn  Zn14  1  0.344858  0.344858  0.965392  1
  Zn  Zn15  1  0.342515  0.969072  0.344206  1
  Zn  Zn16  1  0.655794  0.655794  0.030928  1
  Zn  Zn17  1  0.655107  0.034608  0.655142  1
  Zn  Zn18  1  0.969072  0.342515  0.344206  1
  Zn  Zn19  1  0.034608  0.655107  0.655142  1
  Zn  Zn20  1  0.998782  0.998782  0.001218  1
  Zn  Zn21  1  0.496714  0.496714  0.503286  1
  Au  Au22  1  0.123862  0.123862  0.122575  1
  Au  Au23  1  0.877174  0.877174  0.874385  1
  Au  Au24  1  0.123862  0.123862  0.629703  1
  Au  Au25  1  0.125615  0.628733  0.122826  1
  Au  Au26  1  0.877174  0.877174  0.371267  1
  Au  Au27  1  0.877425  0.370297  0.876138  1
  Au  Au28  1  0.628733  0.125615  0.122826  1
  Au  Au29  1  0.370297  0.877425  0.876138  1
