# generated using pymatgen
data_Hf5ZrBeI12
_symmetry_space_group_name_H-M   'P 1'
_cell_length_a   9.30308254
_cell_length_b   9.27305799
_cell_length_c   9.35182626
_cell_angle_alpha   106.88097467
_cell_angle_beta   106.76948936
_cell_angle_gamma   106.62311970
_symmetry_Int_Tables_number   1
_chemical_formula_structural   Hf5ZrBeI12
_chemical_formula_sum   'Hf5 Zr1 Be1 I12'
_cell_volume   676.26662530
_cell_formula_units_Z   1
loop_
 _symmetry_equiv_pos_site_id
 _symmetry_equiv_pos_as_xyz
  1  'x, y, z'
loop_
 _atom_site_type_symbol
 _atom_site_label
 _atom_site_symmetry_multiplicity
 _atom_site_fract_x
 _atom_site_fract_y
 _atom_site_fract_z
 _atom_site_occupancy
  Hf  Hf0  1  0.973767  0.727335  0.910625  1
  Hf  Hf1  1  0.274863  0.089756  0.026967  1
  Hf  Hf2  1  0.089243  0.026537  0.272592  1
  Hf  Hf3  1  0.911112  0.974525  0.728092  1
  Hf  Hf4  1  0.726609  0.910488  0.973276  1
  Zr  Zr5  1  0.026549  0.280226  0.091403  1
  Be  Be6  1  0.001062  0.002945  0.001133  1
  I  I7  1  0.922119  0.307154  0.775154  1
  I  I8  1  0.686837  0.218878  0.075378  1
  I  I9  1  0.436824  0.136908  0.361966  1
  I  I10  1  0.861824  0.636841  0.563878  1
  I  I11  1  0.221345  0.075917  0.693664  1
  I  I12  1  0.637313  0.561482  0.860557  1
  I  I13  1  0.366636  0.438082  0.139370  1
  I  I14  1  0.778346  0.922052  0.305333  1
  I  I15  1  0.139436  0.362337  0.439826  1
  I  I16  1  0.563089  0.861274  0.637894  1
  I  I17  1  0.307109  0.776505  0.923159  1
  I  I18  1  0.075917  0.690759  0.219733  1
