# generated using pymatgen
data_Nd4Cd2NiAu3
_symmetry_space_group_name_H-M   'P 1'
_cell_length_a   8.01053617
_cell_length_b   8.01053617
_cell_length_c   3.87032200
_cell_angle_alpha   90.00000000
_cell_angle_beta   90.00000000
_cell_angle_gamma   88.92090709
_symmetry_Int_Tables_number   1
_chemical_formula_structural   Nd4Cd2NiAu3
_chemical_formula_sum   'Nd4 Cd2 Ni1 Au3'
_cell_volume   248.30944648
_cell_formula_units_Z   1
loop_
 _symmetry_equiv_pos_site_id
 _symmetry_equiv_pos_as_xyz
  1  'x, y, z'
loop_
 _atom_site_type_symbol
 _atom_site_label
 _atom_site_symmetry_multiplicity
 _atom_site_fract_x
 _atom_site_fract_y
 _atom_site_fract_z
 _atom_site_occupancy
  Nd  Nd0  1  0.345916  0.821293  0.500000  1
  Nd  Nd1  1  0.811323  0.688677  0.500000  1
  Nd  Nd2  1  0.171168  0.328832  0.500000  1
  Nd  Nd3  1  0.678707  0.154084  0.500000  1
  Cd  Cd4  1  0.997571  0.996811  0.000000  1
  Cd  Cd5  1  0.503189  0.502429  0.000000  1
  Ni  Ni6  1  0.622369  0.877631  0.000000  1
  Au  Au7  1  0.379068  0.120932  0.000000  1
  Au  Au8  1  0.868010  0.377321  0.000000  1
  Au  Au9  1  0.122679  0.631990  0.000000  1
