# generated using pymatgen
data_Ce2Nd3Y3(CdIr)2
_symmetry_space_group_name_H-M   'P 1'
_cell_length_a   9.80553576
_cell_length_b   9.80553619
_cell_length_c   9.80553600
_cell_angle_alpha   60.00000064
_cell_angle_beta   59.99999920
_cell_angle_gamma   60.00000285
_symmetry_Int_Tables_number   1
_chemical_formula_structural   Ce2Nd3Y3(CdIr)2
_chemical_formula_sum   'Ce4 Nd6 Y6 Cd4 Ir4'
_cell_volume   666.65175132
_cell_formula_units_Z   2
loop_
 _symmetry_equiv_pos_site_id
 _symmetry_equiv_pos_as_xyz
  1  'x, y, z'
loop_
 _atom_site_type_symbol
 _atom_site_label
 _atom_site_symmetry_multiplicity
 _atom_site_fract_x
 _atom_site_fract_y
 _atom_site_fract_z
 _atom_site_occupancy
  Ce  Ce0  1  0.347637  0.347637  0.347637  1
  Ce  Ce1  1  0.347637  0.347637  0.957087  1
  Ce  Ce2  1  0.347637  0.957087  0.347637  1
  Ce  Ce3  1  0.957087  0.347637  0.347637  1
  Nd  Nd4  1  0.940377  0.559623  0.559623  1
  Nd  Nd5  1  0.559623  0.940377  0.940377  1
  Nd  Nd6  1  0.559623  0.940377  0.559623  1
  Nd  Nd7  1  0.940377  0.559623  0.940377  1
  Nd  Nd8  1  0.559623  0.559623  0.940377  1
  Nd  Nd9  1  0.940377  0.940377  0.559623  1
  Y  Y10  1  0.812146  0.187854  0.187854  1
  Y  Y11  1  0.187854  0.812146  0.812146  1
  Y  Y12  1  0.187854  0.812146  0.187854  1
  Y  Y13  1  0.812146  0.187854  0.812146  1
  Y  Y14  1  0.187854  0.187854  0.812146  1
  Y  Y15  1  0.812146  0.812146  0.187854  1
  Cd  Cd16  1  0.579601  0.579601  0.579601  1
  Cd  Cd17  1  0.579601  0.579601  0.261197  1
  Cd  Cd18  1  0.579601  0.261197  0.579601  1
  Cd  Cd19  1  0.261197  0.579601  0.579601  1
  Ir  Ir20  1  0.143459  0.143459  0.143459  1
  Ir  Ir21  1  0.143459  0.143459  0.569621  1
  Ir  Ir22  1  0.143459  0.569621  0.143459  1
  Ir  Ir23  1  0.569621  0.143459  0.143459  1
