# generated using pymatgen
data_TbNd2RuI3
_symmetry_space_group_name_H-M   'P 1'
_cell_length_a   4.34476200
_cell_length_b   9.10714795
_cell_length_c   12.28588401
_cell_angle_alpha   85.96334360
_cell_angle_beta   90.00000000
_cell_angle_gamma   90.00000000
_symmetry_Int_Tables_number   1
_chemical_formula_structural   TbNd2RuI3
_chemical_formula_sum   'Tb2 Nd4 Ru2 I6'
_cell_volume   484.92666501
_cell_formula_units_Z   2
loop_
 _symmetry_equiv_pos_site_id
 _symmetry_equiv_pos_as_xyz
  1  'x, y, z'
loop_
 _atom_site_type_symbol
 _atom_site_label
 _atom_site_symmetry_multiplicity
 _atom_site_fract_x
 _atom_site_fract_y
 _atom_site_fract_z
 _atom_site_occupancy
  Tb  Tb0  1  0.750000  0.120118  0.119665  1
  Tb  Tb1  1  0.250000  0.879882  0.880335  1
  Nd  Nd2  1  0.750000  0.093852  0.679965  1
  Nd  Nd3  1  0.250000  0.906148  0.320035  1
  Nd  Nd4  1  0.250000  0.277266  0.898089  1
  Nd  Nd5  1  0.750000  0.722734  0.101911  1
  Ru  Ru6  1  0.750000  0.061387  0.904412  1
  Ru  Ru7  1  0.250000  0.938613  0.095588  1
  I  I8  1  0.250000  0.417205  0.139168  1
  I  I9  1  0.750000  0.582795  0.860832  1
  I  I10  1  0.250000  0.347326  0.633121  1
  I  I11  1  0.750000  0.652674  0.366879  1
  I  I12  1  0.750000  0.153283  0.387300  1
  I  I13  1  0.250000  0.846717  0.612700  1
