# generated using pymatgen
data_Na3Sr3AlBi4
_symmetry_space_group_name_H-M   'P 1'
_cell_length_a   10.52933800
_cell_length_b   10.52933833
_cell_length_c   8.13625700
_cell_angle_alpha   90.00000000
_cell_angle_beta   90.00000000
_cell_angle_gamma   120.00000524
_symmetry_Int_Tables_number   1
_chemical_formula_structural   Na3Sr3AlBi4
_chemical_formula_sum   'Na6 Sr6 Al2 Bi8'
_cell_volume   781.19133045
_cell_formula_units_Z   2
loop_
 _symmetry_equiv_pos_site_id
 _symmetry_equiv_pos_as_xyz
  1  'x, y, z'
loop_
 _atom_site_type_symbol
 _atom_site_label
 _atom_site_symmetry_multiplicity
 _atom_site_fract_x
 _atom_site_fract_y
 _atom_site_fract_z
 _atom_site_occupancy
  Na  Na0  1  0.855692  0.711384  0.956733  1
  Na  Na1  1  0.855692  0.144308  0.956733  1
  Na  Na2  1  0.144308  0.288616  0.456733  1
  Na  Na3  1  0.288616  0.144308  0.956733  1
  Na  Na4  1  0.144308  0.855692  0.456733  1
  Na  Na5  1  0.711384  0.855692  0.456733  1
  Sr  Sr6  1  0.481209  0.962418  0.781113  1
  Sr  Sr7  1  0.481209  0.518791  0.781113  1
  Sr  Sr8  1  0.518791  0.037582  0.281113  1
  Sr  Sr9  1  0.037582  0.518791  0.781113  1
  Sr  Sr10  1  0.518791  0.481209  0.281113  1
  Sr  Sr11  1  0.962418  0.481209  0.281113  1
  Al  Al12  1  0.666667  0.333333  0.648550  1
  Al  Al13  1  0.333333  0.666667  0.148550  1
  Bi  Bi14  1  0.666667  0.333333  0.003391  1
  Bi  Bi15  1  0.333333  0.666667  0.503391  1
  Bi  Bi16  1  0.814422  0.628844  0.553641  1
  Bi  Bi17  1  0.814422  0.185578  0.553641  1
  Bi  Bi18  1  0.185578  0.371156  0.053641  1
  Bi  Bi19  1  0.371156  0.185578  0.553641  1
  Bi  Bi20  1  0.185578  0.814422  0.053641  1
  Bi  Bi21  1  0.628844  0.814422  0.053641  1
