# generated using pymatgen
data_Sr4AlAu17
_symmetry_space_group_name_H-M   'P 1'
_cell_length_a   8.85548642
_cell_length_b   9.23796039
_cell_length_c   8.85548667
_cell_angle_alpha   59.08936093
_cell_angle_beta   58.47153979
_cell_angle_gamma   59.08935944
_symmetry_Int_Tables_number   1
_chemical_formula_structural   Sr4AlAu17
_chemical_formula_sum   'Sr4 Al1 Au17'
_cell_volume   499.15900846
_cell_formula_units_Z   1
loop_
 _symmetry_equiv_pos_site_id
 _symmetry_equiv_pos_as_xyz
  1  'x, y, z'
loop_
 _atom_site_type_symbol
 _atom_site_label
 _atom_site_symmetry_multiplicity
 _atom_site_fract_x
 _atom_site_fract_y
 _atom_site_fract_z
 _atom_site_occupancy
  Sr  Sr0  1  0.432294  0.374900  0.390516  1
  Sr  Sr1  1  0.889730  0.867467  0.928218  1
  Sr  Sr2  1  0.571782  0.632533  0.610270  1
  Sr  Sr3  1  0.109484  0.125100  0.067706  1
  Al  Al4  1  0.071170  0.250000  0.428830  1
  Au  Au5  1  0.435904  0.068235  0.247023  1
  Au  Au6  1  0.252977  0.431765  0.064096  1
  Au  Au7  1  0.927884  0.750000  0.572116  1
  Au  Au8  1  0.548501  0.947882  0.758122  1
  Au  Au9  1  0.741878  0.552118  0.951499  1
  Au  Au10  1  0.983690  0.371431  0.684128  1
  Au  Au11  1  0.746376  0.981951  0.323224  1
  Au  Au12  1  0.317775  0.737710  0.999934  1
  Au  Au13  1  0.196733  0.874734  0.485858  1
  Au  Au14  1  0.504979  0.240031  0.815605  1
  Au  Au15  1  0.831386  0.471728  0.253795  1
  Au  Au16  1  0.014142  0.625266  0.303267  1
  Au  Au17  1  0.246205  0.028272  0.668614  1
  Au  Au18  1  0.684395  0.259969  0.995021  1
  Au  Au19  1  0.815872  0.128569  0.516310  1
  Au  Au20  1  0.500066  0.762290  0.182225  1
  Au  Au21  1  0.176776  0.518049  0.753624  1
