# generated using pymatgen
data_Sm4Co16Re4SiP11
_symmetry_space_group_name_H-M   'P 1'
_cell_length_a   3.74665400
_cell_length_b   10.43247998
_cell_length_c   11.87389486
_cell_angle_alpha   90.05688726
_cell_angle_beta   90.00000000
_cell_angle_gamma   90.00000000
_symmetry_Int_Tables_number   1
_chemical_formula_structural   Sm4Co16Re4SiP11
_chemical_formula_sum   'Sm4 Co16 Re4 Si1 P11'
_cell_volume   464.11342725
_cell_formula_units_Z   1
loop_
 _symmetry_equiv_pos_site_id
 _symmetry_equiv_pos_as_xyz
  1  'x, y, z'
loop_
 _atom_site_type_symbol
 _atom_site_label
 _atom_site_symmetry_multiplicity
 _atom_site_fract_x
 _atom_site_fract_y
 _atom_site_fract_z
 _atom_site_occupancy
  Sm  Sm0  1  0.250000  0.584228  0.703126  1
  Sm  Sm1  1  0.250000  0.916387  0.204287  1
  Sm  Sm2  1  0.750000  0.416381  0.297992  1
  Sm  Sm3  1  0.750000  0.083670  0.795759  1
  Co  Co4  1  0.250000  0.404781  0.490178  1
  Co  Co5  1  0.250000  0.094567  0.989265  1
  Co  Co6  1  0.750000  0.595966  0.510368  1
  Co  Co7  1  0.750000  0.904445  0.010533  1
  Co  Co8  1  0.250000  0.216203  0.176454  1
  Co  Co9  1  0.250000  0.277414  0.675633  1
  Co  Co10  1  0.750000  0.777686  0.824716  1
  Co  Co11  1  0.750000  0.722814  0.324859  1
  Co  Co12  1  0.250000  0.885479  0.701821  1
  Co  Co13  1  0.250000  0.617374  0.201600  1
  Co  Co14  1  0.750000  0.113362  0.299615  1
  Co  Co15  1  0.750000  0.385477  0.798018  1
  Co  Co16  1  0.250000  0.466329  0.929442  1
  Co  Co17  1  0.250000  0.035910  0.433292  1
  Co  Co18  1  0.750000  0.536611  0.064610  1
  Co  Co19  1  0.750000  0.964127  0.567241  1
  Re  Re20  1  0.250000  0.708645  0.989648  1
  Re  Re21  1  0.250000  0.791548  0.489681  1
  Re  Re22  1  0.750000  0.292402  0.011135  1
  Re  Re23  1  0.750000  0.208684  0.511223  1
  Si  Si24  1  0.250000  0.418573  0.112388  1
  P  P25  1  0.250000  0.079776  0.612497  1
  P  P26  1  0.750000  0.580212  0.886081  1
  P  P27  1  0.750000  0.920155  0.388033  1
  P  P28  1  0.250000  0.272394  0.865279  1
  P  P29  1  0.250000  0.227269  0.364961  1
  P  P30  1  0.750000  0.727442  0.134969  1
  P  P31  1  0.750000  0.772904  0.635192  1
  P  P32  1  0.250000  0.598637  0.392032  1
  P  P33  1  0.250000  0.901645  0.892626  1
  P  P34  1  0.750000  0.402024  0.607429  1
  P  P35  1  0.750000  0.098477  0.108018  1
