# generated using pymatgen
data_Er3Sc(SiRh2)8
_symmetry_space_group_name_H-M   'P 1'
_cell_length_a   4.10347500
_cell_length_b   9.08451317
_cell_length_c   11.20600693
_cell_angle_alpha   90.53692254
_cell_angle_beta   90.00000000
_cell_angle_gamma   90.00000000
_symmetry_Int_Tables_number   1
_chemical_formula_structural   Er3Sc(SiRh2)8
_chemical_formula_sum   'Er3 Sc1 Si8 Rh16'
_cell_volume   417.71999899
_cell_formula_units_Z   1
loop_
 _symmetry_equiv_pos_site_id
 _symmetry_equiv_pos_as_xyz
  1  'x, y, z'
loop_
 _atom_site_type_symbol
 _atom_site_label
 _atom_site_symmetry_multiplicity
 _atom_site_fract_x
 _atom_site_fract_y
 _atom_site_fract_z
 _atom_site_occupancy
  Er  Er0  1  0.250000  0.145653  0.823610  1
  Er  Er1  1  0.250000  0.354067  0.326258  1
  Er  Er2  1  0.750000  0.851617  0.174240  1
  Sc  Sc3  1  0.750000  0.644515  0.675184  1
  Si  Si4  1  0.250000  0.415882  0.637947  1
  Si  Si5  1  0.250000  0.088108  0.135342  1
  Si  Si6  1  0.750000  0.589467  0.365042  1
  Si  Si7  1  0.750000  0.908205  0.861070  1
  Si  Si8  1  0.250000  0.618688  0.059675  1
  Si  Si9  1  0.250000  0.885676  0.559408  1
  Si  Si10  1  0.750000  0.382765  0.941400  1
  Si  Si11  1  0.750000  0.118192  0.441678  1
  Rh  Rh12  1  0.250000  0.620982  0.509212  1
  Rh  Rh13  1  0.250000  0.884983  0.995857  1
  Rh  Rh14  1  0.750000  0.388740  0.500009  1
  Rh  Rh15  1  0.750000  0.113974  0.997854  1
  Rh  Rh16  1  0.250000  0.684075  0.272579  1
  Rh  Rh17  1  0.250000  0.799430  0.762765  1
  Rh  Rh18  1  0.750000  0.315839  0.731088  1
  Rh  Rh19  1  0.750000  0.186159  0.231307  1
  Rh  Rh20  1  0.250000  0.174479  0.560799  1
  Rh  Rh21  1  0.250000  0.327205  0.058352  1
  Rh  Rh22  1  0.750000  0.828894  0.441710  1
  Rh  Rh23  1  0.750000  0.670892  0.937470  1
  Rh  Rh24  1  0.250000  0.007968  0.343133  1
  Rh  Rh25  1  0.250000  0.493427  0.843200  1
  Rh  Rh26  1  0.750000  0.990942  0.658334  1
  Rh  Rh27  1  0.750000  0.509177  0.155475  1
