# generated using pymatgen
data_Ho6Nb2Fe3Co13P12
_symmetry_space_group_name_H-M   'P 1'
_cell_length_a   3.72612800
_cell_length_b   10.62169407
_cell_length_c   12.31854813
_cell_angle_alpha   90.18261215
_cell_angle_beta   90.00000000
_cell_angle_gamma   90.00000000
_symmetry_Int_Tables_number   1
_chemical_formula_structural   Ho6Nb2Fe3Co13P12
_chemical_formula_sum   'Ho6 Nb2 Fe3 Co13 P12'
_cell_volume   487.53845557
_cell_formula_units_Z   1
loop_
 _symmetry_equiv_pos_site_id
 _symmetry_equiv_pos_as_xyz
  1  'x, y, z'
loop_
 _atom_site_type_symbol
 _atom_site_label
 _atom_site_symmetry_multiplicity
 _atom_site_fract_x
 _atom_site_fract_y
 _atom_site_fract_z
 _atom_site_occupancy
  Ho  Ho0  1  0.000000  0.500452  0.526926  1
  Ho  Ho1  1  0.500000  0.997855  0.473069  1
  Ho  Ho2  1  0.500000  0.821599  0.205836  1
  Ho  Ho3  1  0.500000  0.179671  0.205788  1
  Ho  Ho4  1  0.000000  0.678615  0.794415  1
  Ho  Ho5  1  0.000000  0.320244  0.794351  1
  Nb  Nb6  1  0.500000  0.500262  0.155618  1
  Nb  Nb7  1  0.000000  0.999574  0.844124  1
  Fe  Fe8  1  0.500000  0.296975  0.430471  1
  Fe  Fe9  1  0.500000  0.704277  0.431796  1
  Fe  Fe10  1  0.000000  0.203551  0.569284  1
  Co  Co11  1  0.000000  0.499960  0.985641  1
  Co  Co12  1  0.500000  0.999871  0.014257  1
  Co  Co13  1  0.000000  0.796782  0.569750  1
  Co  Co14  1  0.500000  0.876443  0.705872  1
  Co  Co15  1  0.500000  0.120783  0.705602  1
  Co  Co16  1  0.000000  0.623230  0.294051  1
  Co  Co17  1  0.000000  0.378958  0.294411  1
  Co  Co18  1  0.500000  0.332145  0.991669  1
  Co  Co19  1  0.500000  0.667592  0.991643  1
  Co  Co20  1  0.000000  0.167655  0.008214  1
  Co  Co21  1  0.000000  0.832230  0.008106  1
  Co  Co22  1  0.500000  0.499336  0.701616  1
  Co  Co23  1  0.000000  0.000766  0.298418  1
  P  P24  1  0.500000  0.307360  0.612713  1
  P  P25  1  0.500000  0.690138  0.613789  1
  P  P26  1  0.000000  0.192822  0.386824  1
  P  P27  1  0.000000  0.808484  0.385741  1
  P  P28  1  0.500000  0.499448  0.881815  1
  P  P29  1  0.000000  0.000384  0.118076  1
  P  P30  1  0.500000  0.840645  0.892794  1
  P  P31  1  0.500000  0.158565  0.892600  1
  P  P32  1  0.000000  0.659302  0.107176  1
  P  P33  1  0.000000  0.341360  0.107324  1
  P  P34  1  0.500000  0.499849  0.356856  1
  P  P35  1  0.000000  0.002816  0.643362  1
