# generated using pymatgen
data_LaTb3(CuO3)4
_symmetry_space_group_name_H-M   'P 1'
_cell_length_a   3.86739692
_cell_length_b   12.45607462
_cell_length_c   5.37400700
_cell_angle_alpha   90.00000000
_cell_angle_beta   90.00000000
_cell_angle_gamma   90.63675343
_symmetry_Int_Tables_number   1
_chemical_formula_structural   LaTb3(CuO3)4
_chemical_formula_sum   'La1 Tb3 Cu4 O12'
_cell_volume   258.86382015
_cell_formula_units_Z   1
loop_
 _symmetry_equiv_pos_site_id
 _symmetry_equiv_pos_as_xyz
  1  'x, y, z'
loop_
 _atom_site_type_symbol
 _atom_site_label
 _atom_site_symmetry_multiplicity
 _atom_site_fract_x
 _atom_site_fract_y
 _atom_site_fract_z
 _atom_site_occupancy
  La  La0  1  0.732913  0.916711  0.749999  1
  Tb  Tb1  1  0.247809  0.087308  0.250000  1
  Tb  Tb2  1  0.751156  0.578791  0.250000  1
  Tb  Tb3  1  0.256797  0.417173  0.749999  1
  Cu  Cu4  1  0.910842  0.327908  0.250000  1
  Cu  Cu5  1  0.088887  0.824261  0.250000  1
  Cu  Cu6  1  0.908505  0.177498  0.749999  1
  Cu  Cu7  1  0.097405  0.668276  0.749999  1
  O  O8  1  0.148992  0.252969  0.000043  1
  O  O9  1  0.863954  0.742585  0.003549  1
  O  O10  1  0.744863  0.418802  0.009735  1
  O  O11  1  0.244785  0.921624  0.020776  1
  O  O12  1  0.744863  0.418802  0.490266  1
  O  O13  1  0.244785  0.921624  0.479225  1
  O  O14  1  0.148992  0.252969  0.499958  1
  O  O15  1  0.863954  0.742585  0.496452  1
  O  O16  1  0.738209  0.088017  0.506300  1
  O  O17  1  0.262041  0.577037  0.510375  1
  O  O18  1  0.738209  0.088017  0.993701  1
  O  O19  1  0.262041  0.577037  0.989626  1
