# generated using pymatgen
data_GdTa3(AsO4)6
_symmetry_space_group_name_H-M   'P 1'
_cell_length_a   9.50850537
_cell_length_b   9.50848926
_cell_length_c   9.50849400
_cell_angle_alpha   58.12533696
_cell_angle_beta   58.12529090
_cell_angle_gamma   58.12530779
_symmetry_Int_Tables_number   1
_chemical_formula_structural   GdTa3(AsO4)6
_chemical_formula_sum   'Gd1 Ta3 As6 O24'
_cell_volume   581.76051492
_cell_formula_units_Z   1
loop_
 _symmetry_equiv_pos_site_id
 _symmetry_equiv_pos_as_xyz
  1  'x, y, z'
loop_
 _atom_site_type_symbol
 _atom_site_label
 _atom_site_symmetry_multiplicity
 _atom_site_fract_x
 _atom_site_fract_y
 _atom_site_fract_z
 _atom_site_occupancy
  Gd  Gd0  1  0.862542  0.862535  0.862540  1
  Ta  Ta1  1  0.141539  0.141539  0.141536  1
  Ta  Ta2  1  0.359093  0.359103  0.359105  1
  Ta  Ta3  1  0.642379  0.642380  0.642376  1
  As  As4  1  0.036151  0.462947  0.749248  1
  As  As5  1  0.462947  0.749246  0.036153  1
  As  As6  1  0.749244  0.036156  0.462946  1
  As  As7  1  0.271659  0.967299  0.510738  1
  As  As8  1  0.510741  0.271659  0.967299  1
  As  As9  1  0.967296  0.510741  0.271656  1
  O  O10  1  0.124365  0.463550  0.342384  1
  O  O11  1  0.342390  0.124365  0.463548  1
  O  O12  1  0.041780  0.291692  0.949467  1
  O  O13  1  0.463552  0.342386  0.124372  1
  O  O14  1  0.231452  0.385182  0.593839  1
  O  O15  1  0.027918  0.648013  0.737974  1
  O  O16  1  0.291698  0.949464  0.041774  1
  O  O17  1  0.385184  0.593828  0.231450  1
  O  O18  1  0.593830  0.231454  0.385174  1
  O  O19  1  0.260975  0.992468  0.322490  1
  O  O20  1  0.081868  0.975753  0.680389  1
  O  O21  1  0.322493  0.260979  0.992463  1
  O  O22  1  0.648011  0.737979  0.027917  1
  O  O23  1  0.949467  0.041772  0.291701  1
  O  O24  1  0.737975  0.027914  0.648015  1
  O  O25  1  0.441403  0.773926  0.558704  1
  O  O26  1  0.558703  0.441399  0.773926  1
  O  O27  1  0.680388  0.081868  0.975751  1
  O  O28  1  0.992465  0.322488  0.260978  1
  O  O29  1  0.773927  0.558704  0.441407  1
  O  O30  1  0.496943  0.719654  0.854213  1
  O  O31  1  0.975750  0.680391  0.081869  1
  O  O32  1  0.719650  0.854218  0.496944  1
  O  O33  1  0.854215  0.496944  0.719648  1
