# generated using pymatgen
data_Ti6Ga6Ir7Pt5
_symmetry_space_group_name_H-M   'P 1'
_cell_length_a   4.04279700
_cell_length_b   7.34748480
_cell_length_c   12.02436999
_cell_angle_alpha   90.05966750
_cell_angle_beta   89.99953959
_cell_angle_gamma   90.00059405
_symmetry_Int_Tables_number   1
_chemical_formula_structural   Ti6Ga6Ir7Pt5
_chemical_formula_sum   'Ti6 Ga6 Ir7 Pt5'
_cell_volume   357.17637597
_cell_formula_units_Z   1
loop_
 _symmetry_equiv_pos_site_id
 _symmetry_equiv_pos_as_xyz
  1  'x, y, z'
loop_
 _atom_site_type_symbol
 _atom_site_label
 _atom_site_symmetry_multiplicity
 _atom_site_fract_x
 _atom_site_fract_y
 _atom_site_fract_z
 _atom_site_occupancy
  Ti  Ti0  1  0.999992  0.500147  0.992022  1
  Ti  Ti1  1  0.500038  0.997028  0.170100  1
  Ti  Ti2  1  0.000038  0.506319  0.340725  1
  Ti  Ti3  1  0.500003  0.996271  0.503257  1
  Ti  Ti4  1  0.999965  0.499463  0.666184  1
  Ti  Ti5  1  0.499958  0.000447  0.827235  1
  Ga  Ga6  1  0.999992  0.000572  0.996782  1
  Ga  Ga7  1  0.500050  0.501918  0.167925  1
  Ga  Ga8  1  0.000045  0.995257  0.337515  1
  Ga  Ga9  1  0.500002  0.502537  0.503336  1
  Ga  Ga10  1  0.999964  0.000276  0.665704  1
  Ga  Ga11  1  0.499950  0.499421  0.828611  1
  Ir  Ir12  1  0.500029  0.748921  0.331315  1
  Ir  Ir13  1  0.000007  0.248257  0.498760  1
  Ir  Ir14  1  0.999998  0.750798  0.499992  1
  Ir  Ir15  1  0.499981  0.251032  0.666341  1
  Ir  Ir16  1  0.499970  0.749606  0.667902  1
  Ir  Ir17  1  0.999978  0.248420  0.834562  1
  Ir  Ir18  1  0.999962  0.751129  0.834761  1
  Pt  Pt19  1  0.499996  0.249570  0.001136  1
  Pt  Pt20  1  0.499993  0.751205  0.999987  1
  Pt  Pt21  1  0.000033  0.252352  0.167107  1
  Pt  Pt22  1  0.000029  0.748900  0.165190  1
  Pt  Pt23  1  0.500025  0.250151  0.333551  1
