# generated using pymatgen
data_Tm3Hg3Pt2
_symmetry_space_group_name_H-M   'P 1'
_cell_length_a   7.60067500
_cell_length_b   7.60067420
_cell_length_c   3.63177700
_cell_angle_alpha   90.00000000
_cell_angle_beta   90.00000000
_cell_angle_gamma   119.99999913
_symmetry_Int_Tables_number   1
_chemical_formula_structural   Tm3Hg3Pt2
_chemical_formula_sum   'Tm3 Hg3 Pt2'
_cell_volume   181.69964936
_cell_formula_units_Z   1
loop_
 _symmetry_equiv_pos_site_id
 _symmetry_equiv_pos_as_xyz
  1  'x, y, z'
loop_
 _atom_site_type_symbol
 _atom_site_label
 _atom_site_symmetry_multiplicity
 _atom_site_fract_x
 _atom_site_fract_y
 _atom_site_fract_z
 _atom_site_occupancy
  Tm  Tm0  1  0.577707  0.000000  0.500001  1
  Tm  Tm1  1  0.422292  0.422292  0.500001  1
  Tm  Tm2  1  0.000000  0.577707  0.500001  1
  Hg  Hg3  1  0.231524  0.000000  0.000000  1
  Hg  Hg4  1  0.000000  0.231524  0.000000  1
  Hg  Hg5  1  0.768476  0.768477  0.000000  1
  Pt  Pt6  1  0.666667  0.333333  0.000000  1
  Pt  Pt7  1  0.333333  0.666667  0.000000  1
