# generated using pymatgen
data_Tb2Ho2PBr6
_symmetry_space_group_name_H-M   'P 1'
_cell_length_a   4.00355000
_cell_length_b   13.10630200
_cell_length_c   13.81854800
_cell_angle_alpha   90.00000000
_cell_angle_beta   90.00000000
_cell_angle_gamma   90.00000000
_symmetry_Int_Tables_number   1
_chemical_formula_structural   Tb2Ho2PBr6
_chemical_formula_sum   'Tb4 Ho4 P2 Br12'
_cell_volume   725.08319388
_cell_formula_units_Z   2
loop_
 _symmetry_equiv_pos_site_id
 _symmetry_equiv_pos_as_xyz
  1  'x, y, z'
loop_
 _atom_site_type_symbol
 _atom_site_label
 _atom_site_symmetry_multiplicity
 _atom_site_fract_x
 _atom_site_fract_y
 _atom_site_fract_z
 _atom_site_occupancy
  Tb  Tb0  1  0.000000  0.115689  0.576929  1
  Tb  Tb1  1  0.000000  0.884311  0.423071  1
  Tb  Tb2  1  0.000000  0.615689  0.923071  1
  Tb  Tb3  1  0.000000  0.384311  0.076929  1
  Ho  Ho4  1  0.500000  0.116838  0.343309  1
  Ho  Ho5  1  0.500000  0.883162  0.656691  1
  Ho  Ho6  1  0.500000  0.616838  0.156691  1
  Ho  Ho7  1  0.500000  0.383162  0.843309  1
  P  P8  1  0.500000  0.000000  0.500000  1
  P  P9  1  0.500000  0.500000  0.000000  1
  Br  Br10  1  0.500000  0.241637  0.164175  1
  Br  Br11  1  0.500000  0.758363  0.835825  1
  Br  Br12  1  0.500000  0.741637  0.335825  1
  Br  Br13  1  0.500000  0.258363  0.664175  1
  Br  Br14  1  0.000000  0.256425  0.410370  1
  Br  Br15  1  0.000000  0.743575  0.589630  1
  Br  Br16  1  0.000000  0.756425  0.089630  1
  Br  Br17  1  0.000000  0.243575  0.910370  1
  Br  Br18  1  0.000000  0.002594  0.241581  1
  Br  Br19  1  0.000000  0.997406  0.758419  1
  Br  Br20  1  0.000000  0.502594  0.258419  1
  Br  Br21  1  0.000000  0.497406  0.741581  1
