# generated using pymatgen
data_Th8ScSe17
_symmetry_space_group_name_H-M   'P 1'
_cell_length_a   8.48492783
_cell_length_b   8.48492655
_cell_length_c   11.29479672
_cell_angle_alpha   80.38962723
_cell_angle_beta   80.38968115
_cell_angle_gamma   65.05318684
_symmetry_Int_Tables_number   1
_chemical_formula_structural   Th8ScSe17
_chemical_formula_sum   'Th8 Sc1 Se17'
_cell_volume   722.69197411
_cell_formula_units_Z   1
loop_
 _symmetry_equiv_pos_site_id
 _symmetry_equiv_pos_as_xyz
  1  'x, y, z'
loop_
 _atom_site_type_symbol
 _atom_site_label
 _atom_site_symmetry_multiplicity
 _atom_site_fract_x
 _atom_site_fract_y
 _atom_site_fract_z
 _atom_site_occupancy
  Th  Th0  1  0.794855  0.794855  0.457927  1
  Th  Th1  1  0.205145  0.205145  0.542073  1
  Th  Th2  1  0.697238  0.183964  0.703268  1
  Th  Th3  1  0.183965  0.697240  0.703268  1
  Th  Th4  1  0.816035  0.302760  0.296732  1
  Th  Th5  1  0.680667  0.680666  0.982340  1
  Th  Th6  1  0.319333  0.319334  0.017660  1
  Th  Th7  1  0.302762  0.816036  0.296732  1
  Sc  Sc8  1  0.000000  0.000000  0.000000  1
  Se  Se9  1  0.480256  0.480256  0.166659  1
  Se  Se10  1  0.696120  0.696120  0.246181  1
  Se  Se11  1  0.569152  0.177561  0.466853  1
  Se  Se12  1  0.054959  0.672846  0.967179  1
  Se  Se13  1  0.210065  0.210065  0.278034  1
  Se  Se14  1  0.430848  0.822439  0.533147  1
  Se  Se15  1  0.519744  0.519744  0.833341  1
  Se  Se16  1  0.672846  0.054959  0.967179  1
  Se  Se17  1  0.939051  0.939051  0.231550  1
  Se  Se18  1  0.060949  0.060949  0.768450  1
  Se  Se19  1  0.303880  0.303880  0.753819  1
  Se  Se20  1  0.327154  0.945041  0.032821  1
  Se  Se21  1  0.822439  0.430848  0.533147  1
  Se  Se22  1  0.945041  0.327154  0.032821  1
  Se  Se23  1  0.177561  0.569152  0.466853  1
  Se  Se24  1  0.000000  0.000000  0.500000  1
  Se  Se25  1  0.789935  0.789935  0.721966  1
