# generated using pymatgen
data_Dy7Th(Nb3Si4)4
_symmetry_space_group_name_H-M   'P 1'
_cell_length_a   7.08624196
_cell_length_b   7.08754968
_cell_length_c   13.11636008
_cell_angle_alpha   89.91115754
_cell_angle_beta   89.96918059
_cell_angle_gamma   90.06397693
_symmetry_Int_Tables_number   1
_chemical_formula_structural   Dy7Th(Nb3Si4)4
_chemical_formula_sum   'Dy7 Th1 Nb12 Si16'
_cell_volume   658.75597586
_cell_formula_units_Z   1
loop_
 _symmetry_equiv_pos_site_id
 _symmetry_equiv_pos_as_xyz
  1  'x, y, z'
loop_
 _atom_site_type_symbol
 _atom_site_label
 _atom_site_symmetry_multiplicity
 _atom_site_fract_x
 _atom_site_fract_y
 _atom_site_fract_z
 _atom_site_occupancy
  Dy  Dy0  1  0.001688  0.658875  0.717928  1
  Dy  Dy1  1  0.159980  0.500066  0.468662  1
  Dy  Dy2  1  0.500052  0.839886  0.030650  1
  Dy  Dy3  1  0.840103  0.500655  0.967552  1
  Dy  Dy4  1  0.498527  0.159321  0.532897  1
  Dy  Dy5  1  0.340275  0.998620  0.781938  1
  Dy  Dy6  1  0.658670  0.001076  0.283030  1
  Th  Th7  1  0.995889  0.338810  0.217911  1
  Nb  Nb8  1  0.170486  0.169537  0.999437  1
  Nb  Nb9  1  0.829404  0.829790  0.501222  1
  Nb  Nb10  1  0.328351  0.669330  0.249691  1
  Nb  Nb11  1  0.671035  0.329035  0.749752  1
  Nb  Nb12  1  0.155392  0.996114  0.376912  1
  Nb  Nb13  1  0.845101  0.007067  0.874815  1
  Nb  Nb14  1  0.507394  0.654108  0.626150  1
  Nb  Nb15  1  0.346541  0.493103  0.873056  1
  Nb  Nb16  1  0.493391  0.344738  0.125188  1
  Nb  Nb17  1  0.656008  0.509219  0.375240  1
  Nb  Nb18  1  0.992310  0.154153  0.625072  1
  Nb  Nb19  1  0.007516  0.845210  0.123542  1
  Si  Si20  1  0.297559  0.040382  0.186213  1
  Si  Si21  1  0.705829  0.954931  0.686459  1
  Si  Si22  1  0.454536  0.793555  0.437098  1
  Si  Si23  1  0.208964  0.546434  0.060524  1
  Si  Si24  1  0.542516  0.205495  0.935413  1
  Si  Si25  1  0.793968  0.455651  0.564046  1
  Si  Si26  1  0.044686  0.293608  0.813630  1
  Si  Si27  1  0.956048  0.712582  0.315744  1
  Si  Si28  1  0.373267  0.296006  0.319229  1
  Si  Si29  1  0.632556  0.704086  0.817211  1
  Si  Si30  1  0.204318  0.868306  0.567879  1
  Si  Si31  1  0.131608  0.795863  0.931645  1
  Si  Si32  1  0.791955  0.127315  0.063968  1
  Si  Si33  1  0.867312  0.203580  0.435268  1
  Si  Si34  1  0.296026  0.367572  0.682425  1
  Si  Si35  1  0.700732  0.635923  0.182603  1
