# generated using pymatgen
data_Lu2GeB2Ru2Rh3
_symmetry_space_group_name_H-M   'P 1'
_cell_length_a   9.50114201
_cell_length_b   9.50225401
_cell_length_c   3.08753300
_cell_angle_alpha   90.00000000
_cell_angle_beta   90.00000000
_cell_angle_gamma   90.00573458
_symmetry_Int_Tables_number   1
_chemical_formula_structural   Lu2GeB2Ru2Rh3
_chemical_formula_sum   'Lu4 Ge2 B4 Ru4 Rh6'
_cell_volume   278.74947049
_cell_formula_units_Z   2
loop_
 _symmetry_equiv_pos_site_id
 _symmetry_equiv_pos_as_xyz
  1  'x, y, z'
loop_
 _atom_site_type_symbol
 _atom_site_label
 _atom_site_symmetry_multiplicity
 _atom_site_fract_x
 _atom_site_fract_y
 _atom_site_fract_z
 _atom_site_occupancy
  Lu  Lu0  1  0.829095  0.323592  0.000000  1
  Lu  Lu1  1  0.321234  0.171226  0.000000  1
  Lu  Lu2  1  0.673437  0.825167  0.000000  1
  Lu  Lu3  1  0.174609  0.676164  0.000000  1
  Ge  Ge4  1  0.006047  0.003890  0.000000  1
  Ge  Ge5  1  0.499558  0.500445  0.000000  1
  B  B6  1  0.621420  0.119445  0.000000  1
  B  B7  1  0.118028  0.374753  0.000000  1
  B  B8  1  0.880580  0.621962  0.000000  1
  B  B9  1  0.374038  0.881785  0.000000  1
  Ru  Ru10  1  0.069425  0.216356  0.500000  1
  Ru  Ru11  1  0.215375  0.927578  0.500000  1
  Ru  Ru12  1  0.501133  0.999937  0.500000  1
  Ru  Ru13  1  0.000245  0.502272  0.500000  1
  Rh  Rh14  1  0.784461  0.069627  0.500000  1
  Rh  Rh15  1  0.926898  0.785664  0.500000  1
  Rh  Rh16  1  0.431580  0.714564  0.500000  1
  Rh  Rh17  1  0.571644  0.284704  0.500000  1
  Rh  Rh18  1  0.715458  0.570492  0.500000  1
  Rh  Rh19  1  0.285734  0.430378  0.500000  1
