# generated using pymatgen
data_Dy17Y3(FeHg3)2
_symmetry_space_group_name_H-M   'P 1'
_cell_length_a   9.57444600
_cell_length_b   9.57444646
_cell_length_c   9.63945200
_cell_angle_alpha   90.00000000
_cell_angle_beta   90.00000000
_cell_angle_gamma   119.99999839
_symmetry_Int_Tables_number   1
_chemical_formula_structural   Dy17Y3(FeHg3)2
_chemical_formula_sum   'Dy17 Y3 Fe2 Hg6'
_cell_volume   765.26229001
_cell_formula_units_Z   1
loop_
 _symmetry_equiv_pos_site_id
 _symmetry_equiv_pos_as_xyz
  1  'x, y, z'
loop_
 _atom_site_type_symbol
 _atom_site_label
 _atom_site_symmetry_multiplicity
 _atom_site_fract_x
 _atom_site_fract_y
 _atom_site_fract_z
 _atom_site_occupancy
  Dy  Dy0  1  0.000000  0.000000  0.500280  1
  Dy  Dy1  1  0.000000  0.000000  0.999720  1
  Dy  Dy2  1  0.541904  0.458096  0.250000  1
  Dy  Dy3  1  0.541904  0.083809  0.250000  1
  Dy  Dy4  1  0.916191  0.458096  0.250000  1
  Dy  Dy5  1  0.212063  0.787937  0.435356  1
  Dy  Dy6  1  0.212063  0.424126  0.435356  1
  Dy  Dy7  1  0.575874  0.787937  0.435356  1
  Dy  Dy8  1  0.787927  0.212073  0.564338  1
  Dy  Dy9  1  0.787927  0.575853  0.564338  1
  Dy  Dy10  1  0.424147  0.212073  0.564338  1
  Dy  Dy11  1  0.787927  0.212073  0.935662  1
  Dy  Dy12  1  0.787927  0.575853  0.935662  1
  Dy  Dy13  1  0.424147  0.212073  0.935662  1
  Dy  Dy14  1  0.212063  0.787937  0.064644  1
  Dy  Dy15  1  0.212063  0.424126  0.064644  1
  Dy  Dy16  1  0.575874  0.787937  0.064644  1
  Y  Y17  1  0.458271  0.541729  0.750000  1
  Y  Y18  1  0.458271  0.916542  0.750000  1
  Y  Y19  1  0.083458  0.541729  0.750000  1
  Fe  Fe20  1  0.333333  0.666667  0.250000  1
  Fe  Fe21  1  0.666667  0.333333  0.750000  1
  Hg  Hg22  1  0.882542  0.117458  0.250000  1
  Hg  Hg23  1  0.882542  0.765083  0.250000  1
  Hg  Hg24  1  0.234917  0.117458  0.250000  1
  Hg  Hg25  1  0.117324  0.882676  0.750000  1
  Hg  Hg26  1  0.117324  0.234648  0.750000  1
  Hg  Hg27  1  0.765352  0.882676  0.750000  1
