# generated using pymatgen
data_LaHo(Zn2Pt)4
_symmetry_space_group_name_H-M   'P 1'
_cell_length_a   7.66622283
_cell_length_b   7.66622283
_cell_length_c   4.22082500
_cell_angle_alpha   90.00000000
_cell_angle_beta   90.00000000
_cell_angle_gamma   92.54177712
_symmetry_Int_Tables_number   1
_chemical_formula_structural   LaHo(Zn2Pt)4
_chemical_formula_sum   'La1 Ho1 Zn8 Pt4'
_cell_volume   247.81793459
_cell_formula_units_Z   1
loop_
 _symmetry_equiv_pos_site_id
 _symmetry_equiv_pos_as_xyz
  1  'x, y, z'
loop_
 _atom_site_type_symbol
 _atom_site_label
 _atom_site_symmetry_multiplicity
 _atom_site_fract_x
 _atom_site_fract_y
 _atom_site_fract_z
 _atom_site_occupancy
  La  La0  1  0.000000  0.000000  0.000000  1
  Ho  Ho1  1  0.500000  0.500000  0.500000  1
  Zn  Zn2  1  0.354437  0.097499  0.500000  1
  Zn  Zn3  1  0.645563  0.902501  0.500000  1
  Zn  Zn4  1  0.845134  0.408893  0.000000  1
  Zn  Zn5  1  0.154866  0.591107  0.000000  1
  Zn  Zn6  1  0.097499  0.354437  0.500000  1
  Zn  Zn7  1  0.902501  0.645563  0.500000  1
  Zn  Zn8  1  0.408893  0.845134  0.000000  1
  Zn  Zn9  1  0.591107  0.154866  0.000000  1
  Pt  Pt10  1  0.777951  0.222049  0.500000  1
  Pt  Pt11  1  0.222049  0.777951  0.500000  1
  Pt  Pt12  1  0.290756  0.290756  0.000000  1
  Pt  Pt13  1  0.709244  0.709244  0.000000  1
