# generated using pymatgen
data_Th3Hg3Se
_symmetry_space_group_name_H-M   'P 1'
_cell_length_a   8.46319614
_cell_length_b   8.46319659
_cell_length_c   8.46319618
_cell_angle_alpha   113.73283452
_cell_angle_beta   113.73283291
_cell_angle_gamma   113.73280917
_symmetry_Int_Tables_number   1
_chemical_formula_structural   Th3Hg3Se
_chemical_formula_sum   'Th6 Hg6 Se2'
_cell_volume   375.47109834
_cell_formula_units_Z   2
loop_
 _symmetry_equiv_pos_site_id
 _symmetry_equiv_pos_as_xyz
  1  'x, y, z'
loop_
 _atom_site_type_symbol
 _atom_site_label
 _atom_site_symmetry_multiplicity
 _atom_site_fract_x
 _atom_site_fract_y
 _atom_site_fract_z
 _atom_site_occupancy
  Th  Th0  1  0.047370  0.395868  0.283426  1
  Th  Th1  1  0.395868  0.283426  0.047370  1
  Th  Th2  1  0.716574  0.952630  0.604132  1
  Th  Th3  1  0.283426  0.047370  0.395868  1
  Th  Th4  1  0.604132  0.716574  0.952630  1
  Th  Th5  1  0.952630  0.604132  0.716574  1
  Hg  Hg6  1  0.428643  0.929334  0.763853  1
  Hg  Hg7  1  0.929334  0.763853  0.428643  1
  Hg  Hg8  1  0.236147  0.571357  0.070666  1
  Hg  Hg9  1  0.763853  0.428643  0.929334  1
  Hg  Hg10  1  0.070666  0.236147  0.571357  1
  Hg  Hg11  1  0.571357  0.070666  0.236147  1
  Se  Se12  1  0.000000  0.000000  0.000000  1
  Se  Se13  1  0.500000  0.500000  0.500000  1
