# generated using pymatgen
data_PrTa5NbSn6
_symmetry_space_group_name_H-M   'P 1'
_cell_length_a   5.81444002
_cell_length_b   5.81443969
_cell_length_c   9.64776200
_cell_angle_alpha   90.00000000
_cell_angle_beta   90.00000000
_cell_angle_gamma   120.02129973
_symmetry_Int_Tables_number   1
_chemical_formula_structural   PrTa5NbSn6
_chemical_formula_sum   'Pr1 Ta5 Nb1 Sn6'
_cell_volume   282.40977518
_cell_formula_units_Z   1
loop_
 _symmetry_equiv_pos_site_id
 _symmetry_equiv_pos_as_xyz
  1  'x, y, z'
loop_
 _atom_site_type_symbol
 _atom_site_label
 _atom_site_symmetry_multiplicity
 _atom_site_fract_x
 _atom_site_fract_y
 _atom_site_fract_z
 _atom_site_occupancy
  Pr  Pr0  1  0.000000  0.000000  0.999921  1
  Ta  Ta1  1  0.000000  0.500000  0.749873  1
  Ta  Ta2  1  0.500000  0.500000  0.749309  1
  Ta  Ta3  1  0.500000  0.000000  0.749873  1
  Ta  Ta4  1  0.000000  0.500000  0.250471  1
  Ta  Ta5  1  0.500000  0.000000  0.250471  1
  Nb  Nb6  1  0.500000  0.500000  0.250551  1
  Sn  Sn7  1  0.666971  0.333029  0.500035  1
  Sn  Sn8  1  0.333029  0.666971  0.500035  1
  Sn  Sn9  1  0.666637  0.333363  0.000042  1
  Sn  Sn10  1  0.333363  0.666637  0.000042  1
  Sn  Sn11  1  0.000000  0.000000  0.666013  1
  Sn  Sn12  1  0.000000  0.000000  0.333364  1
