# generated using pymatgen
data_CrB3Mo4
_symmetry_space_group_name_H-M   'P 1'
_cell_length_a   6.83195919
_cell_length_b   6.83195913
_cell_length_c   6.83195946
_cell_angle_alpha   130.01399220
_cell_angle_beta   130.01399459
_cell_angle_gamma   73.38439323
_symmetry_Int_Tables_number   1
_chemical_formula_structural   CrB3Mo4
_chemical_formula_sum   'Cr2 B6 Mo8'
_cell_volume   182.58359550
_cell_formula_units_Z   2
loop_
 _symmetry_equiv_pos_site_id
 _symmetry_equiv_pos_as_xyz
  1  'x, y, z'
loop_
 _atom_site_type_symbol
 _atom_site_label
 _atom_site_symmetry_multiplicity
 _atom_site_fract_x
 _atom_site_fract_y
 _atom_site_fract_z
 _atom_site_occupancy
  Cr  Cr0  1  0.500000  0.500000  0.000000  1
  Cr  Cr1  1  0.000000  0.000000  0.000000  1
  B  B2  1  0.379939  0.879939  0.259877  1
  B  B3  1  0.879939  0.620061  0.500000  1
  B  B4  1  0.120061  0.379939  0.500000  1
  B  B5  1  0.620061  0.120061  0.740123  1
  B  B6  1  0.250000  0.250000  0.000000  1
  B  B7  1  0.750000  0.750000  0.000000  1
  Mo  Mo8  1  0.685094  0.185094  0.157137  1
  Mo  Mo9  1  0.972043  0.472043  0.157137  1
  Mo  Mo10  1  0.027957  0.527957  0.842863  1
  Mo  Mo11  1  0.527957  0.685094  0.500000  1
  Mo  Mo12  1  0.185094  0.027957  0.500000  1
  Mo  Mo13  1  0.472043  0.314906  0.500000  1
  Mo  Mo14  1  0.814906  0.972043  0.500000  1
  Mo  Mo15  1  0.314906  0.814906  0.842863  1
