# generated using pymatgen
data_Dy2Ho10Co4SnPt
_symmetry_space_group_name_H-M   'P 1'
_cell_length_a   8.28705800
_cell_length_b   8.28705753
_cell_length_c   8.28290280
_cell_angle_alpha   106.78021298
_cell_angle_beta   110.48600578
_cell_angle_gamma   111.20097797
_symmetry_Int_Tables_number   1
_chemical_formula_structural   Dy2Ho10Co4SnPt
_chemical_formula_sum   'Dy2 Ho10 Co4 Sn1 Pt1'
_cell_volume   437.03961255
_cell_formula_units_Z   1
loop_
 _symmetry_equiv_pos_site_id
 _symmetry_equiv_pos_as_xyz
  1  'x, y, z'
loop_
 _atom_site_type_symbol
 _atom_site_label
 _atom_site_symmetry_multiplicity
 _atom_site_fract_x
 _atom_site_fract_y
 _atom_site_fract_z
 _atom_site_occupancy
  Dy  Dy0  1  0.199412  0.785500  0.984911  1
  Dy  Dy1  1  0.800588  0.214500  0.015089  1
  Ho  Ho2  1  0.476306  0.291339  0.185275  1
  Ho  Ho3  1  0.106064  0.291031  0.814725  1
  Ho  Ho4  1  0.893936  0.708969  0.185275  1
  Ho  Ho5  1  0.523694  0.708661  0.814725  1
  Ho  Ho6  1  0.305602  0.620283  0.315122  1
  Ho  Ho7  1  0.305159  0.990481  0.684878  1
  Ho  Ho8  1  0.694398  0.379717  0.684878  1
  Ho  Ho9  1  0.694841  0.009519  0.315122  1
  Ho  Ho10  1  0.199510  0.214398  0.413907  1
  Ho  Ho11  1  0.800490  0.785602  0.586093  1
  Co  Co12  1  0.500106  0.612038  0.112144  1
  Co  Co13  1  0.499894  0.387962  0.887856  1
  Co  Co14  1  0.378279  0.000172  0.378451  1
  Co  Co15  1  0.621721  0.999828  0.621549  1
  Sn  Sn16  1  0.000000  0.500000  0.500000  1
  Pt  Pt17  1  0.000000  0.000000  0.000000  1
