# generated using pymatgen
data_Th10HgBi2Sb5
_symmetry_space_group_name_H-M   'P 1'
_cell_length_a   9.69828320
_cell_length_b   9.68789371
_cell_length_c   6.63347400
_cell_angle_alpha   89.99394390
_cell_angle_beta   90.01156162
_cell_angle_gamma   120.03578576
_symmetry_Int_Tables_number   1
_chemical_formula_structural   Th10HgBi2Sb5
_chemical_formula_sum   'Th10 Hg1 Bi2 Sb5'
_cell_volume   539.55927358
_cell_formula_units_Z   1
loop_
 _symmetry_equiv_pos_site_id
 _symmetry_equiv_pos_as_xyz
  1  'x, y, z'
loop_
 _atom_site_type_symbol
 _atom_site_label
 _atom_site_symmetry_multiplicity
 _atom_site_fract_x
 _atom_site_fract_y
 _atom_site_fract_z
 _atom_site_occupancy
  Th  Th0  1  0.004857  0.722551  0.752326  1
  Th  Th1  1  0.282230  0.277511  0.752331  1
  Th  Th2  1  0.334053  0.669940  0.498582  1
  Th  Th3  1  0.664110  0.330063  0.498576  1
  Th  Th4  1  0.718824  0.719335  0.247876  1
  Th  Th5  1  0.715601  0.999928  0.752185  1
  Th  Th6  1  0.999639  0.280738  0.247878  1
  Th  Th7  1  0.281820  0.999928  0.248075  1
  Th  Th8  1  0.334247  0.669941  0.001130  1
  Th  Th9  1  0.664304  0.330065  0.001147  1
  Hg  Hg10  1  0.999357  0.999996  0.000100  1
  Bi  Bi11  1  0.620660  0.619843  0.751393  1
  Bi  Bi12  1  0.000897  0.380193  0.751388  1
  Sb  Sb13  1  0.380947  0.999961  0.751434  1
  Sb  Sb14  1  0.619688  0.999957  0.248540  1
  Sb  Sb15  1  0.380216  0.381137  0.248409  1
  Sb  Sb16  1  0.999180  0.618918  0.248415  1
  Sb  Sb17  1  0.999370  0.999997  0.500216  1
