# generated using pymatgen
data_Ta3Nb6(NiP2)2
_symmetry_space_group_name_H-M   'P 1'
_cell_length_a   11.53201300
_cell_length_b   11.52085000
_cell_length_c   3.47526700
_cell_angle_alpha   90.00000000
_cell_angle_beta   90.00000000
_cell_angle_gamma   89.99896118
_symmetry_Int_Tables_number   1
_chemical_formula_structural   Ta3Nb6(NiP2)2
_chemical_formula_sum   'Ta6 Nb12 Ni4 P8'
_cell_volume   461.71908031
_cell_formula_units_Z   2
loop_
 _symmetry_equiv_pos_site_id
 _symmetry_equiv_pos_as_xyz
  1  'x, y, z'
loop_
 _atom_site_type_symbol
 _atom_site_label
 _atom_site_symmetry_multiplicity
 _atom_site_fract_x
 _atom_site_fract_y
 _atom_site_fract_z
 _atom_site_occupancy
  Ta  Ta0  1  0.683590  0.603373  0.500000  1
  Ta  Ta1  1  0.316410  0.396627  0.500000  1
  Ta  Ta2  1  0.101841  0.398449  0.000000  1
  Ta  Ta3  1  0.398274  0.898114  0.000000  1
  Ta  Ta4  1  0.601726  0.101886  0.000000  1
  Ta  Ta5  1  0.898159  0.601551  0.000000  1
  Nb  Nb6  1  0.000000  0.000000  0.000000  1
  Nb  Nb7  1  0.500000  0.500000  0.000000  1
  Nb  Nb8  1  0.102082  0.183734  0.500000  1
  Nb  Nb9  1  0.183474  0.897772  0.500000  1
  Nb  Nb10  1  0.816526  0.102228  0.500000  1
  Nb  Nb11  1  0.897918  0.816266  0.500000  1
  Nb  Nb12  1  0.397788  0.683306  0.500000  1
  Nb  Nb13  1  0.602212  0.316694  0.500000  1
  Nb  Nb14  1  0.393874  0.106676  0.500000  1
  Nb  Nb15  1  0.106839  0.605792  0.500000  1
  Nb  Nb16  1  0.893161  0.394208  0.500000  1
  Nb  Nb17  1  0.606126  0.893324  0.500000  1
  Ni  Ni18  1  0.264700  0.236494  0.000000  1
  Ni  Ni19  1  0.235707  0.735185  0.000000  1
  Ni  Ni20  1  0.764293  0.264815  0.000000  1
  Ni  Ni21  1  0.735300  0.763506  0.000000  1
  P  P22  1  0.226620  0.053115  0.000000  1
  P  P23  1  0.052946  0.773203  0.000000  1
  P  P24  1  0.947054  0.226797  0.000000  1
  P  P25  1  0.773380  0.946885  0.000000  1
  P  P26  1  0.273793  0.551996  0.000000  1
  P  P27  1  0.726207  0.448004  0.000000  1
  P  P28  1  0.552695  0.726164  0.000000  1
  P  P29  1  0.447305  0.273836  0.000000  1
