# generated using pymatgen
data_NdDy(Si2Rh3)2
_symmetry_space_group_name_H-M   'P 1'
_cell_length_a   6.66172388
_cell_length_b   6.66172392
_cell_length_c   6.66172325
_cell_angle_alpha   130.41680400
_cell_angle_beta   114.40516026
_cell_angle_gamma   86.47237767
_symmetry_Int_Tables_number   1
_chemical_formula_structural   NdDy(Si2Rh3)2
_chemical_formula_sum   'Nd1 Dy1 Si4 Rh6'
_cell_volume   195.68182464
_cell_formula_units_Z   1
loop_
 _symmetry_equiv_pos_site_id
 _symmetry_equiv_pos_as_xyz
  1  'x, y, z'
loop_
 _atom_site_type_symbol
 _atom_site_label
 _atom_site_symmetry_multiplicity
 _atom_site_fract_x
 _atom_site_fract_y
 _atom_site_fract_z
 _atom_site_occupancy
  Nd  Nd0  1  0.250000  0.964422  0.714422  1
  Dy  Dy1  1  0.750000  0.043714  0.293714  1
  Si  Si2  1  0.579661  0.383572  0.803911  1
  Si  Si3  1  0.422029  0.619681  0.197652  1
  Si  Si4  1  0.077971  0.275622  0.197652  1
  Si  Si5  1  0.920339  0.724250  0.803911  1
  Rh  Rh6  1  0.213807  0.495425  0.712865  1
  Rh  Rh7  1  0.717440  0.999058  0.712865  1
  Rh  Rh8  1  0.782560  0.495425  0.281618  1
  Rh  Rh9  1  0.286193  0.999058  0.281618  1
  Rh  Rh10  1  0.501806  0.499886  0.501692  1
  Rh  Rh11  1  0.998194  0.499886  0.998080  1
