# generated using pymatgen
data_ZrAl5GaCu6
_symmetry_space_group_name_H-M   'P 1'
_cell_length_a   6.52566767
_cell_length_b   6.52566697
_cell_length_c   6.52564724
_cell_angle_alpha   134.03075319
_cell_angle_beta   99.49689454
_cell_angle_gamma   98.04576315
_symmetry_Int_Tables_number   1
_chemical_formula_structural   ZrAl5GaCu6
_chemical_formula_sum   'Zr1 Al5 Ga1 Cu6'
_cell_volume   183.91190867
_cell_formula_units_Z   1
loop_
 _symmetry_equiv_pos_site_id
 _symmetry_equiv_pos_as_xyz
  1  'x, y, z'
loop_
 _atom_site_type_symbol
 _atom_site_label
 _atom_site_symmetry_multiplicity
 _atom_site_fract_x
 _atom_site_fract_y
 _atom_site_fract_z
 _atom_site_occupancy
  Zr  Zr0  1  0.002199  0.999998  0.002197  1
  Al  Al1  1  0.654006  0.000000  0.654006  1
  Al  Al2  1  0.657706  0.657241  0.000465  1
  Al  Al3  1  0.343224  0.342758  0.000465  1
  Al  Al4  1  0.185137  0.685227  0.499907  1
  Al  Al5  1  0.814681  0.314770  0.499907  1
  Ga  Ga6  1  0.344928  0.000002  0.344930  1
  Cu  Cu7  1  0.762384  0.499995  0.262379  1
  Cu  Cu8  1  0.236931  0.500002  0.736933  1
  Cu  Cu9  1  0.998705  0.000345  0.501042  1
  Cu  Cu10  1  0.998705  0.497667  0.998363  1
  Cu  Cu11  1  0.500696  0.999659  0.998363  1
  Cu  Cu12  1  0.500697  0.502337  0.501042  1
