# generated using pymatgen
data_Er8ReTc2B24Rh
_symmetry_space_group_name_H-M   'P 1'
_cell_length_a   3.65541400
_cell_length_b   9.11705084
_cell_length_c   11.49067640
_cell_angle_alpha   90.10344314
_cell_angle_beta   90.00000000
_cell_angle_gamma   90.00000000
_symmetry_Int_Tables_number   1
_chemical_formula_structural   Er8ReTc2B24Rh
_chemical_formula_sum   'Er8 Re1 Tc2 B24 Rh1'
_cell_volume   382.94449790
_cell_formula_units_Z   1
loop_
 _symmetry_equiv_pos_site_id
 _symmetry_equiv_pos_as_xyz
  1  'x, y, z'
loop_
 _atom_site_type_symbol
 _atom_site_label
 _atom_site_symmetry_multiplicity
 _atom_site_fract_x
 _atom_site_fract_y
 _atom_site_fract_z
 _atom_site_occupancy
  Er  Er0  1  0.500000  0.318016  0.415871  1
  Er  Er1  1  0.500000  0.678498  0.591196  1
  Er  Er2  1  0.500000  0.177466  0.912726  1
  Er  Er3  1  0.500000  0.827330  0.081020  1
  Er  Er4  1  0.500000  0.440517  0.129088  1
  Er  Er5  1  0.500000  0.557735  0.871655  1
  Er  Er6  1  0.500000  0.055467  0.629347  1
  Er  Er7  1  0.500000  0.943414  0.369591  1
  Re  Re8  1  0.500000  0.362879  0.677737  1
  Tc  Tc9  1  0.500000  0.138325  0.180072  1
  Tc  Tc10  1  0.500000  0.861804  0.820820  1
  B  B11  1  0.000000  0.101293  0.471193  1
  B  B12  1  0.000000  0.895144  0.528086  1
  B  B13  1  0.000000  0.397436  0.972042  1
  B  B14  1  0.000000  0.604071  0.029574  1
  B  B15  1  0.000000  0.130389  0.315192  1
  B  B16  1  0.000000  0.868675  0.685175  1
  B  B17  1  0.000000  0.369754  0.814613  1
  B  B18  1  0.000000  0.631448  0.183739  1
  B  B19  1  0.000000  0.053523  0.066267  1
  B  B20  1  0.000000  0.947708  0.932637  1
  B  B21  1  0.000000  0.446797  0.566268  1
  B  B22  1  0.000000  0.553667  0.433982  1
  B  B23  1  0.000000  0.482284  0.288023  1
  B  B24  1  0.000000  0.518984  0.712409  1
  B  B25  1  0.000000  0.018044  0.787039  1
  B  B26  1  0.000000  0.982142  0.211701  1
  B  B27  1  0.000000  0.249208  0.081028  1
  B  B28  1  0.000000  0.752060  0.919151  1
  B  B29  1  0.000000  0.250155  0.580623  1
  B  B30  1  0.000000  0.749045  0.420425  1
  B  B31  1  0.000000  0.291681  0.235591  1
  B  B32  1  0.000000  0.708312  0.765656  1
  B  B33  1  0.000000  0.208233  0.734412  1
  B  B34  1  0.000000  0.791134  0.264619  1
  Rh  Rh35  1  0.500000  0.637361  0.321428  1
