# generated using pymatgen
data_Dy3HoTh4(ReB6)4
_symmetry_space_group_name_H-M   'P 1'
_cell_length_a   3.77413100
_cell_length_b   9.27377901
_cell_length_c   11.69910602
_cell_angle_alpha   90.00581287
_cell_angle_beta   90.00000000
_cell_angle_gamma   90.00000000
_symmetry_Int_Tables_number   1
_chemical_formula_structural   Dy3HoTh4(ReB6)4
_chemical_formula_sum   'Dy3 Ho1 Th4 Re4 B24'
_cell_volume   409.47405323
_cell_formula_units_Z   1
loop_
 _symmetry_equiv_pos_site_id
 _symmetry_equiv_pos_as_xyz
  1  'x, y, z'
loop_
 _atom_site_type_symbol
 _atom_site_label
 _atom_site_symmetry_multiplicity
 _atom_site_fract_x
 _atom_site_fract_y
 _atom_site_fract_z
 _atom_site_occupancy
  Dy  Dy0  1  0.000000  0.944652  0.372554  1
  Dy  Dy1  1  0.000000  0.055342  0.627472  1
  Dy  Dy2  1  0.000000  0.444699  0.127342  1
  Ho  Ho3  1  0.000000  0.555344  0.872507  1
  Th  Th4  1  0.000000  0.322217  0.414085  1
  Th  Th5  1  0.000000  0.677780  0.585987  1
  Th  Th6  1  0.000000  0.822147  0.085878  1
  Th  Th7  1  0.000000  0.177873  0.914046  1
  Re  Re8  1  0.000000  0.638938  0.320188  1
  Re  Re9  1  0.000000  0.361247  0.679941  1
  Re  Re10  1  0.000000  0.138966  0.179767  1
  Re  Re11  1  0.000000  0.860751  0.820244  1
  B  B12  1  0.500000  0.556093  0.430080  1
  B  B13  1  0.500000  0.443922  0.569957  1
  B  B14  1  0.500000  0.056083  0.069918  1
  B  B15  1  0.500000  0.943872  0.930071  1
  B  B16  1  0.500000  0.749364  0.417185  1
  B  B17  1  0.500000  0.250645  0.582822  1
  B  B18  1  0.500000  0.249378  0.082819  1
  B  B19  1  0.500000  0.750390  0.917183  1
  B  B20  1  0.500000  0.790572  0.266792  1
  B  B21  1  0.500000  0.209485  0.733226  1
  B  B22  1  0.500000  0.290569  0.233205  1
  B  B23  1  0.500000  0.709203  0.766852  1
  B  B24  1  0.500000  0.630540  0.186538  1
  B  B25  1  0.500000  0.369652  0.813575  1
  B  B26  1  0.500000  0.130559  0.313459  1
  B  B27  1  0.500000  0.869410  0.686564  1
  B  B28  1  0.500000  0.985302  0.213690  1
  B  B29  1  0.500000  0.014682  0.786315  1
  B  B30  1  0.500000  0.485304  0.286304  1
  B  B31  1  0.500000  0.514825  0.713859  1
  B  B32  1  0.500000  0.603069  0.028222  1
  B  B33  1  0.500000  0.397126  0.971345  1
  B  B34  1  0.500000  0.103155  0.471517  1
  B  B35  1  0.500000  0.896843  0.528493  1
