# generated using pymatgen
data_Nd2Co17Si8Ir
_symmetry_space_group_name_H-M   'P 1'
_cell_length_a   7.94857604
_cell_length_b   8.01425105
_cell_length_c   7.97252660
_cell_angle_alpha   121.93093070
_cell_angle_beta   121.66789139
_cell_angle_gamma   86.97808526
_symmetry_Int_Tables_number   1
_chemical_formula_structural   Nd2Co17Si8Ir
_chemical_formula_sum   'Nd2 Co17 Si8 Ir1'
_cell_volume   348.59885030
_cell_formula_units_Z   1
loop_
 _symmetry_equiv_pos_site_id
 _symmetry_equiv_pos_as_xyz
  1  'x, y, z'
loop_
 _atom_site_type_symbol
 _atom_site_label
 _atom_site_symmetry_multiplicity
 _atom_site_fract_x
 _atom_site_fract_y
 _atom_site_fract_z
 _atom_site_occupancy
  Nd  Nd0  1  0.750428  0.750510  0.002277  1
  Nd  Nd1  1  0.248152  0.248233  0.997723  1
  Co  Co2  1  0.448528  0.950245  0.759725  1
  Co  Co3  1  0.188803  0.690519  0.240275  1
  Co  Co4  1  0.547428  0.043025  0.233376  1
  Co  Co5  1  0.948792  0.190550  0.500000  1
  Co  Co6  1  0.197790  0.927808  0.127477  1
  Co  Co7  1  0.800668  0.069262  0.868744  1
  Co  Co8  1  0.431925  0.700518  0.131256  1
  Co  Co9  1  0.570313  0.300331  0.872523  1
  Co  Co10  1  0.701142  0.573300  0.263664  1
  Co  Co11  1  0.300836  0.429859  0.732556  1
  Co  Co12  1  0.937477  0.809635  0.736336  1
  Co  Co13  1  0.311005  0.548694  0.500000  1
  Co  Co14  1  0.814052  0.309648  0.766624  1
  Co  Co15  1  0.001520  0.501372  0.500000  1
  Co  Co16  1  0.500377  0.002177  0.500000  1
  Co  Co17  1  0.068281  0.197303  0.267444  1
  Co  Co18  1  0.050822  0.811263  0.500000  1
  Si  Si19  1  0.290797  0.787747  0.833837  1
  Si  Si20  1  0.054572  0.544586  0.841330  1
  Si  Si21  1  0.540519  0.718490  0.500000  1
  Si  Si22  1  0.790808  0.955561  0.500000  1
  Si  Si23  1  0.443446  0.283600  0.500000  1
  Si  Si24  1  0.956959  0.453909  0.166163  1
  Si  Si25  1  0.713242  0.203256  0.158670  1
  Si  Si26  1  0.208887  0.046508  0.500000  1
  Ir  Ir27  1  0.682432  0.452093  0.500000  1
