# generated using pymatgen
data_Pr3Sm2P12Pd3Ru16
_symmetry_space_group_name_H-M   'P 1'
_cell_length_a   12.70220900
_cell_length_b   12.70220866
_cell_length_c   4.01970400
_cell_angle_alpha   90.00000000
_cell_angle_beta   90.00000000
_cell_angle_gamma   120.00000348
_symmetry_Int_Tables_number   1
_chemical_formula_structural   Pr3Sm2P12Pd3Ru16
_chemical_formula_sum   'Pr3 Sm2 P12 Pd3 Ru16'
_cell_volume   561.67253430
_cell_formula_units_Z   1
loop_
 _symmetry_equiv_pos_site_id
 _symmetry_equiv_pos_as_xyz
  1  'x, y, z'
loop_
 _atom_site_type_symbol
 _atom_site_label
 _atom_site_symmetry_multiplicity
 _atom_site_fract_x
 _atom_site_fract_y
 _atom_site_fract_z
 _atom_site_occupancy
  Pr  Pr0  1  0.182095  0.182095  0.500000  1
  Pr  Pr1  1  0.817905  0.000000  0.500000  1
  Pr  Pr2  1  0.000000  0.817905  0.500000  1
  Sm  Sm3  1  0.333333  0.666667  0.000000  1
  Sm  Sm4  1  0.666667  0.333333  0.000000  1
  P  P5  1  0.810075  0.810075  0.000000  1
  P  P6  1  0.189925  0.000000  0.000000  1
  P  P7  1  0.000000  0.189925  0.000000  1
  P  P8  1  0.180127  0.479711  0.500000  1
  P  P9  1  0.520289  0.700415  0.500000  1
  P  P10  1  0.299585  0.819873  0.500000  1
  P  P11  1  0.700415  0.520289  0.500000  1
  P  P12  1  0.819873  0.299585  0.500000  1
  P  P13  1  0.479711  0.180127  0.500000  1
  P  P14  1  0.369451  0.369451  0.000000  1
  P  P15  1  0.630549  0.000000  0.000000  1
  P  P16  1  0.000000  0.630549  0.000000  1
  Pd  Pd17  1  0.553335  0.553335  0.000000  1
  Pd  Pd18  1  0.446665  0.000000  0.000000  1
  Pd  Pd19  1  0.000000  0.446665  0.000000  1
  Ru  Ru20  1  0.709226  0.709226  0.500000  1
  Ru  Ru21  1  0.290774  0.000000  0.500000  1
  Ru  Ru22  1  0.000000  0.290774  0.500000  1
  Ru  Ru23  1  0.186310  0.381626  0.000000  1
  Ru  Ru24  1  0.618374  0.804684  0.000000  1
  Ru  Ru25  1  0.195316  0.813690  0.000000  1
  Ru  Ru26  1  0.804684  0.618374  0.000000  1
  Ru  Ru27  1  0.813690  0.195316  0.000000  1
  Ru  Ru28  1  0.381626  0.186310  0.000000  1
  Ru  Ru29  1  0.370058  0.493201  0.500000  1
  Ru  Ru30  1  0.506799  0.876857  0.500000  1
  Ru  Ru31  1  0.123143  0.629942  0.500000  1
  Ru  Ru32  1  0.876857  0.506799  0.500000  1
  Ru  Ru33  1  0.629942  0.123143  0.500000  1
  Ru  Ru34  1  0.493201  0.370058  0.500000  1
  Ru  Ru35  1  0.000000  0.000000  0.000000  1
