# generated using pymatgen
data_Hf6Ta(TiSi2)3
_symmetry_space_group_name_H-M   'P 1'
_cell_length_a   7.76130800
_cell_length_b   7.76130896
_cell_length_c   5.29011300
_cell_angle_alpha   90.00000000
_cell_angle_beta   90.00000000
_cell_angle_gamma   119.99999592
_symmetry_Int_Tables_number   1
_chemical_formula_structural   Hf6Ta(TiSi2)3
_chemical_formula_sum   'Hf6 Ta1 Ti3 Si6'
_cell_volume   275.97229723
_cell_formula_units_Z   1
loop_
 _symmetry_equiv_pos_site_id
 _symmetry_equiv_pos_as_xyz
  1  'x, y, z'
loop_
 _atom_site_type_symbol
 _atom_site_label
 _atom_site_symmetry_multiplicity
 _atom_site_fract_x
 _atom_site_fract_y
 _atom_site_fract_z
 _atom_site_occupancy
  Hf  Hf0  1  0.749534  0.749017  0.750694  1
  Hf  Hf1  1  0.250983  0.000518  0.750694  1
  Hf  Hf2  1  0.999482  0.250466  0.750694  1
  Hf  Hf3  1  0.250983  0.250466  0.249306  1
  Hf  Hf4  1  0.749534  0.000518  0.249306  1
  Hf  Hf5  1  0.999482  0.749017  0.249306  1
  Ta  Ta6  1  0.666667  0.333333  0.000000  1
  Ti  Ti7  1  0.333333  0.666667  0.000000  1
  Ti  Ti8  1  0.333333  0.666667  0.500000  1
  Ti  Ti9  1  0.666667  0.333333  0.500000  1
  Si  Si10  1  0.396224  0.397758  0.748304  1
  Si  Si11  1  0.602242  0.998466  0.748304  1
  Si  Si12  1  0.001534  0.603776  0.748304  1
  Si  Si13  1  0.602242  0.603776  0.251696  1
  Si  Si14  1  0.396224  0.998466  0.251696  1
  Si  Si15  1  0.001534  0.397758  0.251696  1
