# generated using pymatgen
data_Ce3Th(Re3Tc)2
_symmetry_space_group_name_H-M   'P 1'
_cell_length_a   5.27305800
_cell_length_b   5.27306057
_cell_length_c   9.60798500
_cell_angle_alpha   90.00000000
_cell_angle_beta   90.00000000
_cell_angle_gamma   120.00000895
_symmetry_Int_Tables_number   1
_chemical_formula_structural   Ce3Th(Re3Tc)2
_chemical_formula_sum   'Ce3 Th1 Re6 Tc2'
_cell_volume   231.35996899
_cell_formula_units_Z   1
loop_
 _symmetry_equiv_pos_site_id
 _symmetry_equiv_pos_as_xyz
  1  'x, y, z'
loop_
 _atom_site_type_symbol
 _atom_site_label
 _atom_site_symmetry_multiplicity
 _atom_site_fract_x
 _atom_site_fract_y
 _atom_site_fract_z
 _atom_site_occupancy
  Ce  Ce0  1  0.333333  0.666667  0.441308  1
  Ce  Ce1  1  0.666667  0.333333  0.560485  1
  Ce  Ce2  1  0.666667  0.333333  0.937089  1
  Th  Th3  1  0.333333  0.666667  0.060547  1
  Re  Re4  1  0.830646  0.169354  0.251370  1
  Re  Re5  1  0.830646  0.661292  0.251370  1
  Re  Re6  1  0.338708  0.169354  0.251370  1
  Re  Re7  1  0.169438  0.830562  0.748920  1
  Re  Re8  1  0.169438  0.338875  0.748920  1
  Re  Re9  1  0.661125  0.830562  0.748920  1
  Tc  Tc10  1  0.000000  0.000000  0.500816  1
  Tc  Tc11  1  0.000000  0.000000  0.998885  1
