# generated using pymatgen
data_Ho5Si9P3Ir19
_symmetry_space_group_name_H-M   'P 1'
_cell_length_a   12.82709100
_cell_length_b   12.82709018
_cell_length_c   3.94198100
_cell_angle_alpha   90.00000000
_cell_angle_beta   90.00000000
_cell_angle_gamma   119.99999955
_symmetry_Int_Tables_number   1
_chemical_formula_structural   Ho5Si9P3Ir19
_chemical_formula_sum   'Ho5 Si9 P3 Ir19'
_cell_volume   561.69619776
_cell_formula_units_Z   1
loop_
 _symmetry_equiv_pos_site_id
 _symmetry_equiv_pos_as_xyz
  1  'x, y, z'
loop_
 _atom_site_type_symbol
 _atom_site_label
 _atom_site_symmetry_multiplicity
 _atom_site_fract_x
 _atom_site_fract_y
 _atom_site_fract_z
 _atom_site_occupancy
  Ho  Ho0  1  0.666667  0.333333  0.000000  1
  Ho  Ho1  1  0.333333  0.666667  0.000000  1
  Ho  Ho2  1  0.814457  0.814457  0.500000  1
  Ho  Ho3  1  0.185543  0.000000  0.500000  1
  Ho  Ho4  1  0.000000  0.185543  0.500000  1
  Si  Si5  1  0.686204  0.167512  0.500000  1
  Si  Si6  1  0.832488  0.518692  0.500000  1
  Si  Si7  1  0.481308  0.313796  0.500000  1
  Si  Si8  1  0.167512  0.686204  0.500000  1
  Si  Si9  1  0.518692  0.832488  0.500000  1
  Si  Si10  1  0.313796  0.481308  0.500000  1
  Si  Si11  1  0.633350  0.633350  0.000000  1
  Si  Si12  1  0.366650  0.000000  0.000000  1
  Si  Si13  1  0.000000  0.366650  0.000000  1
  P  P14  1  0.178175  0.178175  0.000000  1
  P  P15  1  0.821825  0.000000  0.000000  1
  P  P16  1  0.000000  0.821825  0.000000  1
  Ir  Ir17  1  0.807171  0.179694  0.000000  1
  Ir  Ir18  1  0.820306  0.627477  0.000000  1
  Ir  Ir19  1  0.372523  0.192829  0.000000  1
  Ir  Ir20  1  0.179694  0.807171  0.000000  1
  Ir  Ir21  1  0.627477  0.820306  0.000000  1
  Ir  Ir22  1  0.192829  0.372523  0.000000  1
  Ir  Ir23  1  0.447177  0.447177  0.000000  1
  Ir  Ir24  1  0.552823  0.000000  0.000000  1
  Ir  Ir25  1  0.000000  0.552823  0.000000  1
  Ir  Ir26  1  0.277848  0.277848  0.500000  1
  Ir  Ir27  1  0.722152  0.000000  0.500000  1
  Ir  Ir28  1  0.000000  0.722152  0.500000  1
  Ir  Ir29  1  0.872113  0.359540  0.500000  1
  Ir  Ir30  1  0.640460  0.512575  0.500000  1
  Ir  Ir31  1  0.487425  0.127887  0.500000  1
  Ir  Ir32  1  0.359540  0.872113  0.500000  1
  Ir  Ir33  1  0.512575  0.640460  0.500000  1
  Ir  Ir34  1  0.127887  0.487425  0.500000  1
  Ir  Ir35  1  0.000000  0.000000  0.000000  1
