# generated using pymatgen
data_Ta12Cr5Os7(CN)2
_symmetry_space_group_name_H-M   'P 1'
_cell_length_a   8.26215723
_cell_length_b   8.26215741
_cell_length_c   8.25804704
_cell_angle_alpha   59.89169185
_cell_angle_beta   59.89169214
_cell_angle_gamma   59.91755238
_symmetry_Int_Tables_number   1
_chemical_formula_structural   Ta12Cr5Os7(CN)2
_chemical_formula_sum   'Ta12 Cr5 Os7 C2 N2'
_cell_volume   397.70944798
_cell_formula_units_Z   1
loop_
 _symmetry_equiv_pos_site_id
 _symmetry_equiv_pos_as_xyz
  1  'x, y, z'
loop_
 _atom_site_type_symbol
 _atom_site_label
 _atom_site_symmetry_multiplicity
 _atom_site_fract_x
 _atom_site_fract_y
 _atom_site_fract_z
 _atom_site_occupancy
  Ta  Ta0  1  0.807462  0.807462  0.188593  1
  Ta  Ta1  1  0.193166  0.193166  0.805796  1
  Ta  Ta2  1  0.807933  0.187594  0.808425  1
  Ta  Ta3  1  0.193142  0.804973  0.193543  1
  Ta  Ta4  1  0.187594  0.807933  0.808425  1
  Ta  Ta5  1  0.804973  0.193142  0.193543  1
  Ta  Ta6  1  0.443847  0.443847  0.055664  1
  Ta  Ta7  1  0.057512  0.057512  0.442606  1
  Ta  Ta8  1  0.443788  0.056863  0.442527  1
  Ta  Ta9  1  0.057535  0.442737  0.057388  1
  Ta  Ta10  1  0.056863  0.443788  0.442527  1
  Ta  Ta11  1  0.442737  0.057535  0.057388  1
  Cr  Cr12  1  0.116835  0.632106  0.632384  1
  Cr  Cr13  1  0.632106  0.116835  0.632384  1
  Cr  Cr14  1  0.632386  0.632386  0.117068  1
  Cr  Cr15  1  0.625392  0.625392  0.624774  1
  Cr  Cr16  1  0.830546  0.830546  0.829634  1
  Os  Os17  1  0.745868  0.417046  0.417886  1
  Os  Os18  1  0.417046  0.745868  0.417886  1
  Os  Os19  1  0.417345  0.417345  0.746101  1
  Os  Os20  1  0.417040  0.417040  0.417960  1
  Os  Os21  1  0.501551  0.834464  0.833496  1
  Os  Os22  1  0.834464  0.501551  0.833496  1
  Os  Os23  1  0.834080  0.834080  0.501703  1
  C  C24  1  0.624733  0.124776  0.124664  1
  C  C25  1  0.124776  0.624733  0.124664  1
  N  N26  1  0.124848  0.124848  0.624687  1
  N  N27  1  0.124429  0.124429  0.124788  1
