# generated using pymatgen
data_Ca3TbAl18OsPd5
_symmetry_space_group_name_H-M   'P 1'
_cell_length_a   7.66615118
_cell_length_b   7.65373211
_cell_length_c   9.56199733
_cell_angle_alpha   90.04673862
_cell_angle_beta   90.10408913
_cell_angle_gamma   119.63545283
_symmetry_Int_Tables_number   1
_chemical_formula_structural   Ca3TbAl18OsPd5
_chemical_formula_sum   'Ca3 Tb1 Al18 Os1 Pd5'
_cell_volume   487.65421145
_cell_formula_units_Z   1
loop_
 _symmetry_equiv_pos_site_id
 _symmetry_equiv_pos_as_xyz
  1  'x, y, z'
loop_
 _atom_site_type_symbol
 _atom_site_label
 _atom_site_symmetry_multiplicity
 _atom_site_fract_x
 _atom_site_fract_y
 _atom_site_fract_z
 _atom_site_occupancy
  Ca  Ca0  1  0.993802  0.669303  0.248068  1
  Ca  Ca1  1  0.003768  0.329552  0.751204  1
  Ca  Ca2  1  0.671980  0.996162  0.248608  1
  Tb  Tb3  1  0.330721  0.002083  0.752488  1
  Al  Al4  1  0.130712  0.133072  0.249392  1
  Al  Al5  1  0.871202  0.870119  0.750384  1
  Al  Al6  1  0.994782  0.334501  0.074015  1
  Al  Al7  1  0.994802  0.658333  0.924291  1
  Al  Al8  1  0.998298  0.665354  0.577786  1
  Al  Al9  1  0.333991  0.001663  0.421821  1
  Al  Al10  1  0.001780  0.335515  0.424834  1
  Al  Al11  1  0.665454  0.998841  0.576709  1
  Al  Al12  1  0.667259  0.004415  0.924894  1
  Al  Al13  1  0.340662  0.004833  0.076499  1
  Al  Al14  1  0.333308  0.333584  0.556115  1
  Al  Al15  1  0.664620  0.665660  0.446650  1
  Al  Al16  1  0.667169  0.662055  0.047079  1
  Al  Al17  1  0.336508  0.331992  0.950396  1
  Al  Al18  1  0.338686  0.545407  0.249273  1
  Al  Al19  1  0.657557  0.451735  0.753390  1
  Al  Al20  1  0.547296  0.340720  0.246040  1
  Al  Al21  1  0.457580  0.665295  0.750768  1
  Os  Os22  1  0.669084  0.327396  0.998721  1
  Pd  Pd23  1  0.328460  0.671783  0.998617  1
  Pd  Pd24  1  0.328041  0.671983  0.501404  1
  Pd  Pd25  1  0.669845  0.328170  0.500938  1
  Pd  Pd26  1  0.001639  0.000187  0.998848  1
  Pd  Pd27  1  0.000992  0.000289  0.500767  1
