# generated using pymatgen
data_Er11In9Ni4
_symmetry_space_group_name_H-M   'P 1'
_cell_length_a   12.96064649
_cell_length_b   12.96064613
_cell_length_c   3.61918000
_cell_angle_alpha   90.00000000
_cell_angle_beta   90.00000000
_cell_angle_gamma   112.90627892
_symmetry_Int_Tables_number   1
_chemical_formula_structural   Er11In9Ni4
_chemical_formula_sum   'Er11 In9 Ni4'
_cell_volume   560.00311541
_cell_formula_units_Z   1
loop_
 _symmetry_equiv_pos_site_id
 _symmetry_equiv_pos_as_xyz
  1  'x, y, z'
loop_
 _atom_site_type_symbol
 _atom_site_label
 _atom_site_symmetry_multiplicity
 _atom_site_fract_x
 _atom_site_fract_y
 _atom_site_fract_z
 _atom_site_occupancy
  Er  Er0  1  0.081035  0.417296  0.000000  1
  Er  Er1  1  0.918965  0.582704  0.000000  1
  Er  Er2  1  0.417296  0.081035  0.000000  1
  Er  Er3  1  0.582704  0.918965  0.000000  1
  Er  Er4  1  0.625412  0.374588  0.000000  1
  Er  Er5  1  0.374588  0.625412  0.000000  1
  Er  Er6  1  0.840056  0.159944  0.000000  1
  Er  Er7  1  0.159944  0.840056  0.000000  1
  Er  Er8  1  0.000000  0.000000  0.000000  1
  Er  Er9  1  0.312210  0.312210  0.000000  1
  Er  Er10  1  0.687790  0.687790  0.000000  1
  In  In11  1  0.842838  0.367646  0.500000  1
  In  In12  1  0.157162  0.632354  0.500000  1
  In  In13  1  0.367646  0.842838  0.500000  1
  In  In14  1  0.632354  0.157162  0.500000  1
  In  In15  1  0.075912  0.219042  0.500000  1
  In  In16  1  0.924088  0.780958  0.500000  1
  In  In17  1  0.219042  0.075912  0.500000  1
  In  In18  1  0.780958  0.924088  0.500000  1
  In  In19  1  0.500000  0.500000  0.500000  1
  Ni  Ni20  1  0.248183  0.449914  0.500000  1
  Ni  Ni21  1  0.751817  0.550086  0.500000  1
  Ni  Ni22  1  0.449914  0.248183  0.500000  1
  Ni  Ni23  1  0.550086  0.751817  0.500000  1
