# generated using pymatgen
data_LaY3(Si5Os3)2
_symmetry_space_group_name_H-M   'P 1'
_cell_length_a   8.17488653
_cell_length_b   8.17516821
_cell_length_c   5.83832292
_cell_angle_alpha   70.40355493
_cell_angle_beta   70.58333137
_cell_angle_gamma   93.86680513
_symmetry_Int_Tables_number   1
_chemical_formula_structural   LaY3(Si5Os3)2
_chemical_formula_sum   'La1 Y3 Si10 Os6'
_cell_volume   339.57265011
_cell_formula_units_Z   1
loop_
 _symmetry_equiv_pos_site_id
 _symmetry_equiv_pos_as_xyz
  1  'x, y, z'
loop_
 _atom_site_type_symbol
 _atom_site_label
 _atom_site_symmetry_multiplicity
 _atom_site_fract_x
 _atom_site_fract_y
 _atom_site_fract_z
 _atom_site_occupancy
  La  La0  1  0.602168  0.868202  0.255548  1
  Y  Y1  1  0.867300  0.602329  0.753196  1
  Y  Y2  1  0.397869  0.132072  0.745969  1
  Y  Y3  1  0.131301  0.398125  0.247167  1
  Si  Si4  1  0.065837  0.259573  0.834795  1
  Si  Si5  1  0.739694  0.934845  0.665387  1
  Si  Si6  1  0.938350  0.737589  0.164081  1
  Si  Si7  1  0.261633  0.068314  0.334001  1
  Si  Si8  1  0.207338  0.792427  0.748263  1
  Si  Si9  1  0.795455  0.209952  0.250547  1
  Si  Si10  1  0.511410  0.485732  0.750474  1
  Si  Si11  1  0.485493  0.509208  0.253280  1
  Si  Si12  1  0.773098  0.229579  0.746310  1
  Si  Si13  1  0.223032  0.772757  0.251029  1
  Os  Os14  1  0.253191  0.540973  0.632373  1
  Os  Os15  1  0.455337  0.742332  0.870631  1
  Os  Os16  1  0.744211  0.457971  0.366226  1
  Os  Os17  1  0.544376  0.257672  0.131344  1
  Os  Os18  1  0.004276  0.997264  0.749203  1
  Os  Os19  1  0.998633  0.003083  0.250176  1
