# generated using pymatgen
data_Al3Si(IrRu)2
_symmetry_space_group_name_H-M   'P 1'
_cell_length_a   5.97790000
_cell_length_b   4.22143600
_cell_length_c   8.46009800
_cell_angle_alpha   90.00000000
_cell_angle_beta   90.00009533
_cell_angle_gamma   90.00000000
_symmetry_Int_Tables_number   1
_chemical_formula_structural   Al3Si(IrRu)2
_chemical_formula_sum   'Al6 Si2 Ir4 Ru4'
_cell_volume   213.49329942
_cell_formula_units_Z   2
loop_
 _symmetry_equiv_pos_site_id
 _symmetry_equiv_pos_as_xyz
  1  'x, y, z'
loop_
 _atom_site_type_symbol
 _atom_site_label
 _atom_site_symmetry_multiplicity
 _atom_site_fract_x
 _atom_site_fract_y
 _atom_site_fract_z
 _atom_site_occupancy
  Al  Al0  1  0.000136  0.250001  0.378339  1
  Al  Al1  1  0.499854  0.250001  0.378345  1
  Al  Al2  1  0.499555  0.749999  0.625001  1
  Al  Al3  1  0.000458  0.749999  0.625010  1
  Al  Al4  1  0.499862  0.250001  0.871645  1
  Al  Al5  1  0.000140  0.250001  0.871652  1
  Si  Si6  1  0.999226  0.749999  0.125001  1
  Si  Si7  1  0.500775  0.749999  0.125008  1
  Ir  Ir8  1  0.749990  0.250001  0.124998  1
  Ir  Ir9  1  0.249994  0.749999  0.364888  1
  Ir  Ir10  1  0.750006  0.250001  0.624997  1
  Ir  Ir11  1  0.250006  0.749999  0.885115  1
  Ru  Ru12  1  0.249995  0.250001  0.124997  1
  Ru  Ru13  1  0.749997  0.749999  0.363388  1
  Ru  Ru14  1  0.250001  0.250001  0.624996  1
  Ru  Ru15  1  0.750003  0.749999  0.886618  1
