# generated using pymatgen
data_Dy2Al16FePt8
_symmetry_space_group_name_H-M   'P 1'
_cell_length_a   11.10234356
_cell_length_b   11.10234409
_cell_length_c   11.10234400
_cell_angle_alpha   158.47255904
_cell_angle_beta   116.01310306
_cell_angle_gamma   68.35722602
_symmetry_Int_Tables_number   1
_chemical_formula_structural   Dy2Al16FePt8
_chemical_formula_sum   'Dy2 Al16 Fe1 Pt8'
_cell_volume   448.09945490
_cell_formula_units_Z   1
loop_
 _symmetry_equiv_pos_site_id
 _symmetry_equiv_pos_as_xyz
  1  'x, y, z'
loop_
 _atom_site_type_symbol
 _atom_site_label
 _atom_site_symmetry_multiplicity
 _atom_site_fract_x
 _atom_site_fract_y
 _atom_site_fract_z
 _atom_site_occupancy
  Dy  Dy0  1  0.228794  0.229292  0.999502  1
  Dy  Dy1  1  0.770209  0.770708  0.999502  1
  Al  Al2  1  0.273044  0.390449  0.882595  1
  Al  Al3  1  0.089540  0.922443  0.167097  1
  Al  Al4  1  0.509554  0.203551  0.306005  1
  Al  Al5  1  0.244654  0.077557  0.167097  1
  Al  Al6  1  0.910002  0.415604  0.494398  1
  Al  Al7  1  0.724031  0.598887  0.125144  1
  Al  Al8  1  0.899656  0.206512  0.693144  1
  Al  Al9  1  0.486634  0.793488  0.693144  1
  Al  Al10  1  0.388353  0.000000  0.388353  1
  Al  Al11  1  0.625248  0.000000  0.625248  1
  Al  Al12  1  0.492144  0.609551  0.882595  1
  Al  Al13  1  0.102454  0.796449  0.306005  1
  Al  Al14  1  0.899055  0.079818  0.819237  1
  Al  Al15  1  0.739419  0.920182  0.819237  1
  Al  Al16  1  0.526257  0.401113  0.125144  1
  Al  Al17  1  0.078794  0.584396  0.494398  1
  Fe  Fe18  1  0.772071  0.500000  0.272071  1
  Pt  Pt19  1  0.022825  0.341505  0.681320  1
  Pt  Pt20  1  0.629308  0.126539  0.502769  1
  Pt  Pt21  1  0.254870  0.500000  0.754870  1
  Pt  Pt22  1  0.376230  0.873461  0.502769  1
  Pt  Pt23  1  0.989024  0.000000  0.989024  1
  Pt  Pt24  1  0.652850  0.338843  0.314008  1
  Pt  Pt25  1  0.339816  0.658495  0.681320  1
  Pt  Pt26  1  0.975163  0.661157  0.314008  1
