# generated using pymatgen
data_Na2LaPr4NdTe8
_symmetry_space_group_name_H-M   'P 1'
_cell_length_a   9.10407966
_cell_length_b   9.10407886
_cell_length_c   9.14608420
_cell_angle_alpha   59.58227014
_cell_angle_beta   59.58226978
_cell_angle_gamma   59.64644583
_symmetry_Int_Tables_number   1
_chemical_formula_structural   Na2LaPr4NdTe8
_chemical_formula_sum   'Na2 La1 Pr4 Nd1 Te8'
_cell_volume   531.20480346
_cell_formula_units_Z   1
loop_
 _symmetry_equiv_pos_site_id
 _symmetry_equiv_pos_as_xyz
  1  'x, y, z'
loop_
 _atom_site_type_symbol
 _atom_site_label
 _atom_site_symmetry_multiplicity
 _atom_site_fract_x
 _atom_site_fract_y
 _atom_site_fract_z
 _atom_site_occupancy
  Na  Na0  1  0.125000  0.625000  0.125000  1
  Na  Na1  1  0.625000  0.125000  0.125000  1
  La  La2  1  0.125000  0.125000  0.625000  1
  Pr  Pr3  1  0.625000  0.125000  0.625000  1
  Pr  Pr4  1  0.625000  0.625000  0.625000  1
  Pr  Pr5  1  0.125000  0.625000  0.625000  1
  Pr  Pr6  1  0.625000  0.625000  0.125000  1
  Nd  Nd7  1  0.125000  0.125000  0.125000  1
  Te  Te8  1  0.377226  0.877301  0.371093  1
  Te  Te9  1  0.872774  0.372699  0.878907  1
  Te  Te10  1  0.875927  0.875927  0.372102  1
  Te  Te11  1  0.874163  0.874163  0.876790  1
  Te  Te12  1  0.877301  0.377226  0.371093  1
  Te  Te13  1  0.374073  0.374073  0.877898  1
  Te  Te14  1  0.375837  0.375837  0.373210  1
  Te  Te15  1  0.372699  0.872774  0.878907  1
