# generated using pymatgen
data_LaCd4Au
_symmetry_space_group_name_H-M   'P 1'
_cell_length_a   10.55457900
_cell_length_b   10.55457778
_cell_length_c   4.53314200
_cell_angle_alpha   90.00000000
_cell_angle_beta   90.00000000
_cell_angle_gamma   119.99999441
_symmetry_Int_Tables_number   1
_chemical_formula_structural   LaCd4Au
_chemical_formula_sum   'La3 Cd12 Au3'
_cell_volume   437.33250657
_cell_formula_units_Z   3
loop_
 _symmetry_equiv_pos_site_id
 _symmetry_equiv_pos_as_xyz
  1  'x, y, z'
loop_
 _atom_site_type_symbol
 _atom_site_label
 _atom_site_symmetry_multiplicity
 _atom_site_fract_x
 _atom_site_fract_y
 _atom_site_fract_z
 _atom_site_occupancy
  La  La0  1  0.000000  0.405174  0.000000  1
  La  La1  1  0.405174  0.000000  0.000000  1
  La  La2  1  0.594826  0.594826  0.000000  1
  Cd  Cd3  1  0.527750  0.823055  0.500000  1
  Cd  Cd4  1  0.295305  0.472250  0.500000  1
  Cd  Cd5  1  0.472250  0.295305  0.500000  1
  Cd  Cd6  1  0.704695  0.176945  0.500000  1
  Cd  Cd7  1  0.823672  0.823672  0.500000  1
  Cd  Cd8  1  0.000000  0.176328  0.500000  1
  Cd  Cd9  1  0.176328  0.000000  0.500000  1
  Cd  Cd10  1  0.176945  0.704695  0.500000  1
  Cd  Cd11  1  0.000000  0.733056  0.000000  1
  Cd  Cd12  1  0.823055  0.527750  0.500000  1
  Cd  Cd13  1  0.266944  0.266944  0.000000  1
  Cd  Cd14  1  0.733056  0.000000  0.000000  1
  Au  Au15  1  0.000000  0.000000  0.000000  1
  Au  Au16  1  0.666667  0.333333  0.000000  1
  Au  Au17  1  0.333333  0.666667  0.000000  1
