# generated using pymatgen
data_Yb2Y4Si24Os5Ru3
_symmetry_space_group_name_H-M   'P 1'
_cell_length_a   10.14151971
_cell_length_b   10.14151914
_cell_length_c   8.15718000
_cell_angle_alpha   89.98070829
_cell_angle_beta   89.98071634
_cell_angle_gamma   132.59161172
_symmetry_Int_Tables_number   1
_chemical_formula_structural   Yb2Y4Si24Os5Ru3
_chemical_formula_sum   'Yb2 Y4 Si24 Os5 Ru3'
_cell_volume   617.64581689
_cell_formula_units_Z   1
loop_
 _symmetry_equiv_pos_site_id
 _symmetry_equiv_pos_as_xyz
  1  'x, y, z'
loop_
 _atom_site_type_symbol
 _atom_site_label
 _atom_site_symmetry_multiplicity
 _atom_site_fract_x
 _atom_site_fract_y
 _atom_site_fract_z
 _atom_site_occupancy
  Yb  Yb0  1  0.499434  0.499434  0.499920  1
  Yb  Yb1  1  0.999867  0.999867  0.999476  1
  Y  Y2  1  0.501297  0.001295  0.750057  1
  Y  Y3  1  0.998569  0.498959  0.249968  1
  Y  Y4  1  0.498959  0.998569  0.249968  1
  Y  Y5  1  0.001295  0.501297  0.750057  1
  Si  Si6  1  0.797218  0.202838  0.500099  1
  Si  Si7  1  0.297134  0.702883  0.000115  1
  Si  Si8  1  0.202838  0.797218  0.500099  1
  Si  Si9  1  0.702883  0.297134  0.000115  1
  Si  Si10  1  0.332972  0.332972  0.833051  1
  Si  Si11  1  0.667280  0.667280  0.167240  1
  Si  Si12  1  0.166390  0.166390  0.331015  1
  Si  Si13  1  0.830919  0.830919  0.666407  1
  Si  Si14  1  0.122658  0.890749  0.730621  1
  Si  Si15  1  0.109681  0.878497  0.269672  1
  Si  Si16  1  0.609038  0.377714  0.230232  1
  Si  Si17  1  0.622983  0.391176  0.769921  1
  Si  Si18  1  0.878497  0.109681  0.269672  1
  Si  Si19  1  0.890749  0.122658  0.730621  1
  Si  Si20  1  0.391176  0.622983  0.769921  1
  Si  Si21  1  0.377714  0.609038  0.230232  1
  Si  Si22  1  0.346695  0.115221  0.506282  1
  Si  Si23  1  0.884603  0.653773  0.494390  1
  Si  Si24  1  0.385335  0.154015  0.006631  1
  Si  Si25  1  0.846114  0.615180  0.993765  1
  Si  Si26  1  0.653773  0.884603  0.494390  1
  Si  Si27  1  0.115221  0.346695  0.506282  1
  Si  Si28  1  0.615180  0.846114  0.993765  1
  Si  Si29  1  0.154015  0.385335  0.006631  1
  Os  Os30  1  0.671733  0.328333  0.499882  1
  Os  Os31  1  0.171713  0.828358  0.000072  1
  Os  Os32  1  0.328333  0.671733  0.499882  1
  Os  Os33  1  0.828358  0.171713  0.000072  1
  Os  Os34  1  0.125911  0.125911  0.626067  1
  Ru  Ru35  1  0.873621  0.873621  0.373544  1
  Ru  Ru36  1  0.374092  0.374092  0.125937  1
  Ru  Ru37  1  0.625750  0.625750  0.873932  1
