# generated using pymatgen
data_Ta3Be4NbAu2
_symmetry_space_group_name_H-M   'P 1'
_cell_length_a   6.08276313
_cell_length_b   6.08276313
_cell_length_c   3.74206600
_cell_angle_alpha   90.00000000
_cell_angle_beta   90.00000000
_cell_angle_gamma   90.02368029
_symmetry_Int_Tables_number   1
_chemical_formula_structural   Ta3Be4NbAu2
_chemical_formula_sum   'Ta3 Be4 Nb1 Au2'
_cell_volume   138.45645747
_cell_formula_units_Z   1
loop_
 _symmetry_equiv_pos_site_id
 _symmetry_equiv_pos_as_xyz
  1  'x, y, z'
loop_
 _atom_site_type_symbol
 _atom_site_label
 _atom_site_symmetry_multiplicity
 _atom_site_fract_x
 _atom_site_fract_y
 _atom_site_fract_z
 _atom_site_occupancy
  Ta  Ta0  1  0.664889  0.164889  0.500000  1
  Ta  Ta1  1  0.163978  0.335429  0.500000  1
  Ta  Ta2  1  0.835429  0.663978  0.500000  1
  Be  Be3  1  0.873912  0.373912  0.000000  1
  Be  Be4  1  0.373465  0.126261  0.000000  1
  Be  Be5  1  0.626261  0.873465  0.000000  1
  Be  Be6  1  0.126462  0.626462  0.000000  1
  Nb  Nb7  1  0.335850  0.835850  0.500000  1
  Au  Au8  1  0.999303  0.000452  0.000000  1
  Au  Au9  1  0.500452  0.499303  0.000000  1
