# generated using pymatgen
data_Sr10Mg4Fe(RhO6)5
_symmetry_space_group_name_H-M   'P 1'
_cell_length_a   8.06142683
_cell_length_b   9.72513366
_cell_length_c   9.72217428
_cell_angle_alpha   80.10664565
_cell_angle_beta   114.49506569
_cell_angle_gamma   114.48388418
_symmetry_Int_Tables_number   1
_chemical_formula_structural   Sr10Mg4Fe(RhO6)5
_chemical_formula_sum   'Sr10 Mg4 Fe1 Rh5 O30'
_cell_volume   631.23258031
_cell_formula_units_Z   1
loop_
 _symmetry_equiv_pos_site_id
 _symmetry_equiv_pos_as_xyz
  1  'x, y, z'
loop_
 _atom_site_type_symbol
 _atom_site_label
 _atom_site_symmetry_multiplicity
 _atom_site_fract_x
 _atom_site_fract_y
 _atom_site_fract_z
 _atom_site_occupancy
  Sr  Sr0  1  0.450521  0.099938  0.299998  1
  Sr  Sr1  1  0.249389  0.500020  0.499904  1
  Sr  Sr2  1  0.050522  0.900147  0.700061  1
  Sr  Sr3  1  0.850209  0.299897  0.899877  1
  Sr  Sr4  1  0.649424  0.699968  0.099909  1
  Sr  Sr5  1  0.349478  0.299853  0.899939  1
  Sr  Sr6  1  0.150611  0.699980  0.100096  1
  Sr  Sr7  1  0.949479  0.100062  0.300002  1
  Sr  Sr8  1  0.750576  0.500032  0.500091  1
  Sr  Sr9  1  0.549791  0.900103  0.700123  1
  Mg  Mg10  1  0.000133  0.000169  0.000077  1
  Mg  Mg11  1  0.800373  0.400294  0.200420  1
  Mg  Mg12  1  0.599627  0.799706  0.399580  1
  Mg  Mg13  1  0.399867  0.199831  0.599923  1
  Fe  Fe14  1  0.200000  0.600000  0.800000  1
  Rh  Rh15  1  0.500617  0.000755  0.000454  1
  Rh  Rh16  1  0.299926  0.399168  0.200600  1
  Rh  Rh17  1  0.100074  0.800832  0.399400  1
  Rh  Rh18  1  0.899383  0.199245  0.599546  1
  Rh  Rh19  1  0.700000  0.600000  0.800000  1
  O  O20  1  0.543158  0.400058  0.199516  1
  O  O21  1  0.343295  0.799691  0.400149  1
  O  O22  1  0.143455  0.200213  0.599998  1
  O  O23  1  0.947953  0.599898  0.799814  1
  O  O24  1  0.743006  0.999673  0.999643  1
  O  O25  1  0.256545  0.999787  0.000002  1
  O  O26  1  0.056705  0.400309  0.199851  1
  O  O27  1  0.856842  0.799942  0.400484  1
  O  O28  1  0.656994  0.200327  0.600357  1
  O  O29  1  0.452047  0.600102  0.800186  1
  O  O30  1  0.853288  0.781450  0.924961  1
  O  O31  1  0.654236  0.179882  0.128358  1
  O  O32  1  0.453229  0.580382  0.325707  1
  O  O33  1  0.254409  0.978431  0.529980  1
  O  O34  1  0.057584  0.384129  0.730810  1
  O  O35  1  0.546712  0.418550  0.675039  1
  O  O36  1  0.342416  0.815871  0.869190  1
  O  O37  1  0.145591  0.221569  0.070020  1
  O  O38  1  0.946771  0.619618  0.274293  1
  O  O39  1  0.745764  0.020118  0.471642  1
  O  O40  1  0.671695  0.724862  0.618500  1
  O  O41  1  0.472216  0.125413  0.819301  1
  O  O42  1  0.273488  0.531190  0.015879  1
  O  O43  1  0.074675  0.929103  0.220410  1
  O  O44  1  0.875075  0.329167  0.421175  1
  O  O45  1  0.728305  0.475138  0.981500  1
  O  O46  1  0.524925  0.870833  0.178825  1
  O  O47  1  0.325325  0.270897  0.379590  1
  O  O48  1  0.126512  0.668810  0.584121  1
  O  O49  1  0.927784  0.074587  0.780699  1
