# generated using pymatgen
data_RbCe2SmF10
_symmetry_space_group_name_H-M   'P 1'
_cell_length_a   8.60793022
_cell_length_b   8.60793092
_cell_length_c   8.70272700
_cell_angle_alpha   59.63502722
_cell_angle_beta   59.63502451
_cell_angle_gamma   60.72993810
_symmetry_Int_Tables_number   1
_chemical_formula_structural   RbCe2SmF10
_chemical_formula_sum   'Rb2 Ce4 Sm2 F20'
_cell_volume   455.85981344
_cell_formula_units_Z   2
loop_
 _symmetry_equiv_pos_site_id
 _symmetry_equiv_pos_as_xyz
  1  'x, y, z'
loop_
 _atom_site_type_symbol
 _atom_site_label
 _atom_site_symmetry_multiplicity
 _atom_site_fract_x
 _atom_site_fract_y
 _atom_site_fract_z
 _atom_site_occupancy
  Rb  Rb0  1  0.250000  0.250000  0.250000  1
  Rb  Rb1  1  0.750000  0.750000  0.750000  1
  Ce  Ce2  1  0.759140  0.240860  0.240860  1
  Ce  Ce3  1  0.240860  0.759140  0.759140  1
  Ce  Ce4  1  0.240860  0.759140  0.240860  1
  Ce  Ce5  1  0.759140  0.240860  0.759140  1
  Sm  Sm6  1  0.238904  0.238904  0.761096  1
  Sm  Sm7  1  0.761096  0.761096  0.238904  1
  F  F8  1  0.826878  0.504363  0.495637  1
  F  F9  1  0.173122  0.495637  0.504363  1
  F  F10  1  0.504363  0.826878  0.173122  1
  F  F11  1  0.495637  0.173122  0.826878  1
  F  F12  1  0.504363  0.826878  0.495637  1
  F  F13  1  0.173122  0.495637  0.826878  1
  F  F14  1  0.495637  0.173122  0.504363  1
  F  F15  1  0.826878  0.504363  0.173122  1
  F  F16  1  0.500000  0.500000  0.834263  1
  F  F17  1  0.500000  0.500000  0.165737  1
  F  F18  1  0.165737  0.834263  0.500000  1
  F  F19  1  0.834263  0.165737  0.500000  1
  F  F20  1  0.114201  0.114201  0.104913  1
  F  F21  1  0.885799  0.885799  0.895087  1
  F  F22  1  0.114201  0.114201  0.666686  1
  F  F23  1  0.104913  0.666686  0.114201  1
  F  F24  1  0.885799  0.885799  0.333314  1
  F  F25  1  0.895087  0.333314  0.885799  1
  F  F26  1  0.666686  0.104913  0.114201  1
  F  F27  1  0.333314  0.895087  0.885799  1
