# generated using pymatgen
data_Ba6Na(SrAu3)2
_symmetry_space_group_name_H-M   'P 1'
_cell_length_a   8.66361878
_cell_length_b   8.66361894
_cell_length_c   8.66361868
_cell_angle_alpha   70.26795908
_cell_angle_beta   70.26795954
_cell_angle_gamma   70.26796619
_symmetry_Int_Tables_number   1
_chemical_formula_structural   Ba6Na(SrAu3)2
_chemical_formula_sum   'Ba6 Na1 Sr2 Au6'
_cell_volume   557.49769697
_cell_formula_units_Z   1
loop_
 _symmetry_equiv_pos_site_id
 _symmetry_equiv_pos_as_xyz
  1  'x, y, z'
loop_
 _atom_site_type_symbol
 _atom_site_label
 _atom_site_symmetry_multiplicity
 _atom_site_fract_x
 _atom_site_fract_y
 _atom_site_fract_z
 _atom_site_occupancy
  Ba  Ba0  1  0.890635  0.174460  0.649478  1
  Ba  Ba1  1  0.649478  0.890635  0.174460  1
  Ba  Ba2  1  0.174460  0.649478  0.890635  1
  Ba  Ba3  1  0.109365  0.825540  0.350522  1
  Ba  Ba4  1  0.350522  0.109365  0.825540  1
  Ba  Ba5  1  0.825540  0.350522  0.109365  1
  Na  Na6  1  0.500000  0.500000  0.500000  1
  Sr  Sr7  1  0.311671  0.311671  0.311671  1
  Sr  Sr8  1  0.688329  0.688329  0.688329  1
  Au  Au9  1  0.922679  0.540391  0.339887  1
  Au  Au10  1  0.339887  0.922679  0.540391  1
  Au  Au11  1  0.540391  0.339887  0.922679  1
  Au  Au12  1  0.077321  0.459609  0.660113  1
  Au  Au13  1  0.660113  0.077321  0.459609  1
  Au  Au14  1  0.459609  0.660113  0.077321  1
