# generated using pymatgen
data_Tm2LuPa(Al8Pt3)3
_symmetry_space_group_name_H-M   'P 1'
_cell_length_a   7.53538173
_cell_length_b   7.54570024
_cell_length_c   13.10264304
_cell_angle_alpha   84.51453878
_cell_angle_beta   78.93655734
_cell_angle_gamma   59.94069809
_symmetry_Int_Tables_number   1
_chemical_formula_structural   Tm2LuPa(Al8Pt3)3
_chemical_formula_sum   'Tm2 Lu1 Pa1 Al24 Pt9'
_cell_volume   632.83029247
_cell_formula_units_Z   1
loop_
 _symmetry_equiv_pos_site_id
 _symmetry_equiv_pos_as_xyz
  1  'x, y, z'
loop_
 _atom_site_type_symbol
 _atom_site_label
 _atom_site_symmetry_multiplicity
 _atom_site_fract_x
 _atom_site_fract_y
 _atom_site_fract_z
 _atom_site_occupancy
  Tm  Tm0  1  0.605843  0.831419  0.192852  1
  Tm  Tm1  1  0.733702  0.498811  0.807613  1
  Lu  Lu2  1  0.265975  0.501269  0.193698  1
  Pa  Pa3  1  0.395162  0.168268  0.805071  1
  Al  Al4  1  0.684445  0.832796  0.944745  1
  Al  Al5  1  0.315801  0.166706  0.056812  1
  Al  Al6  1  0.146739  0.832594  0.560899  1
  Al  Al7  1  0.854665  0.167336  0.437360  1
  Al  Al8  1  0.480965  0.166585  0.557767  1
  Al  Al9  1  0.520058  0.831971  0.440589  1
  Al  Al10  1  0.218115  0.165485  0.328894  1
  Al  Al11  1  0.785603  0.831700  0.669850  1
  Al  Al12  1  0.437534  0.509438  0.670288  1
  Al  Al13  1  0.562683  0.493614  0.328128  1
  Al  Al14  1  0.107209  0.159810  0.668515  1
  Al  Al15  1  0.890478  0.839685  0.329424  1
  Al  Al16  1  0.352864  0.500170  0.944958  1
  Al  Al17  1  0.645627  0.501280  0.057029  1
  Al  Al18  1  0.014403  0.168167  0.953398  1
  Al  Al19  1  0.983868  0.831495  0.049300  1
  Al  Al20  1  0.185635  0.500457  0.440761  1
  Al  Al21  1  0.813589  0.500403  0.558447  1
  Al  Al22  1  0.733632  0.164200  0.183398  1
  Al  Al23  1  0.264011  0.837364  0.817499  1
  Al  Al24  1  0.062315  0.631598  0.816198  1
  Al  Al25  1  0.939101  0.369373  0.184469  1
  Al  Al26  1  0.855896  0.040377  0.816889  1
  Al  Al27  1  0.145229  0.957500  0.183813  1
  Pt  Pt28  1  0.119786  0.490821  0.640123  1
  Pt  Pt29  1  0.880185  0.508979  0.360393  1
  Pt  Pt30  1  0.656766  0.172111  0.999762  1
  Pt  Pt31  1  0.343524  0.827731  0.000077  1
  Pt  Pt32  1  0.536686  0.166750  0.360940  1
  Pt  Pt33  1  0.462847  0.833201  0.639772  1
  Pt  Pt34  1  0.778087  0.175800  0.638433  1
  Pt  Pt35  1  0.221866  0.824122  0.361945  1
  Pt  Pt36  1  0.999109  0.500609  0.999890  1
