# generated using pymatgen
data_Ho6MnAl24NiOs6
_symmetry_space_group_name_H-M   'P 1'
_cell_length_a   8.81902000
_cell_length_b   8.76699610
_cell_length_c   9.51494617
_cell_angle_alpha   90.36362048
_cell_angle_beta   90.00000000
_cell_angle_gamma   120.19649210
_symmetry_Int_Tables_number   1
_chemical_formula_structural   Ho6MnAl24NiOs6
_chemical_formula_sum   'Ho6 Mn1 Al24 Ni1 Os6'
_cell_volume   635.81840364
_cell_formula_units_Z   1
loop_
 _symmetry_equiv_pos_site_id
 _symmetry_equiv_pos_as_xyz
  1  'x, y, z'
loop_
 _atom_site_type_symbol
 _atom_site_label
 _atom_site_symmetry_multiplicity
 _atom_site_fract_x
 _atom_site_fract_y
 _atom_site_fract_z
 _atom_site_occupancy
  Ho  Ho0  1  0.195189  0.390380  0.248328  1
  Ho  Ho1  1  0.804811  0.609620  0.751672  1
  Ho  Ho2  1  0.612941  0.802214  0.251233  1
  Ho  Ho3  1  0.387059  0.197786  0.748767  1
  Ho  Ho4  1  0.189273  0.802214  0.251233  1
  Ho  Ho5  1  0.810727  0.197786  0.748767  1
  Mn  Mn6  1  0.000000  0.000000  0.000000  1
  Al  Al7  1  0.335588  0.671176  0.017036  1
  Al  Al8  1  0.664412  0.328824  0.982964  1
  Al  Al9  1  0.666428  0.332855  0.517593  1
  Al  Al10  1  0.333572  0.667145  0.482407  1
  Al  Al11  1  0.163627  0.327256  0.574886  1
  Al  Al12  1  0.836373  0.672744  0.425114  1
  Al  Al13  1  0.674019  0.838819  0.577680  1
  Al  Al14  1  0.839197  0.678394  0.074879  1
  Al  Al15  1  0.325981  0.161181  0.422320  1
  Al  Al16  1  0.160803  0.321606  0.925121  1
  Al  Al17  1  0.164799  0.838819  0.577680  1
  Al  Al18  1  0.319709  0.159601  0.076166  1
  Al  Al19  1  0.835201  0.161181  0.422320  1
  Al  Al20  1  0.680291  0.840399  0.923834  1
  Al  Al21  1  0.839891  0.159601  0.076166  1
  Al  Al22  1  0.160109  0.840399  0.923834  1
  Al  Al23  1  0.558963  0.117925  0.245404  1
  Al  Al24  1  0.441037  0.882075  0.754596  1
  Al  Al25  1  0.874340  0.435055  0.248636  1
  Al  Al26  1  0.125660  0.564945  0.751364  1
  Al  Al27  1  0.560715  0.435055  0.248636  1
  Al  Al28  1  0.439285  0.564945  0.751364  1
  Al  Al29  1  0.999456  0.998914  0.243832  1
  Al  Al30  1  0.000544  0.001086  0.756168  1
  Ni  Ni31  1  0.500000  0.000000  0.000000  1
  Os  Os32  1  0.000000  0.500000  0.000000  1
  Os  Os33  1  0.500000  0.000000  0.500000  1
  Os  Os34  1  0.500000  0.500000  0.000000  1
  Os  Os35  1  0.000000  0.500000  0.500000  1
  Os  Os36  1  0.500000  0.500000  0.500000  1
  Os  Os37  1  0.000000  0.000000  0.500000  1
