# generated using pymatgen
data_Y5Zr3Co9Ni7As12
_symmetry_space_group_name_H-M   'P 1'
_cell_length_a   12.77146100
_cell_length_b   12.77146067
_cell_length_c   3.92467400
_cell_angle_alpha   90.00000000
_cell_angle_beta   90.00000000
_cell_angle_gamma   120.00000344
_symmetry_Int_Tables_number   1
_chemical_formula_structural   Y5Zr3Co9Ni7As12
_chemical_formula_sum   'Y5 Zr3 Co9 Ni7 As12'
_cell_volume   554.38996011
_cell_formula_units_Z   1
loop_
 _symmetry_equiv_pos_site_id
 _symmetry_equiv_pos_as_xyz
  1  'x, y, z'
loop_
 _atom_site_type_symbol
 _atom_site_label
 _atom_site_symmetry_multiplicity
 _atom_site_fract_x
 _atom_site_fract_y
 _atom_site_fract_z
 _atom_site_occupancy
  Y  Y0  1  0.183573  0.183573  0.500000  1
  Y  Y1  1  0.816427  0.000000  0.500000  1
  Y  Y2  1  0.000000  0.816427  0.500000  1
  Y  Y3  1  0.333333  0.666667  0.000000  1
  Y  Y4  1  0.666667  0.333333  0.000000  1
  Zr  Zr5  1  0.564365  0.564365  0.000000  1
  Zr  Zr6  1  0.435635  0.000000  0.000000  1
  Zr  Zr7  1  0.000000  0.435635  0.000000  1
  Co  Co8  1  0.721396  0.721396  0.500000  1
  Co  Co9  1  0.278604  0.000000  0.500000  1
  Co  Co10  1  0.000000  0.278604  0.500000  1
  Co  Co11  1  0.182118  0.377895  0.000000  1
  Co  Co12  1  0.622105  0.804223  0.000000  1
  Co  Co13  1  0.195777  0.817882  0.000000  1
  Co  Co14  1  0.804223  0.622105  0.000000  1
  Co  Co15  1  0.817882  0.195777  0.000000  1
  Co  Co16  1  0.377895  0.182118  0.000000  1
  Ni  Ni17  1  0.360493  0.481735  0.500000  1
  Ni  Ni18  1  0.518265  0.878758  0.500000  1
  Ni  Ni19  1  0.121242  0.639507  0.500000  1
  Ni  Ni20  1  0.878758  0.518265  0.500000  1
  Ni  Ni21  1  0.639507  0.121242  0.500000  1
  Ni  Ni22  1  0.481735  0.360493  0.500000  1
  Ni  Ni23  1  0.000000  0.000000  0.000000  1
  As  As24  1  0.820229  0.820229  0.000000  1
  As  As25  1  0.179771  0.000000  0.000000  1
  As  As26  1  0.000000  0.179771  0.000000  1
  As  As27  1  0.172016  0.477091  0.500000  1
  As  As28  1  0.522909  0.694925  0.500000  1
  As  As29  1  0.305075  0.827984  0.500000  1
  As  As30  1  0.694925  0.522909  0.500000  1
  As  As31  1  0.827984  0.305075  0.500000  1
  As  As32  1  0.477091  0.172016  0.500000  1
  As  As33  1  0.352246  0.352246  0.000000  1
  As  As34  1  0.647754  0.000000  0.000000  1
  As  As35  1  0.000000  0.647754  0.000000  1
