# generated using pymatgen
data_Y2Tm4Mn3(Co5P4)3
_symmetry_space_group_name_H-M   'P 1'
_cell_length_a   3.69627900
_cell_length_b   10.54106300
_cell_length_c   12.13523500
_cell_angle_alpha   90.00000000
_cell_angle_beta   90.00000000
_cell_angle_gamma   90.00000000
_symmetry_Int_Tables_number   1
_chemical_formula_structural   Y2Tm4Mn3(Co5P4)3
_chemical_formula_sum   'Y2 Tm4 Mn3 Co15 P12'
_cell_volume   472.82163972
_cell_formula_units_Z   1
loop_
 _symmetry_equiv_pos_site_id
 _symmetry_equiv_pos_as_xyz
  1  'x, y, z'
loop_
 _atom_site_type_symbol
 _atom_site_label
 _atom_site_symmetry_multiplicity
 _atom_site_fract_x
 _atom_site_fract_y
 _atom_site_fract_z
 _atom_site_occupancy
  Y  Y0  1  0.000000  0.500000  0.523520  1
  Y  Y1  1  0.500000  0.000000  0.476694  1
  Tm  Tm2  1  0.500000  0.818345  0.204163  1
  Tm  Tm3  1  0.500000  0.181655  0.204163  1
  Tm  Tm4  1  0.000000  0.680275  0.796223  1
  Tm  Tm5  1  0.000000  0.319725  0.796223  1
  Mn  Mn6  1  0.500000  0.500000  0.156234  1
  Mn  Mn7  1  0.000000  0.000000  0.841784  1
  Mn  Mn8  1  0.000000  0.500000  0.988055  1
  Co  Co9  1  0.500000  0.500000  0.700674  1
  Co  Co10  1  0.000000  0.000000  0.296711  1
  Co  Co11  1  0.500000  0.000000  0.013523  1
  Co  Co12  1  0.500000  0.330508  0.993965  1
  Co  Co13  1  0.500000  0.669492  0.993965  1
  Co  Co14  1  0.000000  0.165567  0.005883  1
  Co  Co15  1  0.000000  0.834433  0.005883  1
  Co  Co16  1  0.500000  0.295417  0.430219  1
  Co  Co17  1  0.500000  0.704583  0.430219  1
  Co  Co18  1  0.000000  0.203785  0.570454  1
  Co  Co19  1  0.000000  0.796215  0.570454  1
  Co  Co20  1  0.500000  0.879219  0.710118  1
  Co  Co21  1  0.500000  0.120781  0.710118  1
  Co  Co22  1  0.000000  0.621714  0.290756  1
  Co  Co23  1  0.000000  0.378286  0.290756  1
  P  P24  1  0.500000  0.500000  0.882123  1
  P  P25  1  0.000000  0.000000  0.117729  1
  P  P26  1  0.500000  0.500000  0.343979  1
  P  P27  1  0.000000  0.000000  0.655413  1
  P  P28  1  0.500000  0.310593  0.617643  1
  P  P29  1  0.500000  0.689407  0.617643  1
  P  P30  1  0.000000  0.188823  0.382737  1
  P  P31  1  0.000000  0.811177  0.382737  1
  P  P32  1  0.500000  0.846482  0.892714  1
  P  P33  1  0.500000  0.153518  0.892714  1
  P  P34  1  0.000000  0.654178  0.106904  1
  P  P35  1  0.000000  0.345822  0.106904  1
