# generated using pymatgen
data_Rb8DyHo5BeBr20
_symmetry_space_group_name_H-M   'P 1'
_cell_length_a   12.29210321
_cell_length_b   12.29545475
_cell_length_c   12.29545446
_cell_angle_alpha   59.98197979
_cell_angle_beta   60.00901636
_cell_angle_gamma   60.00901662
_symmetry_Int_Tables_number   1
_chemical_formula_structural   Rb8DyHo5BeBr20
_chemical_formula_sum   'Rb8 Dy1 Ho5 Be1 Br20'
_cell_volume   1314.01510984
_cell_formula_units_Z   1
loop_
 _symmetry_equiv_pos_site_id
 _symmetry_equiv_pos_as_xyz
  1  'x, y, z'
loop_
 _atom_site_type_symbol
 _atom_site_label
 _atom_site_symmetry_multiplicity
 _atom_site_fract_x
 _atom_site_fract_y
 _atom_site_fract_z
 _atom_site_occupancy
  Rb  Rb0  1  0.358909  0.358881  0.358881  1
  Rb  Rb1  1  0.641126  0.641113  0.641113  1
  Rb  Rb2  1  0.358887  0.358874  0.923349  1
  Rb  Rb3  1  0.358887  0.923349  0.358874  1
  Rb  Rb4  1  0.641119  0.641091  0.076674  1
  Rb  Rb5  1  0.641119  0.076674  0.641091  1
  Rb  Rb6  1  0.923326  0.358881  0.358881  1
  Rb  Rb7  1  0.076651  0.641113  0.641113  1
  Dy  Dy8  1  0.844659  0.155341  0.155341  1
  Ho  Ho9  1  0.155321  0.844679  0.844679  1
  Ho  Ho10  1  0.155265  0.844735  0.155131  1
  Ho  Ho11  1  0.844869  0.155131  0.844735  1
  Ho  Ho12  1  0.155265  0.155131  0.844735  1
  Ho  Ho13  1  0.844869  0.844735  0.155131  1
  Be  Be14  1  0.000198  0.999802  0.999802  1
  Br  Br15  1  0.331011  0.999989  0.999989  1
  Br  Br16  1  0.669011  0.999989  0.999989  1
  Br  Br17  1  0.000011  0.330989  0.668989  1
  Br  Br18  1  0.000011  0.668989  0.330989  1
  Br  Br19  1  0.000635  0.331492  0.999365  1
  Br  Br20  1  0.668508  0.999365  0.331492  1
  Br  Br21  1  0.000012  0.669035  0.999988  1
  Br  Br22  1  0.330965  0.999988  0.669035  1
  Br  Br23  1  0.000635  0.999365  0.331492  1
  Br  Br24  1  0.000012  0.999988  0.669035  1
  Br  Br25  1  0.668508  0.331492  0.999365  1
  Br  Br26  1  0.330965  0.669035  0.999988  1
  Br  Br27  1  0.678174  0.321826  0.321826  1
  Br  Br28  1  0.321062  0.678938  0.678938  1
  Br  Br29  1  0.321067  0.678933  0.321060  1
  Br  Br30  1  0.678940  0.321060  0.678933  1
  Br  Br31  1  0.321067  0.321060  0.678933  1
  Br  Br32  1  0.678940  0.678933  0.321060  1
  Br  Br33  1  0.249998  0.250002  0.250002  1
  Br  Br34  1  0.749998  0.750002  0.750002  1
