# generated using pymatgen
data_Al13Ga3Si16(PbO8)8
_symmetry_space_group_name_H-M   'P 1'
_cell_length_a   13.28782220
_cell_length_b   8.52131958
_cell_length_c   14.53486269
_cell_angle_alpha   64.80423428
_cell_angle_beta   90.08049979
_cell_angle_gamma   90.14015582
_symmetry_Int_Tables_number   1
_chemical_formula_structural   Al13Ga3Si16(PbO8)8
_chemical_formula_sum   'Al13 Ga3 Si16 Pb8 O64'
_cell_volume   1489.19283616
_cell_formula_units_Z   1
loop_
 _symmetry_equiv_pos_site_id
 _symmetry_equiv_pos_as_xyz
  1  'x, y, z'
loop_
 _atom_site_type_symbol
 _atom_site_label
 _atom_site_symmetry_multiplicity
 _atom_site_fract_x
 _atom_site_fract_y
 _atom_site_fract_z
 _atom_site_occupancy
  Al  Al0  1  0.071912  0.746500  0.865987  1
  Al  Al1  1  0.931257  0.247267  0.867745  1
  Al  Al2  1  0.431100  0.751395  0.632361  1
  Al  Al3  1  0.068989  0.751827  0.132568  1
  Al  Al4  1  0.568919  0.248329  0.367480  1
  Al  Al5  1  0.370344  0.053314  0.918984  1
  Al  Al6  1  0.870167  0.946030  0.580197  1
  Al  Al7  1  0.629636  0.946357  0.080481  1
  Al  Al8  1  0.129692  0.053205  0.420821  1
  Al  Al9  1  0.870508  0.553948  0.422505  1
  Al  Al10  1  0.370638  0.446489  0.076845  1
  Al  Al11  1  0.129508  0.446891  0.578271  1
  Al  Al12  1  0.631393  0.555235  0.922040  1
  Ga  Ga13  1  0.430058  0.748262  0.367011  1
  Ga  Ga14  1  0.930000  0.252881  0.132163  1
  Ga  Ga15  1  0.569701  0.251909  0.632694  1
  Si  Si16  1  0.423923  0.738517  0.858850  1
  Si  Si17  1  0.922981  0.260866  0.640801  1
  Si  Si18  1  0.577060  0.261877  0.140333  1
  Si  Si19  1  0.076893  0.739327  0.359727  1
  Si  Si20  1  0.924683  0.240197  0.360920  1
  Si  Si21  1  0.424068  0.760069  0.138988  1
  Si  Si22  1  0.075010  0.759573  0.640560  1
  Si  Si23  1  0.575416  0.240986  0.860912  1
  Si  Si24  1  0.361342  0.063927  0.424518  1
  Si  Si25  1  0.861349  0.936092  0.075618  1
  Si  Si26  1  0.638566  0.936429  0.575539  1
  Si  Si27  1  0.137689  0.060373  0.924590  1
  Si  Si28  1  0.864361  0.567684  0.923538  1
  Si  Si29  1  0.361898  0.432705  0.575814  1
  Si  Si30  1  0.137612  0.436243  0.074378  1
  Si  Si31  1  0.637898  0.567365  0.424052  1
  Pb  Pb32  1  0.238930  0.478343  0.827495  1
  Pb  Pb33  1  0.742127  0.519749  0.674088  1
  Pb  Pb34  1  0.759413  0.519650  0.173365  1
  Pb  Pb35  1  0.257981  0.481376  0.325354  1
  Pb  Pb36  1  0.739526  0.985074  0.322048  1
  Pb  Pb37  1  0.238172  0.016717  0.176288  1
  Pb  Pb38  1  0.262765  0.016385  0.675355  1
  Pb  Pb39  1  0.758952  0.987179  0.822154  1
  O  O40  1  0.376401  0.755230  0.246445  1
  O  O41  1  0.877399  0.244833  0.253254  1
  O  O42  1  0.622863  0.244927  0.753490  1
  O  O43  1  0.118215  0.755170  0.749206  1
  O  O44  1  0.884571  0.257357  0.750515  1
  O  O45  1  0.384953  0.741919  0.749244  1
  O  O46  1  0.114995  0.742895  0.249883  1
  O  O47  1  0.614962  0.258097  0.250328  1
  O  O48  1  0.249366  0.156392  0.400481  1
  O  O49  1  0.749136  0.843455  0.100301  1
  O  O50  1  0.750391  0.843400  0.600359  1
  O  O51  1  0.249920  0.153289  0.897209  1
  O  O52  1  0.751663  0.657135  0.892628  1
  O  O53  1  0.249110  0.344609  0.606845  1
  O  O54  1  0.250142  0.346976  0.103721  1
  O  O55  1  0.750739  0.655227  0.393336  1
  O  O56  1  0.370528  0.942561  0.363530  1
  O  O57  1  0.870414  0.056981  0.137136  1
  O  O58  1  0.629542  0.056822  0.637457  1
  O  O59  1  0.123100  0.931896  0.869350  1
  O  O60  1  0.884258  0.431859  0.874652  1
  O  O61  1  0.385153  0.565223  0.626055  1
  O  O62  1  0.115551  0.564527  0.128003  1
  O  O63  1  0.614702  0.434411  0.374079  1
  O  O64  1  0.377299  0.918813  0.854861  1
  O  O65  1  0.876604  0.080280  0.644582  1
  O  O66  1  0.623647  0.081483  0.144366  1
  O  O67  1  0.123606  0.919540  0.356089  1
  O  O68  1  0.881628  0.418979  0.360406  1
  O  O69  1  0.380733  0.580998  0.139446  1
  O  O70  1  0.119711  0.580922  0.641520  1
  O  O71  1  0.619544  0.419670  0.860218  1
  O  O72  1  0.566018  0.740072  0.381408  1
  O  O73  1  0.065668  0.263029  0.115488  1
  O  O74  1  0.433499  0.259326  0.618710  1
  O  O75  1  0.941755  0.731681  0.881982  1
  O  O76  1  0.061519  0.225928  0.882562  1
  O  O77  1  0.560836  0.773210  0.616648  1
  O  O78  1  0.938988  0.773071  0.117004  1
  O  O79  1  0.438983  0.227111  0.383314  1
  O  O80  1  0.544439  0.725316  0.876273  1
  O  O81  1  0.043387  0.275410  0.623823  1
  O  O82  1  0.456650  0.275434  0.122811  1
  O  O83  1  0.956491  0.725631  0.376776  1
  O  O84  1  0.046072  0.227086  0.368889  1
  O  O85  1  0.545495  0.772684  0.131991  1
  O  O86  1  0.953686  0.771596  0.630411  1
  O  O87  1  0.453967  0.228181  0.868081  1
  O  O88  1  0.367519  0.537307  0.450309  1
  O  O89  1  0.867442  0.463188  0.049527  1
  O  O90  1  0.632291  0.462562  0.549706  1
  O  O91  1  0.130855  0.547267  0.949416  1
  O  O92  1  0.870189  0.053061  0.951975  1
  O  O93  1  0.369946  0.946158  0.548427  1
  O  O94  1  0.130455  0.947225  0.049154  1
  O  O95  1  0.629797  0.054511  0.452039  1
  O  O96  1  0.368136  0.563940  0.942996  1
  O  O97  1  0.867486  0.435582  0.556481  1
  O  O98  1  0.633080  0.436690  0.056134  1
  O  O99  1  0.132305  0.564869  0.444316  1
  O  O100  1  0.873041  0.064957  0.447380  1
  O  O101  1  0.373178  0.935350  0.051956  1
  O  O102  1  0.127118  0.934789  0.554045  1
  O  O103  1  0.626429  0.065364  0.947539  1
