# generated using pymatgen
data_MgSc4(ReTc11)2
_symmetry_space_group_name_H-M   'P 1'
_cell_length_a   8.39323550
_cell_length_b   8.39323600
_cell_length_c   8.39296700
_cell_angle_alpha   109.42546463
_cell_angle_beta   109.42546581
_cell_angle_gamma   109.41596083
_symmetry_Int_Tables_number   1
_chemical_formula_structural   MgSc4(ReTc11)2
_chemical_formula_sum   'Mg1 Sc4 Re2 Tc22'
_cell_volume   455.97038551
_cell_formula_units_Z   1
loop_
 _symmetry_equiv_pos_site_id
 _symmetry_equiv_pos_as_xyz
  1  'x, y, z'
loop_
 _atom_site_type_symbol
 _atom_site_label
 _atom_site_symmetry_multiplicity
 _atom_site_fract_x
 _atom_site_fract_y
 _atom_site_fract_z
 _atom_site_occupancy
  Mg  Mg0  1  0.000280  0.000280  0.000158  1
  Sc  Sc1  1  0.630600  0.999958  0.000334  1
  Sc  Sc2  1  0.999958  0.630600  0.000334  1
  Sc  Sc3  1  0.000559  0.000559  0.630703  1
  Sc  Sc4  1  0.369189  0.369189  0.369446  1
  Re  Re5  1  0.816914  0.624450  0.624292  1
  Re  Re6  1  0.624450  0.816914  0.624292  1
  Tc  Tc7  1  0.393732  0.672929  0.999538  1
  Tc  Tc8  1  0.719032  0.324147  0.324256  1
  Tc  Tc9  1  0.395325  0.999882  0.673260  1
  Tc  Tc10  1  0.672929  0.393732  0.999538  1
  Tc  Tc11  1  0.999882  0.395325  0.673260  1
  Tc  Tc12  1  0.324147  0.719032  0.324256  1
  Tc  Tc13  1  0.326485  0.326485  0.720174  1
  Tc  Tc14  1  0.999965  0.673671  0.394930  1
  Tc  Tc15  1  0.673671  0.999965  0.394930  1
  Tc  Tc16  1  0.606037  0.606037  0.279979  1
  Tc  Tc17  1  0.280234  0.605992  0.606128  1
  Tc  Tc18  1  0.605992  0.280234  0.606128  1
  Tc  Tc19  1  0.374221  0.192234  0.999609  1
  Tc  Tc20  1  0.184060  0.809168  0.808955  1
  Tc  Tc21  1  0.374433  0.999854  0.192831  1
  Tc  Tc22  1  0.192234  0.374221  0.999609  1
  Tc  Tc23  1  0.999854  0.374433  0.192831  1
  Tc  Tc24  1  0.809168  0.184060  0.808955  1
  Tc  Tc25  1  0.808631  0.808631  0.183582  1
  Tc  Tc26  1  0.999678  0.192161  0.374319  1
  Tc  Tc27  1  0.192161  0.999678  0.374319  1
  Tc  Tc28  1  0.626178  0.626178  0.819051  1
