# generated using pymatgen
data_Ba4Pr8Sc7CrO28
_symmetry_space_group_name_H-M   'P 1'
_cell_length_a   5.84004126
_cell_length_b   5.84004126
_cell_length_c   20.58831770
_cell_angle_alpha   90.02000761
_cell_angle_beta   89.97999239
_cell_angle_gamma   90.02884547
_symmetry_Int_Tables_number   1
_chemical_formula_structural   Ba4Pr8Sc7CrO28
_chemical_formula_sum   'Ba4 Pr8 Sc7 Cr1 O28'
_cell_volume   702.18667649
_cell_formula_units_Z   1
loop_
 _symmetry_equiv_pos_site_id
 _symmetry_equiv_pos_as_xyz
  1  'x, y, z'
loop_
 _atom_site_type_symbol
 _atom_site_label
 _atom_site_symmetry_multiplicity
 _atom_site_fract_x
 _atom_site_fract_y
 _atom_site_fract_z
 _atom_site_occupancy
  Ba  Ba0  1  0.257946  0.258425  0.001946  1
  Ba  Ba1  1  0.741575  0.742054  0.001946  1
  Ba  Ba2  1  0.759882  0.240119  0.500358  1
  Ba  Ba3  1  0.240022  0.759979  0.500359  1
  Pr  Pr4  1  0.270150  0.272181  0.182321  1
  Pr  Pr5  1  0.727818  0.729849  0.182321  1
  Pr  Pr6  1  0.774828  0.225172  0.314869  1
  Pr  Pr7  1  0.226218  0.773782  0.315476  1
  Pr  Pr8  1  0.773689  0.226311  0.684714  1
  Pr  Pr9  1  0.226259  0.773741  0.684496  1
  Pr  Pr10  1  0.274216  0.273184  0.816783  1
  Pr  Pr11  1  0.726815  0.725783  0.816783  1
  Sc  Sc12  1  0.242231  0.757769  0.100612  1
  Sc  Sc13  1  0.257662  0.257473  0.399068  1
  Sc  Sc14  1  0.742527  0.742338  0.399068  1
  Sc  Sc15  1  0.256981  0.256989  0.601162  1
  Sc  Sc16  1  0.743011  0.743019  0.601162  1
  Sc  Sc17  1  0.756748  0.243252  0.902394  1
  Sc  Sc18  1  0.243354  0.756646  0.899626  1
  Cr  Cr19  1  0.752243  0.247757  0.104189  1
  O  O20  1  0.781113  0.218885  0.003619  1
  O  O21  1  0.218518  0.781480  0.000751  1
  O  O22  1  0.504272  0.495726  0.095071  1
  O  O23  1  0.503230  0.004247  0.110994  1
  O  O24  1  0.995753  0.496768  0.110994  1
  O  O25  1  0.995487  0.004513  0.124807  1
  O  O26  1  0.697464  0.302537  0.205159  1
  O  O27  1  0.309480  0.690521  0.207658  1
  O  O28  1  0.189542  0.189150  0.289910  1
  O  O29  1  0.810850  0.810458  0.289910  1
  O  O30  1  0.500457  0.499541  0.371139  1
  O  O31  1  0.500090  0.999917  0.386768  1
  O  O32  1  0.000083  0.499908  0.386768  1
  O  O33  1  0.999181  0.000819  0.404908  1
  O  O34  1  0.284129  0.284129  0.499661  1
  O  O35  1  0.715871  0.715871  0.499661  1
  O  O36  1  0.000194  0.999806  0.593700  1
  O  O37  1  0.499924  0.999898  0.612316  1
  O  O38  1  0.000102  0.500074  0.612316  1
  O  O39  1  0.499984  0.500014  0.627816  1
  O  O40  1  0.188983  0.188815  0.709019  1
  O  O41  1  0.811185  0.811017  0.709019  1
  O  O42  1  0.688880  0.311121  0.791323  1
  O  O43  1  0.310798  0.689203  0.791361  1
  O  O44  1  0.999677  0.000323  0.873361  1
  O  O45  1  0.500509  0.000121  0.888046  1
  O  O46  1  0.999879  0.499489  0.888046  1
  O  O47  1  0.500179  0.499819  0.906245  1
