# generated using pymatgen
data_Y2Tm3Tl4
_symmetry_space_group_name_H-M   'P 1'
_cell_length_a   7.86146900
_cell_length_b   8.22919800
_cell_length_c   15.78808100
_cell_angle_alpha   90.00000000
_cell_angle_beta   90.00000000
_cell_angle_gamma   90.00000000
_symmetry_Int_Tables_number   1
_chemical_formula_structural   Y2Tm3Tl4
_chemical_formula_sum   'Y8 Tm12 Tl16'
_cell_volume   1021.38755972
_cell_formula_units_Z   4
loop_
 _symmetry_equiv_pos_site_id
 _symmetry_equiv_pos_as_xyz
  1  'x, y, z'
loop_
 _atom_site_type_symbol
 _atom_site_label
 _atom_site_symmetry_multiplicity
 _atom_site_fract_x
 _atom_site_fract_y
 _atom_site_fract_z
 _atom_site_occupancy
  Y  Y0  1  0.003599  0.818772  0.405183  1
  Y  Y1  1  0.503599  0.681228  0.094817  1
  Y  Y2  1  0.496401  0.318772  0.594817  1
  Y  Y3  1  0.996401  0.181228  0.905183  1
  Y  Y4  1  0.996401  0.181228  0.594817  1
  Y  Y5  1  0.496401  0.318772  0.905183  1
  Y  Y6  1  0.503599  0.681228  0.405183  1
  Y  Y7  1  0.003599  0.818772  0.094817  1
  Tm  Tm8  1  0.678352  0.997224  0.250000  1
  Tm  Tm9  1  0.178352  0.502776  0.250000  1
  Tm  Tm10  1  0.821648  0.497224  0.750000  1
  Tm  Tm11  1  0.321648  0.002776  0.750000  1
  Tm  Tm12  1  0.656540  0.834575  0.623914  1
  Tm  Tm13  1  0.156540  0.665425  0.876086  1
  Tm  Tm14  1  0.843460  0.334575  0.376086  1
  Tm  Tm15  1  0.343460  0.165425  0.123914  1
  Tm  Tm16  1  0.343460  0.165425  0.376086  1
  Tm  Tm17  1  0.843460  0.334575  0.123914  1
  Tm  Tm18  1  0.156540  0.665425  0.623914  1
  Tm  Tm19  1  0.656540  0.834575  0.876086  1
  Tl  Tl20  1  0.808587  0.642874  0.250000  1
  Tl  Tl21  1  0.308587  0.857126  0.250000  1
  Tl  Tl22  1  0.691413  0.142874  0.750000  1
  Tl  Tl23  1  0.191413  0.357126  0.750000  1
  Tl  Tl24  1  0.540263  0.382451  0.250000  1
  Tl  Tl25  1  0.040263  0.117549  0.250000  1
  Tl  Tl26  1  0.959737  0.882451  0.750000  1
  Tl  Tl27  1  0.459737  0.617549  0.750000  1
  Tl  Tl28  1  0.815355  0.534972  0.540563  1
  Tl  Tl29  1  0.315355  0.965028  0.959437  1
  Tl  Tl30  1  0.684645  0.034972  0.459437  1
  Tl  Tl31  1  0.184645  0.465028  0.040563  1
  Tl  Tl32  1  0.184645  0.465028  0.459437  1
  Tl  Tl33  1  0.684645  0.034972  0.040563  1
  Tl  Tl34  1  0.315355  0.965028  0.540563  1
  Tl  Tl35  1  0.815355  0.534972  0.959437  1
