# generated using pymatgen
data_Th3Ga2PtRh2Au
_symmetry_space_group_name_H-M   'P 1'
_cell_length_a   7.47881305
_cell_length_b   7.73200276
_cell_length_c   3.89982300
_cell_angle_alpha   90.00000000
_cell_angle_beta   90.00000000
_cell_angle_gamma   121.37632498
_symmetry_Int_Tables_number   1
_chemical_formula_structural   Th3Ga2PtRh2Au
_chemical_formula_sum   'Th3 Ga2 Pt1 Rh2 Au1'
_cell_volume   192.53444370
_cell_formula_units_Z   1
loop_
 _symmetry_equiv_pos_site_id
 _symmetry_equiv_pos_as_xyz
  1  'x, y, z'
loop_
 _atom_site_type_symbol
 _atom_site_label
 _atom_site_symmetry_multiplicity
 _atom_site_fract_x
 _atom_site_fract_y
 _atom_site_fract_z
 _atom_site_occupancy
  Th  Th0  1  0.994195  0.401768  0.500000  1
  Th  Th1  1  0.608831  0.597844  0.500000  1
  Th  Th2  1  0.396418  0.999769  0.500000  1
  Ga  Ga3  1  0.252611  0.250435  0.000000  1
  Ga  Ga4  1  0.749840  0.003935  0.000000  1
  Pt  Pt5  1  0.348403  0.659079  0.000000  1
  Rh  Rh6  1  0.651180  0.308283  0.000000  1
  Rh  Rh7  1  0.999227  0.034943  0.500000  1
  Au  Au8  1  0.999296  0.743947  0.000000  1
