# generated using pymatgen
data_Nd2Y6Cu3Si12Rh
_symmetry_space_group_name_H-M   'P 1'
_cell_length_a   8.05043400
_cell_length_b   8.05037303
_cell_length_c   8.24647700
_cell_angle_alpha   89.99991653
_cell_angle_beta   89.99990205
_cell_angle_gamma   120.00003641
_symmetry_Int_Tables_number   1
_chemical_formula_structural   Nd2Y6Cu3Si12Rh
_chemical_formula_sum   'Nd2 Y6 Cu3 Si12 Rh1'
_cell_volume   462.84355777
_cell_formula_units_Z   1
loop_
 _symmetry_equiv_pos_site_id
 _symmetry_equiv_pos_as_xyz
  1  'x, y, z'
loop_
 _atom_site_type_symbol
 _atom_site_label
 _atom_site_symmetry_multiplicity
 _atom_site_fract_x
 _atom_site_fract_y
 _atom_site_fract_z
 _atom_site_occupancy
  Nd  Nd0  1  0.000001  0.000000  0.249956  1
  Nd  Nd1  1  0.000000  0.000001  0.749914  1
  Y  Y2  1  0.999215  0.499608  0.251736  1
  Y  Y3  1  0.500393  0.499607  0.251736  1
  Y  Y4  1  0.500722  0.001443  0.748309  1
  Y  Y5  1  0.500394  0.000788  0.251738  1
  Y  Y6  1  0.500722  0.499279  0.748310  1
  Y  Y7  1  0.998556  0.499278  0.748307  1
  Cu  Cu8  1  0.333338  0.666669  0.998966  1
  Cu  Cu9  1  0.333336  0.666667  0.500255  1
  Cu  Cu10  1  0.666666  0.333333  0.001052  1
  Si  Si11  1  0.169976  0.339952  0.000111  1
  Si  Si12  1  0.660049  0.830025  0.000111  1
  Si  Si13  1  0.168849  0.337700  0.500522  1
  Si  Si14  1  0.339961  0.169981  0.999871  1
  Si  Si15  1  0.169975  0.830024  0.000111  1
  Si  Si16  1  0.662302  0.831149  0.500522  1
  Si  Si17  1  0.830019  0.660038  0.999872  1
  Si  Si18  1  0.337713  0.168857  0.499298  1
  Si  Si19  1  0.168849  0.831149  0.500522  1
  Si  Si20  1  0.831142  0.662285  0.499297  1
  Si  Si21  1  0.830020  0.169981  0.999873  1
  Si  Si22  1  0.831144  0.168857  0.499298  1
  Rh  Rh23  1  0.666663  0.333326  0.500311  1
