# generated using pymatgen
data_Tb2YIn3NiRh2
_symmetry_space_group_name_H-M   'P 1'
_cell_length_a   7.60707656
_cell_length_b   7.60707595
_cell_length_c   3.80272800
_cell_angle_alpha   90.00000000
_cell_angle_beta   90.00000000
_cell_angle_gamma   120.16158160
_symmetry_Int_Tables_number   1
_chemical_formula_structural   Tb2YIn3NiRh2
_chemical_formula_sum   'Tb2 Y1 In3 Ni1 Rh2'
_cell_volume   190.26197864
_cell_formula_units_Z   1
loop_
 _symmetry_equiv_pos_site_id
 _symmetry_equiv_pos_as_xyz
  1  'x, y, z'
loop_
 _atom_site_type_symbol
 _atom_site_label
 _atom_site_symmetry_multiplicity
 _atom_site_fract_x
 _atom_site_fract_y
 _atom_site_fract_z
 _atom_site_occupancy
  Tb  Tb0  1  0.000202  0.589639  0.500000  1
  Tb  Tb1  1  0.589639  0.000202  0.500000  1
  Y  Y2  1  0.409909  0.409909  0.500000  1
  In  In3  1  0.000970  0.251515  0.000000  1
  In  In4  1  0.251515  0.000970  0.000000  1
  In  In5  1  0.747394  0.747394  0.000000  1
  Ni  Ni6  1  0.999380  0.999380  0.500000  1
  Rh  Rh7  1  0.668260  0.332730  0.000000  1
  Rh  Rh8  1  0.332730  0.668260  0.000000  1
