# generated using pymatgen
data_Sr5Pa3O12
_symmetry_space_group_name_H-M   'P 1'
_cell_length_a   6.08411757
_cell_length_b   6.25858206
_cell_length_c   8.73236186
_cell_angle_alpha   89.83451052
_cell_angle_beta   89.71515833
_cell_angle_gamma   89.91281370
_symmetry_Int_Tables_number   1
_chemical_formula_structural   Sr5Pa3O12
_chemical_formula_sum   'Sr5 Pa3 O12'
_cell_volume   332.50455654
_cell_formula_units_Z   1
loop_
 _symmetry_equiv_pos_site_id
 _symmetry_equiv_pos_as_xyz
  1  'x, y, z'
loop_
 _atom_site_type_symbol
 _atom_site_label
 _atom_site_symmetry_multiplicity
 _atom_site_fract_x
 _atom_site_fract_y
 _atom_site_fract_z
 _atom_site_occupancy
  Sr  Sr0  1  0.000000  0.000000  0.000000  1
  Sr  Sr1  1  0.983398  0.449350  0.240784  1
  Sr  Sr2  1  0.512283  0.956978  0.244751  1
  Sr  Sr3  1  0.487717  0.043022  0.755249  1
  Sr  Sr4  1  0.016602  0.550650  0.759216  1
  Pa  Pa5  1  0.500000  0.500000  0.500000  1
  Pa  Pa6  1  0.500000  0.500000  0.000000  1
  Pa  Pa7  1  0.000000  0.000000  0.500000  1
  O  O8  1  0.885094  0.949030  0.726201  1
  O  O9  1  0.786450  0.710536  0.430804  1
  O  O10  1  0.787968  0.675546  0.052452  1
  O  O11  1  0.708197  0.211918  0.437954  1
  O  O12  1  0.673626  0.214833  0.061618  1
  O  O13  1  0.612651  0.453300  0.744149  1
  O  O14  1  0.387349  0.546700  0.255851  1
  O  O15  1  0.326374  0.785167  0.938382  1
  O  O16  1  0.291803  0.788082  0.562046  1
  O  O17  1  0.212032  0.324454  0.947548  1
  O  O18  1  0.213550  0.289464  0.569196  1
  O  O19  1  0.114906  0.050970  0.273799  1
