# generated using pymatgen
data_Dy4As6Ru3Rh4
_symmetry_space_group_name_H-M   'P 1'
_cell_length_a   7.24900392
_cell_length_b   7.25625836
_cell_length_c   7.25625898
_cell_angle_alpha   109.41165727
_cell_angle_beta   109.52132325
_cell_angle_gamma   109.52131560
_symmetry_Int_Tables_number   1
_chemical_formula_structural   Dy4As6Ru3Rh4
_chemical_formula_sum   'Dy4 As6 Ru3 Rh4'
_cell_volume   293.67270023
_cell_formula_units_Z   1
loop_
 _symmetry_equiv_pos_site_id
 _symmetry_equiv_pos_as_xyz
  1  'x, y, z'
loop_
 _atom_site_type_symbol
 _atom_site_label
 _atom_site_symmetry_multiplicity
 _atom_site_fract_x
 _atom_site_fract_y
 _atom_site_fract_z
 _atom_site_occupancy
  Dy  Dy0  1  0.001003  0.000502  0.500502  1
  Dy  Dy1  1  0.499183  0.998345  0.998345  1
  Dy  Dy2  1  0.001003  0.500502  0.000502  1
  Dy  Dy3  1  0.499183  0.500838  0.500838  1
  As  As4  1  0.315772  0.998511  0.317262  1
  As  As5  1  0.004210  0.320552  0.320552  1
  As  As6  1  0.004210  0.683658  0.683658  1
  As  As7  1  0.315772  0.317262  0.998511  1
  As  As8  1  0.680873  0.682800  0.998073  1
  As  As9  1  0.680873  0.998073  0.682800  1
  Ru  Ru10  1  0.251042  0.750793  0.500249  1
  Ru  Ru11  1  0.251042  0.500249  0.750793  1
  Ru  Ru12  1  0.999716  0.999858  0.999858  1
  Rh  Rh13  1  0.749847  0.500689  0.249158  1
  Rh  Rh14  1  0.498212  0.749106  0.249106  1
  Rh  Rh15  1  0.498212  0.249106  0.749106  1
  Rh  Rh16  1  0.749847  0.249158  0.500689  1
