# generated using pymatgen
data_V15Os
_symmetry_space_group_name_H-M   'P 1'
_cell_length_a   5.99515400
_cell_length_b   5.99515400
_cell_length_c   5.99515400
_cell_angle_alpha   90.00000000
_cell_angle_beta   90.00000000
_cell_angle_gamma   90.00000000
_symmetry_Int_Tables_number   1
_chemical_formula_structural   V15Os
_chemical_formula_sum   'V15 Os1'
_cell_volume   215.47705459
_cell_formula_units_Z   1
loop_
 _symmetry_equiv_pos_site_id
 _symmetry_equiv_pos_as_xyz
  1  'x, y, z'
loop_
 _atom_site_type_symbol
 _atom_site_label
 _atom_site_symmetry_multiplicity
 _atom_site_fract_x
 _atom_site_fract_y
 _atom_site_fract_z
 _atom_site_occupancy
  V  V0  1  0.500001  0.000000  0.000000  1
  V  V1  1  0.000000  0.500001  0.000000  1
  V  V2  1  0.500001  0.500001  0.000000  1
  V  V3  1  0.250019  0.250019  0.250019  1
  V  V4  1  0.749981  0.250019  0.250019  1
  V  V5  1  0.250019  0.749981  0.250019  1
  V  V6  1  0.749981  0.749981  0.250019  1
  V  V7  1  0.000000  0.000000  0.500001  1
  V  V8  1  0.500001  0.000000  0.500001  1
  V  V9  1  0.000000  0.500001  0.500001  1
  V  V10  1  0.500001  0.500001  0.500001  1
  V  V11  1  0.250019  0.250019  0.749981  1
  V  V12  1  0.749981  0.250019  0.749981  1
  V  V13  1  0.250019  0.749981  0.749981  1
  V  V14  1  0.749981  0.749981  0.749981  1
  Os  Os15  1  0.000000  0.000000  0.000000  1
