# generated using pymatgen
data_Tb8Y2Sn5Bi
_symmetry_space_group_name_H-M   'P 1'
_cell_length_a   9.04460724
_cell_length_b   9.04460740
_cell_length_c   6.54979500
_cell_angle_alpha   90.00000000
_cell_angle_beta   90.00000000
_cell_angle_gamma   120.06388266
_symmetry_Int_Tables_number   1
_chemical_formula_structural   Tb8Y2Sn5Bi
_chemical_formula_sum   'Tb8 Y2 Sn5 Bi1'
_cell_volume   463.72215505
_cell_formula_units_Z   1
loop_
 _symmetry_equiv_pos_site_id
 _symmetry_equiv_pos_as_xyz
  1  'x, y, z'
loop_
 _atom_site_type_symbol
 _atom_site_label
 _atom_site_symmetry_multiplicity
 _atom_site_fract_x
 _atom_site_fract_y
 _atom_site_fract_z
 _atom_site_occupancy
  Tb  Tb0  1  0.760749  0.760749  0.250000  1
  Tb  Tb1  1  0.761535  0.005000  0.750000  1
  Tb  Tb2  1  0.330335  0.667307  0.499284  1
  Tb  Tb3  1  0.667307  0.330335  0.499284  1
  Tb  Tb4  1  0.005000  0.761535  0.750000  1
  Tb  Tb5  1  0.330335  0.667307  0.000716  1
  Tb  Tb6  1  0.236790  0.236790  0.750000  1
  Tb  Tb7  1  0.667307  0.330335  0.000716  1
  Y  Y8  1  0.999708  0.240183  0.250000  1
  Y  Y9  1  0.240183  0.999708  0.250000  1
  Sn  Sn10  1  0.395115  0.000468  0.750000  1
  Sn  Sn11  1  0.605841  0.999047  0.250000  1
  Sn  Sn12  1  0.000468  0.395115  0.750000  1
  Sn  Sn13  1  0.393499  0.393499  0.250000  1
  Sn  Sn14  1  0.999047  0.605841  0.250000  1
  Bi  Bi15  1  0.606782  0.606782  0.750000  1
