# generated using pymatgen
data_Sr4WIN4Cl
_symmetry_space_group_name_H-M   'P 1'
_cell_length_a   6.03851300
_cell_length_b   8.12271821
_cell_length_c   10.97268044
_cell_angle_alpha   78.67986671
_cell_angle_beta   90.00000000
_cell_angle_gamma   90.00000000
_symmetry_Int_Tables_number   1
_chemical_formula_structural   Sr4WIN4Cl
_chemical_formula_sum   'Sr8 W2 I2 N8 Cl2'
_cell_volume   527.73024249
_cell_formula_units_Z   2
loop_
 _symmetry_equiv_pos_site_id
 _symmetry_equiv_pos_as_xyz
  1  'x, y, z'
loop_
 _atom_site_type_symbol
 _atom_site_label
 _atom_site_symmetry_multiplicity
 _atom_site_fract_x
 _atom_site_fract_y
 _atom_site_fract_z
 _atom_site_occupancy
  Sr  Sr0  1  0.750000  0.296940  0.307661  1
  Sr  Sr1  1  0.750000  0.996960  0.618954  1
  Sr  Sr2  1  0.750000  0.438657  0.611925  1
  Sr  Sr3  1  0.750000  0.839705  0.105866  1
  Sr  Sr4  1  0.250000  0.003040  0.381046  1
  Sr  Sr5  1  0.250000  0.561343  0.388075  1
  Sr  Sr6  1  0.250000  0.160295  0.894134  1
  Sr  Sr7  1  0.250000  0.703060  0.692339  1
  W  W8  1  0.750000  0.778370  0.398172  1
  W  W9  1  0.250000  0.221630  0.601828  1
  I  I10  1  0.250000  0.357419  0.141932  1
  I  I11  1  0.750000  0.642581  0.858068  1
  N  N12  1  0.250000  0.013184  0.711101  1
  N  N13  1  0.997707  0.245820  0.497568  1
  N  N14  1  0.497707  0.754180  0.502432  1
  N  N15  1  0.002293  0.754180  0.502432  1
  N  N16  1  0.750000  0.614870  0.298370  1
  N  N17  1  0.750000  0.986816  0.288899  1
  N  N18  1  0.502293  0.245820  0.497568  1
  N  N19  1  0.250000  0.385130  0.701630  1
  Cl  Cl20  1  0.250000  0.864766  0.116841  1
  Cl  Cl21  1  0.750000  0.135234  0.883159  1
