# generated using pymatgen
data_Er2TmSi5
_symmetry_space_group_name_H-M   'P 1'
_cell_length_a   6.56464800
_cell_length_b   6.56598265
_cell_length_c   8.25004200
_cell_angle_alpha   90.00000000
_cell_angle_beta   90.00000000
_cell_angle_gamma   119.99327621
_symmetry_Int_Tables_number   1
_chemical_formula_structural   Er2TmSi5
_chemical_formula_sum   'Er4 Tm2 Si10'
_cell_volume   307.98345500
_cell_formula_units_Z   2
loop_
 _symmetry_equiv_pos_site_id
 _symmetry_equiv_pos_as_xyz
  1  'x, y, z'
loop_
 _atom_site_type_symbol
 _atom_site_label
 _atom_site_symmetry_multiplicity
 _atom_site_fract_x
 _atom_site_fract_y
 _atom_site_fract_z
 _atom_site_occupancy
  Er  Er0  1  0.000070  0.330364  0.500028  1
  Er  Er1  1  0.000070  0.330364  0.999972  1
  Er  Er2  1  0.669706  0.669636  0.000028  1
  Er  Er3  1  0.669706  0.669636  0.499972  1
  Tm  Tm4  1  0.330495  0.000000  0.000000  1
  Tm  Tm5  1  0.330495  0.000000  0.500000  1
  Si  Si6  1  0.394155  0.330909  0.250000  1
  Si  Si7  1  0.668025  0.062778  0.250000  1
  Si  Si8  1  0.937134  0.605662  0.250000  1
  Si  Si9  1  0.605248  0.937222  0.750000  1
  Si  Si10  1  0.000380  0.000003  0.250000  1
  Si  Si11  1  0.666152  0.332886  0.750000  1
  Si  Si12  1  0.063247  0.669091  0.750000  1
  Si  Si13  1  0.331473  0.394338  0.750000  1
  Si  Si14  1  0.333266  0.667114  0.250000  1
  Si  Si15  1  0.000377  0.999997  0.750000  1
