# generated using pymatgen
data_Y6Al24Os3Ru2Pt3
_symmetry_space_group_name_H-M   'P 1'
_cell_length_a   8.84924275
_cell_length_b   8.87466896
_cell_length_c   9.54895289
_cell_angle_alpha   90.22160037
_cell_angle_beta   89.90153318
_cell_angle_gamma   120.12105122
_symmetry_Int_Tables_number   1
_chemical_formula_structural   Y6Al24Os3Ru2Pt3
_chemical_formula_sum   'Y6 Al24 Os3 Ru2 Pt3'
_cell_volume   648.64988951
_cell_formula_units_Z   1
loop_
 _symmetry_equiv_pos_site_id
 _symmetry_equiv_pos_as_xyz
  1  'x, y, z'
loop_
 _atom_site_type_symbol
 _atom_site_label
 _atom_site_symmetry_multiplicity
 _atom_site_fract_x
 _atom_site_fract_y
 _atom_site_fract_z
 _atom_site_occupancy
  Y  Y0  1  0.196579  0.384960  0.251454  1
  Y  Y1  1  0.803421  0.615040  0.748546  1
  Y  Y2  1  0.612504  0.804565  0.251119  1
  Y  Y3  1  0.387496  0.195435  0.748881  1
  Y  Y4  1  0.194384  0.810461  0.250680  1
  Y  Y5  1  0.805616  0.189539  0.749320  1
  Al  Al6  1  0.335231  0.664443  0.027783  1
  Al  Al7  1  0.664769  0.335557  0.972217  1
  Al  Al8  1  0.662392  0.331244  0.525962  1
  Al  Al9  1  0.337608  0.668756  0.474038  1
  Al  Al10  1  0.166992  0.325361  0.577267  1
  Al  Al11  1  0.833008  0.674639  0.422733  1
  Al  Al12  1  0.671321  0.836070  0.575950  1
  Al  Al13  1  0.832540  0.675060  0.077793  1
  Al  Al14  1  0.328679  0.163930  0.424050  1
  Al  Al15  1  0.167460  0.324940  0.922207  1
  Al  Al16  1  0.166562  0.842885  0.578204  1
  Al  Al17  1  0.325634  0.167979  0.078559  1
  Al  Al18  1  0.833438  0.157115  0.421796  1
  Al  Al19  1  0.674366  0.832021  0.921441  1
  Al  Al20  1  0.839373  0.162117  0.080359  1
  Al  Al21  1  0.160627  0.837883  0.919641  1
  Al  Al22  1  0.562546  0.125453  0.252290  1
  Al  Al23  1  0.437454  0.874547  0.747710  1
  Al  Al24  1  0.874373  0.437467  0.249941  1
  Al  Al25  1  0.125627  0.562533  0.750059  1
  Al  Al26  1  0.561895  0.438542  0.249568  1
  Al  Al27  1  0.438105  0.561458  0.750432  1
  Al  Al28  1  0.002172  0.000120  0.250213  1
  Al  Al29  1  0.997828  0.999880  0.749787  1
  Os  Os30  1  0.500000  0.000000  0.500000  1
  Os  Os31  1  0.500000  0.500000  0.000000  1
  Os  Os32  1  0.500000  0.500000  0.500000  1
  Ru  Ru33  1  0.000000  0.000000  0.000000  1
  Ru  Ru34  1  0.000000  0.000000  0.500000  1
  Pt  Pt35  1  0.500000  0.000000  0.000000  1
  Pt  Pt36  1  0.000000  0.500000  0.000000  1
  Pt  Pt37  1  0.000000  0.500000  0.500000  1
