# generated using pymatgen
data_Mg3Al(ZnPd5)2
_symmetry_space_group_name_H-M   'P 1'
_cell_length_a   4.19467800
_cell_length_b   5.48146022
_cell_length_c   10.63450163
_cell_angle_alpha   90.63445327
_cell_angle_beta   90.00000000
_cell_angle_gamma   90.00000000
_symmetry_Int_Tables_number   1
_chemical_formula_structural   Mg3Al(ZnPd5)2
_chemical_formula_sum   'Mg3 Al1 Zn2 Pd10'
_cell_volume   244.50368596
_cell_formula_units_Z   1
loop_
 _symmetry_equiv_pos_site_id
 _symmetry_equiv_pos_as_xyz
  1  'x, y, z'
loop_
 _atom_site_type_symbol
 _atom_site_label
 _atom_site_symmetry_multiplicity
 _atom_site_fract_x
 _atom_site_fract_y
 _atom_site_fract_z
 _atom_site_occupancy
  Mg  Mg0  1  0.500000  0.160087  0.359954  1
  Mg  Mg1  1  0.500000  0.843146  0.639708  1
  Mg  Mg2  1  0.500000  0.666318  0.136938  1
  Al  Al3  1  0.000000  0.499191  0.500324  1
  Zn  Zn4  1  0.000000  0.992797  0.000817  1
  Zn  Zn5  1  0.500000  0.333339  0.862285  1
  Pd  Pd6  1  0.500000  0.179838  0.105777  1
  Pd  Pd7  1  0.500000  0.816298  0.889901  1
  Pd  Pd8  1  0.500000  0.671699  0.394344  1
  Pd  Pd9  1  0.500000  0.330200  0.609846  1
  Pd  Pd10  1  0.000000  0.000678  0.501630  1
  Pd  Pd11  1  0.000000  0.491435  0.995488  1
  Pd  Pd12  1  0.000000  0.903596  0.240574  1
  Pd  Pd13  1  0.000000  0.105384  0.764053  1
  Pd  Pd14  1  0.000000  0.405510  0.261894  1
  Pd  Pd15  1  0.000000  0.600483  0.736467  1
