# generated using pymatgen
data_CaLa3RuRh3O14
_symmetry_space_group_name_H-M   'P 1'
_cell_length_a   7.43370593
_cell_length_b   7.34935069
_cell_length_c   7.47791783
_cell_angle_alpha   59.73050486
_cell_angle_beta   60.19539095
_cell_angle_gamma   59.61959212
_symmetry_Int_Tables_number   1
_chemical_formula_structural   CaLa3RuRh3O14
_chemical_formula_sum   'Ca1 La3 Ru1 Rh3 O14'
_cell_volume   287.87196751
_cell_formula_units_Z   1
loop_
 _symmetry_equiv_pos_site_id
 _symmetry_equiv_pos_as_xyz
  1  'x, y, z'
loop_
 _atom_site_type_symbol
 _atom_site_label
 _atom_site_symmetry_multiplicity
 _atom_site_fract_x
 _atom_site_fract_y
 _atom_site_fract_z
 _atom_site_occupancy
  Ca  Ca0  1  0.625000  0.125000  0.625000  1
  La  La1  1  0.625000  0.625000  0.125000  1
  La  La2  1  0.125000  0.625000  0.625000  1
  La  La3  1  0.625000  0.625000  0.625000  1
  Ru  Ru4  1  0.125000  0.125000  0.625000  1
  Rh  Rh5  1  0.625000  0.125000  0.125000  1
  Rh  Rh6  1  0.125000  0.625000  0.125000  1
  Rh  Rh7  1  0.125000  0.125000  0.125000  1
  O  O8  1  0.197889  0.196055  0.799032  1
  O  O9  1  0.203686  0.793133  0.208864  1
  O  O10  1  0.452945  0.053047  0.041064  1
  O  O11  1  0.201743  0.800252  0.796261  1
  O  O12  1  0.048257  0.449748  0.453739  1
  O  O13  1  0.794316  0.793133  0.208864  1
  O  O14  1  0.455684  0.456867  0.041136  1
  O  O15  1  0.501483  0.494933  0.502102  1
  O  O16  1  0.052111  0.053945  0.450968  1
  O  O17  1  0.442977  0.053945  0.450968  1
  O  O18  1  0.046314  0.456867  0.041136  1
  O  O19  1  0.748517  0.755067  0.747898  1
  O  O20  1  0.807023  0.196055  0.799032  1
  O  O21  1  0.797055  0.196953  0.208936  1
