# generated using pymatgen
data_Lu12Zn(InFe)2
_symmetry_space_group_name_H-M   'P 1'
_cell_length_a   8.22141952
_cell_length_b   8.22141835
_cell_length_c   8.22141980
_cell_angle_alpha   109.59617470
_cell_angle_beta   109.59617886
_cell_angle_gamma   109.22159581
_symmetry_Int_Tables_number   1
_chemical_formula_structural   Lu12Zn(InFe)2
_chemical_formula_sum   'Lu12 Zn1 In2 Fe2'
_cell_volume   427.77196157
_cell_formula_units_Z   1
loop_
 _symmetry_equiv_pos_site_id
 _symmetry_equiv_pos_as_xyz
  1  'x, y, z'
loop_
 _atom_site_type_symbol
 _atom_site_label
 _atom_site_symmetry_multiplicity
 _atom_site_fract_x
 _atom_site_fract_y
 _atom_site_fract_z
 _atom_site_occupancy
  Lu  Lu0  1  0.305582  0.305582  0.611163  1
  Lu  Lu1  1  0.694418  0.694418  0.388837  1
  Lu  Lu2  1  0.305582  0.694418  0.000000  1
  Lu  Lu3  1  0.694418  0.305582  0.000000  1
  Lu  Lu4  1  0.446085  0.203081  0.243005  1
  Lu  Lu5  1  0.553915  0.796919  0.756995  1
  Lu  Lu6  1  0.960077  0.203081  0.756995  1
  Lu  Lu7  1  0.203081  0.960077  0.756995  1
  Lu  Lu8  1  0.039923  0.796919  0.243005  1
  Lu  Lu9  1  0.796919  0.039923  0.243005  1
  Lu  Lu10  1  0.203081  0.446085  0.243005  1
  Lu  Lu11  1  0.796919  0.553915  0.756995  1
  Zn  Zn12  1  0.000000  0.000000  0.000000  1
  In  In13  1  0.500000  0.000000  0.500000  1
  In  In14  1  0.000000  0.500000  0.500000  1
  Fe  Fe15  1  0.385645  0.385645  0.000000  1
  Fe  Fe16  1  0.614355  0.614355  0.000000  1
