# generated using pymatgen
data_Dy3MgAl2Si2Rh
_symmetry_space_group_name_H-M   'P 1'
_cell_length_a   7.02400400
_cell_length_b   6.94082288
_cell_length_c   4.27714200
_cell_angle_alpha   90.00000000
_cell_angle_beta   90.00000000
_cell_angle_gamma   120.39723668
_symmetry_Int_Tables_number   1
_chemical_formula_structural   Dy3MgAl2Si2Rh
_chemical_formula_sum   'Dy3 Mg1 Al2 Si2 Rh1'
_cell_volume   179.85712871
_cell_formula_units_Z   1
loop_
 _symmetry_equiv_pos_site_id
 _symmetry_equiv_pos_as_xyz
  1  'x, y, z'
loop_
 _atom_site_type_symbol
 _atom_site_label
 _atom_site_symmetry_multiplicity
 _atom_site_fract_x
 _atom_site_fract_y
 _atom_site_fract_z
 _atom_site_occupancy
  Dy  Dy0  1  0.413834  0.000000  0.000000  1
  Dy  Dy1  1  0.998128  0.416401  0.000000  1
  Dy  Dy2  1  0.581726  0.583599  0.000000  1
  Mg  Mg3  1  0.763112  0.000000  0.500001  1
  Al  Al4  1  0.235197  0.234870  0.500001  1
  Al  Al5  1  0.000328  0.765131  0.500001  1
  Si  Si6  1  0.663727  0.340449  0.500001  1
  Si  Si7  1  0.323278  0.659550  0.500001  1
  Rh  Rh8  1  0.020671  0.000000  0.000000  1
