# generated using pymatgen
data_La4Tb2EuPtI12
_symmetry_space_group_name_H-M   'P 1'
_cell_length_a   10.11123341
_cell_length_b   10.13041500
_cell_length_c   10.15168320
_cell_angle_alpha   106.58574494
_cell_angle_beta   107.11272603
_cell_angle_gamma   106.23576950
_symmetry_Int_Tables_number   1
_chemical_formula_structural   La4Tb2EuPtI12
_chemical_formula_sum   'La4 Tb2 Eu1 Pt1 I12'
_cell_volume   874.21065866
_cell_formula_units_Z   1
loop_
 _symmetry_equiv_pos_site_id
 _symmetry_equiv_pos_as_xyz
  1  'x, y, z'
loop_
 _atom_site_type_symbol
 _atom_site_label
 _atom_site_symmetry_multiplicity
 _atom_site_fract_x
 _atom_site_fract_y
 _atom_site_fract_z
 _atom_site_occupancy
  La  La0  1  0.098120  0.023160  0.305162  1
  La  La1  1  0.308598  0.096367  0.023987  1
  La  La2  1  0.023660  0.309030  0.099646  1
  La  La3  1  0.893590  0.977136  0.690991  1
  Tb  Tb4  1  0.704510  0.899484  0.973368  1
  Tb  Tb5  1  0.977290  0.705722  0.901535  1
  Eu  Eu6  1  0.502037  0.499601  0.504395  1
  Pt  Pt7  1  0.998992  0.000124  0.997673  1
  I  I8  1  0.069783  0.676905  0.212893  1
  I  I9  1  0.222656  0.072907  0.676512  1
  I  I10  1  0.674862  0.209073  0.068154  1
  I  I11  1  0.927845  0.331985  0.774550  1
  I  I12  1  0.764122  0.920394  0.308125  1
  I  I13  1  0.315919  0.766447  0.925547  1
  I  I14  1  0.460984  0.152045  0.382833  1
  I  I15  1  0.381726  0.458110  0.154981  1
  I  I16  1  0.152853  0.380363  0.460786  1
  I  I17  1  0.535918  0.845553  0.631308  1
  I  I18  1  0.634351  0.553000  0.856763  1
  I  I19  1  0.852184  0.622593  0.550791  1
