# generated using pymatgen
data_SrTmLuO4
_symmetry_space_group_name_H-M   'P 1'
_cell_length_a   3.35517700
_cell_length_b   10.01966200
_cell_length_c   11.80296600
_cell_angle_alpha   90.00000000
_cell_angle_beta   90.00000000
_cell_angle_gamma   90.00000000
_symmetry_Int_Tables_number   1
_chemical_formula_structural   SrTmLuO4
_chemical_formula_sum   'Sr4 Tm4 Lu4 O16'
_cell_volume   396.78903620
_cell_formula_units_Z   4
loop_
 _symmetry_equiv_pos_site_id
 _symmetry_equiv_pos_as_xyz
  1  'x, y, z'
loop_
 _atom_site_type_symbol
 _atom_site_label
 _atom_site_symmetry_multiplicity
 _atom_site_fract_x
 _atom_site_fract_y
 _atom_site_fract_z
 _atom_site_occupancy
  Sr  Sr0  1  0.750000  0.253929  0.850195  1
  Sr  Sr1  1  0.250000  0.746071  0.149805  1
  Sr  Sr2  1  0.750000  0.753929  0.649805  1
  Sr  Sr3  1  0.250000  0.246071  0.350195  1
  Tm  Tm4  1  0.750000  0.925388  0.887700  1
  Tm  Tm5  1  0.250000  0.074612  0.112300  1
  Tm  Tm6  1  0.750000  0.425388  0.612300  1
  Tm  Tm7  1  0.250000  0.574612  0.387700  1
  Lu  Lu8  1  0.250000  0.577727  0.891138  1
  Lu  Lu9  1  0.750000  0.422273  0.108862  1
  Lu  Lu10  1  0.250000  0.077727  0.608862  1
  Lu  Lu11  1  0.750000  0.922273  0.391138  1
  O  O12  1  0.250000  0.575136  0.576386  1
  O  O13  1  0.750000  0.424864  0.423614  1
  O  O14  1  0.250000  0.075136  0.923614  1
  O  O15  1  0.750000  0.924864  0.076386  1
  O  O16  1  0.250000  0.481891  0.215460  1
  O  O17  1  0.750000  0.518109  0.784540  1
  O  O18  1  0.250000  0.981891  0.284540  1
  O  O19  1  0.750000  0.018109  0.715460  1
  O  O20  1  0.250000  0.878439  0.519867  1
  O  O21  1  0.750000  0.121561  0.480133  1
  O  O22  1  0.250000  0.378439  0.980133  1
  O  O23  1  0.750000  0.621561  0.019867  1
  O  O24  1  0.750000  0.711310  0.330069  1
  O  O25  1  0.250000  0.288690  0.669931  1
  O  O26  1  0.750000  0.211310  0.169931  1
  O  O27  1  0.250000  0.788690  0.830069  1
