# generated using pymatgen
data_Tb5Nd2Ho3(In2Pd)4
_symmetry_space_group_name_H-M   'P 1'
_cell_length_a   3.65289900
_cell_length_b   8.21770482
_cell_length_c   18.44877385
_cell_angle_alpha   89.94874284
_cell_angle_beta   90.00000000
_cell_angle_gamma   90.00000000
_symmetry_Int_Tables_number   1
_chemical_formula_structural   Tb5Nd2Ho3(In2Pd)4
_chemical_formula_sum   'Tb5 Nd2 Ho3 In8 Pd4'
_cell_volume   553.80329480
_cell_formula_units_Z   1
loop_
 _symmetry_equiv_pos_site_id
 _symmetry_equiv_pos_as_xyz
  1  'x, y, z'
loop_
 _atom_site_type_symbol
 _atom_site_label
 _atom_site_symmetry_multiplicity
 _atom_site_fract_x
 _atom_site_fract_y
 _atom_site_fract_z
 _atom_site_occupancy
  Tb  Tb0  1  0.000000  0.739173  0.281212  1
  Tb  Tb1  1  0.000000  0.260916  0.718831  1
  Tb  Tb2  1  0.000000  0.761016  0.781136  1
  Tb  Tb3  1  0.000000  0.238993  0.219021  1
  Tb  Tb4  1  0.000000  0.619473  0.083214  1
  Nd  Nd5  1  0.000000  0.500086  0.500041  1
  Nd  Nd6  1  0.000000  0.999876  0.999910  1
  Ho  Ho7  1  0.000000  0.380995  0.915971  1
  Ho  Ho8  1  0.000000  0.881178  0.584000  1
  Ho  Ho9  1  0.000000  0.118910  0.416130  1
  In  In10  1  0.500000  0.702695  0.930873  1
  In  In11  1  0.500000  0.296379  0.068749  1
  In  In12  1  0.500000  0.797573  0.431262  1
  In  In13  1  0.500000  0.202484  0.568723  1
  In  In14  1  0.500000  0.582827  0.652294  1
  In  In15  1  0.500000  0.417122  0.347809  1
  In  In16  1  0.500000  0.918244  0.152532  1
  In  In17  1  0.500000  0.082690  0.847711  1
  Pd  Pd18  1  0.500000  0.523324  0.195923  1
  Pd  Pd19  1  0.500000  0.475974  0.804641  1
  Pd  Pd20  1  0.500000  0.976096  0.695273  1
  Pd  Pd21  1  0.500000  0.023976  0.304745  1
