# generated using pymatgen
data_Tm12Co4BiOs
_symmetry_space_group_name_H-M   'P 1'
_cell_length_a   8.22130467
_cell_length_b   8.22130446
_cell_length_c   8.22130319
_cell_angle_alpha   110.54528966
_cell_angle_beta   111.59205659
_cell_angle_gamma   106.32328061
_symmetry_Int_Tables_number   1
_chemical_formula_structural   Tm12Co4BiOs
_chemical_formula_sum   'Tm12 Co4 Bi1 Os1'
_cell_volume   426.76063957
_cell_formula_units_Z   1
loop_
 _symmetry_equiv_pos_site_id
 _symmetry_equiv_pos_as_xyz
  1  'x, y, z'
loop_
 _atom_site_type_symbol
 _atom_site_label
 _atom_site_symmetry_multiplicity
 _atom_site_fract_x
 _atom_site_fract_y
 _atom_site_fract_z
 _atom_site_occupancy
  Tm  Tm0  1  0.278820  0.180509  0.459328  1
  Tm  Tm1  1  0.721180  0.819491  0.540672  1
  Tm  Tm2  1  0.278820  0.819491  0.098310  1
  Tm  Tm3  1  0.721180  0.180509  0.901690  1
  Tm  Tm4  1  0.620279  0.311230  0.309049  1
  Tm  Tm5  1  0.379721  0.688770  0.690951  1
  Tm  Tm6  1  0.002181  0.311230  0.690951  1
  Tm  Tm7  1  0.997819  0.688770  0.309049  1
  Tm  Tm8  1  0.216132  0.413577  0.197447  1
  Tm  Tm9  1  0.783868  0.586423  0.802553  1
  Tm  Tm10  1  0.216132  0.018685  0.802553  1
  Tm  Tm11  1  0.783868  0.981315  0.197447  1
  Co  Co12  1  0.000000  0.375697  0.375697  1
  Co  Co13  1  0.000000  0.624303  0.624303  1
  Co  Co14  1  0.388869  0.888869  0.500000  1
  Co  Co15  1  0.611131  0.111131  0.500000  1
  Bi  Bi16  1  0.500000  0.500000  0.000000  1
  Os  Os17  1  0.000000  0.000000  0.000000  1
