# generated using pymatgen
data_Sc8C3O
_symmetry_space_group_name_H-M   'P 1'
_cell_length_a   5.74789209
_cell_length_b   6.60373492
_cell_length_c   8.72015690
_cell_angle_alpha   139.09601796
_cell_angle_beta   71.16297986
_cell_angle_gamma   106.43589026
_symmetry_Int_Tables_number   1
_chemical_formula_structural   Sc8C3O
_chemical_formula_sum   'Sc8 C3 O1'
_cell_volume   204.72109602
_cell_formula_units_Z   1
loop_
 _symmetry_equiv_pos_site_id
 _symmetry_equiv_pos_as_xyz
  1  'x, y, z'
loop_
 _atom_site_type_symbol
 _atom_site_label
 _atom_site_symmetry_multiplicity
 _atom_site_fract_x
 _atom_site_fract_y
 _atom_site_fract_z
 _atom_site_occupancy
  Sc  Sc0  1  0.278389  0.993845  0.079045  1
  Sc  Sc1  1  0.278800  0.494836  0.078870  1
  Sc  Sc2  1  0.817606  0.629173  0.826778  1
  Sc  Sc3  1  0.820078  0.377167  0.321956  1
  Sc  Sc4  1  0.817101  0.128286  0.826636  1
  Sc  Sc5  1  0.276812  0.246094  0.583844  1
  Sc  Sc6  1  0.818441  0.873325  0.323712  1
  Sc  Sc7  1  0.277855  0.749926  0.581760  1
  C  C8  1  0.046556  0.566497  0.953280  1
  C  C9  1  0.048348  0.812124  0.452912  1
  C  C10  1  0.049159  0.056367  0.952351  1
  O  O11  1  0.047643  0.311877  0.452687  1
