# generated using pymatgen
data_Dy3Th5(Sc3Ga4)4
_symmetry_space_group_name_H-M   'P 1'
_cell_length_a   7.37755260
_cell_length_b   7.65146032
_cell_length_c   14.52388263
_cell_angle_alpha   89.97136023
_cell_angle_beta   90.17514813
_cell_angle_gamma   90.01706292
_symmetry_Int_Tables_number   1
_chemical_formula_structural   Dy3Th5(Sc3Ga4)4
_chemical_formula_sum   'Dy3 Th5 Sc12 Ga16'
_cell_volume   819.85542136
_cell_formula_units_Z   1
loop_
 _symmetry_equiv_pos_site_id
 _symmetry_equiv_pos_as_xyz
  1  'x, y, z'
loop_
 _atom_site_type_symbol
 _atom_site_label
 _atom_site_symmetry_multiplicity
 _atom_site_fract_x
 _atom_site_fract_y
 _atom_site_fract_z
 _atom_site_occupancy
  Dy  Dy0  1  0.011286  0.178969  0.404848  1
  Dy  Dy1  1  0.510482  0.321683  0.404901  1
  Dy  Dy2  1  0.487770  0.676954  0.594535  1
  Th  Th3  1  0.011404  0.176746  0.095852  1
  Th  Th4  1  0.989290  0.823875  0.904187  1
  Th  Th5  1  0.488748  0.676185  0.904610  1
  Th  Th6  1  0.988360  0.823896  0.594037  1
  Th  Th7  1  0.511739  0.323253  0.095370  1
  Sc  Sc8  1  0.164347  0.499888  0.747978  1
  Sc  Sc9  1  0.836281  0.497339  0.252819  1
  Sc  Sc10  1  0.337208  0.001241  0.252597  1
  Sc  Sc11  1  0.663159  0.999913  0.748490  1
  Sc  Sc12  1  0.329654  0.172721  0.623366  1
  Sc  Sc13  1  0.671922  0.827904  0.376635  1
  Sc  Sc14  1  0.171402  0.672382  0.376352  1
  Sc  Sc15  1  0.670179  0.826869  0.125535  1
  Sc  Sc16  1  0.828282  0.327837  0.623076  1
  Sc  Sc17  1  0.330125  0.173293  0.875156  1
  Sc  Sc18  1  0.828830  0.327060  0.875007  1
  Sc  Sc19  1  0.170168  0.673051  0.126055  1
  Ga  Ga20  1  0.031700  0.120816  0.750333  1
  Ga  Ga21  1  0.968118  0.881734  0.250778  1
  Ga  Ga22  1  0.468647  0.618996  0.250865  1
  Ga  Ga23  1  0.531284  0.380195  0.749371  1
  Ga  Ga24  1  0.287536  0.874482  0.749144  1
  Ga  Ga25  1  0.714362  0.125523  0.250833  1
  Ga  Ga26  1  0.214413  0.374078  0.251251  1
  Ga  Ga27  1  0.785331  0.625068  0.749166  1
  Ga  Ga28  1  0.161386  0.463111  0.539935  1
  Ga  Ga29  1  0.838610  0.532556  0.458275  1
  Ga  Ga30  1  0.340239  0.964987  0.459332  1
  Ga  Ga31  1  0.840538  0.538766  0.040235  1
  Ga  Ga32  1  0.657475  0.036659  0.539749  1
  Ga  Ga33  1  0.159652  0.461978  0.959591  1
  Ga  Ga34  1  0.659727  0.037896  0.959417  1
  Ga  Ga35  1  0.340346  0.962093  0.040316  1
