# generated using pymatgen
data_CaSm2(SiRh2)3
_symmetry_space_group_name_H-M   'P 1'
_cell_length_a   5.62374500
_cell_length_b   5.62374335
_cell_length_c   14.98657500
_cell_angle_alpha   90.00000000
_cell_angle_beta   90.00000000
_cell_angle_gamma   119.99999203
_symmetry_Int_Tables_number   1
_chemical_formula_structural   CaSm2(SiRh2)3
_chemical_formula_sum   'Ca2 Sm4 Si6 Rh12'
_cell_volume   410.47259881
_cell_formula_units_Z   2
loop_
 _symmetry_equiv_pos_site_id
 _symmetry_equiv_pos_as_xyz
  1  'x, y, z'
loop_
 _atom_site_type_symbol
 _atom_site_label
 _atom_site_symmetry_multiplicity
 _atom_site_fract_x
 _atom_site_fract_y
 _atom_site_fract_z
 _atom_site_occupancy
  Ca  Ca0  1  0.333333  0.666667  0.750000  1
  Ca  Ca1  1  0.666667  0.333333  0.250000  1
  Sm  Sm2  1  0.333333  0.666667  0.541566  1
  Sm  Sm3  1  0.666667  0.333333  0.458434  1
  Sm  Sm4  1  0.666667  0.333333  0.041566  1
  Sm  Sm5  1  0.333333  0.666667  0.958434  1
  Si  Si6  1  0.000000  0.000000  0.250000  1
  Si  Si7  1  0.000000  0.000000  0.750000  1
  Si  Si8  1  0.333333  0.666667  0.250000  1
  Si  Si9  1  0.666667  0.333333  0.750000  1
  Si  Si10  1  0.000000  0.000000  0.000000  1
  Si  Si11  1  0.000000  0.000000  0.500000  1
  Rh  Rh12  1  0.166634  0.333269  0.131203  1
  Rh  Rh13  1  0.833366  0.666731  0.868797  1
  Rh  Rh14  1  0.666731  0.833366  0.131203  1
  Rh  Rh15  1  0.833366  0.666731  0.631203  1
  Rh  Rh16  1  0.333269  0.166634  0.868797  1
  Rh  Rh17  1  0.166634  0.333269  0.368797  1
  Rh  Rh18  1  0.166634  0.833366  0.131203  1
  Rh  Rh19  1  0.333269  0.166634  0.631203  1
  Rh  Rh20  1  0.833366  0.166634  0.868797  1
  Rh  Rh21  1  0.666731  0.833366  0.368797  1
  Rh  Rh22  1  0.833366  0.166634  0.631203  1
  Rh  Rh23  1  0.166634  0.833366  0.368797  1
