# generated using pymatgen
data_CaLa8Ir5Pd
_symmetry_space_group_name_H-M   'P 1'
_cell_length_a   7.81880395
_cell_length_b   7.82686777
_cell_length_c   7.79295909
_cell_angle_alpha   69.84245198
_cell_angle_beta   70.03928365
_cell_angle_gamma   69.53098025
_symmetry_Int_Tables_number   1
_chemical_formula_structural   CaLa8Ir5Pd
_chemical_formula_sum   'Ca1 La8 Ir5 Pd1'
_cell_volume   405.98424400
_cell_formula_units_Z   1
loop_
 _symmetry_equiv_pos_site_id
 _symmetry_equiv_pos_as_xyz
  1  'x, y, z'
loop_
 _atom_site_type_symbol
 _atom_site_label
 _atom_site_symmetry_multiplicity
 _atom_site_fract_x
 _atom_site_fract_y
 _atom_site_fract_z
 _atom_site_occupancy
  Ca  Ca0  1  0.000983  0.001421  0.997021  1
  La  La1  1  0.800376  0.800351  0.809499  1
  La  La2  1  0.192397  0.193942  0.187987  1
  La  La3  1  0.151725  0.398362  0.680903  1
  La  La4  1  0.668962  0.145406  0.386800  1
  La  La5  1  0.389045  0.678975  0.150616  1
  La  La6  1  0.856386  0.616880  0.317976  1
  La  La7  1  0.330885  0.845389  0.609469  1
  La  La8  1  0.600980  0.324584  0.863451  1
  Ir  Ir9  1  0.581784  0.951842  0.176065  1
  Ir  Ir10  1  0.187042  0.580424  0.949849  1
  Ir  Ir11  1  0.050067  0.821299  0.421236  1
  Ir  Ir12  1  0.418528  0.053588  0.814524  1
  Ir  Ir13  1  0.818673  0.415606  0.053251  1
  Pd  Pd14  1  0.952168  0.171933  0.581352  1
