# generated using pymatgen
data_Lu2MnTcOs2
_symmetry_space_group_name_H-M   'P 1'
_cell_length_a   5.24325300
_cell_length_b   5.30498608
_cell_length_c   8.81917300
_cell_angle_alpha   90.00000000
_cell_angle_beta   90.00000000
_cell_angle_gamma   120.39024494
_symmetry_Int_Tables_number   1
_chemical_formula_structural   Lu2MnTcOs2
_chemical_formula_sum   'Lu4 Mn2 Tc2 Os4'
_cell_volume   211.60322590
_cell_formula_units_Z   2
loop_
 _symmetry_equiv_pos_site_id
 _symmetry_equiv_pos_as_xyz
  1  'x, y, z'
loop_
 _atom_site_type_symbol
 _atom_site_label
 _atom_site_symmetry_multiplicity
 _atom_site_fract_x
 _atom_site_fract_y
 _atom_site_fract_z
 _atom_site_occupancy
  Lu  Lu0  1  0.333342  0.664052  0.062614  1
  Lu  Lu1  1  0.666658  0.330710  0.562614  1
  Lu  Lu2  1  0.666658  0.330710  0.937386  1
  Lu  Lu3  1  0.333342  0.664052  0.437386  1
  Mn  Mn4  1  0.828351  0.169968  0.250000  1
  Mn  Mn5  1  0.171649  0.341618  0.750000  1
  Tc  Tc6  1  0.653562  0.830419  0.750000  1
  Tc  Tc7  1  0.346438  0.176858  0.250000  1
  Os  Os8  1  0.000000  0.998437  0.000000  1
  Os  Os9  1  0.000000  0.998437  0.500000  1
  Os  Os10  1  0.827853  0.661295  0.250000  1
  Os  Os11  1  0.172147  0.833442  0.750000  1
