# generated using pymatgen
data_NaV(GeRh2)3
_symmetry_space_group_name_H-M   'P 1'
_cell_length_a   7.33042600
_cell_length_b   7.33042538
_cell_length_c   3.71799200
_cell_angle_alpha   90.00000000
_cell_angle_beta   90.00000000
_cell_angle_gamma   119.99999376
_symmetry_Int_Tables_number   1
_chemical_formula_structural   NaV(GeRh2)3
_chemical_formula_sum   'Na1 V1 Ge3 Rh6'
_cell_volume   173.02047549
_cell_formula_units_Z   1
loop_
 _symmetry_equiv_pos_site_id
 _symmetry_equiv_pos_as_xyz
  1  'x, y, z'
loop_
 _atom_site_type_symbol
 _atom_site_label
 _atom_site_symmetry_multiplicity
 _atom_site_fract_x
 _atom_site_fract_y
 _atom_site_fract_z
 _atom_site_occupancy
  Na  Na0  1  0.000000  0.000000  0.000000  1
  V  V1  1  0.333333  0.666667  0.000000  1
  Ge  Ge2  1  0.804273  0.195727  0.500000  1
  Ge  Ge3  1  0.804273  0.608546  0.500000  1
  Ge  Ge4  1  0.391454  0.195727  0.500000  1
  Rh  Rh5  1  0.530968  0.469032  0.000000  1
  Rh  Rh6  1  0.530968  0.061938  0.000000  1
  Rh  Rh7  1  0.938062  0.469032  0.000000  1
  Rh  Rh8  1  0.201717  0.798283  0.500000  1
  Rh  Rh9  1  0.201717  0.403434  0.500000  1
  Rh  Rh10  1  0.596566  0.798283  0.500000  1
