# generated using pymatgen
data_Tm2Zn(PIr2)6
_symmetry_space_group_name_H-M   'P 1'
_cell_length_a   9.68388700
_cell_length_b   9.68388762
_cell_length_c   3.92273200
_cell_angle_alpha   90.00000000
_cell_angle_beta   90.00000000
_cell_angle_gamma   119.99999629
_symmetry_Int_Tables_number   1
_chemical_formula_structural   Tm2Zn(PIr2)6
_chemical_formula_sum   'Tm2 Zn1 P6 Ir12'
_cell_volume   318.58017035
_cell_formula_units_Z   1
loop_
 _symmetry_equiv_pos_site_id
 _symmetry_equiv_pos_as_xyz
  1  'x, y, z'
loop_
 _atom_site_type_symbol
 _atom_site_label
 _atom_site_symmetry_multiplicity
 _atom_site_fract_x
 _atom_site_fract_y
 _atom_site_fract_z
 _atom_site_occupancy
  Tm  Tm0  1  0.666667  0.333333  0.500000  1
  Tm  Tm1  1  0.333333  0.666667  0.000000  1
  Zn  Zn2  1  0.000000  0.000000  0.000000  1
  P  P3  1  0.405373  0.283079  0.000000  1
  P  P4  1  0.877708  0.594627  0.000000  1
  P  P5  1  0.716921  0.122292  0.000000  1
  P  P6  1  0.122202  0.403027  0.500000  1
  P  P7  1  0.280825  0.877798  0.500000  1
  P  P8  1  0.596973  0.719175  0.500000  1
  Ir  Ir9  1  0.456962  0.072191  0.000000  1
  Ir  Ir10  1  0.615229  0.543038  0.000000  1
  Ir  Ir11  1  0.927809  0.384771  0.000000  1
  Ir  Ir12  1  0.168425  0.295781  0.000000  1
  Ir  Ir13  1  0.127356  0.831575  0.000000  1
  Ir  Ir14  1  0.704219  0.872644  0.000000  1
  Ir  Ir15  1  0.392882  0.460119  0.500000  1
  Ir  Ir16  1  0.067237  0.607118  0.500000  1
  Ir  Ir17  1  0.539881  0.932763  0.500000  1
  Ir  Ir18  1  0.277551  0.122666  0.500000  1
  Ir  Ir19  1  0.845115  0.722449  0.500000  1
  Ir  Ir20  1  0.877334  0.154885  0.500000  1
