# generated using pymatgen
data_Ce2Ho3Tc2
_symmetry_space_group_name_H-M   'P 1'
_cell_length_a   6.34746116
_cell_length_b   7.11489558
_cell_length_c   8.81064601
_cell_angle_alpha   95.94245914
_cell_angle_beta   111.11342635
_cell_angle_gamma   90.00000240
_symmetry_Int_Tables_number   1
_chemical_formula_structural   Ce2Ho3Tc2
_chemical_formula_sum   'Ce4 Ho6 Tc4'
_cell_volume   368.89771145
_cell_formula_units_Z   2
loop_
 _symmetry_equiv_pos_site_id
 _symmetry_equiv_pos_as_xyz
  1  'x, y, z'
loop_
 _atom_site_type_symbol
 _atom_site_label
 _atom_site_symmetry_multiplicity
 _atom_site_fract_x
 _atom_site_fract_y
 _atom_site_fract_z
 _atom_site_occupancy
  Ce  Ce0  1  0.789481  0.097974  0.807928  1
  Ce  Ce1  1  0.981553  0.402026  0.192072  1
  Ce  Ce2  1  0.210519  0.902026  0.192072  1
  Ce  Ce3  1  0.018447  0.597974  0.807928  1
  Ho  Ho4  1  0.208809  0.189265  0.569447  1
  Ho  Ho5  1  0.639363  0.310735  0.430553  1
  Ho  Ho6  1  0.791191  0.810735  0.430553  1
  Ho  Ho7  1  0.360637  0.689265  0.569447  1
  Ho  Ho8  1  0.421128  0.250000  0.000000  1
  Ho  Ho9  1  0.578872  0.750000  0.000000  1
  Tc  Tc10  1  0.642499  0.403999  0.780696  1
  Tc  Tc11  1  0.861802  0.096001  0.219304  1
  Tc  Tc12  1  0.357501  0.596001  0.219304  1
  Tc  Tc13  1  0.138198  0.903999  0.780696  1
