# generated using pymatgen
data_Pr3ZnNi2Ir
_symmetry_space_group_name_H-M   'P 1'
_cell_length_a   5.73647300
_cell_length_b   5.73647288
_cell_length_c   13.35483100
_cell_angle_alpha   90.00000000
_cell_angle_beta   90.00000000
_cell_angle_gamma   136.16666160
_symmetry_Int_Tables_number   1
_chemical_formula_structural   Pr3ZnNi2Ir
_chemical_formula_sum   'Pr6 Zn2 Ni4 Ir2'
_cell_volume   304.36001400
_cell_formula_units_Z   2
loop_
 _symmetry_equiv_pos_site_id
 _symmetry_equiv_pos_as_xyz
  1  'x, y, z'
loop_
 _atom_site_type_symbol
 _atom_site_label
 _atom_site_symmetry_multiplicity
 _atom_site_fract_x
 _atom_site_fract_y
 _atom_site_fract_z
 _atom_site_occupancy
  Pr  Pr0  1  0.289847  0.710153  0.394461  1
  Pr  Pr1  1  0.710153  0.289847  0.605539  1
  Pr  Pr2  1  0.992680  0.007320  0.750000  1
  Pr  Pr3  1  0.007320  0.992680  0.250000  1
  Pr  Pr4  1  0.710153  0.289847  0.894461  1
  Pr  Pr5  1  0.289847  0.710153  0.105539  1
  Zn  Zn6  1  0.000000  0.000000  0.500000  1
  Zn  Zn7  1  0.000000  0.000000  0.000000  1
  Ni  Ni8  1  0.427901  0.572099  0.914371  1
  Ni  Ni9  1  0.572099  0.427901  0.085629  1
  Ni  Ni10  1  0.572099  0.427901  0.414371  1
  Ni  Ni11  1  0.427901  0.572099  0.585629  1
  Ir  Ir12  1  0.716360  0.283640  0.250000  1
  Ir  Ir13  1  0.283640  0.716360  0.750000  1
