# generated using pymatgen
data_Er2Lu8In8PtRh3
_symmetry_space_group_name_H-M   'P 1'
_cell_length_a   3.55158500
_cell_length_b   7.99041327
_cell_length_c   18.05890357
_cell_angle_alpha   90.08018856
_cell_angle_beta   90.00000000
_cell_angle_gamma   90.00000000
_symmetry_Int_Tables_number   1
_chemical_formula_structural   Er2Lu8In8PtRh3
_chemical_formula_sum   'Er2 Lu8 In8 Pt1 Rh3'
_cell_volume   512.48647517
_cell_formula_units_Z   1
loop_
 _symmetry_equiv_pos_site_id
 _symmetry_equiv_pos_as_xyz
  1  'x, y, z'
loop_
 _atom_site_type_symbol
 _atom_site_label
 _atom_site_symmetry_multiplicity
 _atom_site_fract_x
 _atom_site_fract_y
 _atom_site_fract_z
 _atom_site_occupancy
  Er  Er0  1  0.000000  0.999746  0.000009  1
  Er  Er1  1  0.000000  0.500370  0.500107  1
  Lu  Lu2  1  0.000000  0.116026  0.412891  1
  Lu  Lu3  1  0.000000  0.883271  0.587472  1
  Lu  Lu4  1  0.000000  0.383479  0.912418  1
  Lu  Lu5  1  0.000000  0.617598  0.086016  1
  Lu  Lu6  1  0.000000  0.240742  0.221079  1
  Lu  Lu7  1  0.000000  0.756045  0.779184  1
  Lu  Lu8  1  0.000000  0.256174  0.720854  1
  Lu  Lu9  1  0.000000  0.747039  0.279656  1
  In  In10  1  0.500000  0.422841  0.351912  1
  In  In11  1  0.500000  0.574586  0.649722  1
  In  In12  1  0.500000  0.075165  0.850316  1
  In  In13  1  0.500000  0.926803  0.149350  1
  In  In14  1  0.500000  0.292709  0.065859  1
  In  In15  1  0.500000  0.705934  0.932755  1
  In  In16  1  0.500000  0.205821  0.566867  1
  In  In17  1  0.500000  0.794233  0.432893  1
  Pt  Pt18  1  0.500000  0.524553  0.196444  1
  Rh  Rh19  1  0.500000  0.024448  0.304217  1
  Rh  Rh20  1  0.500000  0.976443  0.695855  1
  Rh  Rh21  1  0.500000  0.475976  0.804124  1
