# generated using pymatgen
data_Er5Tm5(Sn3P)2
_symmetry_space_group_name_H-M   'P 1'
_cell_length_a   8.97267602
_cell_length_b   8.97174244
_cell_length_c   6.60653000
_cell_angle_alpha   90.00000000
_cell_angle_beta   90.00000000
_cell_angle_gamma   119.99655654
_symmetry_Int_Tables_number   1
_chemical_formula_structural   Er5Tm5(Sn3P)2
_chemical_formula_sum   'Er5 Tm5 Sn6 P2'
_cell_volume   460.59359637
_cell_formula_units_Z   1
loop_
 _symmetry_equiv_pos_site_id
 _symmetry_equiv_pos_as_xyz
  1  'x, y, z'
loop_
 _atom_site_type_symbol
 _atom_site_label
 _atom_site_symmetry_multiplicity
 _atom_site_fract_x
 _atom_site_fract_y
 _atom_site_fract_z
 _atom_site_occupancy
  Er  Er0  1  0.758159  0.758146  0.750000  1
  Er  Er1  1  0.241841  0.999987  0.750000  1
  Er  Er2  1  0.000000  0.241863  0.750000  1
  Er  Er3  1  0.241851  0.241834  0.250000  1
  Er  Er4  1  0.758149  0.999983  0.250000  1
  Tm  Tm5  1  0.666693  0.333367  0.000006  1
  Tm  Tm6  1  0.333307  0.666675  0.000006  1
  Tm  Tm7  1  0.333307  0.666675  0.499994  1
  Tm  Tm8  1  0.666693  0.333367  0.499994  1
  Tm  Tm9  1  0.000000  0.758345  0.250000  1
  Sn  Sn10  1  0.398692  0.398697  0.750000  1
  Sn  Sn11  1  0.601308  0.000005  0.750000  1
  Sn  Sn12  1  0.000000  0.601302  0.750000  1
  Sn  Sn13  1  0.601433  0.601352  0.250000  1
  Sn  Sn14  1  0.398567  0.999919  0.250000  1
  Sn  Sn15  1  0.000000  0.398782  0.250000  1
  P  P16  1  0.000000  0.999850  0.000143  1
  P  P17  1  0.000000  0.999850  0.499857  1
