# generated using pymatgen
data_NdLu2Cr(Co4P3)2
_symmetry_space_group_name_H-M   'P 1'
_cell_length_a   3.68683600
_cell_length_b   10.51474400
_cell_length_c   12.18698200
_cell_angle_alpha   90.00000000
_cell_angle_beta   90.00000000
_cell_angle_gamma   90.00000000
_symmetry_Int_Tables_number   1
_chemical_formula_structural   NdLu2Cr(Co4P3)2
_chemical_formula_sum   'Nd2 Lu4 Cr2 Co16 P12'
_cell_volume   472.44221029
_cell_formula_units_Z   2
loop_
 _symmetry_equiv_pos_site_id
 _symmetry_equiv_pos_as_xyz
  1  'x, y, z'
loop_
 _atom_site_type_symbol
 _atom_site_label
 _atom_site_symmetry_multiplicity
 _atom_site_fract_x
 _atom_site_fract_y
 _atom_site_fract_z
 _atom_site_occupancy
  Nd  Nd0  1  0.000000  0.500000  0.523557  1
  Nd  Nd1  1  0.500000  0.000000  0.476443  1
  Lu  Lu2  1  0.500000  0.818554  0.203290  1
  Lu  Lu3  1  0.500000  0.181446  0.203290  1
  Lu  Lu4  1  0.000000  0.681446  0.796710  1
  Lu  Lu5  1  0.000000  0.318554  0.796710  1
  Cr  Cr6  1  0.500000  0.500000  0.153821  1
  Cr  Cr7  1  0.000000  0.000000  0.846179  1
  Co  Co8  1  0.500000  0.500000  0.707009  1
  Co  Co9  1  0.000000  0.000000  0.292991  1
  Co  Co10  1  0.000000  0.500000  0.987412  1
  Co  Co11  1  0.500000  0.000000  0.012588  1
  Co  Co12  1  0.500000  0.332317  0.993048  1
  Co  Co13  1  0.500000  0.667683  0.993048  1
  Co  Co14  1  0.000000  0.167683  0.006952  1
  Co  Co15  1  0.000000  0.832317  0.006952  1
  Co  Co16  1  0.500000  0.295447  0.428873  1
  Co  Co17  1  0.500000  0.704553  0.428873  1
  Co  Co18  1  0.000000  0.204553  0.571127  1
  Co  Co19  1  0.000000  0.795447  0.571127  1
  Co  Co20  1  0.500000  0.878781  0.712191  1
  Co  Co21  1  0.500000  0.121219  0.712191  1
  Co  Co22  1  0.000000  0.621219  0.287809  1
  Co  Co23  1  0.000000  0.378781  0.287809  1
  P  P24  1  0.500000  0.500000  0.883056  1
  P  P25  1  0.000000  0.000000  0.116944  1
  P  P26  1  0.500000  0.500000  0.340112  1
  P  P27  1  0.000000  0.000000  0.659888  1
  P  P28  1  0.500000  0.308866  0.619412  1
  P  P29  1  0.500000  0.691134  0.619412  1
  P  P30  1  0.000000  0.191134  0.380588  1
  P  P31  1  0.000000  0.808866  0.380588  1
  P  P32  1  0.500000  0.846255  0.892233  1
  P  P33  1  0.500000  0.153745  0.892233  1
  P  P34  1  0.000000  0.653745  0.107767  1
  P  P35  1  0.000000  0.346255  0.107767  1
