# generated using pymatgen
data_Ca12Al8Si11Sb
_symmetry_space_group_name_H-M   'P 1'
_cell_length_a   4.35239800
_cell_length_b   11.27250556
_cell_length_c   14.81001601
_cell_angle_alpha   90.35516746
_cell_angle_beta   90.00000000
_cell_angle_gamma   90.00000000
_symmetry_Int_Tables_number   1
_chemical_formula_structural   Ca12Al8Si11Sb
_chemical_formula_sum   'Ca12 Al8 Si11 Sb1'
_cell_volume   726.60142299
_cell_formula_units_Z   1
loop_
 _symmetry_equiv_pos_site_id
 _symmetry_equiv_pos_as_xyz
  1  'x, y, z'
loop_
 _atom_site_type_symbol
 _atom_site_label
 _atom_site_symmetry_multiplicity
 _atom_site_fract_x
 _atom_site_fract_y
 _atom_site_fract_z
 _atom_site_occupancy
  Ca  Ca0  1  0.250000  0.895447  0.565890  1
  Ca  Ca1  1  0.750000  0.104285  0.432539  1
  Ca  Ca2  1  0.250000  0.393668  0.929956  1
  Ca  Ca3  1  0.750000  0.602413  0.067946  1
  Ca  Ca4  1  0.250000  0.610082  0.435866  1
  Ca  Ca5  1  0.750000  0.397048  0.557718  1
  Ca  Ca6  1  0.250000  0.094123  0.077007  1
  Ca  Ca7  1  0.750000  0.887513  0.938263  1
  Ca  Ca8  1  0.750000  0.378625  0.300175  1
  Ca  Ca9  1  0.250000  0.624108  0.700919  1
  Ca  Ca10  1  0.750000  0.875383  0.204714  1
  Ca  Ca11  1  0.250000  0.117542  0.785890  1
  Al  Al12  1  0.750000  0.864151  0.710032  1
  Al  Al13  1  0.250000  0.140738  0.294663  1
  Al  Al14  1  0.750000  0.389536  0.776388  1
  Al  Al15  1  0.250000  0.639010  0.210080  1
  Al  Al16  1  0.250000  0.683245  0.911933  1
  Al  Al17  1  0.750000  0.317680  0.098050  1
  Al  Al18  1  0.250000  0.184818  0.585045  1
  Al  Al19  1  0.750000  0.818205  0.411334  1
  Si  Si20  1  0.250000  0.926635  0.362996  1
  Si  Si21  1  0.750000  0.073441  0.632474  1
  Si  Si22  1  0.250000  0.426902  0.136808  1
  Si  Si23  1  0.750000  0.576591  0.867007  1
  Si  Si24  1  0.250000  0.857329  0.797473  1
  Si  Si25  1  0.750000  0.141165  0.208724  1
  Si  Si26  1  0.250000  0.359268  0.699236  1
  Si  Si27  1  0.750000  0.641286  0.297687  1
  Si  Si28  1  0.250000  0.298812  0.434039  1
  Si  Si29  1  0.750000  0.703516  0.565021  1
  Si  Si30  1  0.250000  0.796421  0.067655  1
  Sb  Sb31  1  0.750000  0.181016  0.936472  1
