# generated using pymatgen
data_TmSc(NbSe2)6
_symmetry_space_group_name_H-M   'P 1'
_cell_length_a   6.08445400
_cell_length_b   6.08445510
_cell_length_c   13.93896000
_cell_angle_alpha   90.00000000
_cell_angle_beta   90.00000000
_cell_angle_gamma   119.99999403
_symmetry_Int_Tables_number   1
_chemical_formula_structural   TmSc(NbSe2)6
_chemical_formula_sum   'Tm1 Sc1 Nb6 Se12'
_cell_volume   446.89380274
_cell_formula_units_Z   1
loop_
 _symmetry_equiv_pos_site_id
 _symmetry_equiv_pos_as_xyz
  1  'x, y, z'
loop_
 _atom_site_type_symbol
 _atom_site_label
 _atom_site_symmetry_multiplicity
 _atom_site_fract_x
 _atom_site_fract_y
 _atom_site_fract_z
 _atom_site_occupancy
  Tm  Tm0  1  0.333333  0.666667  0.250000  1
  Sc  Sc1  1  0.666667  0.333333  0.750000  1
  Nb  Nb2  1  0.000000  0.000000  0.504550  1
  Nb  Nb3  1  0.000000  0.000000  0.995450  1
  Nb  Nb4  1  0.333333  0.666667  0.996972  1
  Nb  Nb5  1  0.666667  0.333333  0.994969  1
  Nb  Nb6  1  0.666667  0.333333  0.505031  1
  Nb  Nb7  1  0.333333  0.666667  0.503028  1
  Se  Se8  1  0.333487  0.326265  0.383708  1
  Se  Se9  1  0.673735  0.007221  0.383708  1
  Se  Se10  1  0.992779  0.666513  0.383708  1
  Se  Se11  1  0.329237  0.334409  0.624595  1
  Se  Se12  1  0.005171  0.670763  0.624595  1
  Se  Se13  1  0.665591  0.994829  0.624595  1
  Se  Se14  1  0.665591  0.670763  0.875405  1
  Se  Se15  1  0.329237  0.994829  0.875405  1
  Se  Se16  1  0.005171  0.334409  0.875405  1
  Se  Se17  1  0.673735  0.666513  0.116292  1
  Se  Se18  1  0.992779  0.326265  0.116292  1
  Se  Se19  1  0.333487  0.007221  0.116292  1
