# generated using pymatgen
data_Dy2MoRuC3
_symmetry_space_group_name_H-M   'P 1'
_cell_length_a   6.05087777
_cell_length_b   6.05087696
_cell_length_c   5.70093236
_cell_angle_alpha   67.57119134
_cell_angle_beta   67.57119351
_cell_angle_gamma   32.32077558
_symmetry_Int_Tables_number   1
_chemical_formula_structural   Dy2MoRuC3
_chemical_formula_sum   'Dy2 Mo1 Ru1 C3'
_cell_volume   102.41624012
_cell_formula_units_Z   1
loop_
 _symmetry_equiv_pos_site_id
 _symmetry_equiv_pos_as_xyz
  1  'x, y, z'
loop_
 _atom_site_type_symbol
 _atom_site_label
 _atom_site_symmetry_multiplicity
 _atom_site_fract_x
 _atom_site_fract_y
 _atom_site_fract_z
 _atom_site_occupancy
  Dy  Dy0  1  0.609196  0.609196  0.179807  1
  Dy  Dy1  1  0.391694  0.391694  0.829768  1
  Mo  Mo2  1  0.158504  0.158504  0.676463  1
  Ru  Ru3  1  0.840912  0.840912  0.318948  1
  C  C4  1  0.753599  0.753599  0.728125  1
  C  C5  1  0.247454  0.247454  0.269827  1
  C  C6  1  0.998640  0.998640  0.997061  1
