# generated using pymatgen
data_SmTmTh2(Al3Rh)6
_symmetry_space_group_name_H-M   'P 1'
_cell_length_a   7.62647704
_cell_length_b   7.63561076
_cell_length_c   9.50649700
_cell_angle_alpha   90.00000000
_cell_angle_beta   90.00000000
_cell_angle_gamma   119.42635612
_symmetry_Int_Tables_number   1
_chemical_formula_structural   SmTmTh2(Al3Rh)6
_chemical_formula_sum   'Sm1 Tm1 Th2 Al18 Rh6'
_cell_volume   482.17022340
_cell_formula_units_Z   1
loop_
 _symmetry_equiv_pos_site_id
 _symmetry_equiv_pos_as_xyz
  1  'x, y, z'
loop_
 _atom_site_type_symbol
 _atom_site_label
 _atom_site_symmetry_multiplicity
 _atom_site_fract_x
 _atom_site_fract_y
 _atom_site_fract_z
 _atom_site_occupancy
  Sm  Sm0  1  0.004619  0.328373  0.750000  1
  Tm  Tm1  1  0.327674  0.005723  0.750000  1
  Th  Th2  1  0.994992  0.671420  0.250000  1
  Th  Th3  1  0.671534  0.994173  0.250000  1
  Al  Al4  1  0.135363  0.133881  0.250000  1
  Al  Al5  1  0.873908  0.873583  0.750000  1
  Al  Al6  1  0.005720  0.335501  0.070930  1
  Al  Al7  1  0.001201  0.666549  0.918053  1
  Al  Al8  1  0.001201  0.666549  0.581947  1
  Al  Al9  1  0.335549  0.005085  0.431845  1
  Al  Al10  1  0.005720  0.335501  0.429070  1
  Al  Al11  1  0.662192  0.999387  0.581873  1
  Al  Al12  1  0.662192  0.999387  0.918127  1
  Al  Al13  1  0.335549  0.005085  0.068155  1
  Al  Al14  1  0.333087  0.331881  0.556461  1
  Al  Al15  1  0.663031  0.662864  0.459078  1
  Al  Al16  1  0.663031  0.662864  0.040922  1
  Al  Al17  1  0.333087  0.331881  0.943539  1
  Al  Al18  1  0.340846  0.543545  0.250000  1
  Al  Al19  1  0.657304  0.447401  0.750000  1
  Al  Al20  1  0.544029  0.338485  0.250000  1
  Al  Al21  1  0.447904  0.660631  0.750000  1
  Rh  Rh22  1  0.672773  0.328409  0.000795  1
  Rh  Rh23  1  0.328670  0.673503  0.001143  1
  Rh  Rh24  1  0.328670  0.673503  0.498857  1
  Rh  Rh25  1  0.672773  0.328409  0.499205  1
  Rh  Rh26  1  0.998692  0.998216  0.001355  1
  Rh  Rh27  1  0.998692  0.998216  0.498645  1
