# generated using pymatgen
data_Tb16TmLu3Sn16
_symmetry_space_group_name_H-M   'P 1'
_cell_length_a   8.01983603
_cell_length_b   8.17935803
_cell_length_c   15.49393400
_cell_angle_alpha   90.00000000
_cell_angle_beta   90.00000000
_cell_angle_gamma   90.01009440
_symmetry_Int_Tables_number   1
_chemical_formula_structural   Tb16TmLu3Sn16
_chemical_formula_sum   'Tb16 Tm1 Lu3 Sn16'
_cell_volume   1016.35728110
_cell_formula_units_Z   1
loop_
 _symmetry_equiv_pos_site_id
 _symmetry_equiv_pos_as_xyz
  1  'x, y, z'
loop_
 _atom_site_type_symbol
 _atom_site_label
 _atom_site_symmetry_multiplicity
 _atom_site_fract_x
 _atom_site_fract_y
 _atom_site_fract_z
 _atom_site_occupancy
  Tb  Tb0  1  0.367524  0.836404  0.878199  1
  Tb  Tb1  1  0.867342  0.663746  0.621801  1
  Tb  Tb2  1  0.632546  0.163677  0.378186  1
  Tb  Tb3  1  0.132542  0.336344  0.121834  1
  Tb  Tb4  1  0.632546  0.163677  0.121814  1
  Tb  Tb5  1  0.132542  0.336344  0.378166  1
  Tb  Tb6  1  0.367524  0.836404  0.621801  1
  Tb  Tb7  1  0.867342  0.663746  0.878199  1
  Tb  Tb8  1  0.520158  0.319973  0.902504  1
  Tb  Tb9  1  0.020066  0.179958  0.597504  1
  Tb  Tb10  1  0.479887  0.679986  0.402479  1
  Tb  Tb11  1  0.979901  0.820001  0.097505  1
  Tb  Tb12  1  0.479887  0.679986  0.097521  1
  Tb  Tb13  1  0.979901  0.820001  0.402495  1
  Tb  Tb14  1  0.520158  0.319973  0.597496  1
  Tb  Tb15  1  0.020066  0.179958  0.902496  1
  Tm  Tm16  1  0.198288  0.502366  0.750000  1
  Lu  Lu17  1  0.698423  0.997556  0.750000  1
  Lu  Lu18  1  0.801586  0.497616  0.250000  1
  Lu  Lu19  1  0.301586  0.002389  0.250000  1
  Sn  Sn20  1  0.292532  0.034636  0.042844  1
  Sn  Sn21  1  0.792532  0.465382  0.457158  1
  Sn  Sn22  1  0.707468  0.965349  0.542829  1
  Sn  Sn23  1  0.207463  0.534638  0.957268  1
  Sn  Sn24  1  0.707468  0.965349  0.957171  1
  Sn  Sn25  1  0.207463  0.534638  0.542732  1
  Sn  Sn26  1  0.292532  0.034636  0.457156  1
  Sn  Sn27  1  0.792532  0.465382  0.042842  1
  Sn  Sn28  1  0.564160  0.618503  0.750000  1
  Sn  Sn29  1  0.063881  0.881638  0.750000  1
  Sn  Sn30  1  0.436124  0.381548  0.250000  1
  Sn  Sn31  1  0.936087  0.118431  0.250000  1
  Sn  Sn32  1  0.328640  0.147571  0.750000  1
  Sn  Sn33  1  0.828553  0.352135  0.750000  1
  Sn  Sn34  1  0.671397  0.852182  0.250000  1
  Sn  Sn35  1  0.171351  0.647881  0.250000  1
