# generated using pymatgen
data_Tb3DyBi4
_symmetry_space_group_name_H-M   'P 1'
_cell_length_a   4.48565200
_cell_length_b   6.32223000
_cell_length_c   9.02625400
_cell_angle_alpha   90.00000000
_cell_angle_beta   90.00000000
_cell_angle_gamma   90.00000000
_symmetry_Int_Tables_number   1
_chemical_formula_structural   Tb3DyBi4
_chemical_formula_sum   'Tb3 Dy1 Bi4'
_cell_volume   255.97845848
_cell_formula_units_Z   1
loop_
 _symmetry_equiv_pos_site_id
 _symmetry_equiv_pos_as_xyz
  1  'x, y, z'
loop_
 _atom_site_type_symbol
 _atom_site_label
 _atom_site_symmetry_multiplicity
 _atom_site_fract_x
 _atom_site_fract_y
 _atom_site_fract_z
 _atom_site_occupancy
  Tb  Tb0  1  0.500000  0.500000  0.250399  1
  Tb  Tb1  1  0.000000  0.000000  0.500000  1
  Tb  Tb2  1  0.500000  0.500000  0.749601  1
  Dy  Dy3  1  0.000000  0.000000  0.000000  1
  Bi  Bi4  1  0.000000  0.500000  0.500000  1
  Bi  Bi5  1  0.500000  0.000000  0.750951  1
  Bi  Bi6  1  0.000000  0.500000  0.000000  1
  Bi  Bi7  1  0.500000  0.000000  0.249049  1
