# generated using pymatgen
data_Yb12Y8Si15Ge
_symmetry_space_group_name_H-M   'P 1'
_cell_length_a   7.42825000
_cell_length_b   7.81734304
_cell_length_c   15.14411167
_cell_angle_alpha   89.92449917
_cell_angle_beta   90.04889544
_cell_angle_gamma   90.03396182
_symmetry_Int_Tables_number   1
_chemical_formula_structural   Yb12Y8Si15Ge
_chemical_formula_sum   'Yb12 Y8 Si15 Ge1'
_cell_volume   879.40488503
_cell_formula_units_Z   1
loop_
 _symmetry_equiv_pos_site_id
 _symmetry_equiv_pos_as_xyz
  1  'x, y, z'
loop_
 _atom_site_type_symbol
 _atom_site_label
 _atom_site_symmetry_multiplicity
 _atom_site_fract_x
 _atom_site_fract_y
 _atom_site_fract_z
 _atom_site_occupancy
  Yb  Yb0  1  0.970670  0.814657  0.403294  1
  Yb  Yb1  1  0.470480  0.684943  0.096758  1
  Yb  Yb2  1  0.529010  0.314795  0.596654  1
  Yb  Yb3  1  0.029530  0.184942  0.903275  1
  Yb  Yb4  1  0.029685  0.185109  0.596593  1
  Yb  Yb5  1  0.529531  0.315046  0.903254  1
  Yb  Yb6  1  0.470434  0.685241  0.403107  1
  Yb  Yb7  1  0.970469  0.815034  0.096730  1
  Yb  Yb8  1  0.354263  0.020221  0.750088  1
  Yb  Yb9  1  0.854401  0.479974  0.750227  1
  Yb  Yb10  1  0.145752  0.520067  0.249983  1
  Yb  Yb11  1  0.645586  0.979829  0.249981  1
  Y  Y12  1  0.313634  0.177045  0.121118  1
  Y  Y13  1  0.814256  0.322367  0.378490  1
  Y  Y14  1  0.186465  0.677069  0.878815  1
  Y  Y15  1  0.685503  0.824867  0.621756  1
  Y  Y16  1  0.313962  0.176557  0.378626  1
  Y  Y17  1  0.813574  0.322951  0.121144  1
  Y  Y18  1  0.187328  0.677149  0.621133  1
  Y  Y19  1  0.686401  0.823003  0.878911  1
  Si  Si20  1  0.358801  0.967547  0.961371  1
  Si  Si21  1  0.641304  0.032389  0.461381  1
  Si  Si22  1  0.141154  0.467527  0.038623  1
  Si  Si23  1  0.145129  0.467027  0.460610  1
  Si  Si24  1  0.641202  0.032456  0.038622  1
  Si  Si25  1  0.358814  0.967566  0.538571  1
  Si  Si26  1  0.858855  0.532467  0.961336  1
  Si  Si27  1  0.978496  0.885376  0.749995  1
  Si  Si28  1  0.478646  0.614642  0.750096  1
  Si  Si29  1  0.521559  0.385370  0.249902  1
  Si  Si30  1  0.021547  0.114424  0.249912  1
  Si  Si31  1  0.249747  0.393932  0.750017  1
  Si  Si32  1  0.749935  0.106368  0.750045  1
  Si  Si33  1  0.250078  0.893852  0.249970  1
  Si  Si34  1  0.750213  0.606075  0.249974  1
  Ge  Ge35  1  0.853584  0.532113  0.539637  1
