# generated using pymatgen
data_Er2Lu4Bi2Mo
_symmetry_space_group_name_H-M   'P 1'
_cell_length_a   8.15063200
_cell_length_b   8.15560577
_cell_length_c   4.34301900
_cell_angle_alpha   90.00000000
_cell_angle_beta   90.00000000
_cell_angle_gamma   119.97982808
_symmetry_Int_Tables_number   1
_chemical_formula_structural   Er2Lu4Bi2Mo
_chemical_formula_sum   'Er2 Lu4 Bi2 Mo1'
_cell_volume   250.06799499
_cell_formula_units_Z   1
loop_
 _symmetry_equiv_pos_site_id
 _symmetry_equiv_pos_as_xyz
  1  'x, y, z'
loop_
 _atom_site_type_symbol
 _atom_site_label
 _atom_site_symmetry_multiplicity
 _atom_site_fract_x
 _atom_site_fract_y
 _atom_site_fract_z
 _atom_site_occupancy
  Er  Er0  1  0.000217  0.613669  0.000000  1
  Er  Er1  1  0.386549  0.386331  0.000000  1
  Lu  Lu2  1  0.233526  0.000000  0.500000  1
  Lu  Lu3  1  0.999253  0.234404  0.500000  1
  Lu  Lu4  1  0.764849  0.765596  0.500000  1
  Lu  Lu5  1  0.616967  0.000000  0.000000  1
  Bi  Bi6  1  0.334094  0.667980  0.500000  1
  Bi  Bi7  1  0.666116  0.332020  0.500000  1
  Mo  Mo8  1  0.998431  0.000000  0.000000  1
