# generated using pymatgen
data_ErTh3(ZnIr)4
_symmetry_space_group_name_H-M   'P 1'
_cell_length_a   4.03416300
_cell_length_b   7.14404285
_cell_length_c   8.38873823
_cell_angle_alpha   89.59017498
_cell_angle_beta   90.00000000
_cell_angle_gamma   90.00000000
_symmetry_Int_Tables_number   1
_chemical_formula_structural   ErTh3(ZnIr)4
_chemical_formula_sum   'Er1 Th3 Zn4 Ir4'
_cell_volume   241.75920851
_cell_formula_units_Z   1
loop_
 _symmetry_equiv_pos_site_id
 _symmetry_equiv_pos_as_xyz
  1  'x, y, z'
loop_
 _atom_site_type_symbol
 _atom_site_label
 _atom_site_symmetry_multiplicity
 _atom_site_fract_x
 _atom_site_fract_y
 _atom_site_fract_z
 _atom_site_occupancy
  Er  Er0  1  0.250000  0.054264  0.310260  1
  Th  Th1  1  0.250000  0.551031  0.193134  1
  Th  Th2  1  0.750000  0.450054  0.813788  1
  Th  Th3  1  0.750000  0.950688  0.679816  1
  Zn  Zn4  1  0.250000  0.623690  0.558519  1
  Zn  Zn5  1  0.750000  0.361283  0.437560  1
  Zn  Zn6  1  0.750000  0.884634  0.066323  1
  Zn  Zn7  1  0.250000  0.123263  0.942907  1
  Ir  Ir8  1  0.250000  0.743271  0.872133  1
  Ir  Ir9  1  0.750000  0.261563  0.124291  1
  Ir  Ir10  1  0.750000  0.755683  0.372786  1
  Ir  Ir11  1  0.250000  0.240575  0.628484  1
