# generated using pymatgen
data_Ba6Li2TaSbO12
_symmetry_space_group_name_H-M   'P 1'
_cell_length_a   7.17998498
_cell_length_b   7.17998558
_cell_length_c   7.17998550
_cell_angle_alpha   93.23251967
_cell_angle_beta   93.23253164
_cell_angle_gamma   93.23251376
_symmetry_Int_Tables_number   1
_chemical_formula_structural   Ba6Li2TaSbO12
_chemical_formula_sum   'Ba6 Li2 Ta1 Sb1 O12'
_cell_volume   368.30766482
_cell_formula_units_Z   1
loop_
 _symmetry_equiv_pos_site_id
 _symmetry_equiv_pos_as_xyz
  1  'x, y, z'
loop_
 _atom_site_type_symbol
 _atom_site_label
 _atom_site_symmetry_multiplicity
 _atom_site_fract_x
 _atom_site_fract_y
 _atom_site_fract_z
 _atom_site_occupancy
  Ba  Ba0  1  0.898992  0.250153  0.600088  1
  Ba  Ba1  1  0.600088  0.898992  0.250153  1
  Ba  Ba2  1  0.749847  0.399912  0.101008  1
  Ba  Ba3  1  0.101008  0.749847  0.399912  1
  Ba  Ba4  1  0.399912  0.101008  0.749847  1
  Ba  Ba5  1  0.250153  0.600088  0.898992  1
  Li  Li6  1  0.249910  0.249910  0.249910  1
  Li  Li7  1  0.750090  0.750090  0.750090  1
  Ta  Ta8  1  0.500000  0.500000  0.500000  1
  Sb  Sb9  1  0.000000  0.000000  0.000000  1
  O  O10  1  0.543843  0.231771  0.417763  1
  O  O11  1  0.417763  0.543843  0.231771  1
  O  O12  1  0.231771  0.417763  0.543843  1
  O  O13  1  0.956888  0.083788  0.269940  1
  O  O14  1  0.269940  0.956888  0.083788  1
  O  O15  1  0.083788  0.269940  0.956888  1
  O  O16  1  0.456157  0.768229  0.582237  1
  O  O17  1  0.582237  0.456157  0.768229  1
  O  O18  1  0.768229  0.582237  0.456157  1
  O  O19  1  0.043112  0.916212  0.730060  1
  O  O20  1  0.916212  0.730060  0.043112  1
  O  O21  1  0.730060  0.043112  0.916212  1
