# generated using pymatgen
data_HfZr3Si4PtRh3
_symmetry_space_group_name_H-M   'P 1'
_cell_length_a   3.93852900
_cell_length_b   6.59257336
_cell_length_c   7.51240511
_cell_angle_alpha   89.69358024
_cell_angle_beta   90.00000000
_cell_angle_gamma   90.00000000
_symmetry_Int_Tables_number   1
_chemical_formula_structural   HfZr3Si4PtRh3
_chemical_formula_sum   'Hf1 Zr3 Si4 Pt1 Rh3'
_cell_volume   195.05711997
_cell_formula_units_Z   1
loop_
 _symmetry_equiv_pos_site_id
 _symmetry_equiv_pos_as_xyz
  1  'x, y, z'
loop_
 _atom_site_type_symbol
 _atom_site_label
 _atom_site_symmetry_multiplicity
 _atom_site_fract_x
 _atom_site_fract_y
 _atom_site_fract_z
 _atom_site_occupancy
  Hf  Hf0  1  0.750000  0.982283  0.682238  1
  Zr  Zr1  1  0.250000  0.520003  0.182062  1
  Zr  Zr2  1  0.750000  0.478077  0.817364  1
  Zr  Zr3  1  0.250000  0.022560  0.319664  1
  Si  Si4  1  0.250000  0.771865  0.875528  1
  Si  Si5  1  0.750000  0.229856  0.117983  1
  Si  Si6  1  0.250000  0.274906  0.618006  1
  Si  Si7  1  0.750000  0.725685  0.387904  1
  Pt  Pt8  1  0.750000  0.849647  0.064482  1
  Rh  Rh9  1  0.250000  0.144396  0.933895  1
  Rh  Rh10  1  0.750000  0.351058  0.436932  1
  Rh  Rh11  1  0.250000  0.649664  0.563940  1
