# generated using pymatgen
data_TbNdY2(WO6)2
_symmetry_space_group_name_H-M   'P 1'
_cell_length_a   5.46247000
_cell_length_b   7.78750873
_cell_length_c   11.57762520
_cell_angle_alpha   75.59245654
_cell_angle_beta   90.00000000
_cell_angle_gamma   90.00000000
_symmetry_Int_Tables_number   1
_chemical_formula_structural   TbNdY2(WO6)2
_chemical_formula_sum   'Tb2 Nd2 Y4 W4 O24'
_cell_volume   477.01202461
_cell_formula_units_Z   2
loop_
 _symmetry_equiv_pos_site_id
 _symmetry_equiv_pos_as_xyz
  1  'x, y, z'
loop_
 _atom_site_type_symbol
 _atom_site_label
 _atom_site_symmetry_multiplicity
 _atom_site_fract_x
 _atom_site_fract_y
 _atom_site_fract_z
 _atom_site_occupancy
  Tb  Tb0  1  0.258953  0.000000  0.750000  1
  Tb  Tb1  1  0.741047  0.000000  0.250000  1
  Nd  Nd2  1  0.315046  0.500000  0.750000  1
  Nd  Nd3  1  0.684954  0.500000  0.250000  1
  Y  Y4  1  0.186788  0.796453  0.077087  1
  Y  Y5  1  0.186788  0.203547  0.422913  1
  Y  Y6  1  0.813212  0.203547  0.922913  1
  Y  Y7  1  0.813212  0.796453  0.577087  1
  W  W8  1  0.746102  0.726634  0.884700  1
  W  W9  1  0.253898  0.726634  0.384700  1
  W  W10  1  0.746102  0.273366  0.615300  1
  W  W11  1  0.253898  0.273366  0.115300  1
  O  O12  1  0.852772  0.359704  0.454419  1
  O  O13  1  0.468780  0.846501  0.930529  1
  O  O14  1  0.852772  0.640296  0.045581  1
  O  O15  1  0.013678  0.283434  0.729168  1
  O  O16  1  0.986322  0.283434  0.229168  1
  O  O17  1  0.147228  0.359704  0.954419  1
  O  O18  1  0.648047  0.493497  0.887584  1
  O  O19  1  0.531220  0.153499  0.069471  1
  O  O20  1  0.147228  0.640296  0.545581  1
  O  O21  1  0.013678  0.716566  0.770832  1
  O  O22  1  0.455673  0.206970  0.272120  1
  O  O23  1  0.043365  0.940295  0.395709  1
  O  O24  1  0.468780  0.153499  0.569471  1
  O  O25  1  0.986322  0.716566  0.270832  1
  O  O26  1  0.956635  0.059705  0.604291  1
  O  O27  1  0.544327  0.206970  0.772120  1
  O  O28  1  0.544327  0.793030  0.727880  1
  O  O29  1  0.043365  0.059705  0.104291  1
  O  O30  1  0.648047  0.506503  0.612416  1
  O  O31  1  0.351953  0.506503  0.112416  1
  O  O32  1  0.455673  0.793030  0.227880  1
  O  O33  1  0.351953  0.493497  0.387584  1
  O  O34  1  0.531220  0.846501  0.430529  1
  O  O35  1  0.956635  0.940295  0.895709  1
