# generated using pymatgen
data_B(S8Cl)3
_symmetry_space_group_name_H-M   'P 1'
_cell_length_a   5.27080619
_cell_length_b   15.05004305
_cell_length_c   15.05002120
_cell_angle_alpha   118.59001399
_cell_angle_beta   96.68135322
_cell_angle_gamma   96.68169127
_symmetry_Int_Tables_number   1
_chemical_formula_structural   B(S8Cl)3
_chemical_formula_sum   'B1 S24 Cl3'
_cell_volume   1020.70793868
_cell_formula_units_Z   1
loop_
 _symmetry_equiv_pos_site_id
 _symmetry_equiv_pos_as_xyz
  1  'x, y, z'
loop_
 _atom_site_type_symbol
 _atom_site_label
 _atom_site_symmetry_multiplicity
 _atom_site_fract_x
 _atom_site_fract_y
 _atom_site_fract_z
 _atom_site_occupancy
  B  B0  1  0.943197  0.000021  0.000020  1
  S  S1  1  0.343124  0.399720  0.000173  1
  S  S2  1  0.518945  0.718123  0.999723  1
  S  S3  1  0.255290  0.517397  0.130058  1
  S  S4  1  0.377729  0.740554  0.129649  1
  S  S5  1  0.528678  0.650058  0.182338  1
  S  S6  1  0.637824  0.389583  0.259636  1
  S  S7  1  0.801138  0.281892  0.281891  1
  S  S8  1  0.880176  0.532322  0.349851  1
  S  S9  1  0.126306  0.869920  0.387198  1
  S  S10  1  0.637829  0.259637  0.389582  1
  S  S11  1  0.343129  0.000173  0.399720  1
  S  S12  1  0.347433  0.817639  0.467770  1
  S  S13  1  0.739066  0.612820  0.482541  1
  S  S14  1  0.255292  0.130058  0.517396  1
  S  S15  1  0.880180  0.349855  0.532323  1
  S  S16  1  0.943448  0.600299  0.600297  1
  S  S17  1  0.248152  0.870076  0.610649  1
  S  S18  1  0.739063  0.482539  0.612818  1
  S  S19  1  0.528677  0.182340  0.650057  1
  S  S20  1  0.518949  0.999722  0.718121  1
  S  S21  1  0.377737  0.129649  0.740554  1
  S  S22  1  0.347436  0.467771  0.817638  1
  S  S23  1  0.248153  0.610649  0.870075  1
  S  S24  1  0.126308  0.387199  0.869919  1
  Cl  Cl25  1  0.982139  0.116593  0.999934  1
  Cl  Cl26  1  0.982143  0.999934  0.116593  1
  Cl  Cl27  1  0.867765  0.883480  0.883480  1
