# generated using pymatgen
data_Hf8Ta5Ti7Ge16
_symmetry_space_group_name_H-M   'P 1'
_cell_length_a   6.97268154
_cell_length_b   6.96291214
_cell_length_c   12.81029600
_cell_angle_alpha   90.02505642
_cell_angle_beta   90.06538412
_cell_angle_gamma   89.97873312
_symmetry_Int_Tables_number   1
_chemical_formula_structural   Hf8Ta5Ti7Ge16
_chemical_formula_sum   'Hf8 Ta5 Ti7 Ge16'
_cell_volume   621.94152823
_cell_formula_units_Z   1
loop_
 _symmetry_equiv_pos_site_id
 _symmetry_equiv_pos_as_xyz
  1  'x, y, z'
loop_
 _atom_site_type_symbol
 _atom_site_label
 _atom_site_symmetry_multiplicity
 _atom_site_fract_x
 _atom_site_fract_y
 _atom_site_fract_z
 _atom_site_occupancy
  Hf  Hf0  1  0.341774  0.997168  0.472814  1
  Hf  Hf1  1  0.499918  0.840693  0.723159  1
  Hf  Hf2  1  0.497407  0.159932  0.223462  1
  Hf  Hf3  1  0.840609  0.502820  0.277193  1
  Hf  Hf4  1  0.160994  0.497749  0.776930  1
  Hf  Hf5  1  0.658712  0.002240  0.973088  1
  Hf  Hf6  1  0.997017  0.340666  0.526693  1
  Hf  Hf7  1  0.003326  0.662626  0.026433  1
  Ta  Ta8  1  0.331054  0.330074  0.999707  1
  Ta  Ta9  1  0.167776  0.831551  0.250310  1
  Ta  Ta10  1  0.833545  0.167431  0.750253  1
  Ta  Ta11  1  0.668708  0.668457  0.499876  1
  Ta  Ta12  1  0.157085  0.003786  0.872924  1
  Ti  Ti13  1  0.495793  0.657434  0.123048  1
  Ti  Ti14  1  0.504398  0.342564  0.622602  1
  Ti  Ti15  1  0.657209  0.495338  0.876916  1
  Ti  Ti16  1  0.342584  0.504575  0.377377  1
  Ti  Ti17  1  0.842312  0.996062  0.372919  1
  Ti  Ti18  1  0.003633  0.156781  0.127167  1
  Ti  Ti19  1  0.995957  0.841690  0.627181  1
  Ge  Ge20  1  0.203181  0.132250  0.670051  1
  Ge  Ge21  1  0.370382  0.699435  0.923407  1
  Ge  Ge22  1  0.631709  0.297972  0.422012  1
  Ge  Ge23  1  0.701597  0.367882  0.078421  1
  Ge  Ge24  1  0.298442  0.631702  0.577419  1
  Ge  Ge25  1  0.797613  0.868090  0.172570  1
  Ge  Ge26  1  0.131685  0.202080  0.327776  1
  Ge  Ge27  1  0.862799  0.795329  0.826683  1
  Ge  Ge28  1  0.297880  0.962062  0.068909  1
  Ge  Ge29  1  0.537570  0.796330  0.316582  1
  Ge  Ge30  1  0.464932  0.205472  0.815450  1
  Ge  Ge31  1  0.797317  0.536711  0.682694  1
  Ge  Ge32  1  0.203174  0.462108  0.183493  1
  Ge  Ge33  1  0.704119  0.037382  0.566725  1
  Ge  Ge34  1  0.960039  0.301740  0.934306  1
  Ge  Ge35  1  0.037746  0.703813  0.433445  1
