# generated using pymatgen
data_V12Ga4NiPt3N4
_symmetry_space_group_name_H-M   'P 1'
_cell_length_a   6.61822276
_cell_length_b   6.61822283
_cell_length_c   6.61822172
_cell_angle_alpha   90.15618714
_cell_angle_beta   90.15618835
_cell_angle_gamma   90.15617884
_symmetry_Int_Tables_number   1
_chemical_formula_structural   V12Ga4NiPt3N4
_chemical_formula_sum   'V12 Ga4 Ni1 Pt3 N4'
_cell_volume   289.88065164
_cell_formula_units_Z   1
loop_
 _symmetry_equiv_pos_site_id
 _symmetry_equiv_pos_as_xyz
  1  'x, y, z'
loop_
 _atom_site_type_symbol
 _atom_site_label
 _atom_site_symmetry_multiplicity
 _atom_site_fract_x
 _atom_site_fract_y
 _atom_site_fract_z
 _atom_site_occupancy
  V  V0  1  0.787561  0.958875  0.379776  1
  V  V1  1  0.711838  0.038027  0.874301  1
  V  V2  1  0.212982  0.459171  0.121519  1
  V  V3  1  0.289294  0.541071  0.622288  1
  V  V4  1  0.958875  0.379776  0.787561  1
  V  V5  1  0.038027  0.874301  0.711838  1
  V  V6  1  0.459171  0.121519  0.212982  1
  V  V7  1  0.541071  0.622288  0.289294  1
  V  V8  1  0.379776  0.787561  0.958875  1
  V  V9  1  0.874301  0.711838  0.038027  1
  V  V10  1  0.121519  0.212982  0.459171  1
  V  V11  1  0.622288  0.289294  0.541071  1
  Ga  Ga12  1  0.573091  0.440841  0.920646  1
  Ga  Ga13  1  0.440841  0.920646  0.573091  1
  Ga  Ga14  1  0.920646  0.573091  0.440841  1
  Ga  Ga15  1  0.067961  0.067961  0.067961  1
  Ni  Ni16  1  0.678513  0.678513  0.678513  1
  Pt  Pt17  1  0.177913  0.820739  0.323129  1
  Pt  Pt18  1  0.323129  0.177913  0.820739  1
  Pt  Pt19  1  0.820739  0.323129  0.177913  1
  N  N20  1  0.874914  0.125622  0.625958  1
  N  N21  1  0.625958  0.874914  0.125622  1
  N  N22  1  0.125622  0.625958  0.874914  1
  N  N23  1  0.373968  0.373968  0.373968  1
