# generated using pymatgen
data_RbNpCl3O2
_symmetry_space_group_name_H-M   'P 1'
_cell_length_a   8.93508447
_cell_length_b   8.93508438
_cell_length_c   9.82886095
_cell_angle_alpha   59.96222654
_cell_angle_beta   59.96222849
_cell_angle_gamma   36.62039125
_symmetry_Int_Tables_number   1
_chemical_formula_structural   RbNpCl3O2
_chemical_formula_sum   'Rb2 Np2 Cl6 O4'
_cell_volume   397.72622974
_cell_formula_units_Z   2
loop_
 _symmetry_equiv_pos_site_id
 _symmetry_equiv_pos_as_xyz
  1  'x, y, z'
loop_
 _atom_site_type_symbol
 _atom_site_label
 _atom_site_symmetry_multiplicity
 _atom_site_fract_x
 _atom_site_fract_y
 _atom_site_fract_z
 _atom_site_occupancy
  Rb  Rb0  1  0.000000  0.500000  0.000000  1
  Rb  Rb1  1  0.500000  0.000000  0.500000  1
  Np  Np2  1  0.000000  0.000000  0.500000  1
  Np  Np3  1  0.000000  0.000000  0.000000  1
  Cl  Cl4  1  0.219499  0.780501  0.750000  1
  Cl  Cl5  1  0.780501  0.219499  0.250000  1
  Cl  Cl6  1  0.072584  0.619254  0.575437  1
  Cl  Cl7  1  0.380746  0.927416  0.924563  1
  Cl  Cl8  1  0.927416  0.380746  0.424563  1
  Cl  Cl9  1  0.619254  0.072584  0.075437  1
  O  O10  1  0.693256  0.166058  0.625261  1
  O  O11  1  0.833942  0.306744  0.874739  1
  O  O12  1  0.306744  0.833942  0.374739  1
  O  O13  1  0.166058  0.693256  0.125261  1
