# generated using pymatgen
data_Sm2Gd2Se3O4
_symmetry_space_group_name_H-M   'P 1'
_cell_length_a   6.67703044
_cell_length_b   6.67703185
_cell_length_c   8.38416300
_cell_angle_alpha   90.00000000
_cell_angle_beta   90.00000000
_cell_angle_gamma   145.60349957
_symmetry_Int_Tables_number   1
_chemical_formula_structural   Sm2Gd2Se3O4
_chemical_formula_sum   'Sm2 Gd2 Se3 O4'
_cell_volume   211.15961290
_cell_formula_units_Z   1
loop_
 _symmetry_equiv_pos_site_id
 _symmetry_equiv_pos_as_xyz
  1  'x, y, z'
loop_
 _atom_site_type_symbol
 _atom_site_label
 _atom_site_symmetry_multiplicity
 _atom_site_fract_x
 _atom_site_fract_y
 _atom_site_fract_z
 _atom_site_occupancy
  Sm  Sm0  1  0.317672  0.682328  0.239016  1
  Sm  Sm1  1  0.317672  0.682328  0.760984  1
  Gd  Gd2  1  0.996318  0.003682  0.000000  1
  Gd  Gd3  1  0.982995  0.017005  0.500000  1
  Se  Se4  1  0.644388  0.355612  0.348503  1
  Se  Se5  1  0.682022  0.317978  0.000000  1
  Se  Se6  1  0.644388  0.355612  0.651497  1
  O  O7  1  0.913763  0.086237  0.754796  1
  O  O8  1  0.410615  0.589385  0.000000  1
  O  O9  1  0.386589  0.613411  0.500000  1
  O  O10  1  0.913763  0.086237  0.245204  1
