# generated using pymatgen
data_Ca4SnGe4Rh9
_symmetry_space_group_name_H-M   'P 1'
_cell_length_a   12.14332767
_cell_length_b   12.14332749
_cell_length_c   12.14332811
_cell_angle_alpha   27.17502340
_cell_angle_beta   27.17502482
_cell_angle_gamma   27.17502901
_symmetry_Int_Tables_number   1
_chemical_formula_structural   Ca4SnGe4Rh9
_chemical_formula_sum   'Ca4 Sn1 Ge4 Rh9'
_cell_volume   329.52127166
_cell_formula_units_Z   1
loop_
 _symmetry_equiv_pos_site_id
 _symmetry_equiv_pos_as_xyz
  1  'x, y, z'
loop_
 _atom_site_type_symbol
 _atom_site_label
 _atom_site_symmetry_multiplicity
 _atom_site_fract_x
 _atom_site_fract_y
 _atom_site_fract_z
 _atom_site_occupancy
  Ca  Ca0  1  0.949994  0.949994  0.949994  1
  Ca  Ca1  1  0.853501  0.853501  0.853501  1
  Ca  Ca2  1  0.146499  0.146499  0.146499  1
  Ca  Ca3  1  0.050006  0.050006  0.050006  1
  Sn  Sn4  1  0.500000  0.500000  0.500000  1
  Ge  Ge5  1  0.279622  0.279622  0.279622  1
  Ge  Ge6  1  0.387581  0.387581  0.387581  1
  Ge  Ge7  1  0.720378  0.720378  0.720378  1
  Ge  Ge8  1  0.612419  0.612419  0.612419  1
  Rh  Rh9  1  0.608014  0.608014  0.101997  1
  Rh  Rh10  1  0.898003  0.391986  0.391986  1
  Rh  Rh11  1  0.500000  0.000000  0.500000  1
  Rh  Rh12  1  0.391986  0.898003  0.391986  1
  Rh  Rh13  1  0.500000  0.500000  0.000000  1
  Rh  Rh14  1  0.101997  0.608014  0.608014  1
  Rh  Rh15  1  0.000000  0.500000  0.500000  1
  Rh  Rh16  1  0.391986  0.391986  0.898003  1
  Rh  Rh17  1  0.608014  0.101997  0.608014  1
