# generated using pymatgen
data_Li3Sm2LuPb3
_symmetry_space_group_name_H-M   'P 1'
_cell_length_a   7.38211333
_cell_length_b   7.38211225
_cell_length_c   4.72480300
_cell_angle_alpha   90.00000000
_cell_angle_beta   90.00000000
_cell_angle_gamma   118.86779317
_symmetry_Int_Tables_number   1
_chemical_formula_structural   Li3Sm2LuPb3
_chemical_formula_sum   'Li3 Sm2 Lu1 Pb3'
_cell_volume   225.48532652
_cell_formula_units_Z   1
loop_
 _symmetry_equiv_pos_site_id
 _symmetry_equiv_pos_as_xyz
  1  'x, y, z'
loop_
 _atom_site_type_symbol
 _atom_site_label
 _atom_site_symmetry_multiplicity
 _atom_site_fract_x
 _atom_site_fract_y
 _atom_site_fract_z
 _atom_site_occupancy
  Li  Li0  1  0.769665  0.999231  0.000000  1
  Li  Li1  1  0.230202  0.230203  0.000000  1
  Li  Li2  1  0.999231  0.769665  0.000000  1
  Sm  Sm3  1  0.442442  0.000900  0.499999  1
  Sm  Sm4  1  0.000900  0.442442  0.499999  1
  Lu  Lu5  1  0.561671  0.561671  0.499999  1
  Pb  Pb6  1  0.664768  0.337716  0.000000  1
  Pb  Pb7  1  0.337716  0.664768  0.000000  1
  Pb  Pb8  1  0.993404  0.993404  0.499999  1
