# generated using pymatgen
data_Li3Nd3HgP2
_symmetry_space_group_name_H-M   'P 1'
_cell_length_a   7.25704500
_cell_length_b   7.25704497
_cell_length_c   4.24915200
_cell_angle_alpha   90.00000000
_cell_angle_beta   90.00000000
_cell_angle_gamma   120.00000471
_symmetry_Int_Tables_number   1
_chemical_formula_structural   Li3Nd3HgP2
_chemical_formula_sum   'Li3 Nd3 Hg1 P2'
_cell_volume   193.79943573
_cell_formula_units_Z   1
loop_
 _symmetry_equiv_pos_site_id
 _symmetry_equiv_pos_as_xyz
  1  'x, y, z'
loop_
 _atom_site_type_symbol
 _atom_site_label
 _atom_site_symmetry_multiplicity
 _atom_site_fract_x
 _atom_site_fract_y
 _atom_site_fract_z
 _atom_site_occupancy
  Li  Li0  1  0.253722  0.000000  0.500000  1
  Li  Li1  1  0.746278  0.746278  0.500000  1
  Li  Li2  1  0.000000  0.253722  0.500000  1
  Nd  Nd3  1  0.000000  0.567099  0.000000  1
  Nd  Nd4  1  0.567099  0.000000  0.000000  1
  Nd  Nd5  1  0.432901  0.432901  0.000000  1
  Hg  Hg6  1  0.000000  0.000000  0.000000  1
  P  P7  1  0.333333  0.666667  0.500000  1
  P  P8  1  0.666667  0.333333  0.500000  1
