# generated using pymatgen
data_Nd6GaSi5Rh12
_symmetry_space_group_name_H-M   'P 1'
_cell_length_a   5.67645600
_cell_length_b   5.67645405
_cell_length_c   15.28751800
_cell_angle_alpha   90.00000000
_cell_angle_beta   90.00000000
_cell_angle_gamma   119.99998807
_symmetry_Int_Tables_number   1
_chemical_formula_structural   Nd6GaSi5Rh12
_chemical_formula_sum   'Nd6 Ga1 Si5 Rh12'
_cell_volume   426.60119500
_cell_formula_units_Z   1
loop_
 _symmetry_equiv_pos_site_id
 _symmetry_equiv_pos_as_xyz
  1  'x, y, z'
loop_
 _atom_site_type_symbol
 _atom_site_label
 _atom_site_symmetry_multiplicity
 _atom_site_fract_x
 _atom_site_fract_y
 _atom_site_fract_z
 _atom_site_occupancy
  Nd  Nd0  1  0.666667  0.333333  0.962346  1
  Nd  Nd1  1  0.666667  0.333333  0.537263  1
  Nd  Nd2  1  0.333333  0.666667  0.037654  1
  Nd  Nd3  1  0.666667  0.333333  0.750312  1
  Nd  Nd4  1  0.333333  0.666667  0.462737  1
  Nd  Nd5  1  0.333333  0.666667  0.249688  1
  Ga  Ga6  1  0.000000  0.000000  0.500000  1
  Si  Si7  1  0.666667  0.333333  0.247835  1
  Si  Si8  1  0.000000  0.000000  0.248574  1
  Si  Si9  1  0.000000  0.000000  0.751426  1
  Si  Si10  1  0.333333  0.666667  0.752165  1
  Si  Si11  1  0.000000  0.000000  0.000000  1
  Rh  Rh12  1  0.165629  0.331257  0.867647  1
  Rh  Rh13  1  0.166839  0.333679  0.636845  1
  Rh  Rh14  1  0.668743  0.834371  0.867647  1
  Rh  Rh15  1  0.333679  0.166839  0.363155  1
  Rh  Rh16  1  0.833161  0.666321  0.363155  1
  Rh  Rh17  1  0.833161  0.166839  0.363155  1
  Rh  Rh18  1  0.834371  0.165629  0.132353  1
  Rh  Rh19  1  0.331257  0.165629  0.132353  1
  Rh  Rh20  1  0.666321  0.833161  0.636845  1
  Rh  Rh21  1  0.166839  0.833161  0.636845  1
  Rh  Rh22  1  0.834371  0.668743  0.132353  1
  Rh  Rh23  1  0.165629  0.834371  0.867647  1
