# generated using pymatgen
data_Ce2DyY(Al3Ir)6
_symmetry_space_group_name_H-M   'P 1'
_cell_length_a   7.61335001
_cell_length_b   7.61014697
_cell_length_c   9.48784900
_cell_angle_alpha   90.00000000
_cell_angle_beta   90.00000000
_cell_angle_gamma   119.59729745
_symmetry_Int_Tables_number   1
_chemical_formula_structural   Ce2DyY(Al3Ir)6
_chemical_formula_sum   'Ce2 Dy1 Y1 Al18 Ir6'
_cell_volume   477.98612999
_cell_formula_units_Z   1
loop_
 _symmetry_equiv_pos_site_id
 _symmetry_equiv_pos_as_xyz
  1  'x, y, z'
loop_
 _atom_site_type_symbol
 _atom_site_label
 _atom_site_symmetry_multiplicity
 _atom_site_fract_x
 _atom_site_fract_y
 _atom_site_fract_z
 _atom_site_occupancy
  Ce  Ce0  1  0.995800  0.670053  0.250000  1
  Ce  Ce1  1  0.004203  0.329901  0.750000  1
  Dy  Dy2  1  0.671202  0.995625  0.250000  1
  Y  Y3  1  0.328843  0.004373  0.750000  1
  Al  Al4  1  0.128872  0.128205  0.250000  1
  Al  Al5  1  0.870971  0.871605  0.750000  1
  Al  Al6  1  0.001053  0.333288  0.075900  1
  Al  Al7  1  0.998858  0.666798  0.924400  1
  Al  Al8  1  0.998858  0.666798  0.575600  1
  Al  Al9  1  0.336676  0.002090  0.425568  1
  Al  Al10  1  0.001053  0.333288  0.424100  1
  Al  Al11  1  0.663262  0.997757  0.574155  1
  Al  Al12  1  0.663262  0.997757  0.925845  1
  Al  Al13  1  0.336676  0.002090  0.074432  1
  Al  Al14  1  0.334813  0.333309  0.551812  1
  Al  Al15  1  0.665323  0.666778  0.447998  1
  Al  Al16  1  0.665323  0.666778  0.052002  1
  Al  Al17  1  0.334813  0.333309  0.948188  1
  Al  Al18  1  0.340981  0.548716  0.250000  1
  Al  Al19  1  0.659018  0.451459  0.750000  1
  Al  Al20  1  0.546985  0.339000  0.250000  1
  Al  Al21  1  0.453240  0.661072  0.750000  1
  Ir  Ir22  1  0.672435  0.328774  0.000062  1
  Ir  Ir23  1  0.327643  0.671262  0.000158  1
  Ir  Ir24  1  0.327643  0.671262  0.499842  1
  Ir  Ir25  1  0.672435  0.328774  0.499938  1
  Ir  Ir26  1  0.999878  0.999940  0.000129  1
  Ir  Ir27  1  0.999878  0.999940  0.499871  1
