# generated using pymatgen
data_Yb3GaCo4Si3
_symmetry_space_group_name_H-M   'P 1'
_cell_length_a   6.36630835
_cell_length_b   6.13160633
_cell_length_c   6.13160721
_cell_angle_alpha   108.68288741
_cell_angle_beta   110.24849881
_cell_angle_gamma   110.24849683
_symmetry_Int_Tables_number   1
_chemical_formula_structural   Yb3GaCo4Si3
_chemical_formula_sum   'Yb3 Ga1 Co4 Si3'
_cell_volume   182.45598329
_cell_formula_units_Z   1
loop_
 _symmetry_equiv_pos_site_id
 _symmetry_equiv_pos_as_xyz
  1  'x, y, z'
loop_
 _atom_site_type_symbol
 _atom_site_label
 _atom_site_symmetry_multiplicity
 _atom_site_fract_x
 _atom_site_fract_y
 _atom_site_fract_z
 _atom_site_occupancy
  Yb  Yb0  1  0.501526  0.499598  0.000000  1
  Yb  Yb1  1  0.501526  0.000000  0.499598  1
  Yb  Yb2  1  0.001929  0.500402  0.500402  1
  Ga  Ga3  1  0.615678  0.000000  0.000000  1
  Co  Co4  1  0.246011  0.000000  0.000000  1
  Co  Co5  1  0.010722  0.262093  0.000000  1
  Co  Co6  1  0.010722  0.000000  0.262093  1
  Co  Co7  1  0.748629  0.737907  0.737907  1
  Si  Si8  1  0.993905  0.618457  0.000000  1
  Si  Si9  1  0.375448  0.381544  0.381544  1
  Si  Si10  1  0.993905  0.000000  0.618457  1
