# generated using pymatgen
data_DyYTa2(Co4P3)2
_symmetry_space_group_name_H-M   'P 1'
_cell_length_a   3.69245200
_cell_length_b   10.54171700
_cell_length_c   12.00661600
_cell_angle_alpha   90.00000000
_cell_angle_beta   90.00000000
_cell_angle_gamma   90.00000000
_symmetry_Int_Tables_number   1
_chemical_formula_structural   DyYTa2(Co4P3)2
_chemical_formula_sum   'Dy2 Y2 Ta4 Co16 P12'
_cell_volume   467.35493461
_cell_formula_units_Z   2
loop_
 _symmetry_equiv_pos_site_id
 _symmetry_equiv_pos_as_xyz
  1  'x, y, z'
loop_
 _atom_site_type_symbol
 _atom_site_label
 _atom_site_symmetry_multiplicity
 _atom_site_fract_x
 _atom_site_fract_y
 _atom_site_fract_z
 _atom_site_occupancy
  Dy  Dy0  1  0.750000  0.417586  0.294740  1
  Dy  Dy1  1  0.750000  0.082414  0.794740  1
  Y  Y2  1  0.250000  0.582672  0.705238  1
  Y  Y3  1  0.250000  0.917328  0.205238  1
  Ta  Ta4  1  0.250000  0.706454  0.989186  1
  Ta  Ta5  1  0.250000  0.793546  0.489186  1
  Ta  Ta6  1  0.750000  0.293642  0.010806  1
  Ta  Ta7  1  0.750000  0.206358  0.510806  1
  Co  Co8  1  0.250000  0.406226  0.489751  1
  Co  Co9  1  0.250000  0.093774  0.989751  1
  Co  Co10  1  0.750000  0.593514  0.509748  1
  Co  Co11  1  0.750000  0.906486  0.009748  1
  Co  Co12  1  0.250000  0.222824  0.176848  1
  Co  Co13  1  0.250000  0.277176  0.676848  1
  Co  Co14  1  0.750000  0.777313  0.823164  1
  Co  Co15  1  0.750000  0.722687  0.323164  1
  Co  Co16  1  0.250000  0.888442  0.701235  1
  Co  Co17  1  0.250000  0.611558  0.201235  1
  Co  Co18  1  0.750000  0.111979  0.298951  1
  Co  Co19  1  0.750000  0.388021  0.798951  1
  Co  Co20  1  0.250000  0.465158  0.933262  1
  Co  Co21  1  0.250000  0.034842  0.433262  1
  Co  Co22  1  0.750000  0.534723  0.066955  1
  Co  Co23  1  0.750000  0.965277  0.566955  1
  P  P24  1  0.250000  0.422196  0.116467  1
  P  P25  1  0.250000  0.077804  0.616467  1
  P  P26  1  0.750000  0.577655  0.883777  1
  P  P27  1  0.750000  0.922345  0.383777  1
  P  P28  1  0.250000  0.269366  0.861428  1
  P  P29  1  0.250000  0.230634  0.361428  1
  P  P30  1  0.750000  0.730300  0.138543  1
  P  P31  1  0.750000  0.769700  0.638543  1
  P  P32  1  0.250000  0.591446  0.390035  1
  P  P33  1  0.250000  0.908554  0.890035  1
  P  P34  1  0.750000  0.408379  0.609867  1
  P  P35  1  0.750000  0.091621  0.109867  1
