# generated using pymatgen
data_Ho2Er3Mn2O12
_symmetry_space_group_name_H-M   'P 1'
_cell_length_a   6.76808154
_cell_length_b   6.76808169
_cell_length_c   7.18035507
_cell_angle_alpha   74.55920528
_cell_angle_beta   74.55920343
_cell_angle_gamma   50.13293480
_symmetry_Int_Tables_number   1
_chemical_formula_structural   Ho2Er3Mn2O12
_chemical_formula_sum   'Ho2 Er3 Mn2 O12'
_cell_volume   241.29843227
_cell_formula_units_Z   1
loop_
 _symmetry_equiv_pos_site_id
 _symmetry_equiv_pos_as_xyz
  1  'x, y, z'
loop_
 _atom_site_type_symbol
 _atom_site_label
 _atom_site_symmetry_multiplicity
 _atom_site_fract_x
 _atom_site_fract_y
 _atom_site_fract_z
 _atom_site_occupancy
  Ho  Ho0  1  0.304614  0.304614  0.356919  1
  Ho  Ho1  1  0.999981  0.999981  0.500023  1
  Er  Er2  1  0.695323  0.695323  0.643296  1
  Er  Er3  1  0.307600  0.307600  0.835455  1
  Er  Er4  1  0.692413  0.692413  0.164575  1
  Mn  Mn5  1  0.754266  0.245789  0.999944  1
  Mn  Mn6  1  0.245789  0.754266  0.999944  1
  O  O7  1  0.901937  0.423330  0.917682  1
  O  O8  1  0.423330  0.901937  0.917682  1
  O  O9  1  0.097779  0.577066  0.081812  1
  O  O10  1  0.577066  0.097779  0.081812  1
  O  O11  1  0.096849  0.597928  0.574847  1
  O  O12  1  0.597928  0.096849  0.574847  1
  O  O13  1  0.902021  0.402795  0.425740  1
  O  O14  1  0.402795  0.902021  0.425740  1
  O  O15  1  0.999744  0.999744  0.820450  1
  O  O16  1  0.000279  0.000279  0.179554  1
  O  O17  1  0.499984  0.499984  0.817644  1
  O  O18  1  0.500302  0.500302  0.182034  1
