# generated using pymatgen
data_Er6Ga2Tc
_symmetry_space_group_name_H-M   'P 1'
_cell_length_a   8.42107393
_cell_length_b   8.42107486
_cell_length_c   8.42107485
_cell_angle_alpha   113.05714876
_cell_angle_beta   112.10853477
_cell_angle_gamma   103.41418436
_symmetry_Int_Tables_number   1
_chemical_formula_structural   Er6Ga2Tc
_chemical_formula_sum   'Er12 Ga4 Tc2'
_cell_volume   455.87377370
_cell_formula_units_Z   2
loop_
 _symmetry_equiv_pos_site_id
 _symmetry_equiv_pos_as_xyz
  1  'x, y, z'
loop_
 _atom_site_type_symbol
 _atom_site_label
 _atom_site_symmetry_multiplicity
 _atom_site_fract_x
 _atom_site_fract_y
 _atom_site_fract_z
 _atom_site_occupancy
  Er  Er0  1  0.048860  0.741594  0.307266  1
  Er  Er1  1  0.951140  0.258406  0.692734  1
  Er  Er2  1  0.565673  0.258406  0.307266  1
  Er  Er3  1  0.434327  0.741594  0.692734  1
  Er  Er4  1  0.661359  0.848906  0.187545  1
  Er  Er5  1  0.338641  0.526186  0.187545  1
  Er  Er6  1  0.338641  0.151094  0.812455  1
  Er  Er7  1  0.661359  0.473814  0.812455  1
  Er  Er8  1  0.185324  0.227487  0.412812  1
  Er  Er9  1  0.814676  0.227487  0.042162  1
  Er  Er10  1  0.185324  0.772513  0.957838  1
  Er  Er11  1  0.814676  0.772513  0.587188  1
  Ga  Ga12  1  0.000000  0.500000  0.500000  1
  Ga  Ga13  1  0.500000  0.000000  0.500000  1
  Ga  Ga14  1  0.880808  0.880808  0.000000  1
  Ga  Ga15  1  0.119192  0.119192  0.000000  1
  Tc  Tc16  1  0.679473  0.500000  0.179473  1
  Tc  Tc17  1  0.320527  0.500000  0.820527  1
