# generated using pymatgen
data_Nd4Sm2NiBr10
_symmetry_space_group_name_H-M   'P 1'
_cell_length_a   7.55214664
_cell_length_b   9.51516428
_cell_length_c   9.54988936
_cell_angle_alpha   108.32853939
_cell_angle_beta   96.42171644
_cell_angle_gamma   105.49309289
_symmetry_Int_Tables_number   1
_chemical_formula_structural   Nd4Sm2NiBr10
_chemical_formula_sum   'Nd4 Sm2 Ni1 Br10'
_cell_volume   613.21248003
_cell_formula_units_Z   1
loop_
 _symmetry_equiv_pos_site_id
 _symmetry_equiv_pos_as_xyz
  1  'x, y, z'
loop_
 _atom_site_type_symbol
 _atom_site_label
 _atom_site_symmetry_multiplicity
 _atom_site_fract_x
 _atom_site_fract_y
 _atom_site_fract_z
 _atom_site_occupancy
  Nd  Nd0  1  0.031060  0.703895  0.405308  1
  Nd  Nd1  1  0.968940  0.296105  0.594692  1
  Nd  Nd2  1  0.872172  0.952439  0.744392  1
  Nd  Nd3  1  0.127828  0.047561  0.255608  1
  Sm  Sm4  1  0.354053  0.130215  0.674808  1
  Sm  Sm5  1  0.645947  0.869785  0.325192  1
  Ni  Ni6  1  0.000000  0.000000  0.500000  1
  Br  Br7  1  0.451889  0.825715  0.581554  1
  Br  Br8  1  0.548111  0.174285  0.418446  1
  Br  Br9  1  0.914609  0.633469  0.671373  1
  Br  Br10  1  0.085391  0.366531  0.328627  1
  Br  Br11  1  0.250079  0.082808  0.949680  1
  Br  Br12  1  0.749921  0.917192  0.050320  1
  Br  Br13  1  0.354214  0.446489  0.768378  1
  Br  Br14  1  0.645786  0.553511  0.231622  1
  Br  Br15  1  0.776687  0.250514  0.842579  1
  Br  Br16  1  0.223313  0.749486  0.157421  1
