# generated using pymatgen
data_ThZn2(Ga2Pd)3
_symmetry_space_group_name_H-M   'P 1'
_cell_length_a   8.52172416
_cell_length_b   8.52172387
_cell_length_c   8.52172363
_cell_angle_alpha   90.03642555
_cell_angle_beta   90.03643082
_cell_angle_gamma   90.03643749
_symmetry_Int_Tables_number   1
_chemical_formula_structural   ThZn2(Ga2Pd)3
_chemical_formula_sum   'Th3 Zn6 Ga18 Pd9'
_cell_volume   618.84532123
_cell_formula_units_Z   3
loop_
 _symmetry_equiv_pos_site_id
 _symmetry_equiv_pos_as_xyz
  1  'x, y, z'
loop_
 _atom_site_type_symbol
 _atom_site_label
 _atom_site_symmetry_multiplicity
 _atom_site_fract_x
 _atom_site_fract_y
 _atom_site_fract_z
 _atom_site_occupancy
  Th  Th0  1  0.000000  0.500000  0.000000  1
  Th  Th1  1  0.500000  0.000000  0.000000  1
  Th  Th2  1  0.000000  0.000000  0.500000  1
  Zn  Zn3  1  0.735250  0.500000  0.264750  1
  Zn  Zn4  1  0.264750  0.500000  0.735250  1
  Zn  Zn5  1  0.500000  0.264750  0.735250  1
  Zn  Zn6  1  0.500000  0.735250  0.264750  1
  Zn  Zn7  1  0.264750  0.735250  0.500000  1
  Zn  Zn8  1  0.735250  0.264750  0.500000  1
  Ga  Ga9  1  0.993475  0.640951  0.640951  1
  Ga  Ga10  1  0.640951  0.640951  0.993475  1
  Ga  Ga11  1  0.640951  0.993475  0.640951  1
  Ga  Ga12  1  0.006525  0.359049  0.359049  1
  Ga  Ga13  1  0.359049  0.359049  0.006525  1
  Ga  Ga14  1  0.359049  0.006525  0.359049  1
  Ga  Ga15  1  0.837370  0.140418  0.837370  1
  Ga  Ga16  1  0.140418  0.837370  0.837370  1
  Ga  Ga17  1  0.837370  0.837370  0.140418  1
  Ga  Ga18  1  0.162630  0.859582  0.162630  1
  Ga  Ga19  1  0.859582  0.162630  0.162630  1
  Ga  Ga20  1  0.162630  0.162630  0.859582  1
  Ga  Ga21  1  0.728660  0.486076  0.728660  1
  Ga  Ga22  1  0.486076  0.728660  0.728660  1
  Ga  Ga23  1  0.728660  0.728660  0.486076  1
  Ga  Ga24  1  0.271340  0.513924  0.271340  1
  Ga  Ga25  1  0.513924  0.271340  0.271340  1
  Ga  Ga26  1  0.271340  0.271340  0.513924  1
  Pd  Pd27  1  0.833670  0.833670  0.833670  1
  Pd  Pd28  1  0.166330  0.166330  0.166330  1
  Pd  Pd29  1  0.665468  0.334532  0.000000  1
  Pd  Pd30  1  0.000000  0.334532  0.665468  1
  Pd  Pd31  1  0.334532  0.000000  0.665468  1
  Pd  Pd32  1  0.334532  0.665468  0.000000  1
  Pd  Pd33  1  0.000000  0.665468  0.334532  1
  Pd  Pd34  1  0.665468  0.000000  0.334532  1
  Pd  Pd35  1  0.500000  0.500000  0.500000  1
