# generated using pymatgen
data_Ca5La3(TbIr2)2
_symmetry_space_group_name_H-M   'P 1'
_cell_length_a   6.64287134
_cell_length_b   7.47958511
_cell_length_c   8.90488417
_cell_angle_alpha   96.24514471
_cell_angle_beta   112.16436874
_cell_angle_gamma   90.79344916
_symmetry_Int_Tables_number   1
_chemical_formula_structural   Ca5La3(TbIr2)2
_chemical_formula_sum   'Ca5 La3 Tb2 Ir4'
_cell_volume   406.59664983
_cell_formula_units_Z   1
loop_
 _symmetry_equiv_pos_site_id
 _symmetry_equiv_pos_as_xyz
  1  'x, y, z'
loop_
 _atom_site_type_symbol
 _atom_site_label
 _atom_site_symmetry_multiplicity
 _atom_site_fract_x
 _atom_site_fract_y
 _atom_site_fract_z
 _atom_site_occupancy
  Ca  Ca0  1  0.204781  0.421612  0.185429  1
  Ca  Ca1  1  0.635603  0.818604  0.426805  1
  Ca  Ca2  1  0.205334  0.680460  0.570801  1
  Ca  Ca3  1  0.365313  0.182098  0.571953  1
  Ca  Ca4  1  0.791448  0.318471  0.426140  1
  La  La5  1  0.987207  0.914396  0.186673  1
  La  La6  1  0.802591  0.584667  0.821653  1
  La  La7  1  0.016937  0.087809  0.820982  1
  Tb  Tb8  1  0.429822  0.749529  0.999287  1
  Tb  Tb9  1  0.567354  0.250147  0.002305  1
  Ir  Ir10  1  0.807225  0.582673  0.195272  1
  Ir  Ir11  1  0.621857  0.921843  0.805334  1
  Ir  Ir12  1  0.183657  0.419444  0.793249  1
  Ir  Ir13  1  0.380870  0.068248  0.194117  1
