# generated using pymatgen
data_FeNi(PO3)4
_symmetry_space_group_name_H-M   'P 1'
_cell_length_a   7.31254675
_cell_length_b   7.31254721
_cell_length_c   9.98670118
_cell_angle_alpha   67.53164522
_cell_angle_beta   67.53164063
_cell_angle_gamma   70.54499706
_symmetry_Int_Tables_number   1
_chemical_formula_structural   FeNi(PO3)4
_chemical_formula_sum   'Fe2 Ni2 P8 O24'
_cell_volume   444.95532597
_cell_formula_units_Z   2
loop_
 _symmetry_equiv_pos_site_id
 _symmetry_equiv_pos_as_xyz
  1  'x, y, z'
loop_
 _atom_site_type_symbol
 _atom_site_label
 _atom_site_symmetry_multiplicity
 _atom_site_fract_x
 _atom_site_fract_y
 _atom_site_fract_z
 _atom_site_occupancy
  Fe  Fe0  1  0.448461  0.551539  0.250000  1
  Fe  Fe1  1  0.551539  0.448461  0.750000  1
  Ni  Ni2  1  0.500000  0.000000  0.000000  1
  Ni  Ni3  1  0.000000  0.500000  0.500000  1
  P  P4  1  0.226116  0.758063  0.975853  1
  P  P5  1  0.241937  0.773884  0.524147  1
  P  P6  1  0.773884  0.241937  0.024147  1
  P  P7  1  0.758063  0.226116  0.475853  1
  P  P8  1  0.813622  0.798334  0.195765  1
  P  P9  1  0.201666  0.186378  0.304235  1
  P  P10  1  0.186378  0.201666  0.804235  1
  P  P11  1  0.798334  0.813622  0.695765  1
  O  O12  1  0.657897  0.407611  0.094120  1
  O  O13  1  0.592389  0.342103  0.405880  1
  O  O14  1  0.342103  0.592389  0.905880  1
  O  O15  1  0.407611  0.657897  0.594120  1
  O  O16  1  0.308106  0.796305  0.080061  1
  O  O17  1  0.203695  0.691894  0.419939  1
  O  O18  1  0.691894  0.203695  0.919939  1
  O  O19  1  0.796305  0.308106  0.580061  1
  O  O20  1  0.624419  0.789523  0.171186  1
  O  O21  1  0.210477  0.375581  0.328814  1
  O  O22  1  0.375581  0.210477  0.828814  1
  O  O23  1  0.789523  0.624419  0.671186  1
  O  O24  1  0.033001  0.816888  0.654935  1
  O  O25  1  0.183112  0.966999  0.845065  1
  O  O26  1  0.966999  0.183112  0.345065  1
  O  O27  1  0.816888  0.033001  0.154935  1
  O  O28  1  0.718618  0.001454  0.565072  1
  O  O29  1  0.998546  0.281382  0.934928  1
  O  O30  1  0.281382  0.998546  0.434928  1
  O  O31  1  0.001454  0.718618  0.065072  1
  O  O32  1  0.690619  0.844200  0.847254  1
  O  O33  1  0.155800  0.309381  0.652746  1
  O  O34  1  0.309381  0.155800  0.152746  1
  O  O35  1  0.844200  0.690619  0.347254  1
