# generated using pymatgen
data_CaB2RuRh
_symmetry_space_group_name_H-M   'P 1'
_cell_length_a   6.87863604
_cell_length_b   5.97931603
_cell_length_c   5.57465431
_cell_angle_alpha   72.97994128
_cell_angle_beta   56.22091308
_cell_angle_gamma   50.79916053
_symmetry_Int_Tables_number   1
_chemical_formula_structural   CaB2RuRh
_chemical_formula_sum   'Ca2 B4 Ru2 Rh2'
_cell_volume   147.07030635
_cell_formula_units_Z   2
loop_
 _symmetry_equiv_pos_site_id
 _symmetry_equiv_pos_as_xyz
  1  'x, y, z'
loop_
 _atom_site_type_symbol
 _atom_site_label
 _atom_site_symmetry_multiplicity
 _atom_site_fract_x
 _atom_site_fract_y
 _atom_site_fract_z
 _atom_site_occupancy
  Ca  Ca0  1  0.500863  0.500863  0.499137  1
  Ca  Ca1  1  0.750863  0.750863  0.749137  1
  B  B2  1  0.817142  0.184726  0.824823  1
  B  B3  1  0.076691  0.425177  0.065274  1
  B  B4  1  0.184726  0.817142  0.173309  1
  B  B5  1  0.425177  0.076691  0.432858  1
  Ru  Ru6  1  0.132601  0.132601  0.867399  1
  Ru  Ru7  1  0.382601  0.382601  0.117399  1
  Rh  Rh8  1  0.114668  0.114668  0.385332  1
  Rh  Rh9  1  0.864668  0.864668  0.135332  1
