# generated using pymatgen
data_Hf6Fe16Si6P
_symmetry_space_group_name_H-M   'P 1'
_cell_length_a   8.02759169
_cell_length_b   8.02759155
_cell_length_c   8.04863700
_cell_angle_alpha   59.91324303
_cell_angle_beta   59.91324360
_cell_angle_gamma   60.19426092
_symmetry_Int_Tables_number   1
_chemical_formula_structural   Hf6Fe16Si6P
_chemical_formula_sum   'Hf6 Fe16 Si6 P1'
_cell_volume   366.80816705
_cell_formula_units_Z   1
loop_
 _symmetry_equiv_pos_site_id
 _symmetry_equiv_pos_as_xyz
  1  'x, y, z'
loop_
 _atom_site_type_symbol
 _atom_site_label
 _atom_site_symmetry_multiplicity
 _atom_site_fract_x
 _atom_site_fract_y
 _atom_site_fract_z
 _atom_site_occupancy
  Hf  Hf0  1  0.205344  0.794656  0.795188  1
  Hf  Hf1  1  0.795269  0.795269  0.204731  1
  Hf  Hf2  1  0.794656  0.205344  0.204812  1
  Hf  Hf3  1  0.204731  0.204731  0.795269  1
  Hf  Hf4  1  0.794656  0.205344  0.795188  1
  Hf  Hf5  1  0.205344  0.794656  0.204812  1
  Fe  Fe6  1  0.621491  0.621491  0.136337  1
  Fe  Fe7  1  0.175061  0.473099  0.175920  1
  Fe  Fe8  1  0.862063  0.378813  0.379561  1
  Fe  Fe9  1  0.526901  0.824939  0.824080  1
  Fe  Fe10  1  0.473099  0.175061  0.175920  1
  Fe  Fe11  1  0.827374  0.827374  0.524460  1
  Fe  Fe12  1  0.172626  0.172626  0.475540  1
  Fe  Fe13  1  0.137937  0.621187  0.620439  1
  Fe  Fe14  1  0.172626  0.172626  0.179210  1
  Fe  Fe15  1  0.378509  0.378509  0.863663  1
  Fe  Fe16  1  0.621491  0.621491  0.620681  1
  Fe  Fe17  1  0.378813  0.862063  0.379561  1
  Fe  Fe18  1  0.378509  0.378509  0.379319  1
  Fe  Fe19  1  0.827374  0.827374  0.820790  1
  Fe  Fe20  1  0.621187  0.137937  0.620439  1
  Fe  Fe21  1  0.824939  0.526901  0.824080  1
  Si  Si22  1  0.500000  0.000000  0.500000  1
  Si  Si23  1  0.500000  0.500000  0.000000  1
  Si  Si24  1  0.500000  0.500000  0.500000  1
  Si  Si25  1  0.000000  0.500000  0.000000  1
  Si  Si26  1  0.000000  0.500000  0.500000  1
  Si  Si27  1  0.500000  0.000000  0.000000  1
  P  P28  1  0.000000  0.000000  0.500000  1
