# generated using pymatgen
data_Ho13Lu7(SiBi2)4
_symmetry_space_group_name_H-M   'P 1'
_cell_length_a   7.98377900
_cell_length_b   9.05581537
_cell_length_c   12.02649633
_cell_angle_alpha   90.02209702
_cell_angle_beta   90.04891428
_cell_angle_gamma   89.99864244
_symmetry_Int_Tables_number   1
_chemical_formula_structural   Ho13Lu7(SiBi2)4
_chemical_formula_sum   'Ho13 Lu7 Si4 Bi8'
_cell_volume   869.51083677
_cell_formula_units_Z   1
loop_
 _symmetry_equiv_pos_site_id
 _symmetry_equiv_pos_as_xyz
  1  'x, y, z'
loop_
 _atom_site_type_symbol
 _atom_site_label
 _atom_site_symmetry_multiplicity
 _atom_site_fract_x
 _atom_site_fract_y
 _atom_site_fract_z
 _atom_site_occupancy
  Ho  Ho0  1  0.342822  0.750075  0.711075  1
  Ho  Ho1  1  0.657574  0.249918  0.288679  1
  Ho  Ho2  1  0.842428  0.250534  0.788365  1
  Ho  Ho3  1  0.157734  0.750137  0.211598  1
  Ho  Ho4  1  0.864956  0.750217  0.794593  1
  Ho  Ho5  1  0.134395  0.250437  0.205760  1
  Ho  Ho6  1  0.365175  0.250548  0.705016  1
  Ho  Ho7  1  0.634759  0.750517  0.294403  1
  Ho  Ho8  1  0.180993  0.051877  0.936263  1
  Ho  Ho9  1  0.041220  0.749955  0.499893  1
  Ho  Ho10  1  0.959029  0.250473  0.500106  1
  Ho  Ho11  1  0.541962  0.250251  0.000059  1
  Ho  Ho12  1  0.459155  0.749602  0.999943  1
  Lu  Lu13  1  0.679041  0.554872  0.563313  1
  Lu  Lu14  1  0.320926  0.445557  0.436448  1
  Lu  Lu15  1  0.179174  0.445493  0.936209  1
  Lu  Lu16  1  0.320932  0.054578  0.436478  1
  Lu  Lu17  1  0.820235  0.554129  0.064061  1
  Lu  Lu18  1  0.679320  0.945691  0.563178  1
  Lu  Lu19  1  0.820895  0.945147  0.063776  1
  Si  Si20  1  0.083853  0.747080  0.980024  1
  Si  Si21  1  0.914239  0.250754  0.021174  1
  Si  Si22  1  0.585912  0.250049  0.520988  1
  Si  Si23  1  0.414550  0.750309  0.478769  1
  Bi  Bi24  1  0.572492  0.509864  0.826521  1
  Bi  Bi25  1  0.427540  0.490493  0.173474  1
  Bi  Bi26  1  0.072196  0.490920  0.673259  1
  Bi  Bi27  1  0.427031  0.009809  0.173223  1
  Bi  Bi28  1  0.927413  0.509841  0.326911  1
  Bi  Bi29  1  0.572668  0.990615  0.826481  1
  Bi  Bi30  1  0.927501  0.990554  0.327000  1
  Bi  Bi31  1  0.071880  0.009705  0.672962  1
