# generated using pymatgen
data_Pr5NbMoO12
_symmetry_space_group_name_H-M   'P 1'
_cell_length_a   7.17793721
_cell_length_b   7.17793686
_cell_length_c   7.75611552
_cell_angle_alpha   74.29336605
_cell_angle_beta   74.29336586
_cell_angle_gamma   50.86111102
_symmetry_Int_Tables_number   1
_chemical_formula_structural   Pr5NbMoO12
_chemical_formula_sum   'Pr5 Nb1 Mo1 O12'
_cell_volume   295.69711515
_cell_formula_units_Z   1
loop_
 _symmetry_equiv_pos_site_id
 _symmetry_equiv_pos_as_xyz
  1  'x, y, z'
loop_
 _atom_site_type_symbol
 _atom_site_label
 _atom_site_symmetry_multiplicity
 _atom_site_fract_x
 _atom_site_fract_y
 _atom_site_fract_z
 _atom_site_occupancy
  Pr  Pr0  1  0.300355  0.307240  0.359976  1
  Pr  Pr1  1  0.692760  0.699645  0.640024  1
  Pr  Pr2  1  0.690965  0.695198  0.168428  1
  Pr  Pr3  1  0.304802  0.309035  0.831572  1
  Pr  Pr4  1  0.995914  0.004086  0.500000  1
  Nb  Nb5  1  0.773616  0.226384  0.000000  1
  Mo  Mo6  1  0.253684  0.746316  0.000000  1
  O  O7  1  0.091710  0.598630  0.576792  1
  O  O8  1  0.994507  0.003991  0.183907  1
  O  O9  1  0.401370  0.908290  0.423208  1
  O  O10  1  0.508928  0.492332  0.178409  1
  O  O11  1  0.098112  0.576658  0.080948  1
  O  O12  1  0.901156  0.406872  0.423884  1
  O  O13  1  0.996009  0.005493  0.816093  1
  O  O14  1  0.593128  0.098843  0.576116  1
  O  O15  1  0.507668  0.491072  0.821591  1
  O  O16  1  0.576339  0.104366  0.079977  1
  O  O17  1  0.423342  0.901888  0.919052  1
  O  O18  1  0.895634  0.423661  0.920023  1
