# generated using pymatgen
data_Ca2Eu8Si5Pb
_symmetry_space_group_name_H-M   'P 1'
_cell_length_a   7.86465042
_cell_length_b   7.86464998
_cell_length_c   9.17197000
_cell_angle_alpha   115.38718016
_cell_angle_beta   115.38717863
_cell_angle_gamma   89.99999727
_symmetry_Int_Tables_number   1
_chemical_formula_structural   Ca2Eu8Si5Pb
_chemical_formula_sum   'Ca2 Eu8 Si5 Pb1'
_cell_volume   451.13773887
_cell_formula_units_Z   1
loop_
 _symmetry_equiv_pos_site_id
 _symmetry_equiv_pos_as_xyz
  1  'x, y, z'
loop_
 _atom_site_type_symbol
 _atom_site_label
 _atom_site_symmetry_multiplicity
 _atom_site_fract_x
 _atom_site_fract_y
 _atom_site_fract_z
 _atom_site_occupancy
  Ca  Ca0  1  0.507035  0.507035  0.014068  1
  Ca  Ca1  1  0.992965  0.992965  0.985932  1
  Eu  Eu2  1  0.974999  0.826928  0.284865  1
  Eu  Eu3  1  0.309866  0.457935  0.284865  1
  Eu  Eu4  1  0.826928  0.309866  0.284865  1
  Eu  Eu5  1  0.457935  0.974999  0.284865  1
  Eu  Eu6  1  0.042065  0.190134  0.715135  1
  Eu  Eu7  1  0.673072  0.525001  0.715135  1
  Eu  Eu8  1  0.190134  0.673072  0.715135  1
  Eu  Eu9  1  0.525001  0.042065  0.715135  1
  Si  Si10  1  0.250000  0.250000  0.500000  1
  Si  Si11  1  0.610840  0.889160  0.000000  1
  Si  Si12  1  0.389160  0.110840  0.000000  1
  Si  Si13  1  0.889160  0.389160  0.000000  1
  Si  Si14  1  0.110840  0.610840  0.000000  1
  Pb  Pb15  1  0.750000  0.750000  0.500000  1
