# generated using pymatgen
data_Tb4Tm15LuBi12
_symmetry_space_group_name_H-M   'P 1'
_cell_length_a   8.21136685
_cell_length_b   9.43937276
_cell_length_c   11.94749360
_cell_angle_alpha   89.98232739
_cell_angle_beta   89.97949166
_cell_angle_gamma   90.02505828
_symmetry_Int_Tables_number   1
_chemical_formula_structural   Tb4Tm15LuBi12
_chemical_formula_sum   'Tb4 Tm15 Lu1 Bi12'
_cell_volume   926.05186010
_cell_formula_units_Z   1
loop_
 _symmetry_equiv_pos_site_id
 _symmetry_equiv_pos_as_xyz
  1  'x, y, z'
loop_
 _atom_site_type_symbol
 _atom_site_label
 _atom_site_symmetry_multiplicity
 _atom_site_fract_x
 _atom_site_fract_y
 _atom_site_fract_z
 _atom_site_occupancy
  Tb  Tb0  1  0.312880  0.250059  0.218455  1
  Tb  Tb1  1  0.812998  0.250055  0.281480  1
  Tb  Tb2  1  0.687084  0.750078  0.781651  1
  Tb  Tb3  1  0.187048  0.750088  0.718461  1
  Tm  Tm4  1  0.352987  0.750010  0.217485  1
  Tm  Tm5  1  0.852711  0.750024  0.282639  1
  Tm  Tm6  1  0.647175  0.250189  0.782596  1
  Tm  Tm7  1  0.147308  0.250247  0.717553  1
  Tm  Tm8  1  0.692737  0.565959  0.059710  1
  Tm  Tm9  1  0.192897  0.933174  0.440169  1
  Tm  Tm10  1  0.307227  0.065896  0.940371  1
  Tm  Tm11  1  0.807518  0.434152  0.559630  1
  Tm  Tm12  1  0.307320  0.434144  0.940278  1
  Tm  Tm13  1  0.806728  0.065789  0.560017  1
  Tm  Tm14  1  0.692730  0.934132  0.059600  1
  Tm  Tm15  1  0.475701  0.250235  0.488739  1
  Tm  Tm16  1  0.975863  0.250024  0.011112  1
  Tm  Tm17  1  0.523693  0.749803  0.511144  1
  Tm  Tm18  1  0.024162  0.750111  0.988761  1
  Lu  Lu19  1  0.192632  0.565607  0.440207  1
  Bi  Bi20  1  0.405234  0.749994  0.959121  1
  Bi  Bi21  1  0.905537  0.749927  0.540788  1
  Bi  Bi22  1  0.594732  0.250022  0.040818  1
  Bi  Bi23  1  0.094685  0.249581  0.459287  1
  Bi  Bi24  1  0.565640  0.994431  0.326118  1
  Bi  Bi25  1  0.065661  0.505844  0.173809  1
  Bi  Bi26  1  0.434477  0.494346  0.673954  1
  Bi  Bi27  1  0.934364  0.005956  0.826145  1
  Bi  Bi28  1  0.434375  0.005802  0.673964  1
  Bi  Bi29  1  0.934294  0.494304  0.826066  1
  Bi  Bi30  1  0.565938  0.505792  0.326093  1
  Bi  Bi31  1  0.065662  0.994226  0.173777  1
