# generated using pymatgen
data_Tm2Ga2Fe2C
_symmetry_space_group_name_H-M   'P 1'
_cell_length_a   5.69493085
_cell_length_b   5.69493026
_cell_length_c   6.90347244
_cell_angle_alpha   54.26358243
_cell_angle_beta   54.26358510
_cell_angle_gamma   40.06319261
_symmetry_Int_Tables_number   1
_chemical_formula_structural   Tm2Ga2Fe2C
_chemical_formula_sum   'Tm2 Ga2 Fe2 C1'
_cell_volume   112.87576958
_cell_formula_units_Z   1
loop_
 _symmetry_equiv_pos_site_id
 _symmetry_equiv_pos_as_xyz
  1  'x, y, z'
loop_
 _atom_site_type_symbol
 _atom_site_label
 _atom_site_symmetry_multiplicity
 _atom_site_fract_x
 _atom_site_fract_y
 _atom_site_fract_z
 _atom_site_occupancy
  Tm  Tm0  1  0.443386  0.443386  0.282914  1
  Tm  Tm1  1  0.556614  0.556614  0.717086  1
  Ga  Ga2  1  0.842768  0.842768  0.702433  1
  Ga  Ga3  1  0.157232  0.157232  0.297567  1
  Fe  Fe4  1  0.806141  0.806141  0.085464  1
  Fe  Fe5  1  0.193859  0.193859  0.914536  1
  C  C6  1  0.000000  0.000000  0.000000  1
