# generated using pymatgen
data_Ce4Tc5Ru3
_symmetry_space_group_name_H-M   'P 1'
_cell_length_a   5.37395077
_cell_length_b   5.37395037
_cell_length_c   9.40908100
_cell_angle_alpha   90.00000000
_cell_angle_beta   90.00000000
_cell_angle_gamma   124.81089295
_symmetry_Int_Tables_number   1
_chemical_formula_structural   Ce4Tc5Ru3
_chemical_formula_sum   'Ce4 Tc5 Ru3'
_cell_volume   223.09982206
_cell_formula_units_Z   1
loop_
 _symmetry_equiv_pos_site_id
 _symmetry_equiv_pos_as_xyz
  1  'x, y, z'
loop_
 _atom_site_type_symbol
 _atom_site_label
 _atom_site_symmetry_multiplicity
 _atom_site_fract_x
 _atom_site_fract_y
 _atom_site_fract_z
 _atom_site_occupancy
  Ce  Ce0  1  0.335206  0.664794  0.433204  1
  Ce  Ce1  1  0.664626  0.335374  0.564014  1
  Ce  Ce2  1  0.664626  0.335374  0.935986  1
  Ce  Ce3  1  0.335206  0.664794  0.066796  1
  Tc  Tc4  1  0.169331  0.337146  0.750000  1
  Tc  Tc5  1  0.171434  0.828566  0.750000  1
  Tc  Tc6  1  0.337517  0.169711  0.250000  1
  Tc  Tc7  1  0.830289  0.662483  0.250000  1
  Tc  Tc8  1  0.662854  0.830669  0.750000  1
  Ru  Ru9  1  0.999932  0.000068  0.001519  1
  Ru  Ru10  1  0.829046  0.170954  0.250000  1
  Ru  Ru11  1  0.999932  0.000068  0.498481  1
