# generated using pymatgen
data_Tm4Ga2(ReRu)3
_symmetry_space_group_name_H-M   'P 1'
_cell_length_a   5.31078869
_cell_length_b   5.28483428
_cell_length_c   8.92357300
_cell_angle_alpha   90.00000000
_cell_angle_beta   90.00000000
_cell_angle_gamma   119.83562631
_symmetry_Int_Tables_number   1
_chemical_formula_structural   Tm4Ga2(ReRu)3
_chemical_formula_sum   'Tm4 Ga2 Re3 Ru3'
_cell_volume   217.25849480
_cell_formula_units_Z   1
loop_
 _symmetry_equiv_pos_site_id
 _symmetry_equiv_pos_as_xyz
  1  'x, y, z'
loop_
 _atom_site_type_symbol
 _atom_site_label
 _atom_site_symmetry_multiplicity
 _atom_site_fract_x
 _atom_site_fract_y
 _atom_site_fract_z
 _atom_site_occupancy
  Tm  Tm0  1  0.665900  0.332932  0.562694  1
  Tm  Tm1  1  0.338982  0.669498  0.441147  1
  Tm  Tm2  1  0.338982  0.669498  0.058853  1
  Tm  Tm3  1  0.665900  0.332932  0.937306  1
  Ga  Ga4  1  0.828324  0.661020  0.250000  1
  Ga  Ga5  1  0.828325  0.167303  0.250000  1
  Re  Re6  1  0.164775  0.336148  0.750000  1
  Re  Re7  1  0.164758  0.828614  0.750000  1
  Re  Re8  1  0.651581  0.825794  0.750000  1
  Ru  Ru9  1  0.008165  0.004091  0.496184  1
  Ru  Ru10  1  0.008165  0.004091  0.003816  1
  Ru  Ru11  1  0.336141  0.168077  0.250000  1
