# generated using pymatgen
data_Er3Ga3PdPt2
_symmetry_space_group_name_H-M   'P 1'
_cell_length_a   7.43880200
_cell_length_b   7.43880379
_cell_length_c   3.65028000
_cell_angle_alpha   90.00000000
_cell_angle_beta   90.00000000
_cell_angle_gamma   120.00000092
_symmetry_Int_Tables_number   1
_chemical_formula_structural   Er3Ga3PdPt2
_chemical_formula_sum   'Er3 Ga3 Pd1 Pt2'
_cell_volume   174.92944155
_cell_formula_units_Z   1
loop_
 _symmetry_equiv_pos_site_id
 _symmetry_equiv_pos_as_xyz
  1  'x, y, z'
loop_
 _atom_site_type_symbol
 _atom_site_label
 _atom_site_symmetry_multiplicity
 _atom_site_fract_x
 _atom_site_fract_y
 _atom_site_fract_z
 _atom_site_occupancy
  Er  Er0  1  0.592104  0.000000  0.000000  1
  Er  Er1  1  0.000000  0.592104  0.000000  1
  Er  Er2  1  0.407896  0.407896  0.000000  1
  Ga  Ga3  1  0.259595  0.000000  0.500000  1
  Ga  Ga4  1  0.000000  0.259595  0.500000  1
  Ga  Ga5  1  0.740405  0.740405  0.500000  1
  Pd  Pd6  1  0.000000  0.000000  0.000000  1
  Pt  Pt7  1  0.333333  0.666667  0.500000  1
  Pt  Pt8  1  0.666667  0.333333  0.500000  1
