# generated using pymatgen
data_Ca2NdAg(Ru2O7)2
_symmetry_space_group_name_H-M   'P 1'
_cell_length_a   7.23499681
_cell_length_b   7.32722604
_cell_length_c   7.35342111
_cell_angle_alpha   60.11776573
_cell_angle_beta   59.43032451
_cell_angle_gamma   59.57741519
_symmetry_Int_Tables_number   1
_chemical_formula_structural   Ca2NdAg(Ru2O7)2
_chemical_formula_sum   'Ca2 Nd1 Ag1 Ru4 O14'
_cell_volume   273.79924470
_cell_formula_units_Z   1
loop_
 _symmetry_equiv_pos_site_id
 _symmetry_equiv_pos_as_xyz
  1  'x, y, z'
loop_
 _atom_site_type_symbol
 _atom_site_label
 _atom_site_symmetry_multiplicity
 _atom_site_fract_x
 _atom_site_fract_y
 _atom_site_fract_z
 _atom_site_occupancy
  Ca  Ca0  1  0.625000  0.125000  0.625000  1
  Ca  Ca1  1  0.625000  0.625000  0.625000  1
  Nd  Nd2  1  0.625000  0.625000  0.125000  1
  Ag  Ag3  1  0.125000  0.625000  0.625000  1
  Ru  Ru4  1  0.625000  0.125000  0.125000  1
  Ru  Ru5  1  0.125000  0.625000  0.125000  1
  Ru  Ru6  1  0.125000  0.125000  0.625000  1
  Ru  Ru7  1  0.125000  0.125000  0.125000  1
  O  O8  1  0.192661  0.187774  0.810734  1
  O  O9  1  0.197288  0.806546  0.189618  1
  O  O10  1  0.452051  0.048006  0.050454  1
  O  O11  1  0.192661  0.808830  0.810734  1
  O  O12  1  0.057339  0.441170  0.439266  1
  O  O13  1  0.797949  0.800510  0.199546  1
  O  O14  1  0.452051  0.449490  0.050454  1
  O  O15  1  0.482064  0.504304  0.509326  1
  O  O16  1  0.057339  0.062226  0.439266  1
  O  O17  1  0.447136  0.055081  0.442702  1
  O  O18  1  0.052712  0.443454  0.060382  1
  O  O19  1  0.767936  0.745696  0.740674  1
  O  O20  1  0.802864  0.194919  0.807298  1
  O  O21  1  0.797949  0.201994  0.199546  1
