# generated using pymatgen
data_Li3CaTcN3
_symmetry_space_group_name_H-M   'P 1'
_cell_length_a   7.15736156
_cell_length_b   7.15736175
_cell_length_c   7.15736200
_cell_angle_alpha   48.22860234
_cell_angle_beta   48.22860048
_cell_angle_gamma   48.22860570
_symmetry_Int_Tables_number   1
_chemical_formula_structural   Li3CaTcN3
_chemical_formula_sum   'Li6 Ca2 Tc2 N6'
_cell_volume   186.93519907
_cell_formula_units_Z   2
loop_
 _symmetry_equiv_pos_site_id
 _symmetry_equiv_pos_as_xyz
  1  'x, y, z'
loop_
 _atom_site_type_symbol
 _atom_site_label
 _atom_site_symmetry_multiplicity
 _atom_site_fract_x
 _atom_site_fract_y
 _atom_site_fract_z
 _atom_site_occupancy
  Li  Li0  1  0.475794  0.894677  0.239723  1
  Li  Li1  1  0.894677  0.239723  0.475794  1
  Li  Li2  1  0.760277  0.524206  0.105323  1
  Li  Li3  1  0.524206  0.105323  0.760277  1
  Li  Li4  1  0.105323  0.760277  0.524206  1
  Li  Li5  1  0.239723  0.475794  0.894677  1
  Ca  Ca6  1  0.338151  0.338151  0.338151  1
  Ca  Ca7  1  0.661849  0.661849  0.661849  1
  Tc  Tc8  1  0.939781  0.939781  0.939781  1
  Tc  Tc9  1  0.060219  0.060219  0.060219  1
  N  N10  1  0.225626  0.907009  0.601519  1
  N  N11  1  0.601519  0.225626  0.907009  1
  N  N12  1  0.774374  0.092991  0.398481  1
  N  N13  1  0.092991  0.398481  0.774374  1
  N  N14  1  0.398481  0.774374  0.092991  1
  N  N15  1  0.907009  0.601519  0.225626  1
