# generated using pymatgen
data_Tb3TmGe3Sb3Rh7
_symmetry_space_group_name_H-M   'P 1'
_cell_length_a   7.49237755
_cell_length_b   7.43536275
_cell_length_c   7.43536388
_cell_angle_alpha   109.31537228
_cell_angle_beta   109.62661884
_cell_angle_gamma   109.62662872
_symmetry_Int_Tables_number   1
_chemical_formula_structural   Tb3TmGe3Sb3Rh7
_chemical_formula_sum   'Tb3 Tm1 Ge3 Sb3 Rh7'
_cell_volume   318.24795714
_cell_formula_units_Z   1
loop_
 _symmetry_equiv_pos_site_id
 _symmetry_equiv_pos_as_xyz
  1  'x, y, z'
loop_
 _atom_site_type_symbol
 _atom_site_label
 _atom_site_symmetry_multiplicity
 _atom_site_fract_x
 _atom_site_fract_y
 _atom_site_fract_z
 _atom_site_occupancy
  Tb  Tb0  1  0.988319  0.480213  0.000000  1
  Tb  Tb1  1  0.988319  0.000000  0.480213  1
  Tb  Tb2  1  0.508106  0.519787  0.519787  1
  Tm  Tm3  1  0.545251  0.000000  0.000000  1
  Ge  Ge4  1  0.004177  0.332366  0.332366  1
  Ge  Ge5  1  0.671810  0.000000  0.667634  1
  Ge  Ge6  1  0.671810  0.667634  0.000000  1
  Sb  Sb7  1  0.009797  0.695862  0.695862  1
  Sb  Sb8  1  0.313935  0.000000  0.304138  1
  Sb  Sb9  1  0.313935  0.304138  0.000000  1
  Rh  Rh10  1  0.963218  0.000000  0.000000  1
  Rh  Rh11  1  0.503321  0.750795  0.248508  1
  Rh  Rh12  1  0.752527  0.497713  0.249205  1
  Rh  Rh13  1  0.254813  0.751492  0.502287  1
  Rh  Rh14  1  0.254813  0.502287  0.751492  1
  Rh  Rh15  1  0.503321  0.248508  0.750795  1
  Rh  Rh16  1  0.752527  0.249205  0.497713  1
