# generated using pymatgen
data_Dy4B16Ir3Rh
_symmetry_space_group_name_H-M   'P 1'
_cell_length_a   3.57246800
_cell_length_b   5.96948227
_cell_length_c   11.57745153
_cell_angle_alpha   89.96547614
_cell_angle_beta   90.00000000
_cell_angle_gamma   90.00000000
_symmetry_Int_Tables_number   1
_chemical_formula_structural   Dy4B16Ir3Rh
_chemical_formula_sum   'Dy4 B16 Ir3 Rh1'
_cell_volume   246.89819019
_cell_formula_units_Z   1
loop_
 _symmetry_equiv_pos_site_id
 _symmetry_equiv_pos_as_xyz
  1  'x, y, z'
loop_
 _atom_site_type_symbol
 _atom_site_label
 _atom_site_symmetry_multiplicity
 _atom_site_fract_x
 _atom_site_fract_y
 _atom_site_fract_z
 _atom_site_occupancy
  Dy  Dy0  1  0.500000  0.369603  0.148266  1
  Dy  Dy1  1  0.500000  0.630316  0.852026  1
  Dy  Dy2  1  0.500000  0.130521  0.648744  1
  Dy  Dy3  1  0.500000  0.869442  0.350723  1
  B  B4  1  0.000000  0.112504  0.046196  1
  B  B5  1  0.000000  0.887594  0.953264  1
  B  B6  1  0.000000  0.387601  0.546534  1
  B  B7  1  0.000000  0.612398  0.453407  1
  B  B8  1  0.000000  0.136373  0.469395  1
  B  B9  1  0.000000  0.863747  0.530380  1
  B  B10  1  0.000000  0.363781  0.969614  1
  B  B11  1  0.000000  0.636427  0.030357  1
  B  B12  1  0.000000  0.024049  0.192586  1
  B  B13  1  0.000000  0.976190  0.807346  1
  B  B14  1  0.000000  0.474684  0.692324  1
  B  B15  1  0.000000  0.525842  0.307437  1
  B  B16  1  0.000000  0.209924  0.312175  1
  B  B17  1  0.000000  0.790182  0.687781  1
  B  B18  1  0.000000  0.289064  0.812334  1
  B  B19  1  0.000000  0.711047  0.187647  1
  Ir  Ir20  1  0.500000  0.356627  0.403969  1
  Ir  Ir21  1  0.500000  0.643799  0.596735  1
  Ir  Ir22  1  0.500000  0.140986  0.904576  1
  Rh  Rh23  1  0.500000  0.857301  0.096186  1
