# generated using pymatgen
data_UInCl4O
_symmetry_space_group_name_H-M   'P 1'
_cell_length_a   7.27938595
_cell_length_b   7.27938588
_cell_length_c   7.86523623
_cell_angle_alpha   106.77579445
_cell_angle_beta   106.77579308
_cell_angle_gamma   33.01837439
_symmetry_Int_Tables_number   1
_chemical_formula_structural   UInCl4O
_chemical_formula_sum   'U1 In1 Cl4 O1'
_cell_volume   216.56895881
_cell_formula_units_Z   1
loop_
 _symmetry_equiv_pos_site_id
 _symmetry_equiv_pos_as_xyz
  1  'x, y, z'
loop_
 _atom_site_type_symbol
 _atom_site_label
 _atom_site_symmetry_multiplicity
 _atom_site_fract_x
 _atom_site_fract_y
 _atom_site_fract_z
 _atom_site_occupancy
  U  U0  1  0.501326  0.498675  0.500000  1
  In  In1  1  0.021602  0.978397  0.000000  1
  Cl  Cl2  1  0.359872  0.373082  0.189436  1
  Cl  Cl3  1  0.624936  0.637261  0.327226  1
  Cl  Cl4  1  0.362739  0.375063  0.672773  1
  Cl  Cl5  1  0.626918  0.640128  0.810563  1
  O  O6  1  0.001920  0.998081  0.500000  1
