# generated using pymatgen
data_Sm12BeSi12Au11
_symmetry_space_group_name_H-M   'P 1'
_cell_length_a   4.30907000
_cell_length_b   7.45427003
_cell_length_c   24.17818153
_cell_angle_alpha   90.14291874
_cell_angle_beta   90.00000000
_cell_angle_gamma   90.00000000
_symmetry_Int_Tables_number   1
_chemical_formula_structural   Sm12BeSi12Au11
_chemical_formula_sum   'Sm12 Be1 Si12 Au11'
_cell_volume   776.62426001
_cell_formula_units_Z   1
loop_
 _symmetry_equiv_pos_site_id
 _symmetry_equiv_pos_as_xyz
  1  'x, y, z'
loop_
 _atom_site_type_symbol
 _atom_site_label
 _atom_site_symmetry_multiplicity
 _atom_site_fract_x
 _atom_site_fract_y
 _atom_site_fract_z
 _atom_site_occupancy
  Sm  Sm0  1  0.250000  0.750774  0.333847  1
  Sm  Sm1  1  0.750000  0.246277  0.665799  1
  Sm  Sm2  1  0.750000  0.250026  0.166736  1
  Sm  Sm3  1  0.250000  0.748382  0.832440  1
  Sm  Sm4  1  0.250000  0.749504  0.166547  1
  Sm  Sm5  1  0.750000  0.252761  0.832552  1
  Sm  Sm6  1  0.750000  0.249008  0.335054  1
  Sm  Sm7  1  0.250000  0.756165  0.664708  1
  Sm  Sm8  1  0.250000  0.751811  0.999368  1
  Sm  Sm9  1  0.750000  0.247358  0.999462  1
  Sm  Sm10  1  0.750000  0.245858  0.500408  1
  Sm  Sm11  1  0.250000  0.755990  0.501760  1
  Be  Be12  1  0.250000  0.084462  0.583805  1
  Si  Si13  1  0.250000  0.083364  0.079274  1
  Si  Si14  1  0.750000  0.915182  0.917919  1
  Si  Si15  1  0.750000  0.584502  0.423698  1
  Si  Si16  1  0.250000  0.391636  0.582639  1
  Si  Si17  1  0.250000  0.083683  0.250038  1
  Si  Si18  1  0.750000  0.915914  0.749100  1
  Si  Si19  1  0.750000  0.583386  0.252048  1
  Si  Si20  1  0.250000  0.417927  0.749085  1
  Si  Si21  1  0.250000  0.083391  0.419623  1
  Si  Si22  1  0.750000  0.934740  0.582860  1
  Si  Si23  1  0.750000  0.583592  0.080757  1
  Si  Si24  1  0.250000  0.416660  0.918185  1
  Au  Au25  1  0.250000  0.416000  0.250757  1
  Au  Au26  1  0.750000  0.583775  0.746922  1
  Au  Au27  1  0.750000  0.916796  0.250344  1
  Au  Au28  1  0.250000  0.083599  0.749570  1
  Au  Au29  1  0.250000  0.418334  0.416276  1
  Au  Au30  1  0.750000  0.584283  0.583976  1
  Au  Au31  1  0.750000  0.916213  0.086225  1
  Au  Au32  1  0.250000  0.083509  0.913258  1
  Au  Au33  1  0.250000  0.416331  0.084771  1
  Au  Au34  1  0.750000  0.583086  0.914312  1
  Au  Au35  1  0.750000  0.915721  0.415879  1
