# generated using pymatgen
data_Dy4Ho3Er5(GaCo2)2
_symmetry_space_group_name_H-M   'P 1'
_cell_length_a   8.22752465
_cell_length_b   8.22809887
_cell_length_c   8.22752398
_cell_angle_alpha   106.98849131
_cell_angle_beta   109.32340444
_cell_angle_gamma   112.14017167
_symmetry_Int_Tables_number   1
_chemical_formula_structural   Dy4Ho3Er5(GaCo2)2
_chemical_formula_sum   'Dy4 Ho3 Er5 Ga2 Co4'
_cell_volume   427.90557289
_cell_formula_units_Z   1
loop_
 _symmetry_equiv_pos_site_id
 _symmetry_equiv_pos_as_xyz
  1  'x, y, z'
loop_
 _atom_site_type_symbol
 _atom_site_label
 _atom_site_symmetry_multiplicity
 _atom_site_fract_x
 _atom_site_fract_y
 _atom_site_fract_z
 _atom_site_occupancy
  Dy  Dy0  1  0.697802  0.260703  0.958291  1
  Dy  Dy1  1  0.302558  0.739381  0.041986  1
  Dy  Dy2  1  0.697395  0.739381  0.436826  1
  Dy  Dy3  1  0.302412  0.260703  0.562898  1
  Ho  Ho4  1  0.812322  0.139690  0.327368  1
  Ho  Ho5  1  0.812120  0.485078  0.672958  1
  Ho  Ho6  1  0.187799  0.860496  0.672697  1
  Er  Er7  1  0.187559  0.514805  0.327246  1
  Er  Er8  1  0.601262  0.780372  0.820656  1
  Er  Er9  1  0.959714  0.780372  0.179110  1
  Er  Er10  1  0.040755  0.219736  0.821425  1
  Er  Er11  1  0.398311  0.219736  0.178982  1
  Ga  Ga12  1  0.500193  0.500200  0.000007  1
  Ga  Ga13  1  0.499224  0.998838  0.499613  1
  Co  Co14  1  0.835420  0.500107  0.334800  1
  Co  Co15  1  0.165307  0.500107  0.664687  1
  Co  Co16  1  0.999999  0.115419  0.115420  1
  Co  Co17  1  0.999847  0.884879  0.885032  1
