# generated using pymatgen
data_Na6In4AgPd
_symmetry_space_group_name_H-M   'P 1'
_cell_length_a   9.64524722
_cell_length_b   9.64524760
_cell_length_c   9.60388000
_cell_angle_alpha   60.14177489
_cell_angle_beta   60.14177358
_cell_angle_gamma   60.16977386
_symmetry_Int_Tables_number   1
_chemical_formula_structural   Na6In4AgPd
_chemical_formula_sum   'Na12 In8 Ag2 Pd2'
_cell_volume   633.93149180
_cell_formula_units_Z   2
loop_
 _symmetry_equiv_pos_site_id
 _symmetry_equiv_pos_as_xyz
  1  'x, y, z'
loop_
 _atom_site_type_symbol
 _atom_site_label
 _atom_site_symmetry_multiplicity
 _atom_site_fract_x
 _atom_site_fract_y
 _atom_site_fract_z
 _atom_site_occupancy
  Na  Na0  1  0.046224  0.452171  0.048592  1
  Na  Na1  1  0.797829  0.203776  0.201408  1
  Na  Na2  1  0.203776  0.797829  0.796988  1
  Na  Na3  1  0.797829  0.203776  0.796988  1
  Na  Na4  1  0.202042  0.202042  0.797958  1
  Na  Na5  1  0.796816  0.796816  0.203184  1
  Na  Na6  1  0.047958  0.047958  0.452042  1
  Na  Na7  1  0.452171  0.046224  0.048592  1
  Na  Na8  1  0.046224  0.452171  0.453012  1
  Na  Na9  1  0.453184  0.453184  0.046816  1
  Na  Na10  1  0.203776  0.797829  0.201408  1
  Na  Na11  1  0.452171  0.046224  0.453012  1
  In  In12  1  0.829500  0.829500  0.840661  1
  In  In13  1  0.746221  0.425456  0.414162  1
  In  In14  1  0.425456  0.746221  0.414162  1
  In  In15  1  0.420500  0.420500  0.749663  1
  In  In16  1  0.824544  0.503779  0.835838  1
  In  In17  1  0.829500  0.829500  0.500337  1
  In  In18  1  0.503779  0.824544  0.835838  1
  In  In19  1  0.420500  0.420500  0.409339  1
  Ag  Ag20  1  0.125000  0.625000  0.625000  1
  Ag  Ag21  1  0.625000  0.125000  0.625000  1
  Pd  Pd22  1  0.625000  0.625000  0.625000  1
  Pd  Pd23  1  0.625000  0.625000  0.125000  1
