# generated using pymatgen
data_GdHo(MgIn2)2
_symmetry_space_group_name_H-M   'P 1'
_cell_length_a   6.44245200
_cell_length_b   6.44245225
_cell_length_c   9.26363500
_cell_angle_alpha   90.00000000
_cell_angle_beta   90.00000000
_cell_angle_gamma   91.73079980
_symmetry_Int_Tables_number   1
_chemical_formula_structural   GdHo(MgIn2)2
_chemical_formula_sum   'Gd2 Ho2 Mg4 In8'
_cell_volume   384.31350907
_cell_formula_units_Z   2
loop_
 _symmetry_equiv_pos_site_id
 _symmetry_equiv_pos_as_xyz
  1  'x, y, z'
loop_
 _atom_site_type_symbol
 _atom_site_label
 _atom_site_symmetry_multiplicity
 _atom_site_fract_x
 _atom_site_fract_y
 _atom_site_fract_z
 _atom_site_occupancy
  Gd  Gd0  1  0.997821  0.997821  0.250000  1
  Gd  Gd1  1  0.002179  0.002179  0.750000  1
  Ho  Ho2  1  0.502356  0.502356  0.250000  1
  Ho  Ho3  1  0.497644  0.497644  0.750000  1
  Mg  Mg4  1  0.250391  0.749609  0.500000  1
  Mg  Mg5  1  0.250391  0.749609  0.000000  1
  Mg  Mg6  1  0.749609  0.250391  0.500000  1
  Mg  Mg7  1  0.749609  0.250391  0.000000  1
  In  In8  1  0.251326  0.251326  0.001995  1
  In  In9  1  0.748674  0.748674  0.998005  1
  In  In10  1  0.251326  0.251326  0.498005  1
  In  In11  1  0.748674  0.748674  0.501995  1
  In  In12  1  0.498329  0.001948  0.250000  1
  In  In13  1  0.998052  0.501671  0.750000  1
  In  In14  1  0.501671  0.998052  0.750000  1
  In  In15  1  0.001948  0.498329  0.250000  1
