# generated using pymatgen
data_La7Te8
_symmetry_space_group_name_H-M   'P 1'
_cell_length_a   9.07310500
_cell_length_b   9.07305324
_cell_length_c   9.07306400
_cell_angle_alpha   120.00163616
_cell_angle_beta   90.00001263
_cell_angle_gamma   119.99828919
_symmetry_Int_Tables_number   1
_chemical_formula_structural   La7Te8
_chemical_formula_sum   'La7 Te8'
_cell_volume   528.13970015
_cell_formula_units_Z   1
loop_
 _symmetry_equiv_pos_site_id
 _symmetry_equiv_pos_as_xyz
  1  'x, y, z'
loop_
 _atom_site_type_symbol
 _atom_site_label
 _atom_site_symmetry_multiplicity
 _atom_site_fract_x
 _atom_site_fract_y
 _atom_site_fract_z
 _atom_site_occupancy
  La  La0  1  0.249789  0.999838  0.250010  1
  La  La1  1  0.249807  0.499409  0.249664  1
  La  La2  1  0.750356  0.000155  0.249946  1
  La  La3  1  0.249977  0.499918  0.749908  1
  La  La4  1  0.250172  0.000669  0.750349  1
  La  La5  1  0.750215  0.000244  0.750050  1
  La  La6  1  0.749714  0.499768  0.749911  1
  Te  Te7  1  0.999908  0.999772  0.999887  1
  Te  Te8  1  0.499918  0.999779  0.499880  1
  Te  Te9  1  0.995306  0.990666  0.495381  1
  Te  Te10  1  0.995501  0.500251  0.495536  1
  Te  Te11  1  0.504587  0.500081  0.495481  1
  Te  Te12  1  0.995404  0.500023  0.004604  1
  Te  Te13  1  0.504760  0.500324  0.004804  1
  Te  Te14  1  0.504588  0.009106  0.004598  1
