# generated using pymatgen
data_U6Si5P8PtRh19
_symmetry_space_group_name_H-M   'P 1'
_cell_length_a   13.47916687
_cell_length_b   13.47214297
_cell_length_c   3.90114437
_cell_angle_alpha   89.91305235
_cell_angle_beta   89.87785339
_cell_angle_gamma   119.83151770
_symmetry_Int_Tables_number   1
_chemical_formula_structural   U6Si5P8PtRh19
_chemical_formula_sum   'U6 Si5 P8 Pt1 Rh19'
_cell_volume   614.54586398
_cell_formula_units_Z   1
loop_
 _symmetry_equiv_pos_site_id
 _symmetry_equiv_pos_as_xyz
  1  'x, y, z'
loop_
 _atom_site_type_symbol
 _atom_site_label
 _atom_site_symmetry_multiplicity
 _atom_site_fract_x
 _atom_site_fract_y
 _atom_site_fract_z
 _atom_site_occupancy
  U  U0  1  0.529269  0.718001  0.249353  1
  U  U1  1  0.279683  0.809998  0.249151  1
  U  U2  1  0.188854  0.469351  0.246981  1
  U  U3  1  0.474433  0.280283  0.751015  1
  U  U4  1  0.720314  0.190280  0.753205  1
  U  U5  1  0.805359  0.525929  0.751568  1
  Si  Si6  1  0.524283  0.133205  0.251104  1
  Si  Si7  1  0.866384  0.390647  0.251352  1
  Si  Si8  1  0.609401  0.476696  0.250329  1
  Si  Si9  1  0.947403  0.717169  0.252265  1
  Si  Si10  1  0.283703  0.230645  0.251885  1
  P  P11  1  0.768993  0.054810  0.255573  1
  P  P12  1  0.386721  0.523293  0.748707  1
  P  P13  1  0.476207  0.862821  0.751741  1
  P  P14  1  0.135145  0.611206  0.748344  1
  P  P15  1  0.717260  0.770124  0.746425  1
  P  P16  1  0.230591  0.946559  0.748480  1
  P  P17  1  0.053938  0.283744  0.745205  1
  P  P18  1  0.000996  0.000745  0.986427  1
  Pt  Pt19  1  0.332890  0.667042  0.752485  1
  Rh  Rh20  1  0.921576  0.248254  0.253308  1
  Rh  Rh21  1  0.750498  0.675241  0.253090  1
  Rh  Rh22  1  0.326727  0.076245  0.253797  1
  Rh  Rh23  1  0.436492  0.016986  0.751921  1
  Rh  Rh24  1  0.981833  0.416766  0.750100  1
  Rh  Rh25  1  0.582468  0.566261  0.750648  1
  Rh  Rh26  1  0.666462  0.333002  0.251855  1
  Rh  Rh27  1  0.088215  0.182577  0.250393  1
  Rh  Rh28  1  0.815884  0.909118  0.247185  1
  Rh  Rh29  1  0.095195  0.911420  0.249177  1
  Rh  Rh30  1  0.023073  0.584819  0.248823  1
  Rh  Rh31  1  0.415330  0.438756  0.248486  1
  Rh  Rh32  1  0.563095  0.975791  0.249592  1
  Rh  Rh33  1  0.672196  0.919843  0.746269  1
  Rh  Rh34  1  0.079178  0.751984  0.746055  1
  Rh  Rh35  1  0.248071  0.327542  0.747304  1
  Rh  Rh36  1  0.907627  0.814257  0.754109  1
  Rh  Rh37  1  0.188295  0.094865  0.753771  1
  Rh  Rh38  1  0.905962  0.093725  0.752526  1
