# generated using pymatgen
data_Y3Tm5Cd2CoNi
_symmetry_space_group_name_H-M   'P 1'
_cell_length_a   9.46936055
_cell_length_b   9.46936119
_cell_length_c   9.47083100
_cell_angle_alpha   59.99486882
_cell_angle_beta   59.99486657
_cell_angle_gamma   59.96212068
_symmetry_Int_Tables_number   1
_chemical_formula_structural   Y3Tm5Cd2CoNi
_chemical_formula_sum   'Y6 Tm10 Cd4 Co2 Ni2'
_cell_volume   600.28330923
_cell_formula_units_Z   2
loop_
 _symmetry_equiv_pos_site_id
 _symmetry_equiv_pos_as_xyz
  1  'x, y, z'
loop_
 _atom_site_type_symbol
 _atom_site_label
 _atom_site_symmetry_multiplicity
 _atom_site_fract_x
 _atom_site_fract_y
 _atom_site_fract_z
 _atom_site_occupancy
  Y  Y0  1  0.188657  0.810145  0.812660  1
  Y  Y1  1  0.810145  0.188657  0.188538  1
  Y  Y2  1  0.810145  0.188657  0.812660  1
  Y  Y3  1  0.188657  0.810145  0.188538  1
  Y  Y4  1  0.812070  0.812070  0.187930  1
  Y  Y5  1  0.189488  0.189488  0.810512  1
  Tm  Tm6  1  0.595704  0.595704  0.599171  1
  Tm  Tm7  1  0.595704  0.595704  0.209421  1
  Tm  Tm8  1  0.594329  0.210904  0.597383  1
  Tm  Tm9  1  0.210904  0.594329  0.597383  1
  Tm  Tm10  1  0.065939  0.436476  0.437963  1
  Tm  Tm11  1  0.436476  0.065939  0.059622  1
  Tm  Tm12  1  0.436476  0.065939  0.437963  1
  Tm  Tm13  1  0.065939  0.436476  0.059622  1
  Tm  Tm14  1  0.437079  0.437079  0.062921  1
  Tm  Tm15  1  0.062735  0.062735  0.437265  1
  Cd  Cd16  1  0.829978  0.829978  0.830319  1
  Cd  Cd17  1  0.829978  0.829978  0.509723  1
  Cd  Cd18  1  0.830620  0.507980  0.830699  1
  Cd  Cd19  1  0.507980  0.830620  0.830699  1
  Co  Co20  1  0.391998  0.391998  0.391531  1
  Co  Co21  1  0.391998  0.391998  0.824475  1
  Ni  Ni22  1  0.391564  0.825437  0.391500  1
  Ni  Ni23  1  0.825437  0.391564  0.391500  1
