# generated using pymatgen
data_Lu5InSnSb
_symmetry_space_group_name_H-M   'P 1'
_cell_length_a   6.40120700
_cell_length_b   8.75375209
_cell_length_c   8.75477900
_cell_angle_alpha   120.00343854
_cell_angle_beta   89.99976728
_cell_angle_gamma   90.00019492
_symmetry_Int_Tables_number   1
_chemical_formula_structural   Lu5InSnSb
_chemical_formula_sum   'Lu10 In2 Sn2 Sb2'
_cell_volume   424.83167002
_cell_formula_units_Z   2
loop_
 _symmetry_equiv_pos_site_id
 _symmetry_equiv_pos_as_xyz
  1  'x, y, z'
loop_
 _atom_site_type_symbol
 _atom_site_label
 _atom_site_symmetry_multiplicity
 _atom_site_fract_x
 _atom_site_fract_y
 _atom_site_fract_z
 _atom_site_occupancy
  Lu  Lu0  1  0.500931  0.337828  0.668243  1
  Lu  Lu1  1  0.501103  0.662208  0.330466  1
  Lu  Lu2  1  0.999239  0.662210  0.330438  1
  Lu  Lu3  1  0.998931  0.337889  0.668236  1
  Lu  Lu4  1  0.750188  0.239387  0.007241  1
  Lu  Lu5  1  0.750375  0.760514  0.767904  1
  Lu  Lu6  1  0.749923  0.000044  0.237222  1
  Lu  Lu7  1  0.249808  0.761219  0.994178  1
  Lu  Lu8  1  0.249998  0.238787  0.233095  1
  Lu  Lu9  1  0.249802  0.000051  0.762404  1
  In  In10  1  0.749617  0.603382  0.002231  1
  In  In11  1  0.749831  0.396668  0.398621  1
  Sn  Sn12  1  0.249978  0.395181  0.996613  1
  Sn  Sn13  1  0.250170  0.604650  0.601363  1
  Sb  Sb14  1  0.750071  0.999986  0.609704  1
  Sb  Sb15  1  0.250043  0.999996  0.392042  1
