# generated using pymatgen
data_Eu(CoO2)8
_symmetry_space_group_name_H-M   'P 1'
_cell_length_a   5.68378993
_cell_length_b   6.57981711
_cell_length_c   6.88600000
_cell_angle_alpha   92.28053247
_cell_angle_beta   78.11362166
_cell_angle_gamma   77.48427042
_symmetry_Int_Tables_number   1
_chemical_formula_structural   Eu(CoO2)8
_chemical_formula_sum   'Eu1 Co8 O16'
_cell_volume   245.05172299
_cell_formula_units_Z   1
loop_
 _symmetry_equiv_pos_site_id
 _symmetry_equiv_pos_as_xyz
  1  'x, y, z'
loop_
 _atom_site_type_symbol
 _atom_site_label
 _atom_site_symmetry_multiplicity
 _atom_site_fract_x
 _atom_site_fract_y
 _atom_site_fract_z
 _atom_site_occupancy
  Eu  Eu0  1  0.012555  0.999345  0.002157  1
  Co  Co1  1  0.582289  0.508454  0.179433  1
  Co  Co2  1  0.084624  0.501557  0.179404  1
  Co  Co3  1  0.168043  0.817103  0.525921  1
  Co  Co4  1  0.666384  0.816522  0.535603  1
  Co  Co5  1  0.341035  0.183797  0.466636  1
  Co  Co6  1  0.836417  0.184539  0.474674  1
  Co  Co7  1  0.425955  0.493151  0.819752  1
  Co  Co8  1  0.926043  0.497999  0.817932  1
  O  O9  1  0.827948  0.654611  0.069386  1
  O  O10  1  0.318323  0.656721  0.068085  1
  O  O11  1  0.981919  0.674824  0.406732  1
  O  O12  1  0.484028  0.674050  0.407669  1
  O  O13  1  0.850266  0.977220  0.658604  1
  O  O14  1  0.340733  0.978785  0.654805  1
  O  O15  1  0.354368  0.348304  0.256020  1
  O  O16  1  0.856000  0.333677  0.249667  1
  O  O17  1  0.152778  0.663866  0.746212  1
  O  O18  1  0.655674  0.652695  0.738083  1
  O  O19  1  0.155693  0.023593  0.343615  1
  O  O20  1  0.666236  0.017653  0.348010  1
  O  O21  1  0.024812  0.326960  0.595045  1
  O  O22  1  0.524424  0.322482  0.592971  1
  O  O23  1  0.181275  0.345247  0.931362  1
  O  O24  1  0.689274  0.346850  0.932218  1
