# generated using pymatgen
data_Pr8Ho12Sn3Pb13
_symmetry_space_group_name_H-M   'P 1'
_cell_length_a   8.20519800
_cell_length_b   8.41688071
_cell_length_c   15.84050800
_cell_angle_alpha   90.00000000
_cell_angle_beta   90.00000000
_cell_angle_gamma   89.76184780
_symmetry_Int_Tables_number   1
_chemical_formula_structural   Pr8Ho12Sn3Pb13
_chemical_formula_sum   'Pr8 Ho12 Sn3 Pb13'
_cell_volume   1093.97044978
_cell_formula_units_Z   1
loop_
 _symmetry_equiv_pos_site_id
 _symmetry_equiv_pos_as_xyz
  1  'x, y, z'
loop_
 _atom_site_type_symbol
 _atom_site_label
 _atom_site_symmetry_multiplicity
 _atom_site_fract_x
 _atom_site_fract_y
 _atom_site_fract_z
 _atom_site_occupancy
  Pr  Pr0  1  0.482232  0.677031  0.597727  1
  Pr  Pr1  1  0.982631  0.823387  0.902292  1
  Pr  Pr2  1  0.517352  0.323900  0.096487  1
  Pr  Pr3  1  0.018712  0.179013  0.402411  1
  Pr  Pr4  1  0.517352  0.323900  0.403513  1
  Pr  Pr5  1  0.018712  0.179013  0.097589  1
  Pr  Pr6  1  0.482232  0.677031  0.902273  1
  Pr  Pr7  1  0.982631  0.823387  0.597708  1
  Ho  Ho8  1  0.641442  0.162254  0.625245  1
  Ho  Ho9  1  0.141961  0.336868  0.875110  1
  Ho  Ho10  1  0.360797  0.837265  0.124623  1
  Ho  Ho11  1  0.854727  0.660293  0.376821  1
  Ho  Ho12  1  0.360797  0.837265  0.375377  1
  Ho  Ho13  1  0.854727  0.660293  0.123179  1
  Ho  Ho14  1  0.641442  0.162254  0.874755  1
  Ho  Ho15  1  0.141961  0.336868  0.624890  1
  Ho  Ho16  1  0.807326  0.492201  0.750000  1
  Ho  Ho17  1  0.307096  0.007246  0.750000  1
  Ho  Ho18  1  0.192931  0.504653  0.250000  1
  Ho  Ho19  1  0.690300  0.992997  0.250000  1
  Sn  Sn20  1  0.445301  0.371410  0.750000  1
  Sn  Sn21  1  0.946067  0.128347  0.750000  1
  Sn  Sn22  1  0.553554  0.627851  0.250000  1
  Pb  Pb23  1  0.699707  0.960526  0.457846  1
  Pb  Pb24  1  0.197994  0.542489  0.042150  1
  Pb  Pb25  1  0.301729  0.040415  0.957901  1
  Pb  Pb26  1  0.801813  0.458238  0.543128  1
  Pb  Pb27  1  0.301729  0.040415  0.542099  1
  Pb  Pb28  1  0.801813  0.458238  0.956872  1
  Pb  Pb29  1  0.699707  0.960526  0.042154  1
  Pb  Pb30  1  0.197994  0.542489  0.457850  1
  Pb  Pb31  1  0.052537  0.870555  0.250000  1
  Pb  Pb32  1  0.674491  0.851232  0.750000  1
  Pb  Pb33  1  0.174979  0.647437  0.750000  1
  Pb  Pb34  1  0.328112  0.150417  0.250000  1
  Pb  Pb35  1  0.825106  0.352298  0.250000  1
