# generated using pymatgen
data_Ti12Al5Au3O4
_symmetry_space_group_name_H-M   'P 1'
_cell_length_a   6.95155341
_cell_length_b   6.95155371
_cell_length_c   6.95155332
_cell_angle_alpha   90.26422180
_cell_angle_beta   90.26422453
_cell_angle_gamma   90.26422174
_symmetry_Int_Tables_number   1
_chemical_formula_structural   Ti12Al5Au3O4
_chemical_formula_sum   'Ti12 Al5 Au3 O4'
_cell_volume   335.91678744
_cell_formula_units_Z   1
loop_
 _symmetry_equiv_pos_site_id
 _symmetry_equiv_pos_as_xyz
  1  'x, y, z'
loop_
 _atom_site_type_symbol
 _atom_site_label
 _atom_site_symmetry_multiplicity
 _atom_site_fract_x
 _atom_site_fract_y
 _atom_site_fract_z
 _atom_site_occupancy
  Ti  Ti0  1  0.784638  0.956688  0.380010  1
  Ti  Ti1  1  0.713001  0.040084  0.870563  1
  Ti  Ti2  1  0.214491  0.458782  0.124472  1
  Ti  Ti3  1  0.288670  0.543775  0.623854  1
  Ti  Ti4  1  0.956688  0.380010  0.784638  1
  Ti  Ti5  1  0.040084  0.870563  0.713001  1
  Ti  Ti6  1  0.458782  0.124472  0.214491  1
  Ti  Ti7  1  0.543775  0.623854  0.288670  1
  Ti  Ti8  1  0.380010  0.784638  0.956688  1
  Ti  Ti9  1  0.870563  0.713001  0.040084  1
  Ti  Ti10  1  0.124472  0.214491  0.458782  1
  Ti  Ti11  1  0.623854  0.288670  0.543775  1
  Al  Al12  1  0.677485  0.677485  0.677485  1
  Al  Al13  1  0.571744  0.425888  0.930633  1
  Al  Al14  1  0.425888  0.930633  0.571744  1
  Al  Al15  1  0.930633  0.571744  0.425888  1
  Al  Al16  1  0.071300  0.071300  0.071300  1
  Au  Au17  1  0.179010  0.821878  0.318388  1
  Au  Au18  1  0.318388  0.179010  0.821878  1
  Au  Au19  1  0.821878  0.318388  0.179010  1
  O  O20  1  0.879500  0.126184  0.623836  1
  O  O21  1  0.623836  0.879500  0.126184  1
  O  O22  1  0.126184  0.623836  0.879500  1
  O  O23  1  0.375126  0.375126  0.375126  1
