# generated using pymatgen
data_Nd2Dy3YIrI10
_symmetry_space_group_name_H-M   'P 1'
_cell_length_a   7.81282860
_cell_length_b   9.84604323
_cell_length_c   9.86799269
_cell_angle_alpha   106.90682549
_cell_angle_beta   96.46164169
_cell_angle_gamma   104.95799394
_symmetry_Int_Tables_number   1
_chemical_formula_structural   Nd2Dy3YIrI10
_chemical_formula_sum   'Nd2 Dy3 Y1 Ir1 I10'
_cell_volume   687.07759373
_cell_formula_units_Z   1
loop_
 _symmetry_equiv_pos_site_id
 _symmetry_equiv_pos_as_xyz
  1  'x, y, z'
loop_
 _atom_site_type_symbol
 _atom_site_label
 _atom_site_symmetry_multiplicity
 _atom_site_fract_x
 _atom_site_fract_y
 _atom_site_fract_z
 _atom_site_occupancy
  Nd  Nd0  1  0.116535  0.043452  0.761833  1
  Nd  Nd1  1  0.883633  0.956711  0.238273  1
  Dy  Dy2  1  0.970074  0.286222  0.086106  1
  Dy  Dy3  1  0.029894  0.713745  0.913993  1
  Dy  Dy4  1  0.347799  0.125349  0.165561  1
  Y  Y5  1  0.651200  0.874393  0.834102  1
  Ir  Ir6  1  0.000523  0.000211  0.000256  1
  I  I7  1  0.348538  0.447978  0.270579  1
  I  I8  1  0.651584  0.551849  0.729392  1
  I  I9  1  0.265297  0.089432  0.458242  1
  I  I10  1  0.734831  0.910619  0.541664  1
  I  I11  1  0.084155  0.377414  0.824247  1
  I  I12  1  0.915792  0.622586  0.175733  1
  I  I13  1  0.449607  0.817108  0.088834  1
  I  I14  1  0.550481  0.182988  0.911290  1
  I  I15  1  0.776169  0.260490  0.343052  1
  I  I16  1  0.223888  0.739453  0.656845  1
