# generated using pymatgen
data_Ca3YbGa17SiIr6
_symmetry_space_group_name_H-M   'P 1'
_cell_length_a   7.54237528
_cell_length_b   7.53211415
_cell_length_c   9.69587230
_cell_angle_alpha   89.93625124
_cell_angle_beta   90.05038689
_cell_angle_gamma   119.51092833
_symmetry_Int_Tables_number   1
_chemical_formula_structural   Ca3YbGa17SiIr6
_chemical_formula_sum   'Ca3 Yb1 Ga17 Si1 Ir6'
_cell_volume   479.35969606
_cell_formula_units_Z   1
loop_
 _symmetry_equiv_pos_site_id
 _symmetry_equiv_pos_as_xyz
  1  'x, y, z'
loop_
 _atom_site_type_symbol
 _atom_site_label
 _atom_site_symmetry_multiplicity
 _atom_site_fract_x
 _atom_site_fract_y
 _atom_site_fract_z
 _atom_site_occupancy
  Ca  Ca0  1  0.997327  0.666318  0.248839  1
  Ca  Ca1  1  0.002461  0.329995  0.749627  1
  Ca  Ca2  1  0.673223  0.001756  0.249162  1
  Yb  Yb3  1  0.329187  0.001762  0.748605  1
  Ga  Ga4  1  0.129917  0.130756  0.250616  1
  Ga  Ga5  1  0.872415  0.871794  0.750576  1
  Ga  Ga6  1  0.998510  0.671706  0.923234  1
  Ga  Ga7  1  0.999183  0.666173  0.575534  1
  Ga  Ga8  1  0.334088  0.000564  0.425297  1
  Ga  Ga9  1  0.001099  0.334806  0.426120  1
  Ga  Ga10  1  0.663592  0.997864  0.575992  1
  Ga  Ga11  1  0.657760  0.992865  0.923201  1
  Ga  Ga12  1  0.334166  0.999983  0.074385  1
  Ga  Ga13  1  0.334370  0.332915  0.562828  1
  Ga  Ga14  1  0.666730  0.666959  0.437580  1
  Ga  Ga15  1  0.666693  0.667633  0.063245  1
  Ga  Ga16  1  0.340716  0.333327  0.936858  1
  Ga  Ga17  1  0.335359  0.543159  0.250979  1
  Ga  Ga18  1  0.662589  0.453119  0.751724  1
  Ga  Ga19  1  0.544667  0.336316  0.251029  1
  Ga  Ga20  1  0.454481  0.663976  0.750451  1
  Si  Si21  1  0.003052  0.335149  0.065845  1
  Ir  Ir22  1  0.684425  0.329607  0.004377  1
  Ir  Ir23  1  0.314993  0.657329  0.000741  1
  Ir  Ir24  1  0.328262  0.670594  0.500497  1
  Ir  Ir25  1  0.670877  0.328449  0.501561  1
  Ir  Ir26  1  0.000006  0.014678  0.000583  1
  Ir  Ir27  1  0.999850  0.000451  0.500514  1
