# generated using pymatgen
data_Hf7Zr3AlSiSn6
_symmetry_space_group_name_H-M   'P 1'
_cell_length_a   8.67364100
_cell_length_b   8.67364123
_cell_length_c   5.84654500
_cell_angle_alpha   90.00000000
_cell_angle_beta   90.00000000
_cell_angle_gamma   119.99999532
_symmetry_Int_Tables_number   1
_chemical_formula_structural   Hf7Zr3AlSiSn6
_chemical_formula_sum   'Hf7 Zr3 Al1 Si1 Sn6'
_cell_volume   380.91918454
_cell_formula_units_Z   1
loop_
 _symmetry_equiv_pos_site_id
 _symmetry_equiv_pos_as_xyz
  1  'x, y, z'
loop_
 _atom_site_type_symbol
 _atom_site_label
 _atom_site_symmetry_multiplicity
 _atom_site_fract_x
 _atom_site_fract_y
 _atom_site_fract_z
 _atom_site_occupancy
  Hf  Hf0  1  0.666667  0.333333  0.997523  1
  Hf  Hf1  1  0.333333  0.666667  0.997523  1
  Hf  Hf2  1  0.333333  0.666667  0.502045  1
  Hf  Hf3  1  0.666667  0.333333  0.502045  1
  Hf  Hf4  1  0.728893  0.728893  0.740371  1
  Hf  Hf5  1  0.271107  0.000000  0.740371  1
  Hf  Hf6  1  0.000000  0.271107  0.740371  1
  Zr  Zr7  1  0.259779  0.259779  0.259370  1
  Zr  Zr8  1  0.740221  0.000000  0.259370  1
  Zr  Zr9  1  0.000000  0.740221  0.259370  1
  Al  Al10  1  0.000000  0.000000  0.987633  1
  Si  Si11  1  0.000000  0.000000  0.514315  1
  Sn  Sn12  1  0.387242  0.387242  0.754400  1
  Sn  Sn13  1  0.612758  0.000000  0.754400  1
  Sn  Sn14  1  0.000000  0.612758  0.754400  1
  Sn  Sn15  1  0.607015  0.607015  0.245498  1
  Sn  Sn16  1  0.392985  0.000000  0.245498  1
  Sn  Sn17  1  0.000000  0.392985  0.245498  1
