# generated using pymatgen
data_BeV8BSb4
_symmetry_space_group_name_H-M   'P 1'
_cell_length_a   7.30705739
_cell_length_b   7.30704037
_cell_length_c   7.30705882
_cell_angle_alpha   95.38898013
_cell_angle_beta   95.31368883
_cell_angle_gamma   144.43702742
_symmetry_Int_Tables_number   1
_chemical_formula_structural   BeV8BSb4
_chemical_formula_sum   'Be1 V8 B1 Sb4'
_cell_volume   216.06750567
_cell_formula_units_Z   1
loop_
 _symmetry_equiv_pos_site_id
 _symmetry_equiv_pos_as_xyz
  1  'x, y, z'
loop_
 _atom_site_type_symbol
 _atom_site_label
 _atom_site_symmetry_multiplicity
 _atom_site_fract_x
 _atom_site_fract_y
 _atom_site_fract_z
 _atom_site_occupancy
  Be  Be0  1  0.250013  0.250000  0.000013  1
  V  V1  1  0.917241  0.805168  0.731952  1
  V  V2  1  0.805099  0.073144  0.887803  1
  V  V3  1  0.426784  0.694832  0.112073  1
  V  V4  1  0.582770  0.314768  0.887959  1
  V  V5  1  0.694946  0.582703  0.268071  1
  V  V6  1  0.314659  0.426856  0.731955  1
  V  V7  1  0.185368  0.917297  0.112243  1
  V  V8  1  0.073191  0.185232  0.268002  1
  B  B9  1  0.749993  0.750000  0.999993  1
  Sb  Sb10  1  0.642341  0.857666  0.500024  1
  Sb  Sb11  1  0.142359  0.642334  0.784676  1
  Sb  Sb12  1  0.857607  0.357696  0.215325  1
  Sb  Sb13  1  0.357630  0.142304  0.499911  1
