# generated using pymatgen
data_LiEr16In(AgRh2)2
_symmetry_space_group_name_H-M   'P 1'
_cell_length_a   9.51256001
_cell_length_b   9.53412733
_cell_length_c   9.51256070
_cell_angle_alpha   60.03273581
_cell_angle_beta   59.98581237
_cell_angle_gamma   60.03273694
_symmetry_Int_Tables_number   1
_chemical_formula_structural   LiEr16In(AgRh2)2
_chemical_formula_sum   'Li1 Er16 In1 Ag2 Rh4'
_cell_volume   610.27964202
_cell_formula_units_Z   1
loop_
 _symmetry_equiv_pos_site_id
 _symmetry_equiv_pos_as_xyz
  1  'x, y, z'
loop_
 _atom_site_type_symbol
 _atom_site_label
 _atom_site_symmetry_multiplicity
 _atom_site_fract_x
 _atom_site_fract_y
 _atom_site_fract_z
 _atom_site_occupancy
  Li  Li0  1  0.434591  0.705919  0.434591  1
  Er  Er1  1  0.189175  0.191709  0.809178  1
  Er  Er2  1  0.436494  0.064380  0.060117  1
  Er  Er3  1  0.434594  0.066048  0.434594  1
  Er  Er4  1  0.062856  0.436118  0.062856  1
  Er  Er5  1  0.646246  0.058785  0.646246  1
  Er  Er6  1  0.186049  0.815899  0.814400  1
  Er  Er7  1  0.060117  0.064380  0.436494  1
  Er  Er8  1  0.809178  0.191709  0.189175  1
  Er  Er9  1  0.814400  0.815899  0.186049  1
  Er  Er10  1  0.651580  0.648698  0.047879  1
  Er  Er11  1  0.651503  0.651824  0.651503  1
  Er  Er12  1  0.058759  0.435649  0.432926  1
  Er  Er13  1  0.047879  0.648698  0.651580  1
  Er  Er14  1  0.809477  0.192841  0.809477  1
  Er  Er15  1  0.432926  0.435649  0.058759  1
  Er  Er16  1  0.189379  0.809530  0.189379  1
  In  In17  1  0.419193  0.420901  0.419193  1
  Ag  Ag18  1  0.415261  0.416617  0.752800  1
  Ag  Ag19  1  0.752800  0.416617  0.415261  1
  Rh  Rh20  1  0.857602  0.428329  0.857602  1
  Rh  Rh21  1  0.856244  0.860616  0.428411  1
  Rh  Rh22  1  0.428411  0.860616  0.856244  1
  Rh  Rh23  1  0.855286  0.862569  0.855286  1
