# generated using pymatgen
data_DyHo7(Si3Pt)4
_symmetry_space_group_name_H-M   'P 1'
_cell_length_a   8.17412400
_cell_length_b   8.17412447
_cell_length_c   7.90263400
_cell_angle_alpha   90.00000000
_cell_angle_beta   90.00000000
_cell_angle_gamma   120.00000620
_symmetry_Int_Tables_number   1
_chemical_formula_structural   DyHo7(Si3Pt)4
_chemical_formula_sum   'Dy1 Ho7 Si12 Pt4'
_cell_volume   457.28287881
_cell_formula_units_Z   1
loop_
 _symmetry_equiv_pos_site_id
 _symmetry_equiv_pos_as_xyz
  1  'x, y, z'
loop_
 _atom_site_type_symbol
 _atom_site_label
 _atom_site_symmetry_multiplicity
 _atom_site_fract_x
 _atom_site_fract_y
 _atom_site_fract_z
 _atom_site_occupancy
  Dy  Dy0  1  0.000000  0.000000  0.250000  1
  Ho  Ho1  1  0.000000  0.000000  0.750000  1
  Ho  Ho2  1  0.510022  0.489978  0.250000  1
  Ho  Ho3  1  0.510022  0.020044  0.250000  1
  Ho  Ho4  1  0.979956  0.489978  0.250000  1
  Ho  Ho5  1  0.489975  0.510025  0.750000  1
  Ho  Ho6  1  0.489975  0.979950  0.750000  1
  Ho  Ho7  1  0.020050  0.510025  0.750000  1
  Si  Si8  1  0.165216  0.834784  0.499129  1
  Si  Si9  1  0.165216  0.330431  0.499129  1
  Si  Si10  1  0.669569  0.834784  0.499129  1
  Si  Si11  1  0.834788  0.165212  0.501195  1
  Si  Si12  1  0.834788  0.669579  0.501195  1
  Si  Si13  1  0.330421  0.165212  0.501195  1
  Si  Si14  1  0.834788  0.165212  0.998805  1
  Si  Si15  1  0.834788  0.669579  0.998805  1
  Si  Si16  1  0.330421  0.165212  0.998805  1
  Si  Si17  1  0.165216  0.834784  0.000871  1
  Si  Si18  1  0.165216  0.330431  0.000871  1
  Si  Si19  1  0.669569  0.834784  0.000871  1
  Pt  Pt20  1  0.333333  0.666667  0.465031  1
  Pt  Pt21  1  0.666667  0.333333  0.534946  1
  Pt  Pt22  1  0.666667  0.333333  0.965054  1
  Pt  Pt23  1  0.333333  0.666667  0.034969  1
