# generated using pymatgen
data_Sr2V5Fe(PO4)6
_symmetry_space_group_name_H-M   'P 1'
_cell_length_a   6.68356749
_cell_length_b   9.26618605
_cell_length_c   9.26621738
_cell_angle_alpha   95.01941748
_cell_angle_beta   111.15031469
_cell_angle_gamma   111.15029438
_symmetry_Int_Tables_number   1
_chemical_formula_structural   Sr2V5Fe(PO4)6
_chemical_formula_sum   'Sr2 V5 Fe1 P6 O24'
_cell_volume   483.27288653
_cell_formula_units_Z   1
loop_
 _symmetry_equiv_pos_site_id
 _symmetry_equiv_pos_as_xyz
  1  'x, y, z'
loop_
 _atom_site_type_symbol
 _atom_site_label
 _atom_site_symmetry_multiplicity
 _atom_site_fract_x
 _atom_site_fract_y
 _atom_site_fract_z
 _atom_site_occupancy
  Sr  Sr0  1  0.400657  0.750517  0.251928  1
  Sr  Sr1  1  0.599344  0.248081  0.749487  1
  V  V2  1  0.000282  0.999661  0.000021  1
  V  V3  1  0.500004  0.381647  0.118354  1
  V  V4  1  0.000001  0.119217  0.380785  1
  V  V5  1  0.999719  0.499980  0.500341  1
  V  V6  1  0.999998  0.880984  0.619017  1
  Fe  Fe7  1  0.500015  0.617969  0.882025  1
  P  P8  1  0.000001  0.324711  0.175288  1
  P  P9  1  0.907887  0.750107  0.249710  1
  P  P10  1  0.499999  0.175589  0.324412  1
  P  P11  1  0.499997  0.824146  0.675848  1
  P  P12  1  0.092108  0.250292  0.749895  1
  P  P13  1  0.000006  0.675328  0.824676  1
  O  O14  1  0.778855  0.344804  0.071845  1
  O  O15  1  0.646508  0.634580  0.133708  1
  O  O16  1  0.342182  0.140702  0.138471  1
  O  O17  1  0.936882  0.138705  0.140264  1
  O  O18  1  0.221146  0.428153  0.155195  1
  O  O19  1  0.042754  0.842225  0.158264  1
  O  O20  1  0.040982  0.657603  0.341654  1
  O  O21  1  0.637902  0.072218  0.344635  1
  O  O22  1  0.657817  0.361529  0.359297  1
  O  O23  1  0.063115  0.359732  0.361292  1
  O  O24  1  0.880231  0.866575  0.366267  1
  O  O25  1  0.362100  0.155364  0.427785  1
  O  O26  1  0.637770  0.844666  0.572050  1
  O  O27  1  0.119769  0.133740  0.633426  1
  O  O28  1  0.935381  0.639841  0.638628  1
  O  O29  1  0.341700  0.638635  0.640602  1
  O  O30  1  0.362224  0.927943  0.655343  1
  O  O31  1  0.957240  0.341737  0.657775  1
  O  O32  1  0.959008  0.158343  0.842394  1
  O  O33  1  0.778411  0.573398  0.845766  1
  O  O34  1  0.064636  0.861378  0.860165  1
  O  O35  1  0.658308  0.859383  0.861354  1
  O  O36  1  0.353483  0.366296  0.865425  1
  O  O37  1  0.221581  0.654224  0.926612  1
