# generated using pymatgen
data_MgSi3Ru4
_symmetry_space_group_name_H-M   'P 1'
_cell_length_a   7.27898120
_cell_length_b   7.27898098
_cell_length_c   7.27897985
_cell_angle_alpha   33.49019241
_cell_angle_beta   33.49019742
_cell_angle_gamma   33.49020050
_symmetry_Int_Tables_number   1
_chemical_formula_structural   MgSi3Ru4
_chemical_formula_sum   'Mg1 Si3 Ru4'
_cell_volume   104.58301649
_cell_formula_units_Z   1
loop_
 _symmetry_equiv_pos_site_id
 _symmetry_equiv_pos_as_xyz
  1  'x, y, z'
loop_
 _atom_site_type_symbol
 _atom_site_label
 _atom_site_symmetry_multiplicity
 _atom_site_fract_x
 _atom_site_fract_y
 _atom_site_fract_z
 _atom_site_occupancy
  Mg  Mg0  1  0.000000  0.000000  0.000000  1
  Si  Si1  1  0.500000  0.500000  0.500000  1
  Si  Si2  1  0.253961  0.253961  0.253961  1
  Si  Si3  1  0.746039  0.746039  0.746039  1
  Ru  Ru4  1  0.619448  0.619448  0.619448  1
  Ru  Ru5  1  0.130868  0.130868  0.130868  1
  Ru  Ru6  1  0.869132  0.869132  0.869132  1
  Ru  Ru7  1  0.380552  0.380552  0.380552  1
