# generated using pymatgen
data_La2Sm3YOsI10
_symmetry_space_group_name_H-M   'P 1'
_cell_length_a   7.97103305
_cell_length_b   10.06599890
_cell_length_c   9.92359110
_cell_angle_alpha   106.78782864
_cell_angle_beta   95.64490866
_cell_angle_gamma   105.37817509
_symmetry_Int_Tables_number   1
_chemical_formula_structural   La2Sm3YOsI10
_chemical_formula_sum   'La2 Sm3 Y1 Os1 I10'
_cell_volume   721.68337149
_cell_formula_units_Z   1
loop_
 _symmetry_equiv_pos_site_id
 _symmetry_equiv_pos_as_xyz
  1  'x, y, z'
loop_
 _atom_site_type_symbol
 _atom_site_label
 _atom_site_symmetry_multiplicity
 _atom_site_fract_x
 _atom_site_fract_y
 _atom_site_fract_z
 _atom_site_occupancy
  La  La0  1  0.113101  0.042318  0.769381  1
  La  La1  1  0.884278  0.956811  0.229518  1
  Sm  Sm2  1  0.968025  0.290522  0.087586  1
  Sm  Sm3  1  0.029897  0.709188  0.911402  1
  Sm  Sm4  1  0.354070  0.127924  0.167958  1
  Y  Y5  1  0.648734  0.872502  0.833229  1
  Os  Os6  1  0.999131  0.999717  0.999754  1
  I  I7  1  0.347272  0.447587  0.269303  1
  I  I8  1  0.649951  0.556474  0.730937  1
  I  I9  1  0.261892  0.086245  0.454978  1
  I  I10  1  0.734627  0.912279  0.548562  1
  I  I11  1  0.084667  0.374088  0.822066  1
  I  I12  1  0.915233  0.626163  0.177786  1
  I  I13  1  0.451949  0.818055  0.086825  1
  I  I14  1  0.549400  0.177796  0.907501  1
  I  I15  1  0.777026  0.259682  0.344243  1
  I  I16  1  0.230747  0.742648  0.658970  1
