# generated using pymatgen
data_Eu2Al16Pt9
_symmetry_space_group_name_H-M   'P 1'
_cell_length_a   11.34584417
_cell_length_b   11.34584482
_cell_length_c   11.34584500
_cell_angle_alpha   158.58255703
_cell_angle_beta   115.14171095
_cell_angle_gamma   69.15732017
_symmetry_Int_Tables_number   1
_chemical_formula_structural   Eu2Al16Pt9
_chemical_formula_sum   'Eu2 Al16 Pt9'
_cell_volume   479.30250282
_cell_formula_units_Z   1
loop_
 _symmetry_equiv_pos_site_id
 _symmetry_equiv_pos_as_xyz
  1  'x, y, z'
loop_
 _atom_site_type_symbol
 _atom_site_label
 _atom_site_symmetry_multiplicity
 _atom_site_fract_x
 _atom_site_fract_y
 _atom_site_fract_z
 _atom_site_occupancy
  Eu  Eu0  1  0.227992  0.227992  0.000000  1
  Eu  Eu1  1  0.772008  0.772008  0.000000  1
  Al  Al2  1  0.273913  0.392382  0.881530  1
  Al  Al3  1  0.091912  0.920753  0.171159  1
  Al  Al4  1  0.509747  0.204808  0.304940  1
  Al  Al5  1  0.250405  0.079247  0.171159  1
  Al  Al6  1  0.914175  0.414175  0.500000  1
  Al  Al7  1  0.726087  0.607618  0.118470  1
  Al  Al8  1  0.899868  0.204808  0.695060  1
  Al  Al9  1  0.490253  0.795192  0.695060  1
  Al  Al10  1  0.384308  0.000000  0.384308  1
  Al  Al11  1  0.615692  0.000000  0.615692  1
  Al  Al12  1  0.489149  0.607618  0.881530  1
  Al  Al13  1  0.100132  0.795192  0.304940  1
  Al  Al14  1  0.908088  0.079247  0.828841  1
  Al  Al15  1  0.749595  0.920753  0.828841  1
  Al  Al16  1  0.510851  0.392382  0.118470  1
  Al  Al17  1  0.085825  0.585825  0.500000  1
  Pt  Pt18  1  0.746816  0.500000  0.246816  1
  Pt  Pt19  1  0.029980  0.340837  0.689141  1
  Pt  Pt20  1  0.621544  0.121544  0.500000  1
  Pt  Pt21  1  0.253184  0.500000  0.753184  1
  Pt  Pt22  1  0.378456  0.878456  0.500000  1
  Pt  Pt23  1  0.000000  0.000000  0.000000  1
  Pt  Pt24  1  0.651696  0.340837  0.310859  1
  Pt  Pt25  1  0.348304  0.659163  0.689141  1
  Pt  Pt26  1  0.970020  0.659163  0.310859  1
