# generated using pymatgen
data_ZnCo3(WO3)8
_symmetry_space_group_name_H-M   'P 1'
_cell_length_a   4.68488779
_cell_length_b   10.71816549
_cell_length_c   9.37722636
_cell_angle_alpha   64.05973924
_cell_angle_beta   89.95084830
_cell_angle_gamma   89.97810247
_symmetry_Int_Tables_number   1
_chemical_formula_structural   ZnCo3(WO3)8
_chemical_formula_sum   'Zn1 Co3 W8 O24'
_cell_volume   423.42318997
_cell_formula_units_Z   1
loop_
 _symmetry_equiv_pos_site_id
 _symmetry_equiv_pos_as_xyz
  1  'x, y, z'
loop_
 _atom_site_type_symbol
 _atom_site_label
 _atom_site_symmetry_multiplicity
 _atom_site_fract_x
 _atom_site_fract_y
 _atom_site_fract_z
 _atom_site_occupancy
  Zn  Zn0  1  0.000084  0.333412  0.333264  1
  Co  Co1  1  0.499895  0.833346  0.833322  1
  Co  Co2  1  0.000019  0.333273  0.833362  1
  Co  Co3  1  0.499954  0.833309  0.333406  1
  W  W4  1  0.999795  0.997011  0.501598  1
  W  W5  1  0.999325  0.997562  0.001144  1
  W  W6  1  0.000216  0.669681  0.165050  1
  W  W7  1  0.000610  0.669073  0.665574  1
  W  W8  1  0.499403  0.168961  0.165502  1
  W  W9  1  0.499755  0.169219  0.665383  1
  W  W10  1  0.500179  0.497446  0.001224  1
  W  W11  1  0.500693  0.497676  0.501220  1
  O  O12  1  0.191779  0.833232  0.679200  1
  O  O13  1  0.191469  0.833629  0.178779  1
  O  O14  1  0.309097  0.333331  0.178959  1
  O  O15  1  0.308122  0.333534  0.678674  1
  O  O16  1  0.691785  0.333113  0.987937  1
  O  O17  1  0.691109  0.333364  0.487711  1
  O  O18  1  0.808017  0.833444  0.987506  1
  O  O19  1  0.808657  0.833047  0.487872  1
  O  O20  1  0.206528  0.158628  0.024462  1
  O  O21  1  0.207474  0.158193  0.524432  1
  O  O22  1  0.208069  0.507807  0.849540  1
  O  O23  1  0.208073  0.508974  0.349346  1
  O  O24  1  0.292908  0.007258  0.349987  1
  O  O25  1  0.291745  0.007968  0.849381  1
  O  O26  1  0.292971  0.659205  0.023753  1
  O  O27  1  0.293994  0.659128  0.524237  1
  O  O28  1  0.706168  0.007490  0.142598  1
  O  O29  1  0.706950  0.007476  0.642845  1
  O  O30  1  0.707881  0.658763  0.817112  1
  O  O31  1  0.707256  0.659373  0.316753  1
  O  O32  1  0.792158  0.157796  0.317256  1
  O  O33  1  0.791699  0.158772  0.817210  1
  O  O34  1  0.792637  0.508548  0.142082  1
  O  O35  1  0.793527  0.507956  0.642314  1
