# generated using pymatgen
data_Mn5Nb4FeSi2
_symmetry_space_group_name_H-M   'P 1'
_cell_length_a   4.87095158
_cell_length_b   4.87095193
_cell_length_c   7.90360500
_cell_angle_alpha   90.00000000
_cell_angle_beta   90.00000000
_cell_angle_gamma   119.94684123
_symmetry_Int_Tables_number   1
_chemical_formula_structural   Mn5Nb4FeSi2
_chemical_formula_sum   'Mn5 Nb4 Fe1 Si2'
_cell_volume   162.48598287
_cell_formula_units_Z   1
loop_
 _symmetry_equiv_pos_site_id
 _symmetry_equiv_pos_as_xyz
  1  'x, y, z'
loop_
 _atom_site_type_symbol
 _atom_site_label
 _atom_site_symmetry_multiplicity
 _atom_site_fract_x
 _atom_site_fract_y
 _atom_site_fract_z
 _atom_site_occupancy
  Mn  Mn0  1  0.830067  0.656680  0.750000  1
  Mn  Mn1  1  0.343320  0.169933  0.750000  1
  Mn  Mn2  1  0.171024  0.828976  0.250000  1
  Mn  Mn3  1  0.171463  0.342625  0.250000  1
  Mn  Mn4  1  0.657375  0.828537  0.250000  1
  Nb  Nb5  1  0.333028  0.666972  0.937943  1
  Nb  Nb6  1  0.665729  0.334271  0.062978  1
  Nb  Nb7  1  0.665729  0.334271  0.437022  1
  Nb  Nb8  1  0.333028  0.666972  0.562057  1
  Fe  Fe9  1  0.830908  0.169092  0.750000  1
  Si  Si10  1  0.999165  0.000835  0.999772  1
  Si  Si11  1  0.999165  0.000835  0.500228  1
