# generated using pymatgen
data_LaY3CdPd
_symmetry_space_group_name_H-M   'P 1'
_cell_length_a   9.88461328
_cell_length_b   9.88461348
_cell_length_c   9.88461300
_cell_angle_alpha   59.99999827
_cell_angle_beta   59.99999759
_cell_angle_gamma   59.99999907
_symmetry_Int_Tables_number   1
_chemical_formula_structural   LaY3CdPd
_chemical_formula_sum   'La4 Y12 Cd4 Pd4'
_cell_volume   682.91087847
_cell_formula_units_Z   4
loop_
 _symmetry_equiv_pos_site_id
 _symmetry_equiv_pos_as_xyz
  1  'x, y, z'
loop_
 _atom_site_type_symbol
 _atom_site_label
 _atom_site_symmetry_multiplicity
 _atom_site_fract_x
 _atom_site_fract_y
 _atom_site_fract_z
 _atom_site_occupancy
  La  La0  1  0.354981  0.354981  0.354981  1
  La  La1  1  0.354981  0.354981  0.935057  1
  La  La2  1  0.354981  0.935057  0.354981  1
  La  La3  1  0.935057  0.354981  0.354981  1
  Y  Y4  1  0.813018  0.186982  0.186982  1
  Y  Y5  1  0.186982  0.813018  0.813018  1
  Y  Y6  1  0.186982  0.813018  0.186982  1
  Y  Y7  1  0.813018  0.186982  0.813018  1
  Y  Y8  1  0.186982  0.186982  0.813018  1
  Y  Y9  1  0.813018  0.813018  0.186982  1
  Y  Y10  1  0.932452  0.567548  0.567548  1
  Y  Y11  1  0.567548  0.932452  0.932452  1
  Y  Y12  1  0.567548  0.932452  0.567548  1
  Y  Y13  1  0.932452  0.567548  0.932452  1
  Y  Y14  1  0.567548  0.567548  0.932452  1
  Y  Y15  1  0.932452  0.932452  0.567548  1
  Cd  Cd16  1  0.583751  0.583751  0.583751  1
  Cd  Cd17  1  0.583751  0.583751  0.248749  1
  Cd  Cd18  1  0.583751  0.248749  0.583751  1
  Cd  Cd19  1  0.248749  0.583751  0.583751  1
  Pd  Pd20  1  0.142481  0.142481  0.142481  1
  Pd  Pd21  1  0.142481  0.142481  0.572556  1
  Pd  Pd22  1  0.142481  0.572556  0.142481  1
  Pd  Pd23  1  0.572556  0.142481  0.142481  1
