# generated using pymatgen
data_NdY3Sc2(AlPt2)2
_symmetry_space_group_name_H-M   'P 1'
_cell_length_a   4.46338200
_cell_length_b   7.26173625
_cell_length_c   8.04018645
_cell_angle_alpha   90.06812845
_cell_angle_beta   90.00000000
_cell_angle_gamma   90.00000000
_symmetry_Int_Tables_number   1
_chemical_formula_structural   NdY3Sc2(AlPt2)2
_chemical_formula_sum   'Nd1 Y3 Sc2 Al2 Pt4'
_cell_volume   260.59755829
_cell_formula_units_Z   1
loop_
 _symmetry_equiv_pos_site_id
 _symmetry_equiv_pos_as_xyz
  1  'x, y, z'
loop_
 _atom_site_type_symbol
 _atom_site_label
 _atom_site_symmetry_multiplicity
 _atom_site_fract_x
 _atom_site_fract_y
 _atom_site_fract_z
 _atom_site_occupancy
  Nd  Nd0  1  0.250000  0.521314  0.828025  1
  Y  Y1  1  0.750000  0.445778  0.179653  1
  Y  Y2  1  0.250000  0.051994  0.675903  1
  Y  Y3  1  0.750000  0.979789  0.328018  1
  Sc  Sc4  1  0.750000  0.874088  0.935450  1
  Sc  Sc5  1  0.250000  0.627920  0.433168  1
  Al  Al6  1  0.750000  0.355983  0.562886  1
  Al  Al7  1  0.250000  0.141109  0.066227  1
  Pt  Pt8  1  0.750000  0.725862  0.613588  1
  Pt  Pt9  1  0.750000  0.232991  0.879430  1
  Pt  Pt10  1  0.250000  0.263027  0.378104  1
  Pt  Pt11  1  0.250000  0.780144  0.119546  1
