# generated using pymatgen
data_Pr2Dy2B4I5
_symmetry_space_group_name_H-M   'P 1'
_cell_length_a   9.78573512
_cell_length_b   9.78573497
_cell_length_c   9.71568382
_cell_angle_alpha   75.61768776
_cell_angle_beta   75.61768855
_cell_angle_gamma   25.41656297
_symmetry_Int_Tables_number   1
_chemical_formula_structural   Pr2Dy2B4I5
_chemical_formula_sum   'Pr2 Dy2 B4 I5'
_cell_volume   386.15366149
_cell_formula_units_Z   1
loop_
 _symmetry_equiv_pos_site_id
 _symmetry_equiv_pos_as_xyz
  1  'x, y, z'
loop_
 _atom_site_type_symbol
 _atom_site_label
 _atom_site_symmetry_multiplicity
 _atom_site_fract_x
 _atom_site_fract_y
 _atom_site_fract_z
 _atom_site_occupancy
  Pr  Pr0  1  0.134544  0.134544  0.930715  1
  Pr  Pr1  1  0.867404  0.867404  0.067747  1
  Dy  Dy2  1  0.502888  0.502888  0.752990  1
  Dy  Dy3  1  0.499166  0.499166  0.245772  1
  B  B4  1  0.315494  0.686447  0.999414  1
  B  B5  1  0.686447  0.315494  0.999414  1
  B  B6  1  0.001066  0.001066  0.097881  1
  B  B7  1  0.000880  0.000880  0.900921  1
  I  I8  1  0.670313  0.670313  0.666128  1
  I  I9  1  0.331782  0.331782  0.332637  1
  I  I10  1  0.330694  0.330694  0.834351  1
  I  I11  1  0.671602  0.671602  0.163407  1
  I  I12  1  0.002019  0.002019  0.498821  1
