# generated using pymatgen
data_La3Nd15B6(C6I5)2
_symmetry_space_group_name_H-M   'P 1'
_cell_length_a   3.92271800
_cell_length_b   8.11950611
_cell_length_c   33.50820901
_cell_angle_alpha   90.00828708
_cell_angle_beta   89.99986825
_cell_angle_gamma   90.00021508
_symmetry_Int_Tables_number   1
_chemical_formula_structural   La3Nd15B6(C6I5)2
_chemical_formula_sum   'La3 Nd15 B6 C12 I10'
_cell_volume   1067.25429809
_cell_formula_units_Z   1
loop_
 _symmetry_equiv_pos_site_id
 _symmetry_equiv_pos_as_xyz
  1  'x, y, z'
loop_
 _atom_site_type_symbol
 _atom_site_label
 _atom_site_symmetry_multiplicity
 _atom_site_fract_x
 _atom_site_fract_y
 _atom_site_fract_z
 _atom_site_occupancy
  La  La0  1  0.250000  0.564219  0.249987  1
  La  La1  1  0.749997  0.435494  0.750097  1
  La  La2  1  0.749992  0.078428  0.404703  1
  Nd  Nd3  1  0.749993  0.074570  0.094894  1
  Nd  Nd4  1  0.750005  0.818710  0.009299  1
  Nd  Nd5  1  0.250002  0.181304  0.990746  1
  Nd  Nd6  1  0.249997  0.925144  0.594935  1
  Nd  Nd7  1  0.250001  0.333284  0.865005  1
  Nd  Nd8  1  0.750003  0.055248  0.693892  1
  Nd  Nd9  1  0.250003  0.943766  0.306096  1
  Nd  Nd10  1  0.750004  0.666967  0.134965  1
  Nd  Nd11  1  0.750007  0.055221  0.806244  1
  Nd  Nd12  1  0.250001  0.944471  0.193789  1
  Nd  Nd13  1  0.250004  0.333148  0.635149  1
  Nd  Nd14  1  0.250000  0.925244  0.905112  1
  Nd  Nd15  1  0.250000  0.180455  0.509374  1
  Nd  Nd16  1  0.750000  0.665714  0.364732  1
  Nd  Nd17  1  0.750001  0.817739  0.490970  1
  B  B18  1  0.249999  0.217813  0.750075  1
  B  B19  1  0.750000  0.131719  0.920172  1
  B  B20  1  0.750000  0.782079  0.249885  1
  B  B21  1  0.249997  0.865894  0.420220  1
  B  B22  1  0.249995  0.868198  0.079864  1
  B  B23  1  0.749997  0.131771  0.579962  1
  C  C24  1  0.750000  0.134855  0.624129  1
  C  C25  1  0.749999  0.030618  0.957018  1
  C  C26  1  0.249999  0.967453  0.457077  1
  C  C27  1  0.750001  0.736902  0.292969  1
  C  C28  1  0.250000  0.262568  0.793190  1
  C  C29  1  0.250006  0.969412  0.043016  1
  C  C30  1  0.750002  0.737585  0.206763  1
  C  C31  1  0.750001  0.030155  0.543165  1
  C  C32  1  0.250003  0.865324  0.124015  1
  C  C33  1  0.750003  0.134607  0.876034  1
  C  C34  1  0.250000  0.864039  0.375989  1
  C  C35  1  0.250002  0.262368  0.706944  1
  I  I36  1  0.250002  0.573080  0.951631  1
  I  I37  1  0.749989  0.671475  0.652101  1
  I  I38  1  0.250001  0.328616  0.152091  1
  I  I39  1  0.249997  0.332888  0.346585  1
  I  I40  1  0.750001  0.430980  0.452151  1
  I  I41  1  0.250000  0.799576  0.750044  1
  I  I42  1  0.750001  0.671442  0.847971  1
  I  I43  1  0.750001  0.200020  0.249926  1
  I  I44  1  0.249994  0.572620  0.548591  1
  I  I45  1  0.749999  0.426821  0.048434  1
