# generated using pymatgen
data_YbPa3(Rh2Pb)2
_symmetry_space_group_name_H-M   'P 1'
_cell_length_a   7.80962800
_cell_length_b   7.80962766
_cell_length_c   3.59097200
_cell_angle_alpha   90.00000000
_cell_angle_beta   90.00000000
_cell_angle_gamma   87.69576601
_symmetry_Int_Tables_number   1
_chemical_formula_structural   YbPa3(Rh2Pb)2
_chemical_formula_sum   'Yb1 Pa3 Rh4 Pb2'
_cell_volume   218.83732302
_cell_formula_units_Z   1
loop_
 _symmetry_equiv_pos_site_id
 _symmetry_equiv_pos_as_xyz
  1  'x, y, z'
loop_
 _atom_site_type_symbol
 _atom_site_label
 _atom_site_symmetry_multiplicity
 _atom_site_fract_x
 _atom_site_fract_y
 _atom_site_fract_z
 _atom_site_occupancy
  Yb  Yb0  1  0.331913  0.831913  0.500000  1
  Pa  Pa1  1  0.667109  0.167109  0.500000  1
  Pa  Pa2  1  0.171267  0.330733  0.500000  1
  Pa  Pa3  1  0.830733  0.671267  0.500000  1
  Rh  Rh4  1  0.857731  0.357731  0.000000  1
  Rh  Rh5  1  0.375520  0.148948  0.000000  1
  Rh  Rh6  1  0.648948  0.875520  0.000000  1
  Rh  Rh7  1  0.108528  0.608528  0.000000  1
  Pb  Pb8  1  0.012992  0.995259  0.000000  1
  Pb  Pb9  1  0.495259  0.512992  0.000000  1
