# generated using pymatgen
data_Er2Al9ReAu2
_symmetry_space_group_name_H-M   'P 1'
_cell_length_a   7.71186076
_cell_length_b   7.71220369
_cell_length_c   9.51705400
_cell_angle_alpha   89.99939917
_cell_angle_beta   89.99920847
_cell_angle_gamma   119.37814006
_symmetry_Int_Tables_number   1
_chemical_formula_structural   Er2Al9ReAu2
_chemical_formula_sum   'Er4 Al18 Re2 Au4'
_cell_volume   493.23998828
_cell_formula_units_Z   2
loop_
 _symmetry_equiv_pos_site_id
 _symmetry_equiv_pos_as_xyz
  1  'x, y, z'
loop_
 _atom_site_type_symbol
 _atom_site_label
 _atom_site_symmetry_multiplicity
 _atom_site_fract_x
 _atom_site_fract_y
 _atom_site_fract_z
 _atom_site_occupancy
  Er  Er0  1  0.991830  0.672852  0.249996  1
  Er  Er1  1  0.008170  0.327148  0.750004  1
  Er  Er2  1  0.672898  0.991815  0.249998  1
  Er  Er3  1  0.327102  0.008185  0.750002  1
  Al  Al4  1  0.124977  0.124938  0.250002  1
  Al  Al5  1  0.875023  0.875062  0.749998  1
  Al  Al6  1  0.000365  0.326597  0.080869  1
  Al  Al7  1  0.999635  0.673403  0.919131  1
  Al  Al8  1  0.999635  0.673398  0.580867  1
  Al  Al9  1  0.326652  0.000359  0.419143  1
  Al  Al10  1  0.000365  0.326602  0.419133  1
  Al  Al11  1  0.673348  0.999641  0.580857  1
  Al  Al12  1  0.673352  0.999642  0.919138  1
  Al  Al13  1  0.326648  0.000358  0.080862  1
  Al  Al14  1  0.323747  0.323727  0.556716  1
  Al  Al15  1  0.676253  0.676273  0.443284  1
  Al  Al16  1  0.676259  0.676266  0.056705  1
  Al  Al17  1  0.323741  0.323734  0.943295  1
  Al  Al18  1  0.346706  0.546672  0.250004  1
  Al  Al19  1  0.653294  0.453328  0.749996  1
  Al  Al20  1  0.546709  0.346701  0.249997  1
  Al  Al21  1  0.453291  0.653299  0.750003  1
  Re  Re22  1  0.000000  0.000000  0.000000  1
  Re  Re23  1  0.000000  0.000000  0.500000  1
  Au  Au24  1  0.673670  0.326478  0.000014  1
  Au  Au25  1  0.326330  0.673522  0.999986  1
  Au  Au26  1  0.326312  0.673535  0.500003  1
  Au  Au27  1  0.673688  0.326465  0.499997  1
