# generated using pymatgen
data_La20TcGe8Rh3
_symmetry_space_group_name_H-M   'P 1'
_cell_length_a   8.18344383
_cell_length_b   9.01485100
_cell_length_c   12.64651160
_cell_angle_alpha   90.00000000
_cell_angle_beta   89.72387474
_cell_angle_gamma   90.00000000
_symmetry_Int_Tables_number   1
_chemical_formula_structural   La20TcGe8Rh3
_chemical_formula_sum   'La20 Tc1 Ge8 Rh3'
_cell_volume   932.95428188
_cell_formula_units_Z   1
loop_
 _symmetry_equiv_pos_site_id
 _symmetry_equiv_pos_as_xyz
  1  'x, y, z'
loop_
 _atom_site_type_symbol
 _atom_site_label
 _atom_site_symmetry_multiplicity
 _atom_site_fract_x
 _atom_site_fract_y
 _atom_site_fract_z
 _atom_site_occupancy
  La  La0  1  0.675379  0.467938  0.073821  1
  La  La1  1  0.178243  0.532903  0.422833  1
  La  La2  1  0.320856  0.965210  0.927233  1
  La  La3  1  0.822672  0.034217  0.576172  1
  La  La4  1  0.320856  0.534790  0.927233  1
  La  La5  1  0.822672  0.465783  0.576172  1
  La  La6  1  0.675379  0.032062  0.073821  1
  La  La7  1  0.178243  0.967097  0.422833  1
  La  La8  1  0.958204  0.750000  0.998654  1
  La  La9  1  0.457751  0.250000  0.500949  1
  La  La10  1  0.041867  0.250000  0.000577  1
  La  La11  1  0.545563  0.750000  0.501252  1
  La  La12  1  0.356470  0.750000  0.200406  1
  La  La13  1  0.844449  0.250000  0.294656  1
  La  La14  1  0.653092  0.250000  0.796557  1
  La  La15  1  0.150011  0.750000  0.702659  1
  La  La16  1  0.824616  0.750000  0.280361  1
  La  La17  1  0.324930  0.250000  0.216629  1
  La  La18  1  0.173394  0.250000  0.716903  1
  La  La19  1  0.669437  0.750000  0.789223  1
  Tc  Tc20  1  0.589918  0.750000  0.020545  1
  Ge  Ge21  1  0.554366  0.495250  0.329121  1
  Ge  Ge22  1  0.056458  0.505320  0.171430  1
  Ge  Ge23  1  0.443797  0.995202  0.672732  1
  Ge  Ge24  1  0.944577  0.005835  0.827203  1
  Ge  Ge25  1  0.443797  0.504798  0.672732  1
  Ge  Ge26  1  0.944577  0.494165  0.827203  1
  Ge  Ge27  1  0.554366  0.004750  0.329121  1
  Ge  Ge28  1  0.056458  0.994680  0.171430  1
  Rh  Rh29  1  0.078062  0.250000  0.482106  1
  Rh  Rh30  1  0.416772  0.250000  0.981607  1
  Rh  Rh31  1  0.922769  0.750000  0.515830  1
