# generated using pymatgen
data_Tb5Nd3(AgRh)2
_symmetry_space_group_name_H-M   'P 1'
_cell_length_a   9.67457946
_cell_length_b   9.67457808
_cell_length_c   9.67457900
_cell_angle_alpha   60.00000029
_cell_angle_beta   60.00000498
_cell_angle_gamma   60.00000258
_symmetry_Int_Tables_number   1
_chemical_formula_structural   Tb5Nd3(AgRh)2
_chemical_formula_sum   'Tb10 Nd6 Ag4 Rh4'
_cell_volume   640.29665524
_cell_formula_units_Z   2
loop_
 _symmetry_equiv_pos_site_id
 _symmetry_equiv_pos_as_xyz
  1  'x, y, z'
loop_
 _atom_site_type_symbol
 _atom_site_label
 _atom_site_symmetry_multiplicity
 _atom_site_fract_x
 _atom_site_fract_y
 _atom_site_fract_z
 _atom_site_occupancy
  Tb  Tb0  1  0.601368  0.601368  0.601368  1
  Tb  Tb1  1  0.601368  0.601368  0.195896  1
  Tb  Tb2  1  0.601368  0.195896  0.601368  1
  Tb  Tb3  1  0.195896  0.601368  0.601368  1
  Tb  Tb4  1  0.063897  0.436103  0.436103  1
  Tb  Tb5  1  0.436103  0.063897  0.063897  1
  Tb  Tb6  1  0.436103  0.063897  0.436103  1
  Tb  Tb7  1  0.063897  0.436103  0.063897  1
  Tb  Tb8  1  0.436103  0.436103  0.063897  1
  Tb  Tb9  1  0.063897  0.063897  0.436103  1
  Nd  Nd10  1  0.188955  0.811045  0.811045  1
  Nd  Nd11  1  0.811045  0.188955  0.188955  1
  Nd  Nd12  1  0.811045  0.188955  0.811045  1
  Nd  Nd13  1  0.188955  0.811045  0.188955  1
  Nd  Nd14  1  0.811045  0.811045  0.188955  1
  Nd  Nd15  1  0.188955  0.188955  0.811045  1
  Ag  Ag16  1  0.829971  0.829971  0.829971  1
  Ag  Ag17  1  0.829971  0.829971  0.510088  1
  Ag  Ag18  1  0.829971  0.510088  0.829971  1
  Ag  Ag19  1  0.510088  0.829971  0.829971  1
  Rh  Rh20  1  0.392978  0.392978  0.392978  1
  Rh  Rh21  1  0.392978  0.392978  0.821064  1
  Rh  Rh22  1  0.392978  0.821064  0.392978  1
  Rh  Rh23  1  0.821064  0.392978  0.392978  1
