# generated using pymatgen
data_Ti4ZnPdN2
_symmetry_space_group_name_H-M   'P 1'
_cell_length_a   8.31020360
_cell_length_b   8.31020439
_cell_length_c   4.25205000
_cell_angle_alpha   90.00000000
_cell_angle_beta   90.00000000
_cell_angle_gamma   159.47300324
_symmetry_Int_Tables_number   1
_chemical_formula_structural   Ti4ZnPdN2
_chemical_formula_sum   'Ti4 Zn1 Pd1 N2'
_cell_volume   102.96602521
_cell_formula_units_Z   1
loop_
 _symmetry_equiv_pos_site_id
 _symmetry_equiv_pos_as_xyz
  1  'x, y, z'
loop_
 _atom_site_type_symbol
 _atom_site_label
 _atom_site_symmetry_multiplicity
 _atom_site_fract_x
 _atom_site_fract_y
 _atom_site_fract_z
 _atom_site_occupancy
  Ti  Ti0  1  0.787008  0.212992  0.250000  1
  Ti  Ti1  1  0.212589  0.787411  0.750000  1
  Ti  Ti2  1  0.611416  0.388584  0.250000  1
  Ti  Ti3  1  0.388228  0.611772  0.750000  1
  Zn  Zn4  1  0.044122  0.955878  0.750000  1
  Pd  Pd5  1  0.957257  0.042743  0.250000  1
  N  N6  1  0.199297  0.800703  0.250000  1
  N  N7  1  0.800083  0.199917  0.750000  1
