# generated using pymatgen
data_NbGaI8
_symmetry_space_group_name_H-M   'P 1'
_cell_length_a   11.30128505
_cell_length_b   11.30128498
_cell_length_c   10.01966600
_cell_angle_alpha   90.00000000
_cell_angle_beta   90.00000000
_cell_angle_gamma   128.35872748
_symmetry_Int_Tables_number   1
_chemical_formula_structural   NbGaI8
_chemical_formula_sum   'Nb2 Ga2 I16'
_cell_volume   1003.46653153
_cell_formula_units_Z   2
loop_
 _symmetry_equiv_pos_site_id
 _symmetry_equiv_pos_as_xyz
  1  'x, y, z'
loop_
 _atom_site_type_symbol
 _atom_site_label
 _atom_site_symmetry_multiplicity
 _atom_site_fract_x
 _atom_site_fract_y
 _atom_site_fract_z
 _atom_site_occupancy
  Nb  Nb0  1  0.610582  0.389418  0.250000  1
  Nb  Nb1  1  0.389418  0.610582  0.750000  1
  Ga  Ga2  1  0.812875  0.187125  0.250000  1
  Ga  Ga3  1  0.187125  0.812875  0.750000  1
  I  I4  1  0.524809  0.070069  0.250000  1
  I  I5  1  0.070069  0.524809  0.750000  1
  I  I6  1  0.475191  0.929931  0.750000  1
  I  I7  1  0.929931  0.475191  0.250000  1
  I  I8  1  0.631104  0.368896  0.983018  1
  I  I9  1  0.368896  0.631104  0.016982  1
  I  I10  1  0.631104  0.368896  0.516982  1
  I  I11  1  0.368896  0.631104  0.483018  1
  I  I12  1  0.319554  0.259956  0.250000  1
  I  I13  1  0.259956  0.319554  0.750000  1
  I  I14  1  0.680446  0.740044  0.750000  1
  I  I15  1  0.740044  0.680446  0.250000  1
  I  I16  1  0.881071  0.118929  0.462761  1
  I  I17  1  0.118929  0.881071  0.537239  1
  I  I18  1  0.881071  0.118929  0.037239  1
  I  I19  1  0.118929  0.881071  0.962761  1
