# generated using pymatgen
data_YbHf(UH6)2
_symmetry_space_group_name_H-M   'P 1'
_cell_length_a   6.43664900
_cell_length_b   6.44073400
_cell_length_c   6.44073400
_cell_angle_alpha   90.00000000
_cell_angle_beta   90.00000000
_cell_angle_gamma   90.00000000
_symmetry_Int_Tables_number   1
_chemical_formula_structural   YbHf(UH6)2
_chemical_formula_sum   'Yb2 Hf2 U4 H24'
_cell_volume   267.01186100
_cell_formula_units_Z   2
loop_
 _symmetry_equiv_pos_site_id
 _symmetry_equiv_pos_as_xyz
  1  'x, y, z'
loop_
 _atom_site_type_symbol
 _atom_site_label
 _atom_site_symmetry_multiplicity
 _atom_site_fract_x
 _atom_site_fract_y
 _atom_site_fract_z
 _atom_site_occupancy
  Yb  Yb0  1  0.250000  0.000000  0.500000  1
  Yb  Yb1  1  0.750000  0.000000  0.500000  1
  Hf  Hf2  1  0.000000  0.000000  0.000000  1
  Hf  Hf3  1  0.500000  0.500000  0.500000  1
  U  U4  1  0.000000  0.500000  0.252379  1
  U  U5  1  0.000000  0.500000  0.747621  1
  U  U6  1  0.500000  0.752379  0.000000  1
  U  U7  1  0.500000  0.247621  0.000000  1
  H  H8  1  0.000000  0.155251  0.281399  1
  H  H9  1  0.500000  0.218601  0.655251  1
  H  H10  1  0.500000  0.781399  0.344749  1
  H  H11  1  0.796414  0.648016  0.500000  1
  H  H12  1  0.203586  0.648016  0.500000  1
  H  H13  1  0.348031  0.500000  0.792544  1
  H  H14  1  0.651969  0.500000  0.792544  1
  H  H15  1  0.296414  0.000000  0.148016  1
  H  H16  1  0.151969  0.292544  0.000000  1
  H  H17  1  0.848031  0.707456  0.000000  1
  H  H18  1  0.296414  0.000000  0.851984  1
  H  H19  1  0.848031  0.292544  0.000000  1
  H  H20  1  0.703586  0.000000  0.148016  1
  H  H21  1  0.703586  0.000000  0.851984  1
  H  H22  1  0.151969  0.707456  0.000000  1
  H  H23  1  0.000000  0.844749  0.718601  1
  H  H24  1  0.000000  0.155251  0.718601  1
  H  H25  1  0.000000  0.844749  0.281399  1
  H  H26  1  0.651969  0.500000  0.207456  1
  H  H27  1  0.348031  0.500000  0.207456  1
  H  H28  1  0.796414  0.351984  0.500000  1
  H  H29  1  0.203586  0.351984  0.500000  1
  H  H30  1  0.500000  0.781399  0.655251  1
  H  H31  1  0.500000  0.218601  0.344749  1
