# generated using pymatgen
data_AcPO4
_symmetry_space_group_name_H-M   'P 1'
_cell_length_a   7.33200100
_cell_length_b   6.71179499
_cell_length_c   8.56209059
_cell_angle_alpha   53.51295034
_cell_angle_beta   90.00000000
_cell_angle_gamma   90.00000000
_symmetry_Int_Tables_number   1
_chemical_formula_structural   AcPO4
_chemical_formula_sum   'Ac4 P4 O16'
_cell_volume   338.76018218
_cell_formula_units_Z   4
loop_
 _symmetry_equiv_pos_site_id
 _symmetry_equiv_pos_as_xyz
  1  'x, y, z'
loop_
 _atom_site_type_symbol
 _atom_site_label
 _atom_site_symmetry_multiplicity
 _atom_site_fract_x
 _atom_site_fract_y
 _atom_site_fract_z
 _atom_site_occupancy
  Ac  Ac0  1  0.339084  0.184283  0.216562  1
  Ac  Ac1  1  0.839084  0.815717  0.283438  1
  Ac  Ac2  1  0.660916  0.815717  0.783438  1
  Ac  Ac3  1  0.160916  0.184283  0.716562  1
  P  P4  1  0.337777  0.694187  0.195271  1
  P  P5  1  0.837777  0.305813  0.304729  1
  P  P6  1  0.662223  0.305813  0.804729  1
  P  P7  1  0.162223  0.694187  0.695271  1
  O  O8  1  0.394213  0.672218  0.030706  1
  O  O9  1  0.894213  0.327782  0.469294  1
  O  O10  1  0.605787  0.327782  0.969294  1
  O  O11  1  0.105787  0.672218  0.530706  1
  O  O12  1  0.174005  0.880468  0.120795  1
  O  O13  1  0.674005  0.119532  0.379205  1
  O  O14  1  0.825995  0.119532  0.879205  1
  O  O15  1  0.325995  0.880468  0.620795  1
  O  O16  1  0.213337  0.427112  0.868452  1
  O  O17  1  0.713337  0.572888  0.631548  1
  O  O18  1  0.786663  0.572888  0.131548  1
  O  O19  1  0.286663  0.427112  0.368452  1
  O  O20  1  0.009582  0.803784  0.748865  1
  O  O21  1  0.509582  0.196216  0.751135  1
  O  O22  1  0.990418  0.196216  0.251135  1
  O  O23  1  0.490418  0.803784  0.248865  1
