# generated using pymatgen
data_La2Zn11Ir6
_symmetry_space_group_name_H-M   'P 1'
_cell_length_a   6.86130413
_cell_length_b   6.86130408
_cell_length_c   6.86130372
_cell_angle_alpha   84.35244545
_cell_angle_beta   84.35244657
_cell_angle_gamma   84.35244303
_symmetry_Int_Tables_number   1
_chemical_formula_structural   La2Zn11Ir6
_chemical_formula_sum   'La2 Zn11 Ir6'
_cell_volume   318.59841957
_cell_formula_units_Z   1
loop_
 _symmetry_equiv_pos_site_id
 _symmetry_equiv_pos_as_xyz
  1  'x, y, z'
loop_
 _atom_site_type_symbol
 _atom_site_label
 _atom_site_symmetry_multiplicity
 _atom_site_fract_x
 _atom_site_fract_y
 _atom_site_fract_z
 _atom_site_occupancy
  La  La0  1  0.640460  0.640460  0.640460  1
  La  La1  1  0.344372  0.344372  0.344372  1
  Zn  Zn2  1  0.156510  0.658666  0.658668  1
  Zn  Zn3  1  0.658667  0.658667  0.156511  1
  Zn  Zn4  1  0.658666  0.156510  0.658668  1
  Zn  Zn5  1  0.883610  0.883610  0.883610  1
  Zn  Zn6  1  0.107604  0.107604  0.107604  1
  Zn  Zn7  1  0.700906  0.004532  0.300021  1
  Zn  Zn8  1  0.004531  0.300021  0.700907  1
  Zn  Zn9  1  0.300021  0.700906  0.004532  1
  Zn  Zn10  1  0.300021  0.004531  0.700907  1
  Zn  Zn11  1  0.004532  0.700906  0.300021  1
  Zn  Zn12  1  0.700906  0.300021  0.004532  1
  Ir  Ir13  1  0.348179  0.842388  0.348178  1
  Ir  Ir14  1  0.348180  0.348180  0.842389  1
  Ir  Ir15  1  0.842388  0.348179  0.348178  1
  Ir  Ir16  1  0.999702  0.501041  0.999701  1
  Ir  Ir17  1  0.501041  0.999702  0.999701  1
  Ir  Ir18  1  0.999702  0.999702  0.501039  1
