# generated using pymatgen
data_NdPaNi12P5
_symmetry_space_group_name_H-M   'P 1'
_cell_length_a   3.67612800
_cell_length_b   10.70906310
_cell_length_c   13.12276339
_cell_angle_alpha   72.02159777
_cell_angle_beta   90.00000000
_cell_angle_gamma   90.00000000
_symmetry_Int_Tables_number   1
_chemical_formula_structural   NdPaNi12P5
_chemical_formula_sum   'Nd2 Pa2 Ni24 P10'
_cell_volume   491.39064503
_cell_formula_units_Z   2
loop_
 _symmetry_equiv_pos_site_id
 _symmetry_equiv_pos_as_xyz
  1  'x, y, z'
loop_
 _atom_site_type_symbol
 _atom_site_label
 _atom_site_symmetry_multiplicity
 _atom_site_fract_x
 _atom_site_fract_y
 _atom_site_fract_z
 _atom_site_occupancy
  Nd  Nd0  1  0.250000  0.246936  0.187907  1
  Nd  Nd1  1  0.750000  0.753064  0.812093  1
  Pa  Pa2  1  0.250000  0.279575  0.682000  1
  Pa  Pa3  1  0.750000  0.720425  0.318000  1
  Ni  Ni4  1  0.250000  0.831137  0.144935  1
  Ni  Ni5  1  0.750000  0.168863  0.855065  1
  Ni  Ni6  1  0.250000  0.286965  0.442024  1
  Ni  Ni7  1  0.750000  0.713035  0.557976  1
  Ni  Ni8  1  0.250000  0.067884  0.018561  1
  Ni  Ni9  1  0.750000  0.932116  0.981439  1
  Ni  Ni10  1  0.250000  0.063064  0.445740  1
  Ni  Ni11  1  0.750000  0.936936  0.554260  1
  Ni  Ni12  1  0.250000  0.595163  0.696486  1
  Ni  Ni13  1  0.750000  0.404837  0.303514  1
  Ni  Ni14  1  0.250000  0.583695  0.008594  1
  Ni  Ni15  1  0.750000  0.416305  0.991406  1
  Ni  Ni16  1  0.250000  0.580834  0.506933  1
  Ni  Ni17  1  0.750000  0.419166  0.493067  1
  Ni  Ni18  1  0.250000  0.296441  0.915707  1
  Ni  Ni19  1  0.750000  0.703559  0.084293  1
  Ni  Ni20  1  0.250000  0.996074  0.658815  1
  Ni  Ni21  1  0.750000  0.003926  0.341185  1
  Ni  Ni22  1  0.250000  0.834398  0.434620  1
  Ni  Ni23  1  0.750000  0.165602  0.565380  1
  Ni  Ni24  1  0.250000  0.991126  0.846996  1
  Ni  Ni25  1  0.750000  0.008874  0.153004  1
  Ni  Ni26  1  0.250000  0.570145  0.203619  1
  Ni  Ni27  1  0.750000  0.429855  0.796381  1
  P  P28  1  0.250000  0.508976  0.871432  1
  P  P29  1  0.750000  0.491024  0.128568  1
  P  P30  1  0.250000  0.803756  0.984525  1
  P  P31  1  0.750000  0.196244  0.015475  1
  P  P32  1  0.250000  0.496859  0.376194  1
  P  P33  1  0.750000  0.503141  0.623806  1
  P  P34  1  0.250000  0.812272  0.609376  1
  P  P35  1  0.750000  0.187728  0.390624  1
  P  P36  1  0.250000  0.950157  0.259232  1
  P  P37  1  0.750000  0.049843  0.740768  1
