# generated using pymatgen
data_Dy(OsO3)3
_symmetry_space_group_name_H-M   'P 1'
_cell_length_a   7.36085300
_cell_length_b   5.18405469
_cell_length_c   8.21582300
_cell_angle_alpha   85.43885815
_cell_angle_beta   90.00000000
_cell_angle_gamma   90.00000000
_symmetry_Int_Tables_number   1
_chemical_formula_structural   Dy(OsO3)3
_chemical_formula_sum   'Dy2 Os6 O18'
_cell_volume   312.51525247
_cell_formula_units_Z   2
loop_
 _symmetry_equiv_pos_site_id
 _symmetry_equiv_pos_as_xyz
  1  'x, y, z'
loop_
 _atom_site_type_symbol
 _atom_site_label
 _atom_site_symmetry_multiplicity
 _atom_site_fract_x
 _atom_site_fract_y
 _atom_site_fract_z
 _atom_site_occupancy
  Dy  Dy0  1  0.250000  0.971859  0.427385  1
  Dy  Dy1  1  0.750000  0.028555  0.572337  1
  Os  Os2  1  0.999857  0.000098  0.000005  1
  Os  Os3  1  0.500143  0.000098  0.000005  1
  Os  Os4  1  0.004568  0.538834  0.692692  1
  Os  Os5  1  0.495432  0.538834  0.692692  1
  Os  Os6  1  0.995429  0.461200  0.307370  1
  Os  Os7  1  0.504571  0.461200  0.307370  1
  O  O8  1  0.250000  0.897274  0.983565  1
  O  O9  1  0.934129  0.853519  0.789354  1
  O  O10  1  0.565871  0.853519  0.789354  1
  O  O11  1  0.959135  0.740583  0.470788  1
  O  O12  1  0.540865  0.740583  0.470788  1
  O  O13  1  0.250000  0.668606  0.663865  1
  O  O14  1  0.954911  0.683859  0.121417  1
  O  O15  1  0.545089  0.683859  0.121417  1
  O  O16  1  0.250000  0.584159  0.312161  1
  O  O17  1  0.750000  0.415868  0.688267  1
  O  O18  1  0.045065  0.316232  0.878548  1
  O  O19  1  0.454935  0.316232  0.878548  1
  O  O20  1  0.750000  0.330719  0.336207  1
  O  O21  1  0.040580  0.259199  0.529306  1
  O  O22  1  0.459420  0.259199  0.529306  1
  O  O23  1  0.065799  0.146526  0.210499  1
  O  O24  1  0.434201  0.146526  0.210499  1
  O  O25  1  0.750000  0.102857  0.016252  1
