# generated using pymatgen
data_Y4Al16Ga2PtRh5
_symmetry_space_group_name_H-M   'P 1'
_cell_length_a   7.55193942
_cell_length_b   7.55193973
_cell_length_c   9.50227735
_cell_angle_alpha   89.97908114
_cell_angle_beta   89.97907169
_cell_angle_gamma   119.37633195
_symmetry_Int_Tables_number   1
_chemical_formula_structural   Y4Al16Ga2PtRh5
_chemical_formula_sum   'Y4 Al16 Ga2 Pt1 Rh5'
_cell_volume   472.24828682
_cell_formula_units_Z   1
loop_
 _symmetry_equiv_pos_site_id
 _symmetry_equiv_pos_as_xyz
  1  'x, y, z'
loop_
 _atom_site_type_symbol
 _atom_site_label
 _atom_site_symmetry_multiplicity
 _atom_site_fract_x
 _atom_site_fract_y
 _atom_site_fract_z
 _atom_site_occupancy
  Y  Y0  1  0.993130  0.670941  0.250008  1
  Y  Y1  1  0.004362  0.327034  0.750305  1
  Y  Y2  1  0.672966  0.995638  0.249695  1
  Y  Y3  1  0.329059  0.006870  0.749992  1
  Al  Al4  1  0.005303  0.335643  0.076240  1
  Al  Al5  1  0.002311  0.668251  0.923834  1
  Al  Al6  1  0.000337  0.664612  0.574307  1
  Al  Al7  1  0.335388  0.999663  0.425693  1
  Al  Al8  1  0.001404  0.335324  0.425333  1
  Al  Al9  1  0.664676  0.998596  0.574667  1
  Al  Al10  1  0.664357  0.994697  0.923760  1
  Al  Al11  1  0.331749  0.997689  0.076166  1
  Al  Al12  1  0.332981  0.332961  0.550676  1
  Al  Al13  1  0.667039  0.667019  0.449324  1
  Al  Al14  1  0.665896  0.669224  0.053678  1
  Al  Al15  1  0.330776  0.334104  0.946322  1
  Al  Al16  1  0.339759  0.551600  0.250488  1
  Al  Al17  1  0.661009  0.453459  0.746568  1
  Al  Al18  1  0.546541  0.338991  0.253432  1
  Al  Al19  1  0.448400  0.660241  0.749512  1
  Ga  Ga20  1  0.129934  0.128791  0.250227  1
  Ga  Ga21  1  0.871209  0.870066  0.749773  1
  Pt  Pt22  1  0.671881  0.328119  0.000000  1
  Rh  Rh23  1  0.328587  0.671413  0.000000  1
  Rh  Rh24  1  0.328865  0.671135  0.500000  1
  Rh  Rh25  1  0.671825  0.328175  0.500000  1
  Rh  Rh26  1  0.999998  0.000002  0.000000  1
  Rh  Rh27  1  0.000258  0.999742  0.500000  1
