# generated using pymatgen
data_CeErMnC4
_symmetry_space_group_name_H-M   'P 1'
_cell_length_a   6.53294371
_cell_length_b   6.78699387
_cell_length_c   6.78699467
_cell_angle_alpha   136.45563497
_cell_angle_beta   111.28795146
_cell_angle_gamma   85.57258928
_symmetry_Int_Tables_number   1
_chemical_formula_structural   CeErMnC4
_chemical_formula_sum   'Ce2 Er2 Mn2 C8'
_cell_volume   184.88556163
_cell_formula_units_Z   2
loop_
 _symmetry_equiv_pos_site_id
 _symmetry_equiv_pos_as_xyz
  1  'x, y, z'
loop_
 _atom_site_type_symbol
 _atom_site_label
 _atom_site_symmetry_multiplicity
 _atom_site_fract_x
 _atom_site_fract_y
 _atom_site_fract_z
 _atom_site_occupancy
  Ce  Ce0  1  0.502914  0.350989  0.151925  1
  Ce  Ce1  1  0.497086  0.649011  0.848075  1
  Er  Er2  1  0.193357  0.859333  0.334024  1
  Er  Er3  1  0.806643  0.140667  0.665976  1
  Mn  Mn4  1  0.000000  0.251954  0.251954  1
  Mn  Mn5  1  0.000000  0.748046  0.748046  1
  C  C6  1  0.249256  0.074905  0.174353  1
  C  C7  1  0.750744  0.925095  0.825647  1
  C  C8  1  0.922915  0.582601  0.340314  1
  C  C9  1  0.077085  0.417399  0.659686  1
  C  C10  1  0.473795  0.122708  0.351086  1
  C  C11  1  0.526205  0.877292  0.648914  1
  C  C12  1  0.796486  0.629371  0.167115  1
  C  C13  1  0.203514  0.370629  0.832885  1
