# generated using pymatgen
data_Yb4InSiPt4
_symmetry_space_group_name_H-M   'P 1'
_cell_length_a   5.66065509
_cell_length_b   5.66065684
_cell_length_c   7.94719183
_cell_angle_alpha   78.44205274
_cell_angle_beta   78.44204889
_cell_angle_gamma   59.73647929
_symmetry_Int_Tables_number   1
_chemical_formula_structural   Yb4InSiPt4
_chemical_formula_sum   'Yb4 In1 Si1 Pt4'
_cell_volume   213.99594789
_cell_formula_units_Z   1
loop_
 _symmetry_equiv_pos_site_id
 _symmetry_equiv_pos_as_xyz
  1  'x, y, z'
loop_
 _atom_site_type_symbol
 _atom_site_label
 _atom_site_symmetry_multiplicity
 _atom_site_fract_x
 _atom_site_fract_y
 _atom_site_fract_z
 _atom_site_occupancy
  Yb  Yb0  1  0.793769  0.507482  0.853438  1
  Yb  Yb1  1  0.492518  0.206231  0.646562  1
  Yb  Yb2  1  0.212166  0.490789  0.152121  1
  Yb  Yb3  1  0.509211  0.787834  0.347879  1
  In  In4  1  0.154671  0.845329  0.750000  1
  Si  Si5  1  0.875882  0.124118  0.250000  1
  Pt  Pt6  1  0.988944  0.741100  0.483579  1
  Pt  Pt7  1  0.258900  0.011056  0.016421  1
  Pt  Pt8  1  0.983183  0.269244  0.480945  1
  Pt  Pt9  1  0.730756  0.016817  0.019055  1
