# generated using pymatgen
data_Tb2Y3(InSb)2
_symmetry_space_group_name_H-M   'P 1'
_cell_length_a   8.89353263
_cell_length_b   8.88557316
_cell_length_c   8.14770900
_cell_angle_alpha   89.98237712
_cell_angle_beta   90.02154986
_cell_angle_gamma   125.40830999
_symmetry_Int_Tables_number   1
_chemical_formula_structural   Tb2Y3(InSb)2
_chemical_formula_sum   'Tb4 Y6 In4 Sb4'
_cell_volume   524.77864993
_cell_formula_units_Z   2
loop_
 _symmetry_equiv_pos_site_id
 _symmetry_equiv_pos_as_xyz
  1  'x, y, z'
loop_
 _atom_site_type_symbol
 _atom_site_label
 _atom_site_symmetry_multiplicity
 _atom_site_fract_x
 _atom_site_fract_y
 _atom_site_fract_z
 _atom_site_occupancy
  Tb  Tb0  1  0.033324  0.309468  0.332403  1
  Tb  Tb1  1  0.966712  0.690992  0.667282  1
  Tb  Tb2  1  0.466674  0.190864  0.832286  1
  Tb  Tb3  1  0.808526  0.532869  0.167227  1
  Y  Y4  1  0.532923  0.808211  0.166994  1
  Y  Y5  1  0.192381  0.467503  0.833458  1
  Y  Y6  1  0.692297  0.967490  0.666923  1
  Y  Y7  1  0.307291  0.032474  0.333379  1
  Y  Y8  1  0.999987  0.999988  0.999996  1
  Y  Y9  1  0.499968  0.500065  0.499995  1
  In  In10  1  0.371551  0.371370  0.127607  1
  In  In11  1  0.628554  0.628470  0.872417  1
  In  In12  1  0.128315  0.128832  0.627596  1
  In  In13  1  0.871315  0.871607  0.372418  1
  Sb  Sb14  1  0.797032  0.202888  0.999174  1
  Sb  Sb15  1  0.203281  0.796778  0.000817  1
  Sb  Sb16  1  0.702325  0.296264  0.499464  1
  Sb  Sb17  1  0.297541  0.703870  0.500565  1
