# generated using pymatgen
data_Tm2Nb3(SiGe)2
_symmetry_space_group_name_H-M   'P 1'
_cell_length_a   7.06620000
_cell_length_b   6.92728538
_cell_length_c   7.14063100
_cell_angle_alpha   70.48220766
_cell_angle_beta   90.00000000
_cell_angle_gamma   90.00000000
_symmetry_Int_Tables_number   1
_chemical_formula_structural   Tm2Nb3(SiGe)2
_chemical_formula_sum   'Tm4 Nb6 Si4 Ge4'
_cell_volume   329.44609654
_cell_formula_units_Z   2
loop_
 _symmetry_equiv_pos_site_id
 _symmetry_equiv_pos_as_xyz
  1  'x, y, z'
loop_
 _atom_site_type_symbol
 _atom_site_label
 _atom_site_symmetry_multiplicity
 _atom_site_fract_x
 _atom_site_fract_y
 _atom_site_fract_z
 _atom_site_occupancy
  Tm  Tm0  1  0.325810  0.561941  0.807189  1
  Tm  Tm1  1  0.825810  0.938059  0.192811  1
  Tm  Tm2  1  0.674190  0.438059  0.192811  1
  Tm  Tm3  1  0.174190  0.061941  0.807189  1
  Nb  Nb4  1  0.500000  0.000000  0.500000  1
  Nb  Nb5  1  0.000000  0.500000  0.500000  1
  Nb  Nb6  1  0.824366  0.747055  0.739094  1
  Nb  Nb7  1  0.324366  0.752945  0.260906  1
  Nb  Nb8  1  0.175634  0.252945  0.260906  1
  Nb  Nb9  1  0.675634  0.247055  0.739094  1
  Si  Si10  1  0.125295  0.871256  0.506749  1
  Si  Si11  1  0.625295  0.628744  0.493251  1
  Si  Si12  1  0.874705  0.128744  0.493251  1
  Si  Si13  1  0.374705  0.371256  0.506749  1
  Ge  Ge14  1  0.536906  0.853583  0.918790  1
  Ge  Ge15  1  0.036906  0.646417  0.081210  1
  Ge  Ge16  1  0.463094  0.146417  0.081210  1
  Ge  Ge17  1  0.963094  0.353583  0.918790  1
