# generated using pymatgen
data_Nd5HoAl24Os7Au
_symmetry_space_group_name_H-M   'P 1'
_cell_length_a   8.94463942
_cell_length_b   8.94463945
_cell_length_c   9.62134522
_cell_angle_alpha   89.88675533
_cell_angle_beta   90.11324213
_cell_angle_gamma   120.10500270
_symmetry_Int_Tables_number   1
_chemical_formula_structural   Nd5HoAl24Os7Au
_chemical_formula_sum   'Nd5 Ho1 Al24 Os7 Au1'
_cell_volume   665.93292329
_cell_formula_units_Z   1
loop_
 _symmetry_equiv_pos_site_id
 _symmetry_equiv_pos_as_xyz
  1  'x, y, z'
loop_
 _atom_site_type_symbol
 _atom_site_label
 _atom_site_symmetry_multiplicity
 _atom_site_fract_x
 _atom_site_fract_y
 _atom_site_fract_z
 _atom_site_occupancy
  Nd  Nd0  1  0.189904  0.382528  0.249864  1
  Nd  Nd1  1  0.810193  0.617274  0.749849  1
  Nd  Nd2  1  0.617472  0.810096  0.249864  1
  Nd  Nd3  1  0.382726  0.189807  0.749849  1
  Nd  Nd4  1  0.192586  0.807414  0.254166  1
  Ho  Ho5  1  0.805210  0.194790  0.745487  1
  Al  Al6  1  0.328712  0.671288  0.014627  1
  Al  Al7  1  0.672220  0.327780  0.982134  1
  Al  Al8  1  0.666774  0.333226  0.514360  1
  Al  Al9  1  0.334009  0.665991  0.488141  1
  Al  Al10  1  0.160736  0.325297  0.575622  1
  Al  Al11  1  0.837236  0.673264  0.425888  1
  Al  Al12  1  0.674703  0.839264  0.575622  1
  Al  Al13  1  0.848604  0.676786  0.078054  1
  Al  Al14  1  0.326736  0.162764  0.425888  1
  Al  Al15  1  0.149010  0.321470  0.920291  1
  Al  Al16  1  0.163297  0.836703  0.575677  1
  Al  Al17  1  0.323214  0.151396  0.078054  1
  Al  Al18  1  0.836916  0.163084  0.427400  1
  Al  Al19  1  0.678530  0.850990  0.920291  1
  Al  Al20  1  0.836721  0.163279  0.071871  1
  Al  Al21  1  0.163308  0.836692  0.925207  1
  Al  Al22  1  0.562542  0.123152  0.249015  1
  Al  Al23  1  0.440804  0.879294  0.750928  1
  Al  Al24  1  0.876848  0.437458  0.249015  1
  Al  Al25  1  0.120706  0.559196  0.750928  1
  Al  Al26  1  0.564834  0.435166  0.256505  1
  Al  Al27  1  0.435123  0.564877  0.744177  1
  Al  Al28  1  0.999490  0.000510  0.250495  1
  Al  Al29  1  0.997795  0.002205  0.749662  1
  Os  Os30  1  0.501189  0.000498  0.999014  1
  Os  Os31  1  0.999502  0.498811  0.999014  1
  Os  Os32  1  0.501570  0.000635  0.501270  1
  Os  Os33  1  0.999365  0.498430  0.501270  1
  Os  Os34  1  0.500379  0.499621  0.500655  1
  Os  Os35  1  0.000258  0.999742  0.999749  1
  Os  Os36  1  0.000302  0.999698  0.500391  1
  Au  Au37  1  0.500476  0.499524  0.999708  1
