# generated using pymatgen
data_Nd6Zn4Cu2IrPd10
_symmetry_space_group_name_H-M   'P 1'
_cell_length_a   8.33439792
_cell_length_b   8.27433171
_cell_length_c   8.39245275
_cell_angle_alpha   109.38074537
_cell_angle_beta   109.80112992
_cell_angle_gamma   109.22742557
_symmetry_Int_Tables_number   1
_chemical_formula_structural   Nd6Zn4Cu2IrPd10
_chemical_formula_sum   'Nd6 Zn4 Cu2 Ir1 Pd10'
_cell_volume   445.54213574
_cell_formula_units_Z   1
loop_
 _symmetry_equiv_pos_site_id
 _symmetry_equiv_pos_as_xyz
  1  'x, y, z'
loop_
 _atom_site_type_symbol
 _atom_site_label
 _atom_site_symmetry_multiplicity
 _atom_site_fract_x
 _atom_site_fract_y
 _atom_site_fract_z
 _atom_site_occupancy
  Nd  Nd0  1  0.705374  0.702377  0.999774  1
  Nd  Nd1  1  0.294626  0.997004  0.294400  1
  Nd  Nd2  1  0.000000  0.299445  0.293380  1
  Nd  Nd3  1  0.298650  0.297734  0.002463  1
  Nd  Nd4  1  0.701350  0.999084  0.703813  1
  Nd  Nd5  1  0.000000  0.702925  0.701174  1
  Zn  Zn6  1  0.000000  0.001151  0.497673  1
  Zn  Zn7  1  0.000000  0.498946  0.996337  1
  Zn  Zn8  1  0.500037  0.998875  0.997951  1
  Zn  Zn9  1  0.499963  0.498838  0.497914  1
  Cu  Cu10  1  0.329024  0.330248  0.661208  1
  Cu  Cu11  1  0.670976  0.001224  0.332183  1
  Ir  Ir12  1  0.000000  0.999903  0.999460  1
  Pd  Pd13  1  0.000000  0.670731  0.331792  1
  Pd  Pd14  1  0.669565  0.333903  0.004647  1
  Pd  Pd15  1  0.330435  0.664339  0.335082  1
  Pd  Pd16  1  0.000000  0.327677  0.662640  1
  Pd  Pd17  1  0.340695  0.675025  0.010056  1
  Pd  Pd18  1  0.332769  0.006863  0.668388  1
  Pd  Pd19  1  0.662627  0.323955  0.333655  1
  Pd  Pd20  1  0.667231  0.674094  0.335619  1
  Pd  Pd21  1  0.659305  0.334330  0.669361  1
  Pd  Pd22  1  0.337373  0.661329  0.671028  1
