# generated using pymatgen
data_Tb11Nd5Cd4TcNi3
_symmetry_space_group_name_H-M   'P 1'
_cell_length_a   9.73248078
_cell_length_b   9.73521057
_cell_length_c   9.73520923
_cell_angle_alpha   59.43711304
_cell_angle_beta   59.45584419
_cell_angle_gamma   59.45585070
_symmetry_Int_Tables_number   1
_chemical_formula_structural   Tb11Nd5Cd4TcNi3
_chemical_formula_sum   'Tb11 Nd5 Cd4 Tc1 Ni3'
_cell_volume   644.06082872
_cell_formula_units_Z   1
loop_
 _symmetry_equiv_pos_site_id
 _symmetry_equiv_pos_as_xyz
  1  'x, y, z'
loop_
 _atom_site_type_symbol
 _atom_site_label
 _atom_site_symmetry_multiplicity
 _atom_site_fract_x
 _atom_site_fract_y
 _atom_site_fract_z
 _atom_site_occupancy
  Tb  Tb0  1  0.597250  0.598333  0.598333  1
  Tb  Tb1  1  0.599769  0.600635  0.208202  1
  Tb  Tb2  1  0.599769  0.208202  0.600635  1
  Tb  Tb3  1  0.206992  0.600620  0.600620  1
  Tb  Tb4  1  0.062189  0.436279  0.436279  1
  Tb  Tb5  1  0.435385  0.061296  0.061296  1
  Tb  Tb6  1  0.435498  0.061289  0.437588  1
  Tb  Tb7  1  0.061791  0.436172  0.060578  1
  Tb  Tb8  1  0.435498  0.437588  0.061289  1
  Tb  Tb9  1  0.061791  0.060578  0.436172  1
  Tb  Tb10  1  0.188760  0.811620  0.811620  1
  Nd  Nd11  1  0.802126  0.191850  0.191850  1
  Nd  Nd12  1  0.814959  0.186068  0.813428  1
  Nd  Nd13  1  0.191268  0.803144  0.189456  1
  Nd  Nd14  1  0.814959  0.813428  0.186068  1
  Nd  Nd15  1  0.191268  0.189456  0.803144  1
  Cd  Cd16  1  0.831071  0.828967  0.828967  1
  Cd  Cd17  1  0.828380  0.828626  0.510579  1
  Cd  Cd18  1  0.828380  0.510579  0.828626  1
  Cd  Cd19  1  0.508829  0.828571  0.828571  1
  Tc  Tc20  1  0.393189  0.392351  0.392351  1
  Ni  Ni21  1  0.392241  0.395140  0.826157  1
  Ni  Ni22  1  0.392241  0.826157  0.395140  1
  Ni  Ni23  1  0.826395  0.393052  0.393052  1
