# generated using pymatgen
data_KIn6IrAu3
_symmetry_space_group_name_H-M   'P 1'
_cell_length_a   8.35625400
_cell_length_b   8.35625429
_cell_length_c   4.26312600
_cell_angle_alpha   90.00000000
_cell_angle_beta   90.00000000
_cell_angle_gamma   120.00000678
_symmetry_Int_Tables_number   1
_chemical_formula_structural   KIn6IrAu3
_chemical_formula_sum   'K1 In6 Ir1 Au3'
_cell_volume   257.79948816
_cell_formula_units_Z   1
loop_
 _symmetry_equiv_pos_site_id
 _symmetry_equiv_pos_as_xyz
  1  'x, y, z'
loop_
 _atom_site_type_symbol
 _atom_site_label
 _atom_site_symmetry_multiplicity
 _atom_site_fract_x
 _atom_site_fract_y
 _atom_site_fract_z
 _atom_site_occupancy
  K  K0  1  0.000000  0.000000  0.000000  1
  In  In1  1  0.947140  0.473570  0.000000  1
  In  In2  1  0.200626  0.799374  0.500000  1
  In  In3  1  0.526430  0.052860  0.000000  1
  In  In4  1  0.526430  0.473570  0.000000  1
  In  In5  1  0.200626  0.401250  0.500000  1
  In  In6  1  0.598750  0.799374  0.500000  1
  Ir  Ir7  1  0.333333  0.666667  0.000000  1
  Au  Au8  1  0.401606  0.200803  0.500000  1
  Au  Au9  1  0.799197  0.200803  0.500000  1
  Au  Au10  1  0.799197  0.598394  0.500000  1
