# generated using pymatgen
data_Hf2ZrMo2P3Ru
_symmetry_space_group_name_H-M   'P 1'
_cell_length_a   6.76537191
_cell_length_b   6.86499608
_cell_length_c   3.49683300
_cell_angle_alpha   90.00000000
_cell_angle_beta   90.00000000
_cell_angle_gamma   119.69611442
_symmetry_Int_Tables_number   1
_chemical_formula_structural   Hf2ZrMo2P3Ru
_chemical_formula_sum   'Hf2 Zr1 Mo2 P3 Ru1'
_cell_volume   141.07798276
_cell_formula_units_Z   1
loop_
 _symmetry_equiv_pos_site_id
 _symmetry_equiv_pos_as_xyz
  1  'x, y, z'
loop_
 _atom_site_type_symbol
 _atom_site_label
 _atom_site_symmetry_multiplicity
 _atom_site_fract_x
 _atom_site_fract_y
 _atom_site_fract_z
 _atom_site_occupancy
  Hf  Hf0  1  0.403829  0.408888  0.500000  1
  Hf  Hf1  1  0.595253  0.999879  0.500000  1
  Zr  Zr2  1  0.995097  0.590212  0.500000  1
  Mo  Mo3  1  0.750829  0.751535  0.000000  1
  Mo  Mo4  1  0.000714  0.248190  0.000000  1
  P  P5  1  0.660688  0.329628  0.000000  1
  P  P6  1  0.333781  0.668895  0.000000  1
  P  P7  1  0.008623  0.000273  0.500000  1
  Ru  Ru8  1  0.251184  0.002500  0.000000  1
