# generated using pymatgen
data_CeNdAlInIr2
_symmetry_space_group_name_H-M   'P 1'
_cell_length_a   4.17781900
_cell_length_b   7.39980100
_cell_length_c   16.67976100
_cell_angle_alpha   90.00000000
_cell_angle_beta   90.00000000
_cell_angle_gamma   90.00000000
_symmetry_Int_Tables_number   1
_chemical_formula_structural   CeNdAlInIr2
_chemical_formula_sum   'Ce4 Nd4 Al4 In4 Ir8'
_cell_volume   515.65529860
_cell_formula_units_Z   4
loop_
 _symmetry_equiv_pos_site_id
 _symmetry_equiv_pos_as_xyz
  1  'x, y, z'
loop_
 _atom_site_type_symbol
 _atom_site_label
 _atom_site_symmetry_multiplicity
 _atom_site_fract_x
 _atom_site_fract_y
 _atom_site_fract_z
 _atom_site_occupancy
  Ce  Ce0  1  0.250000  0.045632  0.785551  1
  Ce  Ce1  1  0.750000  0.954368  0.214449  1
  Ce  Ce2  1  0.250000  0.545632  0.714449  1
  Ce  Ce3  1  0.750000  0.454368  0.285551  1
  Nd  Nd4  1  0.250000  0.171412  0.559174  1
  Nd  Nd5  1  0.750000  0.828588  0.440826  1
  Nd  Nd6  1  0.250000  0.671412  0.940826  1
  Nd  Nd7  1  0.750000  0.328588  0.059174  1
  Al  Al8  1  0.250000  0.003372  0.062352  1
  Al  Al9  1  0.750000  0.996628  0.937648  1
  Al  Al10  1  0.250000  0.503372  0.437648  1
  Al  Al11  1  0.750000  0.496628  0.562352  1
  In  In12  1  0.250000  0.119710  0.349948  1
  In  In13  1  0.750000  0.880290  0.650052  1
  In  In14  1  0.250000  0.619710  0.150052  1
  In  In15  1  0.750000  0.380290  0.849948  1
  Ir  Ir16  1  0.750000  0.294546  0.433874  1
  Ir  Ir17  1  0.250000  0.705454  0.566126  1
  Ir  Ir18  1  0.750000  0.794546  0.066126  1
  Ir  Ir19  1  0.250000  0.205454  0.933874  1
  Ir  Ir20  1  0.750000  0.769866  0.815048  1
  Ir  Ir21  1  0.250000  0.230134  0.184952  1
  Ir  Ir22  1  0.750000  0.269866  0.684952  1
  Ir  Ir23  1  0.250000  0.730134  0.315048  1
