# generated using pymatgen
data_Zr2V3Mo
_symmetry_space_group_name_H-M   'P 1'
_cell_length_a   5.35483300
_cell_length_b   5.35483376
_cell_length_c   8.24705100
_cell_angle_alpha   90.00000000
_cell_angle_beta   90.00000000
_cell_angle_gamma   120.00000148
_symmetry_Int_Tables_number   1
_chemical_formula_structural   Zr2V3Mo
_chemical_formula_sum   'Zr4 V6 Mo2'
_cell_volume   204.79588658
_cell_formula_units_Z   2
loop_
 _symmetry_equiv_pos_site_id
 _symmetry_equiv_pos_as_xyz
  1  'x, y, z'
loop_
 _atom_site_type_symbol
 _atom_site_label
 _atom_site_symmetry_multiplicity
 _atom_site_fract_x
 _atom_site_fract_y
 _atom_site_fract_z
 _atom_site_occupancy
  Zr  Zr0  1  0.333333  0.666667  0.437269  1
  Zr  Zr1  1  0.666667  0.333333  0.562731  1
  Zr  Zr2  1  0.666667  0.333333  0.937269  1
  Zr  Zr3  1  0.333333  0.666667  0.062731  1
  V  V4  1  0.828229  0.171771  0.250000  1
  V  V5  1  0.828229  0.656459  0.250000  1
  V  V6  1  0.343541  0.171771  0.250000  1
  V  V7  1  0.171771  0.828229  0.750000  1
  V  V8  1  0.171771  0.343541  0.750000  1
  V  V9  1  0.656459  0.828229  0.750000  1
  Mo  Mo10  1  0.000000  0.000000  0.500000  1
  Mo  Mo11  1  0.000000  0.000000  0.000000  1
