# generated using pymatgen
data_BaGa3NiIr
_symmetry_space_group_name_H-M   'P 1'
_cell_length_a   6.68336982
_cell_length_b   6.68336919
_cell_length_c   5.43316908
_cell_angle_alpha   90.27067356
_cell_angle_beta   89.72933084
_cell_angle_gamma   72.77613232
_symmetry_Int_Tables_number   1
_chemical_formula_structural   BaGa3NiIr
_chemical_formula_sum   'Ba2 Ga6 Ni2 Ir2'
_cell_volume   231.79512229
_cell_formula_units_Z   2
loop_
 _symmetry_equiv_pos_site_id
 _symmetry_equiv_pos_as_xyz
  1  'x, y, z'
loop_
 _atom_site_type_symbol
 _atom_site_label
 _atom_site_symmetry_multiplicity
 _atom_site_fract_x
 _atom_site_fract_y
 _atom_site_fract_z
 _atom_site_occupancy
  Ba  Ba0  1  0.348513  0.651487  0.254918  1
  Ba  Ba1  1  0.651487  0.348513  0.745080  1
  Ga  Ga2  1  0.930075  0.069925  0.240491  1
  Ga  Ga3  1  0.521346  0.077867  0.240058  1
  Ga  Ga4  1  0.922134  0.478654  0.240058  1
  Ga  Ga5  1  0.077867  0.521346  0.759940  1
  Ga  Ga6  1  0.478654  0.922134  0.759940  1
  Ga  Ga7  1  0.069925  0.930075  0.759507  1
  Ni  Ni8  1  0.194438  0.194438  0.000000  1
  Ni  Ni9  1  0.805562  0.805562  0.000000  1
  Ir  Ir10  1  0.193145  0.193145  0.500000  1
  Ir  Ir11  1  0.806855  0.806855  0.500000  1
