# generated using pymatgen
data_Rb2Ge(IO3)6
_symmetry_space_group_name_H-M   'P 1'
_cell_length_a   7.75483161
_cell_length_b   7.75483165
_cell_length_c   7.75483250
_cell_angle_alpha   96.58564334
_cell_angle_beta   96.58563885
_cell_angle_gamma   96.58564102
_symmetry_Int_Tables_number   1
_chemical_formula_structural   Rb2Ge(IO3)6
_chemical_formula_sum   'Rb2 Ge1 I6 O18'
_cell_volume   456.34334769
_cell_formula_units_Z   1
loop_
 _symmetry_equiv_pos_site_id
 _symmetry_equiv_pos_as_xyz
  1  'x, y, z'
loop_
 _atom_site_type_symbol
 _atom_site_label
 _atom_site_symmetry_multiplicity
 _atom_site_fract_x
 _atom_site_fract_y
 _atom_site_fract_z
 _atom_site_occupancy
  Rb  Rb0  1  0.328674  0.328674  0.328674  1
  Rb  Rb1  1  0.671326  0.671326  0.671326  1
  Ge  Ge2  1  0.000000  0.000000  0.000000  1
  I  I3  1  0.833774  0.645744  0.201104  1
  I  I4  1  0.645744  0.201104  0.833774  1
  I  I5  1  0.166226  0.354256  0.798896  1
  I  I6  1  0.201104  0.833774  0.645744  1
  I  I7  1  0.354256  0.798896  0.166226  1
  I  I8  1  0.798896  0.166226  0.354256  1
  O  O9  1  0.822685  0.825168  0.051471  1
  O  O10  1  0.593549  0.116235  0.207395  1
  O  O11  1  0.207395  0.593549  0.116235  1
  O  O12  1  0.174832  0.948529  0.177315  1
  O  O13  1  0.596400  0.601317  0.182930  1
  O  O14  1  0.182930  0.596400  0.601317  1
  O  O15  1  0.792605  0.406451  0.883765  1
  O  O16  1  0.406451  0.883765  0.792605  1
  O  O17  1  0.116235  0.207395  0.593549  1
  O  O18  1  0.948529  0.177315  0.174832  1
  O  O19  1  0.051471  0.822685  0.825168  1
  O  O20  1  0.177315  0.174832  0.948529  1
  O  O21  1  0.825168  0.051471  0.822685  1
  O  O22  1  0.601317  0.182930  0.596400  1
  O  O23  1  0.883765  0.792605  0.406451  1
  O  O24  1  0.403600  0.398683  0.817070  1
  O  O25  1  0.398683  0.817070  0.403600  1
  O  O26  1  0.817070  0.403600  0.398683  1
