# generated using pymatgen
data_Lu5(SiTe)2
_symmetry_space_group_name_H-M   'P 1'
_cell_length_a   8.37690423
_cell_length_b   8.37690509
_cell_length_c   7.64483700
_cell_angle_alpha   90.00000000
_cell_angle_beta   90.00000000
_cell_angle_gamma   125.88513103
_symmetry_Int_Tables_number   1
_chemical_formula_structural   Lu5(SiTe)2
_chemical_formula_sum   'Lu10 Si4 Te4'
_cell_volume   434.63458604
_cell_formula_units_Z   2
loop_
 _symmetry_equiv_pos_site_id
 _symmetry_equiv_pos_as_xyz
  1  'x, y, z'
loop_
 _atom_site_type_symbol
 _atom_site_label
 _atom_site_symmetry_multiplicity
 _atom_site_fract_x
 _atom_site_fract_y
 _atom_site_fract_z
 _atom_site_occupancy
  Lu  Lu0  1  0.000000  0.000000  0.000000  1
  Lu  Lu1  1  0.500000  0.500000  0.500000  1
  Lu  Lu2  1  0.784681  0.540167  0.162433  1
  Lu  Lu3  1  0.459833  0.215319  0.837567  1
  Lu  Lu4  1  0.959833  0.715319  0.662433  1
  Lu  Lu5  1  0.284681  0.040167  0.337567  1
  Lu  Lu6  1  0.215319  0.459833  0.837567  1
  Lu  Lu7  1  0.540167  0.784681  0.162433  1
  Lu  Lu8  1  0.040167  0.284681  0.337567  1
  Lu  Lu9  1  0.715319  0.959833  0.662433  1
  Si  Si10  1  0.862305  0.862305  0.364297  1
  Si  Si11  1  0.137695  0.137695  0.635703  1
  Si  Si12  1  0.637695  0.637695  0.864297  1
  Si  Si13  1  0.362305  0.362305  0.135703  1
  Te  Te14  1  0.205858  0.794142  0.000000  1
  Te  Te15  1  0.705858  0.294142  0.500000  1
  Te  Te16  1  0.794142  0.205858  0.000000  1
  Te  Te17  1  0.294142  0.705858  0.500000  1
