# generated using pymatgen
data_TbCe2Tm(ReN3)4
_symmetry_space_group_name_H-M   'P 1'
_cell_length_a   5.44661606
_cell_length_b   5.65574823
_cell_length_c   7.73879800
_cell_angle_alpha   90.00000000
_cell_angle_beta   90.00000000
_cell_angle_gamma   89.97502214
_symmetry_Int_Tables_number   1
_chemical_formula_structural   TbCe2Tm(ReN3)4
_chemical_formula_sum   'Tb1 Ce2 Tm1 Re4 N12'
_cell_volume   238.39124413
_cell_formula_units_Z   1
loop_
 _symmetry_equiv_pos_site_id
 _symmetry_equiv_pos_as_xyz
  1  'x, y, z'
loop_
 _atom_site_type_symbol
 _atom_site_label
 _atom_site_symmetry_multiplicity
 _atom_site_fract_x
 _atom_site_fract_y
 _atom_site_fract_z
 _atom_site_occupancy
  Tb  Tb0  1  0.005816  0.064995  0.750000  1
  Ce  Ce1  1  0.472752  0.452734  0.250000  1
  Ce  Ce2  1  0.026931  0.951664  0.250000  1
  Tm  Tm3  1  0.494152  0.569224  0.750000  1
  Re  Re4  1  0.512555  0.006611  0.502992  1
  Re  Re5  1  0.986585  0.505998  0.997202  1
  Re  Re6  1  0.986585  0.505998  0.502798  1
  Re  Re7  1  0.512555  0.006611  0.997008  1
  N  N8  1  0.697389  0.296782  0.544383  1
  N  N9  1  0.302607  0.695955  0.042226  1
  N  N10  1  0.196683  0.195494  0.042362  1
  N  N11  1  0.418876  0.972488  0.750000  1
  N  N12  1  0.930655  0.509967  0.250000  1
  N  N13  1  0.302607  0.695955  0.457774  1
  N  N14  1  0.798781  0.793350  0.958952  1
  N  N15  1  0.697389  0.296782  0.955617  1
  N  N16  1  0.798781  0.793350  0.541048  1
  N  N17  1  0.090523  0.476826  0.750000  1
  N  N18  1  0.196683  0.195494  0.457638  1
  N  N19  1  0.571097  0.013722  0.250000  1
