# generated using pymatgen
data_TmMg2UNi8
_symmetry_space_group_name_H-M   'P 1'
_cell_length_a   4.90474600
_cell_length_b   4.90474537
_cell_length_c   8.56647786
_cell_angle_alpha   73.36488618
_cell_angle_beta   90.00000000
_cell_angle_gamma   120.00000426
_symmetry_Int_Tables_number   1
_chemical_formula_structural   TmMg2UNi8
_chemical_formula_sum   'Tm1 Mg2 U1 Ni8'
_cell_volume   168.43740198
_cell_formula_units_Z   1
loop_
 _symmetry_equiv_pos_site_id
 _symmetry_equiv_pos_as_xyz
  1  'x, y, z'
loop_
 _atom_site_type_symbol
 _atom_site_label
 _atom_site_symmetry_multiplicity
 _atom_site_fract_x
 _atom_site_fract_y
 _atom_site_fract_z
 _atom_site_occupancy
  Tm  Tm0  1  0.000590  0.001181  0.998228  1
  Mg  Mg1  1  0.877681  0.755364  0.366955  1
  Mg  Mg2  1  0.373096  0.746192  0.880712  1
  U  U3  1  0.499688  0.999374  0.500938  1
  Ni  Ni4  1  0.436011  0.371595  0.192394  1
  Ni  Ni5  1  0.936142  0.379501  0.684358  1
  Ni  Ni6  1  0.436011  0.872022  0.192394  1
  Ni  Ni7  1  0.936142  0.872282  0.684358  1
  Ni  Ni8  1  0.188024  0.376049  0.435927  1
  Ni  Ni9  1  0.687673  0.375346  0.936981  1
  Ni  Ni10  1  0.935584  0.371595  0.192394  1
  Ni  Ni11  1  0.443360  0.379501  0.684358  1
