# generated using pymatgen
data_Pr2SmY3RuI10
_symmetry_space_group_name_H-M   'P 1'
_cell_length_a   7.86066840
_cell_length_b   9.87722794
_cell_length_c   9.95692086
_cell_angle_alpha   107.07874405
_cell_angle_beta   96.14602849
_cell_angle_gamma   105.05628806
_symmetry_Int_Tables_number   1
_chemical_formula_structural   Pr2SmY3RuI10
_chemical_formula_sum   'Pr2 Sm1 Y3 Ru1 I10'
_cell_volume   699.39306028
_cell_formula_units_Z   1
loop_
 _symmetry_equiv_pos_site_id
 _symmetry_equiv_pos_as_xyz
  1  'x, y, z'
loop_
 _atom_site_type_symbol
 _atom_site_label
 _atom_site_symmetry_multiplicity
 _atom_site_fract_x
 _atom_site_fract_y
 _atom_site_fract_z
 _atom_site_occupancy
  Pr  Pr0  1  0.117376  0.043112  0.759753  1
  Pr  Pr1  1  0.881774  0.955830  0.239610  1
  Sm  Sm2  1  0.968465  0.280718  0.082797  1
  Y  Y3  1  0.647985  0.871977  0.833625  1
  Y  Y4  1  0.352458  0.126155  0.166257  1
  Y  Y5  1  0.030891  0.722734  0.917838  1
  Ru  Ru6  1  0.999551  0.001018  0.000198  1
  I  I7  1  0.352389  0.446454  0.271006  1
  I  I8  1  0.656028  0.553970  0.731809  1
  I  I9  1  0.733403  0.911026  0.545994  1
  I  I10  1  0.085592  0.377190  0.821132  1
  I  I11  1  0.916691  0.626759  0.173988  1
  I  I12  1  0.446820  0.816524  0.086542  1
  I  I13  1  0.548803  0.181066  0.910921  1
  I  I14  1  0.772394  0.259253  0.344092  1
  I  I15  1  0.223527  0.737824  0.660374  1
  I  I16  1  0.265855  0.088390  0.454064  1
