# generated using pymatgen
data_Y7RhO12
_symmetry_space_group_name_H-M   'P 1'
_cell_length_a   6.65708479
_cell_length_b   6.65708647
_cell_length_c   6.65708504
_cell_angle_alpha   94.87417907
_cell_angle_beta   94.87418596
_cell_angle_gamma   94.87418955
_symmetry_Int_Tables_number   1
_chemical_formula_structural   Y7RhO12
_chemical_formula_sum   'Y7 Rh1 O12'
_cell_volume   291.62524049
_cell_formula_units_Z   1
loop_
 _symmetry_equiv_pos_site_id
 _symmetry_equiv_pos_as_xyz
  1  'x, y, z'
loop_
 _atom_site_type_symbol
 _atom_site_label
 _atom_site_symmetry_multiplicity
 _atom_site_fract_x
 _atom_site_fract_y
 _atom_site_fract_z
 _atom_site_occupancy
  Y  Y0  1  0.735253  0.913229  0.428464  1
  Y  Y1  1  0.428464  0.735253  0.913229  1
  Y  Y2  1  0.086771  0.571536  0.264747  1
  Y  Y3  1  0.913229  0.428464  0.735253  1
  Y  Y4  1  0.571536  0.264747  0.086771  1
  Y  Y5  1  0.264747  0.086771  0.571536  1
  Y  Y6  1  0.000000  0.000000  0.000000  1
  Rh  Rh7  1  0.500000  0.500000  0.500000  1
  O  O8  1  0.067601  0.910106  0.319991  1
  O  O9  1  0.680009  0.932399  0.089894  1
  O  O10  1  0.459934  0.803754  0.587812  1
  O  O11  1  0.089894  0.680009  0.932399  1
  O  O12  1  0.803754  0.587812  0.459934  1
  O  O13  1  0.412188  0.540066  0.196246  1
  O  O14  1  0.587812  0.459934  0.803754  1
  O  O15  1  0.196246  0.412188  0.540066  1
  O  O16  1  0.910106  0.319991  0.067601  1
  O  O17  1  0.540066  0.196246  0.412188  1
  O  O18  1  0.319991  0.067601  0.910106  1
  O  O19  1  0.932399  0.089894  0.680009  1
