# generated using pymatgen
data_Tb5Y3CdHgPt2
_symmetry_space_group_name_H-M   'P 1'
_cell_length_a   9.70801351
_cell_length_b   9.70801288
_cell_length_c   9.70433800
_cell_angle_alpha   60.01252124
_cell_angle_beta   60.01252338
_cell_angle_gamma   60.07184391
_symmetry_Int_Tables_number   1
_chemical_formula_structural   Tb5Y3CdHgPt2
_chemical_formula_sum   'Tb10 Y6 Cd2 Hg2 Pt4'
_cell_volume   647.18604891
_cell_formula_units_Z   2
loop_
 _symmetry_equiv_pos_site_id
 _symmetry_equiv_pos_as_xyz
  1  'x, y, z'
loop_
 _atom_site_type_symbol
 _atom_site_label
 _atom_site_symmetry_multiplicity
 _atom_site_fract_x
 _atom_site_fract_y
 _atom_site_fract_z
 _atom_site_occupancy
  Tb  Tb0  1  0.352778  0.352778  0.350160  1
  Tb  Tb1  1  0.352778  0.352778  0.944283  1
  Tb  Tb2  1  0.356871  0.935315  0.353907  1
  Tb  Tb3  1  0.935315  0.356871  0.353907  1
  Tb  Tb4  1  0.810639  0.189628  0.190973  1
  Tb  Tb5  1  0.189628  0.810639  0.808761  1
  Tb  Tb6  1  0.189628  0.810639  0.190973  1
  Tb  Tb7  1  0.810639  0.189628  0.808761  1
  Tb  Tb8  1  0.190656  0.190656  0.809344  1
  Tb  Tb9  1  0.809573  0.809573  0.190427  1
  Y  Y10  1  0.935939  0.563353  0.564511  1
  Y  Y11  1  0.563353  0.935939  0.936197  1
  Y  Y12  1  0.563353  0.935939  0.564511  1
  Y  Y13  1  0.935939  0.563353  0.936197  1
  Y  Y14  1  0.564335  0.564335  0.935665  1
  Y  Y15  1  0.936764  0.936764  0.563236  1
  Cd  Cd16  1  0.579628  0.254961  0.582706  1
  Cd  Cd17  1  0.254961  0.579628  0.582706  1
  Hg  Hg18  1  0.584715  0.584715  0.588937  1
  Hg  Hg19  1  0.584715  0.584715  0.241634  1
  Pt  Pt20  1  0.143216  0.143216  0.146521  1
  Pt  Pt21  1  0.143216  0.143216  0.567046  1
  Pt  Pt22  1  0.141465  0.569899  0.144319  1
  Pt  Pt23  1  0.569899  0.141465  0.144319  1
