# generated using pymatgen
data_Pr4In4IrRh3
_symmetry_space_group_name_H-M   'P 1'
_cell_length_a   7.31296656
_cell_length_b   4.42647600
_cell_length_c   8.57037576
_cell_angle_alpha   90.00000000
_cell_angle_beta   89.84615369
_cell_angle_gamma   90.00000000
_symmetry_Int_Tables_number   1
_chemical_formula_structural   Pr4In4IrRh3
_chemical_formula_sum   'Pr4 In4 Ir1 Rh3'
_cell_volume   277.42781367
_cell_formula_units_Z   1
loop_
 _symmetry_equiv_pos_site_id
 _symmetry_equiv_pos_as_xyz
  1  'x, y, z'
loop_
 _atom_site_type_symbol
 _atom_site_label
 _atom_site_symmetry_multiplicity
 _atom_site_fract_x
 _atom_site_fract_y
 _atom_site_fract_z
 _atom_site_occupancy
  Pr  Pr0  1  0.537543  0.250000  0.177991  1
  Pr  Pr1  1  0.036923  0.250000  0.320378  1
  Pr  Pr2  1  0.961400  0.750001  0.681024  1
  Pr  Pr3  1  0.466089  0.750001  0.821074  1
  In  In4  1  0.858124  0.750001  0.063495  1
  In  In5  1  0.358092  0.750001  0.438028  1
  In  In6  1  0.641288  0.250000  0.561914  1
  In  In7  1  0.142665  0.250000  0.937758  1
  Ir  Ir8  1  0.754275  0.250000  0.875282  1
  Rh  Rh9  1  0.244408  0.750001  0.123690  1
  Rh  Rh10  1  0.745690  0.750001  0.377111  1
  Rh  Rh11  1  0.253501  0.250000  0.622254  1
