# generated using pymatgen
data_Nd2Lu2Zn10SiGe
_symmetry_space_group_name_H-M   'P 1'
_cell_length_a   8.23119387
_cell_length_b   8.23119281
_cell_length_c   8.76143300
_cell_angle_alpha   90.00000000
_cell_angle_beta   90.00000000
_cell_angle_gamma   149.60099811
_symmetry_Int_Tables_number   1
_chemical_formula_structural   Nd2Lu2Zn10SiGe
_chemical_formula_sum   'Nd2 Lu2 Zn10 Si1 Ge1'
_cell_volume   300.37746645
_cell_formula_units_Z   1
loop_
 _symmetry_equiv_pos_site_id
 _symmetry_equiv_pos_as_xyz
  1  'x, y, z'
loop_
 _atom_site_type_symbol
 _atom_site_label
 _atom_site_symmetry_multiplicity
 _atom_site_fract_x
 _atom_site_fract_y
 _atom_site_fract_z
 _atom_site_occupancy
  Nd  Nd0  1  0.000192  0.999808  0.497552  1
  Nd  Nd1  1  0.000192  0.999808  0.002448  1
  Lu  Lu2  1  0.200468  0.799532  0.250000  1
  Lu  Lu3  1  0.798469  0.201531  0.750000  1
  Zn  Zn4  1  0.811176  0.188824  0.392451  1
  Zn  Zn5  1  0.188615  0.811385  0.606739  1
  Zn  Zn6  1  0.811176  0.188824  0.107549  1
  Zn  Zn7  1  0.188615  0.811385  0.893261  1
  Zn  Zn8  1  0.651302  0.348698  0.472791  1
  Zn  Zn9  1  0.347021  0.652979  0.523602  1
  Zn  Zn10  1  0.651302  0.348698  0.027209  1
  Zn  Zn11  1  0.347021  0.652979  0.976398  1
  Zn  Zn12  1  0.402927  0.597073  0.250000  1
  Zn  Zn13  1  0.600553  0.399447  0.750000  1
  Si  Si14  1  0.558047  0.441953  0.250000  1
  Ge  Ge15  1  0.442918  0.557082  0.750000  1
