# generated using pymatgen
data_Zr6Ti4Al12Ir5Pd2
_symmetry_space_group_name_H-M   'P 1'
_cell_length_a   8.80613122
_cell_length_b   8.80613289
_cell_length_c   8.83090300
_cell_angle_alpha   59.90691258
_cell_angle_beta   59.90690626
_cell_angle_gamma   60.18618998
_symmetry_Int_Tables_number   1
_chemical_formula_structural   Zr6Ti4Al12Ir5Pd2
_chemical_formula_sum   'Zr6 Ti4 Al12 Ir5 Pd2'
_cell_volume   484.23217303
_cell_formula_units_Z   1
loop_
 _symmetry_equiv_pos_site_id
 _symmetry_equiv_pos_as_xyz
  1  'x, y, z'
loop_
 _atom_site_type_symbol
 _atom_site_label
 _atom_site_symmetry_multiplicity
 _atom_site_fract_x
 _atom_site_fract_y
 _atom_site_fract_z
 _atom_site_occupancy
  Zr  Zr0  1  0.679702  0.679702  0.320298  1
  Zr  Zr1  1  0.304447  0.695553  0.304447  1
  Zr  Zr2  1  0.695553  0.304447  0.304447  1
  Zr  Zr3  1  0.320298  0.320298  0.679702  1
  Zr  Zr4  1  0.695553  0.304447  0.695553  1
  Zr  Zr5  1  0.304447  0.695553  0.695553  1
  Ti  Ti6  1  0.876495  0.876495  0.359110  1
  Ti  Ti7  1  0.887902  0.359110  0.876495  1
  Ti  Ti8  1  0.359110  0.887902  0.876495  1
  Ti  Ti9  1  0.876495  0.876495  0.887902  1
  Al  Al10  1  0.121885  0.121885  0.639733  1
  Al  Al11  1  0.116495  0.639733  0.121885  1
  Al  Al12  1  0.639733  0.116495  0.121885  1
  Al  Al13  1  0.121885  0.121885  0.116495  1
  Al  Al14  1  0.661678  0.661678  0.010612  1
  Al  Al15  1  0.666031  0.010612  0.661678  1
  Al  Al16  1  0.010612  0.666031  0.661678  1
  Al  Al17  1  0.661678  0.661678  0.666031  1
  Al  Al18  1  0.335879  0.335879  0.990073  1
  Al  Al19  1  0.338168  0.990073  0.335879  1
  Al  Al20  1  0.990073  0.338168  0.335879  1
  Al  Al21  1  0.335879  0.335879  0.338168  1
  Ir  Ir22  1  0.000000  0.000000  0.000000  1
  Ir  Ir23  1  0.502451  0.997549  0.502451  1
  Ir  Ir24  1  0.997549  0.502451  0.502451  1
  Ir  Ir25  1  0.997549  0.502451  0.997549  1
  Ir  Ir26  1  0.502451  0.997549  0.997549  1
  Pd  Pd27  1  0.000142  0.000142  0.499858  1
  Pd  Pd28  1  0.499858  0.499858  0.000142  1
