# generated using pymatgen
data_Ho6Al24Ir3Os5
_symmetry_space_group_name_H-M   'P 1'
_cell_length_a   8.79786080
_cell_length_b   8.78485636
_cell_length_c   9.56050183
_cell_angle_alpha   89.97974127
_cell_angle_beta   89.85227535
_cell_angle_gamma   119.68742208
_symmetry_Int_Tables_number   1
_chemical_formula_structural   Ho6Al24Ir3Os5
_chemical_formula_sum   'Ho6 Al24 Ir3 Os5'
_cell_volume   641.91892481
_cell_formula_units_Z   1
loop_
 _symmetry_equiv_pos_site_id
 _symmetry_equiv_pos_as_xyz
  1  'x, y, z'
loop_
 _atom_site_type_symbol
 _atom_site_label
 _atom_site_symmetry_multiplicity
 _atom_site_fract_x
 _atom_site_fract_y
 _atom_site_fract_z
 _atom_site_occupancy
  Ho  Ho0  1  0.194479  0.387552  0.251399  1
  Ho  Ho1  1  0.805521  0.612448  0.748601  1
  Ho  Ho2  1  0.613632  0.803952  0.250537  1
  Ho  Ho3  1  0.386368  0.196048  0.749463  1
  Ho  Ho4  1  0.189763  0.805663  0.250974  1
  Ho  Ho5  1  0.810237  0.194337  0.749026  1
  Al  Al6  1  0.333520  0.666693  0.023340  1
  Al  Al7  1  0.666480  0.333307  0.976660  1
  Al  Al8  1  0.667979  0.334030  0.522442  1
  Al  Al9  1  0.332021  0.665970  0.477558  1
  Al  Al10  1  0.164298  0.327912  0.576771  1
  Al  Al11  1  0.835702  0.672088  0.423229  1
  Al  Al12  1  0.672729  0.834844  0.576589  1
  Al  Al13  1  0.833971  0.672533  0.076884  1
  Al  Al14  1  0.327271  0.165156  0.423411  1
  Al  Al15  1  0.166029  0.327467  0.923116  1
  Al  Al16  1  0.162517  0.835254  0.577119  1
  Al  Al17  1  0.326567  0.165136  0.077124  1
  Al  Al18  1  0.837483  0.164746  0.422881  1
  Al  Al19  1  0.673433  0.834864  0.922876  1
  Al  Al20  1  0.835875  0.162867  0.077229  1
  Al  Al21  1  0.164125  0.837133  0.922771  1
  Al  Al22  1  0.560627  0.121748  0.249706  1
  Al  Al23  1  0.439373  0.878252  0.750294  1
  Al  Al24  1  0.876196  0.438157  0.250541  1
  Al  Al25  1  0.123804  0.561843  0.749459  1
  Al  Al26  1  0.561817  0.437242  0.249658  1
  Al  Al27  1  0.438183  0.562758  0.750342  1
  Al  Al28  1  0.998456  0.999998  0.249960  1
  Al  Al29  1  0.001544  0.000002  0.750040  1
  Ir  Ir30  1  0.500000  0.000000  0.000000  1
  Ir  Ir31  1  0.000000  0.500000  0.000000  1
  Ir  Ir32  1  0.500000  0.000000  0.500000  1
  Os  Os33  1  0.500000  0.500000  0.000000  1
  Os  Os34  1  0.000000  0.500000  0.500000  1
  Os  Os35  1  0.500000  0.500000  0.500000  1
  Os  Os36  1  0.000000  0.000000  0.000000  1
  Os  Os37  1  0.000000  0.000000  0.500000  1
