# generated using pymatgen
data_U4H3Ir7Ru5
_symmetry_space_group_name_H-M   'P 1'
_cell_length_a   4.10232400
_cell_length_b   4.07204900
_cell_length_c   16.06309400
_cell_angle_alpha   90.00000000
_cell_angle_beta   90.00000000
_cell_angle_gamma   90.00000000
_symmetry_Int_Tables_number   1
_chemical_formula_structural   U4H3Ir7Ru5
_chemical_formula_sum   'U4 H3 Ir7 Ru5'
_cell_volume   268.33180618
_cell_formula_units_Z   1
loop_
 _symmetry_equiv_pos_site_id
 _symmetry_equiv_pos_as_xyz
  1  'x, y, z'
loop_
 _atom_site_type_symbol
 _atom_site_label
 _atom_site_symmetry_multiplicity
 _atom_site_fract_x
 _atom_site_fract_y
 _atom_site_fract_z
 _atom_site_occupancy
  U  U0  1  0.000000  0.000000  0.872620  1
  U  U1  1  0.000000  0.000000  0.124370  1
  U  U2  1  0.000000  0.000000  0.377802  1
  U  U3  1  0.000000  0.000000  0.625359  1
  H  H4  1  0.500000  0.500000  0.242377  1
  H  H5  1  0.500000  0.500000  0.500895  1
  H  H6  1  0.500000  0.500000  0.756900  1
  Ir  Ir7  1  0.500000  0.500000  0.876373  1
  Ir  Ir8  1  0.500000  0.500000  0.123154  1
  Ir  Ir9  1  0.500000  0.500000  0.374942  1
  Ir  Ir10  1  0.500000  0.500000  0.625358  1
  Ir  Ir11  1  0.500000  0.000000  0.999473  1
  Ir  Ir12  1  0.500000  0.000000  0.250643  1
  Ir  Ir13  1  0.000000  0.500000  0.999254  1
  Ru  Ru14  1  0.500000  0.000000  0.500114  1
  Ru  Ru15  1  0.500000  0.000000  0.749830  1
  Ru  Ru16  1  0.000000  0.500000  0.250368  1
  Ru  Ru17  1  0.000000  0.500000  0.500345  1
  Ru  Ru18  1  0.000000  0.500000  0.749825  1
