# generated using pymatgen
data_Pa4CdSnPt4
_symmetry_space_group_name_H-M   'P 1'
_cell_length_a   7.84345200
_cell_length_b   7.84345200
_cell_length_c   3.66148400
_cell_angle_alpha   90.00000000
_cell_angle_beta   90.00000000
_cell_angle_gamma   90.00000000
_symmetry_Int_Tables_number   1
_chemical_formula_structural   Pa4CdSnPt4
_chemical_formula_sum   'Pa4 Cd1 Sn1 Pt4'
_cell_volume   225.25354104
_cell_formula_units_Z   1
loop_
 _symmetry_equiv_pos_site_id
 _symmetry_equiv_pos_as_xyz
  1  'x, y, z'
loop_
 _atom_site_type_symbol
 _atom_site_label
 _atom_site_symmetry_multiplicity
 _atom_site_fract_x
 _atom_site_fract_y
 _atom_site_fract_z
 _atom_site_occupancy
  Pa  Pa0  1  0.171703  0.326355  0.500000  1
  Pa  Pa1  1  0.326355  0.828297  0.500000  1
  Pa  Pa2  1  0.828297  0.673645  0.500000  1
  Pa  Pa3  1  0.673645  0.171703  0.500000  1
  Cd  Cd4  1  0.000000  0.000000  0.000000  1
  Sn  Sn5  1  0.500000  0.500000  0.000000  1
  Pt  Pt6  1  0.631092  0.870517  0.000000  1
  Pt  Pt7  1  0.129483  0.631092  0.000000  1
  Pt  Pt8  1  0.870517  0.368908  0.000000  1
  Pt  Pt9  1  0.368908  0.129483  0.000000  1
