# generated using pymatgen
data_Ce(SBr)2
_symmetry_space_group_name_H-M   'P 1'
_cell_length_a   7.48534491
_cell_length_b   7.48534471
_cell_length_c   7.75382165
_cell_angle_alpha   79.42577468
_cell_angle_beta   79.42578101
_cell_angle_gamma   121.42190679
_symmetry_Int_Tables_number   1
_chemical_formula_structural   Ce(SBr)2
_chemical_formula_sum   'Ce2 S4 Br4'
_cell_volume   343.66724656
_cell_formula_units_Z   2
loop_
 _symmetry_equiv_pos_site_id
 _symmetry_equiv_pos_as_xyz
  1  'x, y, z'
loop_
 _atom_site_type_symbol
 _atom_site_label
 _atom_site_symmetry_multiplicity
 _atom_site_fract_x
 _atom_site_fract_y
 _atom_site_fract_z
 _atom_site_occupancy
  Ce  Ce0  1  0.851673  0.148327  0.000000  1
  Ce  Ce1  1  0.148327  0.851673  0.000000  1
  S  S2  1  0.128947  0.128947  0.717216  1
  S  S3  1  0.871053  0.871053  0.282784  1
  S  S4  1  0.703311  0.703311  0.123536  1
  S  S5  1  0.296689  0.296689  0.876464  1
  Br  Br6  1  0.027062  0.426606  0.233886  1
  Br  Br7  1  0.426606  0.027062  0.233886  1
  Br  Br8  1  0.972938  0.573394  0.766114  1
  Br  Br9  1  0.573394  0.972938  0.766114  1
