# generated using pymatgen
data_Nd8Dy12Si15Tc
_symmetry_space_group_name_H-M   'P 1'
_cell_length_a   7.51522075
_cell_length_b   7.79693423
_cell_length_c   14.84496100
_cell_angle_alpha   90.00000000
_cell_angle_beta   90.00000000
_cell_angle_gamma   89.57972887
_symmetry_Int_Tables_number   1
_chemical_formula_structural   Nd8Dy12Si15Tc
_chemical_formula_sum   'Nd8 Dy12 Si15 Tc1'
_cell_volume   869.82721153
_cell_formula_units_Z   1
loop_
 _symmetry_equiv_pos_site_id
 _symmetry_equiv_pos_as_xyz
  1  'x, y, z'
loop_
 _atom_site_type_symbol
 _atom_site_label
 _atom_site_symmetry_multiplicity
 _atom_site_fract_x
 _atom_site_fract_y
 _atom_site_fract_z
 _atom_site_occupancy
  Nd  Nd0  1  0.969810  0.816787  0.097937  1
  Nd  Nd1  1  0.478237  0.678788  0.400876  1
  Nd  Nd2  1  0.526652  0.320099  0.900876  1
  Nd  Nd3  1  0.026047  0.178684  0.597729  1
  Nd  Nd4  1  0.026047  0.178684  0.902271  1
  Nd  Nd5  1  0.526652  0.320099  0.599124  1
  Nd  Nd6  1  0.478237  0.678788  0.099124  1
  Nd  Nd7  1  0.969810  0.816787  0.402063  1
  Dy  Dy8  1  0.654561  0.979531  0.250000  1
  Dy  Dy9  1  0.137382  0.515189  0.250000  1
  Dy  Dy10  1  0.852990  0.486621  0.750000  1
  Dy  Dy11  1  0.351005  0.010059  0.750000  1
  Dy  Dy12  1  0.681459  0.821008  0.876790  1
  Dy  Dy13  1  0.181563  0.681043  0.621944  1
  Dy  Dy14  1  0.814426  0.328511  0.125167  1
  Dy  Dy15  1  0.319061  0.176749  0.376575  1
  Dy  Dy16  1  0.319061  0.176749  0.123425  1
  Dy  Dy17  1  0.814426  0.328511  0.374833  1
  Dy  Dy18  1  0.181563  0.681043  0.878056  1
  Dy  Dy19  1  0.681459  0.821008  0.623210  1
  Si  Si20  1  0.263100  0.883581  0.250000  1
  Si  Si21  1  0.734341  0.121065  0.750000  1
  Si  Si22  1  0.233532  0.380096  0.750000  1
  Si  Si23  1  0.027045  0.110796  0.250000  1
  Si  Si24  1  0.519347  0.391890  0.250000  1
  Si  Si25  1  0.475434  0.611390  0.750000  1
  Si  Si26  1  0.975354  0.886894  0.750000  1
  Si  Si27  1  0.857652  0.528359  0.958945  1
  Si  Si28  1  0.358327  0.973021  0.541290  1
  Si  Si29  1  0.643847  0.032461  0.038852  1
  Si  Si30  1  0.147234  0.465121  0.461795  1
  Si  Si31  1  0.147234  0.465121  0.038205  1
  Si  Si32  1  0.643847  0.032461  0.461148  1
  Si  Si33  1  0.358327  0.973021  0.958710  1
  Si  Si34  1  0.857652  0.528359  0.541055  1
  Tc  Tc35  1  0.767279  0.621624  0.250000  1
