# generated using pymatgen
data_TbY11(IrPt)2
_symmetry_space_group_name_H-M   'P 1'
_cell_length_a   6.46803734
_cell_length_b   7.17495233
_cell_length_c   9.50701218
_cell_angle_alpha   89.97901435
_cell_angle_beta   89.99220642
_cell_angle_gamma   90.13220280
_symmetry_Int_Tables_number   1
_chemical_formula_structural   TbY11(IrPt)2
_chemical_formula_sum   'Tb1 Y11 Ir2 Pt2'
_cell_volume   441.19887804
_cell_formula_units_Z   1
loop_
 _symmetry_equiv_pos_site_id
 _symmetry_equiv_pos_as_xyz
  1  'x, y, z'
loop_
 _atom_site_type_symbol
 _atom_site_label
 _atom_site_symmetry_multiplicity
 _atom_site_fract_x
 _atom_site_fract_y
 _atom_site_fract_z
 _atom_site_occupancy
  Tb  Tb0  1  0.172254  0.177216  0.061688  1
  Y  Y1  1  0.634565  0.029200  0.250089  1
  Y  Y2  1  0.365403  0.970577  0.750041  1
  Y  Y3  1  0.130239  0.463582  0.750016  1
  Y  Y4  1  0.869696  0.536291  0.250035  1
  Y  Y5  1  0.827822  0.822660  0.938403  1
  Y  Y6  1  0.676629  0.319015  0.936568  1
  Y  Y7  1  0.827745  0.822710  0.561555  1
  Y  Y8  1  0.323292  0.680994  0.063320  1
  Y  Y9  1  0.172172  0.177337  0.438605  1
  Y  Y10  1  0.323238  0.681051  0.436654  1
  Y  Y11  1  0.676753  0.319061  0.563342  1
  Ir  Ir12  1  0.952214  0.114315  0.749980  1
  Ir  Ir13  1  0.048112  0.886060  0.249827  1
  Pt  Pt14  1  0.452719  0.385591  0.249894  1
  Pt  Pt15  1  0.547147  0.614340  0.749981  1
