# generated using pymatgen
data_Dy4LuIr2Os
_symmetry_space_group_name_H-M   'P 1'
_cell_length_a   10.79316200
_cell_length_b   10.79316200
_cell_length_c   6.40761400
_cell_angle_alpha   90.00000000
_cell_angle_beta   90.00000000
_cell_angle_gamma   90.00000000
_symmetry_Int_Tables_number   1
_chemical_formula_structural   Dy4LuIr2Os
_chemical_formula_sum   'Dy16 Lu4 Ir8 Os4'
_cell_volume   746.43798685
_cell_formula_units_Z   4
loop_
 _symmetry_equiv_pos_site_id
 _symmetry_equiv_pos_as_xyz
  1  'x, y, z'
loop_
 _atom_site_type_symbol
 _atom_site_label
 _atom_site_symmetry_multiplicity
 _atom_site_fract_x
 _atom_site_fract_y
 _atom_site_fract_z
 _atom_site_occupancy
  Dy  Dy0  1  0.292612  0.086572  0.378173  1
  Dy  Dy1  1  0.292612  0.913428  0.878173  1
  Dy  Dy2  1  0.707388  0.086572  0.878173  1
  Dy  Dy3  1  0.707388  0.913428  0.378173  1
  Dy  Dy4  1  0.586572  0.792612  0.878173  1
  Dy  Dy5  1  0.586572  0.207388  0.378173  1
  Dy  Dy6  1  0.413428  0.792612  0.378173  1
  Dy  Dy7  1  0.413428  0.207388  0.878173  1
  Dy  Dy8  1  0.207388  0.413428  0.621827  1
  Dy  Dy9  1  0.207388  0.586572  0.121827  1
  Dy  Dy10  1  0.792612  0.413428  0.121827  1
  Dy  Dy11  1  0.792612  0.586572  0.621827  1
  Dy  Dy12  1  0.913428  0.707388  0.121827  1
  Dy  Dy13  1  0.913428  0.292612  0.621827  1
  Dy  Dy14  1  0.086572  0.707388  0.621827  1
  Dy  Dy15  1  0.086572  0.292612  0.121827  1
  Lu  Lu16  1  0.000000  0.000000  0.500000  1
  Lu  Lu17  1  0.000000  0.000000  0.000000  1
  Lu  Lu18  1  0.500000  0.500000  0.000000  1
  Lu  Lu19  1  0.500000  0.500000  0.500000  1
  Ir  Ir20  1  0.850456  0.149544  0.250000  1
  Ir  Ir21  1  0.850456  0.850456  0.750000  1
  Ir  Ir22  1  0.149544  0.149544  0.750000  1
  Ir  Ir23  1  0.149544  0.850456  0.250000  1
  Ir  Ir24  1  0.649544  0.350456  0.750000  1
  Ir  Ir25  1  0.649544  0.649544  0.250000  1
  Ir  Ir26  1  0.350456  0.350456  0.250000  1
  Ir  Ir27  1  0.350456  0.649544  0.750000  1
  Os  Os28  1  0.500000  0.000000  0.123160  1
  Os  Os29  1  0.500000  0.000000  0.623160  1
  Os  Os30  1  0.000000  0.500000  0.876840  1
  Os  Os31  1  0.000000  0.500000  0.376840  1
