# generated using pymatgen
data_Cs10V4PdSe16
_symmetry_space_group_name_H-M   'P 1'
_cell_length_a   14.27525100
_cell_length_b   14.27525100
_cell_length_c   11.94830600
_cell_angle_alpha   90.00000000
_cell_angle_beta   90.00000000
_cell_angle_gamma   90.00000000
_symmetry_Int_Tables_number   1
_chemical_formula_structural   Cs10V4PdSe16
_chemical_formula_sum   'Cs20 V8 Pd2 Se32'
_cell_volume   2434.85914575
_cell_formula_units_Z   2
loop_
 _symmetry_equiv_pos_site_id
 _symmetry_equiv_pos_as_xyz
  1  'x, y, z'
loop_
 _atom_site_type_symbol
 _atom_site_label
 _atom_site_symmetry_multiplicity
 _atom_site_fract_x
 _atom_site_fract_y
 _atom_site_fract_z
 _atom_site_occupancy
  Cs  Cs0  1  0.359514  0.500000  0.500000  1
  Cs  Cs1  1  0.640486  0.500000  0.500000  1
  Cs  Cs2  1  0.500000  0.359514  0.000000  1
  Cs  Cs3  1  0.500000  0.640486  0.000000  1
  Cs  Cs4  1  0.500000  0.000000  0.301234  1
  Cs  Cs5  1  0.500000  0.000000  0.698766  1
  Cs  Cs6  1  0.000000  0.500000  0.198766  1
  Cs  Cs7  1  0.000000  0.500000  0.801234  1
  Cs  Cs8  1  0.258914  0.258914  0.250000  1
  Cs  Cs9  1  0.741086  0.741086  0.250000  1
  Cs  Cs10  1  0.741086  0.258914  0.750000  1
  Cs  Cs11  1  0.258914  0.741086  0.750000  1
  Cs  Cs12  1  0.741086  0.258914  0.250000  1
  Cs  Cs13  1  0.258914  0.741086  0.250000  1
  Cs  Cs14  1  0.741086  0.741086  0.750000  1
  Cs  Cs15  1  0.258914  0.258914  0.750000  1
  Cs  Cs16  1  0.152350  0.000000  0.500000  1
  Cs  Cs17  1  0.847650  0.000000  0.500000  1
  Cs  Cs18  1  0.000000  0.152350  0.000000  1
  Cs  Cs19  1  0.000000  0.847650  0.000000  1
  V  V20  1  0.000000  0.284676  0.500000  1
  V  V21  1  0.000000  0.715324  0.500000  1
  V  V22  1  0.715324  0.000000  0.000000  1
  V  V23  1  0.284676  0.000000  0.000000  1
  V  V24  1  0.500000  0.238035  0.500000  1
  V  V25  1  0.500000  0.761965  0.500000  1
  V  V26  1  0.761965  0.500000  0.000000  1
  V  V27  1  0.238035  0.500000  0.000000  1
  Pd  Pd28  1  0.000000  0.500000  0.500000  1
  Pd  Pd29  1  0.500000  0.000000  0.000000  1
  Se  Se30  1  0.130112  0.382583  0.500000  1
  Se  Se31  1  0.869888  0.617417  0.500000  1
  Se  Se32  1  0.869888  0.382583  0.500000  1
  Se  Se33  1  0.130112  0.617417  0.500000  1
  Se  Se34  1  0.617417  0.130112  0.000000  1
  Se  Se35  1  0.382583  0.869888  0.000000  1
  Se  Se36  1  0.617417  0.869888  0.000000  1
  Se  Se37  1  0.382583  0.130112  0.000000  1
  Se  Se38  1  0.000000  0.192056  0.345575  1
  Se  Se39  1  0.000000  0.807944  0.345575  1
  Se  Se40  1  0.000000  0.192056  0.654425  1
  Se  Se41  1  0.000000  0.807944  0.654425  1
  Se  Se42  1  0.807944  0.000000  0.154425  1
  Se  Se43  1  0.192056  0.000000  0.154425  1
  Se  Se44  1  0.807944  0.000000  0.845575  1
  Se  Se45  1  0.192056  0.000000  0.845575  1
  Se  Se46  1  0.365882  0.147843  0.500000  1
  Se  Se47  1  0.634118  0.852157  0.500000  1
  Se  Se48  1  0.634118  0.147843  0.500000  1
  Se  Se49  1  0.365882  0.852157  0.500000  1
  Se  Se50  1  0.852157  0.365882  0.000000  1
  Se  Se51  1  0.147843  0.634118  0.000000  1
  Se  Se52  1  0.852157  0.634118  0.000000  1
  Se  Se53  1  0.147843  0.365882  0.000000  1
  Se  Se54  1  0.500000  0.328456  0.341737  1
  Se  Se55  1  0.500000  0.671544  0.341737  1
  Se  Se56  1  0.500000  0.328456  0.658263  1
  Se  Se57  1  0.500000  0.671544  0.658263  1
  Se  Se58  1  0.671544  0.500000  0.158263  1
  Se  Se59  1  0.328456  0.500000  0.158263  1
  Se  Se60  1  0.671544  0.500000  0.841737  1
  Se  Se61  1  0.328456  0.500000  0.841737  1
