# generated using pymatgen
data_Tb14Er2In4PdRh3
_symmetry_space_group_name_H-M   'P 1'
_cell_length_a   9.69794646
_cell_length_b   9.68958229
_cell_length_c   9.69057598
_cell_angle_alpha   60.24746898
_cell_angle_beta   60.32106843
_cell_angle_gamma   60.22485457
_symmetry_Int_Tables_number   1
_chemical_formula_structural   Tb14Er2In4PdRh3
_chemical_formula_sum   'Tb14 Er2 In4 Pd1 Rh3'
_cell_volume   647.75488198
_cell_formula_units_Z   1
loop_
 _symmetry_equiv_pos_site_id
 _symmetry_equiv_pos_as_xyz
  1  'x, y, z'
loop_
 _atom_site_type_symbol
 _atom_site_label
 _atom_site_symmetry_multiplicity
 _atom_site_fract_x
 _atom_site_fract_y
 _atom_site_fract_z
 _atom_site_occupancy
  Tb  Tb0  1  0.194116  0.185570  0.810333  1
  Tb  Tb1  1  0.649977  0.048351  0.650202  1
  Tb  Tb2  1  0.060578  0.062973  0.437904  1
  Tb  Tb3  1  0.436700  0.438672  0.061032  1
  Tb  Tb4  1  0.649321  0.653914  0.647855  1
  Tb  Tb5  1  0.809872  0.185000  0.194069  1
  Tb  Tb6  1  0.189046  0.811431  0.810543  1
  Tb  Tb7  1  0.052515  0.652292  0.646197  1
  Tb  Tb8  1  0.439365  0.062062  0.060774  1
  Tb  Tb9  1  0.437659  0.062261  0.436463  1
  Tb  Tb10  1  0.061382  0.439475  0.062184  1
  Tb  Tb11  1  0.646479  0.652701  0.052888  1
  Tb  Tb12  1  0.189087  0.810715  0.189622  1
  Tb  Tb13  1  0.061127  0.438802  0.435733  1
  Er  Er14  1  0.809435  0.811854  0.189762  1
  Er  Er15  1  0.809768  0.185557  0.811174  1
  In  In16  1  0.417816  0.417099  0.417792  1
  In  In17  1  0.418576  0.417295  0.747316  1
  In  In18  1  0.417979  0.747772  0.417489  1
  In  In19  1  0.747420  0.417335  0.418433  1
  Pd  Pd20  1  0.857696  0.427880  0.857455  1
  Rh  Rh21  1  0.857528  0.857681  0.859070  1
  Rh  Rh22  1  0.858406  0.856623  0.427155  1
  Rh  Rh23  1  0.428150  0.856685  0.858555  1
