# generated using pymatgen
data_YLu2Cd3Ga2Ag
_symmetry_space_group_name_H-M   'P 1'
_cell_length_a   7.31689142
_cell_length_b   7.31107120
_cell_length_c   4.31376800
_cell_angle_alpha   90.00000000
_cell_angle_beta   90.00000000
_cell_angle_gamma   119.97369694
_symmetry_Int_Tables_number   1
_chemical_formula_structural   YLu2Cd3Ga2Ag
_chemical_formula_sum   'Y1 Lu2 Cd3 Ga2 Ag1'
_cell_volume   199.89875426
_cell_formula_units_Z   1
loop_
 _symmetry_equiv_pos_site_id
 _symmetry_equiv_pos_as_xyz
  1  'x, y, z'
loop_
 _atom_site_type_symbol
 _atom_site_label
 _atom_site_symmetry_multiplicity
 _atom_site_fract_x
 _atom_site_fract_y
 _atom_site_fract_z
 _atom_site_occupancy
  Y  Y0  1  0.000000  0.578506  0.500000  1
  Lu  Lu1  1  0.421066  0.420643  0.500000  1
  Lu  Lu2  1  0.578934  0.999578  0.500000  1
  Cd  Cd3  1  0.746496  0.746665  0.000000  1
  Cd  Cd4  1  0.253504  0.000170  0.000000  1
  Cd  Cd5  1  0.000000  0.252354  0.000000  1
  Ga  Ga6  1  0.664372  0.331834  0.000000  1
  Ga  Ga7  1  0.335628  0.667463  0.000000  1
  Ag  Ag8  1  0.000000  0.002788  0.500000  1
