# generated using pymatgen
data_Li8Dy7Ho(Sn3Bi)2
_symmetry_space_group_name_H-M   'P 1'
_cell_length_a   9.44833119
_cell_length_b   9.44855664
_cell_length_c   7.26713800
_cell_angle_alpha   90.00018943
_cell_angle_beta   90.10213910
_cell_angle_gamma   120.00080224
_symmetry_Int_Tables_number   1
_chemical_formula_structural   Li8Dy7Ho(Sn3Bi)2
_chemical_formula_sum   'Li8 Dy7 Ho1 Sn6 Bi2'
_cell_volume   561.83680479
_cell_formula_units_Z   1
loop_
 _symmetry_equiv_pos_site_id
 _symmetry_equiv_pos_as_xyz
  1  'x, y, z'
loop_
 _atom_site_type_symbol
 _atom_site_label
 _atom_site_symmetry_multiplicity
 _atom_site_fract_x
 _atom_site_fract_y
 _atom_site_fract_z
 _atom_site_occupancy
  Li  Li0  1  0.167656  0.333985  0.283677  1
  Li  Li1  1  0.167654  0.833671  0.283674  1
  Li  Li2  1  0.665289  0.832645  0.286759  1
  Li  Li3  1  0.829101  0.664458  0.787795  1
  Li  Li4  1  0.829099  0.164644  0.787800  1
  Li  Li5  1  0.337952  0.168974  0.791310  1
  Li  Li6  1  0.337933  0.668966  0.668199  1
  Li  Li7  1  0.665519  0.332759  0.171786  1
  Dy  Dy8  1  0.516983  0.026671  0.490823  1
  Dy  Dy9  1  0.516982  0.490312  0.490824  1
  Dy  Dy10  1  0.971905  0.485951  0.488714  1
  Dy  Dy11  1  0.492971  0.978203  0.997088  1
  Dy  Dy12  1  0.492971  0.514769  0.997089  1
  Dy  Dy13  1  0.017810  0.508905  0.999585  1
  Dy  Dy14  1  0.994706  0.997353  0.494903  1
  Ho  Ho15  1  0.995358  0.997679  0.005489  1
  Sn  Sn16  1  0.667057  0.833530  0.732758  1
  Sn  Sn17  1  0.833806  0.666476  0.232028  1
  Sn  Sn18  1  0.833813  0.167328  0.232030  1
  Sn  Sn19  1  0.333107  0.166550  0.232023  1
  Sn  Sn20  1  0.332320  0.666162  0.260218  1
  Sn  Sn21  1  0.667694  0.333853  0.759646  1
  Bi  Bi22  1  0.166157  0.333365  0.733876  1
  Bi  Bi23  1  0.166157  0.832791  0.733876  1
