# generated using pymatgen
data_Sr12Pr8Si15Pd
_symmetry_space_group_name_H-M   'P 1'
_cell_length_a   8.19582624
_cell_length_b   8.17051475
_cell_length_c   15.46695217
_cell_angle_alpha   89.74630423
_cell_angle_beta   89.46070714
_cell_angle_gamma   89.98572639
_symmetry_Int_Tables_number   1
_chemical_formula_structural   Sr12Pr8Si15Pd
_chemical_formula_sum   'Sr12 Pr8 Si15 Pd1'
_cell_volume   1035.67477467
_cell_formula_units_Z   1
loop_
 _symmetry_equiv_pos_site_id
 _symmetry_equiv_pos_as_xyz
  1  'x, y, z'
loop_
 _atom_site_type_symbol
 _atom_site_label
 _atom_site_symmetry_multiplicity
 _atom_site_fract_x
 _atom_site_fract_y
 _atom_site_fract_z
 _atom_site_occupancy
  Sr  Sr0  1  0.314170  0.312708  0.000623  1
  Sr  Sr1  1  0.187626  0.810013  0.249760  1
  Sr  Sr2  1  0.814912  0.189062  0.749068  1
  Sr  Sr3  1  0.683417  0.685191  0.499843  1
  Sr  Sr4  1  0.364745  0.010799  0.453933  1
  Sr  Sr5  1  0.488195  0.869868  0.704677  1
  Sr  Sr6  1  0.513068  0.132362  0.206869  1
  Sr  Sr7  1  0.866217  0.485987  0.293524  1
  Sr  Sr8  1  0.134284  0.514979  0.793971  1
  Sr  Sr9  1  0.633371  0.991132  0.955406  1
  Sr  Sr10  1  0.006711  0.363162  0.540968  1
  Sr  Sr11  1  0.989178  0.633256  0.044553  1
  Pr  Pr12  1  0.137370  0.994342  0.875056  1
  Pr  Pr13  1  0.511366  0.629806  0.124735  1
  Pr  Pr14  1  0.486735  0.362349  0.627585  1
  Pr  Pr15  1  0.635572  0.510723  0.876781  1
  Pr  Pr16  1  0.368132  0.488179  0.375760  1
  Pr  Pr17  1  0.867221  0.008624  0.374676  1
  Pr  Pr18  1  0.990981  0.129900  0.125589  1
  Pr  Pr19  1  0.007914  0.873581  0.620849  1
  Si  Si20  1  0.349164  0.711010  0.945203  1
  Si  Si21  1  0.648287  0.288106  0.444724  1
  Si  Si22  1  0.714879  0.349824  0.056566  1
  Si  Si23  1  0.284303  0.651722  0.555644  1
  Si  Si24  1  0.788693  0.848449  0.195566  1
  Si  Si25  1  0.151211  0.209533  0.304186  1
  Si  Si26  1  0.854010  0.793616  0.801133  1
  Si  Si27  1  0.277851  0.914589  0.053903  1
  Si  Si28  1  0.583234  0.776892  0.304060  1
  Si  Si29  1  0.426519  0.220944  0.809803  1
  Si  Si30  1  0.774950  0.586545  0.695671  1
  Si  Si31  1  0.223377  0.415078  0.196355  1
  Si  Si32  1  0.710296  0.080215  0.553293  1
  Si  Si33  1  0.918739  0.278199  0.946470  1
  Si  Si34  1  0.082144  0.721454  0.445964  1
  Pd  Pd35  1  0.211158  0.157797  0.697229  1
