# generated using pymatgen
data_La16Cd4IrRh3
_symmetry_space_group_name_H-M   'P 1'
_cell_length_a   10.15487462
_cell_length_b   10.10298533
_cell_length_c   10.10298500
_cell_angle_alpha   59.99999780
_cell_angle_beta   60.16888489
_cell_angle_gamma   60.16889041
_symmetry_Int_Tables_number   1
_chemical_formula_structural   La16Cd4IrRh3
_chemical_formula_sum   'La16 Cd4 Ir1 Rh3'
_cell_volume   734.78947345
_cell_formula_units_Z   1
loop_
 _symmetry_equiv_pos_site_id
 _symmetry_equiv_pos_as_xyz
  1  'x, y, z'
loop_
 _atom_site_type_symbol
 _atom_site_label
 _atom_site_symmetry_multiplicity
 _atom_site_fract_x
 _atom_site_fract_y
 _atom_site_fract_z
 _atom_site_occupancy
  La  La0  1  0.597811  0.597112  0.597112  1
  La  La1  1  0.597811  0.597112  0.207966  1
  La  La2  1  0.597811  0.207966  0.597112  1
  La  La3  1  0.207435  0.597522  0.597522  1
  La  La4  1  0.059725  0.439709  0.439709  1
  La  La5  1  0.440256  0.059904  0.059904  1
  La  La6  1  0.440256  0.059904  0.439937  1
  La  La7  1  0.059725  0.439709  0.060857  1
  La  La8  1  0.440256  0.439937  0.059904  1
  La  La9  1  0.059725  0.060857  0.439709  1
  La  La10  1  0.188349  0.811688  0.811688  1
  La  La11  1  0.811700  0.189269  0.189269  1
  La  La12  1  0.811700  0.189269  0.809762  1
  La  La13  1  0.188349  0.811688  0.188275  1
  La  La14  1  0.811700  0.809762  0.189269  1
  La  La15  1  0.188349  0.188275  0.811688  1
  Cd  Cd16  1  0.829474  0.829305  0.829305  1
  Cd  Cd17  1  0.829474  0.829305  0.511915  1
  Cd  Cd18  1  0.829474  0.511915  0.829305  1
  Cd  Cd19  1  0.511826  0.829391  0.829391  1
  Ir  Ir20  1  0.824423  0.391859  0.391859  1
  Rh  Rh21  1  0.391456  0.391541  0.391541  1
  Rh  Rh22  1  0.391456  0.391541  0.825462  1
  Rh  Rh23  1  0.391456  0.825462  0.391541  1
