# generated using pymatgen
data_Ho7Tm13Si15P
_symmetry_space_group_name_H-M   'P 1'
_cell_length_a   7.58555034
_cell_length_b   7.53998742
_cell_length_c   13.94197500
_cell_angle_alpha   90.43262596
_cell_angle_beta   89.37497641
_cell_angle_gamma   90.24529517
_symmetry_Int_Tables_number   1
_chemical_formula_structural   Ho7Tm13Si15P
_chemical_formula_sum   'Ho7 Tm13 Si15 P1'
_cell_volume   797.33341428
_cell_formula_units_Z   1
loop_
 _symmetry_equiv_pos_site_id
 _symmetry_equiv_pos_as_xyz
  1  'x, y, z'
loop_
 _atom_site_type_symbol
 _atom_site_label
 _atom_site_symmetry_multiplicity
 _atom_site_fract_x
 _atom_site_fract_y
 _atom_site_fract_z
 _atom_site_occupancy
  Ho  Ho0  1  0.006983  0.360842  0.539560  1
  Ho  Ho1  1  0.646061  0.994868  0.959842  1
  Ho  Ho2  1  0.146569  0.508009  0.789421  1
  Ho  Ho3  1  0.851199  0.491621  0.288837  1
  Ho  Ho4  1  0.504734  0.142012  0.208976  1
  Ho  Ho5  1  0.498380  0.860778  0.711456  1
  Ho  Ho6  1  0.355852  0.003336  0.459695  1
  Tm  Tm7  1  0.348433  0.497746  0.381503  1
  Tm  Tm8  1  0.854963  0.004606  0.371749  1
  Tm  Tm9  1  0.993379  0.141144  0.125253  1
  Tm  Tm10  1  0.013868  0.857052  0.619570  1
  Tm  Tm11  1  0.644251  0.510131  0.877317  1
  Tm  Tm12  1  0.497342  0.353985  0.624997  1
  Tm  Tm13  1  0.506836  0.641746  0.123855  1
  Tm  Tm14  1  0.140732  0.992036  0.874396  1
  Tm  Tm15  1  0.997823  0.640852  0.042265  1
  Tm  Tm16  1  0.677314  0.680830  0.500380  1
  Tm  Tm17  1  0.822074  0.181586  0.750059  1
  Tm  Tm18  1  0.177102  0.817172  0.250466  1
  Tm  Tm19  1  0.320382  0.319182  0.000291  1
  Si  Si20  1  0.944823  0.296225  0.938062  1
  Si  Si21  1  0.708697  0.057580  0.560945  1
  Si  Si22  1  0.204378  0.441758  0.188858  1
  Si  Si23  1  0.800797  0.557522  0.687224  1
  Si  Si24  1  0.444512  0.207202  0.813363  1
  Si  Si25  1  0.550093  0.794261  0.313062  1
  Si  Si26  1  0.295921  0.942114  0.062711  1
  Si  Si27  1  0.850121  0.798013  0.811241  1
  Si  Si28  1  0.150466  0.202236  0.316230  1
  Si  Si29  1  0.796992  0.847428  0.181596  1
  Si  Si30  1  0.309897  0.649471  0.577357  1
  Si  Si31  1  0.704908  0.348710  0.065650  1
  Si  Si32  1  0.648850  0.297707  0.433931  1
  Si  Si33  1  0.348623  0.704671  0.936280  1
  Si  Si34  1  0.202569  0.153666  0.685586  1
  P  P35  1  0.034077  0.701900  0.428017  1
