# generated using pymatgen
data_Nd7Pa(ZnRh)8
_symmetry_space_group_name_H-M   'P 1'
_cell_length_a   3.98769300
_cell_length_b   7.35843230
_cell_length_c   16.60385527
_cell_angle_alpha   89.46964190
_cell_angle_beta   90.00000000
_cell_angle_gamma   90.00000000
_symmetry_Int_Tables_number   1
_chemical_formula_structural   Nd7Pa(ZnRh)8
_chemical_formula_sum   'Nd7 Pa1 Zn8 Rh8'
_cell_volume   487.18885802
_cell_formula_units_Z   1
loop_
 _symmetry_equiv_pos_site_id
 _symmetry_equiv_pos_as_xyz
  1  'x, y, z'
loop_
 _atom_site_type_symbol
 _atom_site_label
 _atom_site_symmetry_multiplicity
 _atom_site_fract_x
 _atom_site_fract_y
 _atom_site_fract_z
 _atom_site_occupancy
  Nd  Nd0  1  0.750000  0.949102  0.283099  1
  Nd  Nd1  1  0.750000  0.823701  0.060371  1
  Nd  Nd2  1  0.250000  0.048640  0.715625  1
  Nd  Nd3  1  0.250000  0.168899  0.940055  1
  Nd  Nd4  1  0.250000  0.547895  0.784394  1
  Nd  Nd5  1  0.750000  0.333212  0.440002  1
  Nd  Nd6  1  0.250000  0.671143  0.560348  1
  Pa  Pa7  1  0.750000  0.445695  0.214881  1
  Zn  Zn8  1  0.250000  0.003136  0.439001  1
  Zn  Zn9  1  0.750000  0.501814  0.939783  1
  Zn  Zn10  1  0.750000  0.003001  0.560070  1
  Zn  Zn11  1  0.250000  0.623783  0.350977  1
  Zn  Zn12  1  0.750000  0.377483  0.650877  1
  Zn  Zn13  1  0.750000  0.879608  0.848957  1
  Zn  Zn14  1  0.250000  0.499361  0.057281  1
  Zn  Zn15  1  0.250000  0.117337  0.151617  1
  Rh  Rh16  1  0.250000  0.246396  0.564538  1
  Rh  Rh17  1  0.750000  0.268596  0.075507  1
  Rh  Rh18  1  0.250000  0.266845  0.300416  1
  Rh  Rh19  1  0.750000  0.253256  0.816277  1
  Rh  Rh20  1  0.250000  0.749055  0.935053  1
  Rh  Rh21  1  0.750000  0.753345  0.686368  1
  Rh  Rh22  1  0.750000  0.763525  0.434352  1
  Rh  Rh23  1  0.250000  0.705171  0.190151  1
