# generated using pymatgen
data_HfZr9Ga2(SnSb)3
_symmetry_space_group_name_H-M   'P 1'
_cell_length_a   8.69702600
_cell_length_b   8.69702784
_cell_length_c   5.89691100
_cell_angle_alpha   90.00000000
_cell_angle_beta   90.00000000
_cell_angle_gamma   120.00000061
_symmetry_Int_Tables_number   1
_chemical_formula_structural   HfZr9Ga2(SnSb)3
_chemical_formula_sum   'Hf1 Zr9 Ga2 Sn3 Sb3'
_cell_volume   386.27520428
_cell_formula_units_Z   1
loop_
 _symmetry_equiv_pos_site_id
 _symmetry_equiv_pos_as_xyz
  1  'x, y, z'
loop_
 _atom_site_type_symbol
 _atom_site_label
 _atom_site_symmetry_multiplicity
 _atom_site_fract_x
 _atom_site_fract_y
 _atom_site_fract_z
 _atom_site_occupancy
  Hf  Hf0  1  0.666667  0.333333  0.497904  1
  Zr  Zr1  1  0.735497  0.734857  0.749685  1
  Zr  Zr2  1  0.265143  0.000640  0.749685  1
  Zr  Zr3  1  0.999360  0.264503  0.749685  1
  Zr  Zr4  1  0.269594  0.269230  0.250568  1
  Zr  Zr5  1  0.730770  0.000364  0.250568  1
  Zr  Zr6  1  0.999636  0.730406  0.250568  1
  Zr  Zr7  1  0.666667  0.333333  0.001118  1
  Zr  Zr8  1  0.333333  0.666667  0.001477  1
  Zr  Zr9  1  0.333333  0.666667  0.498706  1
  Ga  Ga10  1  0.000000  0.000000  0.005015  1
  Ga  Ga11  1  0.000000  0.000000  0.495081  1
  Sn  Sn12  1  0.613753  0.613363  0.250585  1
  Sn  Sn13  1  0.386637  0.000390  0.250585  1
  Sn  Sn14  1  0.999610  0.386247  0.250585  1
  Sb  Sb15  1  0.391253  0.390844  0.749395  1
  Sb  Sb16  1  0.609156  0.000409  0.749395  1
  Sb  Sb17  1  0.999591  0.608747  0.749395  1
