# generated using pymatgen
data_YTi7Bi9
_symmetry_space_group_name_H-M   'P 1'
_cell_length_a   10.41128900
_cell_length_b   10.41128900
_cell_length_c   7.48945200
_cell_angle_alpha   90.00006362
_cell_angle_beta   90.00006362
_cell_angle_gamma   90.00025315
_symmetry_Int_Tables_number   1
_chemical_formula_structural   YTi7Bi9
_chemical_formula_sum   'Y2 Ti14 Bi18'
_cell_volume   811.81868999
_cell_formula_units_Z   2
loop_
 _symmetry_equiv_pos_site_id
 _symmetry_equiv_pos_as_xyz
  1  'x, y, z'
loop_
 _atom_site_type_symbol
 _atom_site_label
 _atom_site_symmetry_multiplicity
 _atom_site_fract_x
 _atom_site_fract_y
 _atom_site_fract_z
 _atom_site_occupancy
  Y  Y0  1  0.750000  0.750000  0.925646  1
  Y  Y1  1  0.250000  0.250000  0.074329  1
  Ti  Ti2  1  0.999998  0.500002  0.999997  1
  Ti  Ti3  1  0.500002  0.999998  0.999997  1
  Ti  Ti4  1  0.500001  0.500001  0.999997  1
  Ti  Ti5  1  0.999998  0.999998  0.999997  1
  Ti  Ti6  1  0.891956  0.249999  0.147177  1
  Ti  Ti7  1  0.608045  0.250002  0.147176  1
  Ti  Ti8  1  0.108041  0.750001  0.852815  1
  Ti  Ti9  1  0.391958  0.749997  0.852816  1
  Ti  Ti10  1  0.750001  0.108041  0.852815  1
  Ti  Ti11  1  0.749997  0.391958  0.852816  1
  Ti  Ti12  1  0.249999  0.891956  0.147177  1
  Ti  Ti13  1  0.250002  0.608045  0.147176  1
  Ti  Ti14  1  0.750000  0.750000  0.427630  1
  Ti  Ti15  1  0.250000  0.250000  0.572363  1
  Bi  Bi16  1  0.419179  0.080821  0.352836  1
  Bi  Bi17  1  0.080821  0.419179  0.352836  1
  Bi  Bi18  1  0.580814  0.580814  0.647175  1
  Bi  Bi19  1  0.919186  0.919186  0.647174  1
  Bi  Bi20  1  0.919185  0.580815  0.647177  1
  Bi  Bi21  1  0.580815  0.919185  0.647177  1
  Bi  Bi22  1  0.419180  0.419180  0.352838  1
  Bi  Bi23  1  0.080820  0.080820  0.352840  1
  Bi  Bi24  1  0.249999  0.750000  0.500026  1
  Bi  Bi25  1  0.750000  0.249999  0.500026  1
  Bi  Bi26  1  0.492581  0.250004  0.801847  1
  Bi  Bi27  1  0.007417  0.249997  0.801846  1
  Bi  Bi28  1  0.507400  0.749996  0.198148  1
  Bi  Bi29  1  0.992601  0.750003  0.198148  1
  Bi  Bi30  1  0.749996  0.507400  0.198148  1
  Bi  Bi31  1  0.750003  0.992601  0.198148  1
  Bi  Bi32  1  0.250004  0.492581  0.801847  1
  Bi  Bi33  1  0.249997  0.007417  0.801846  1
