# generated using pymatgen
data_CeDyHo(RhPb)3
_symmetry_space_group_name_H-M   'P 1'
_cell_length_a   7.70797672
_cell_length_b   7.79145214
_cell_length_c   3.89981900
_cell_angle_alpha   90.00000000
_cell_angle_beta   90.00000000
_cell_angle_gamma   120.39806094
_symmetry_Int_Tables_number   1
_chemical_formula_structural   CeDyHo(RhPb)3
_chemical_formula_sum   'Ce1 Dy1 Ho1 Rh3 Pb3'
_cell_volume   202.01232265
_cell_formula_units_Z   1
loop_
 _symmetry_equiv_pos_site_id
 _symmetry_equiv_pos_as_xyz
  1  'x, y, z'
loop_
 _atom_site_type_symbol
 _atom_site_label
 _atom_site_symmetry_multiplicity
 _atom_site_fract_x
 _atom_site_fract_y
 _atom_site_fract_z
 _atom_site_occupancy
  Ce  Ce0  1  0.999990  0.588978  0.500000  1
  Dy  Dy1  1  0.404502  0.404210  0.500000  1
  Ho  Ho2  1  0.595689  0.999682  0.500000  1
  Rh  Rh3  1  0.999583  0.995152  0.500000  1
  Rh  Rh4  1  0.680786  0.345607  0.000000  1
  Rh  Rh5  1  0.319615  0.665905  0.000000  1
  Pb  Pb6  1  0.728957  0.737312  0.000000  1
  Pb  Pb7  1  0.271376  0.007856  0.000000  1
  Pb  Pb8  1  0.999502  0.255298  0.000000  1
