# generated using pymatgen
data_Zn3Ni(TeO4)4
_symmetry_space_group_name_H-M   'P 1'
_cell_length_a   4.79625185
_cell_length_b   10.52530155
_cell_length_c   5.63092761
_cell_angle_alpha   84.11205685
_cell_angle_beta   90.06629245
_cell_angle_gamma   90.01586783
_symmetry_Int_Tables_number   1
_chemical_formula_structural   Zn3Ni(TeO4)4
_chemical_formula_sum   'Zn3 Ni1 Te4 O16'
_cell_volume   282.76064102
_cell_formula_units_Z   1
loop_
 _symmetry_equiv_pos_site_id
 _symmetry_equiv_pos_as_xyz
  1  'x, y, z'
loop_
 _atom_site_type_symbol
 _atom_site_label
 _atom_site_symmetry_multiplicity
 _atom_site_fract_x
 _atom_site_fract_y
 _atom_site_fract_z
 _atom_site_occupancy
  Zn  Zn0  1  0.500083  0.625084  0.124829  1
  Zn  Zn1  1  0.999970  0.125047  0.124806  1
  Zn  Zn2  1  0.500013  0.125052  0.624780  1
  Ni  Ni3  1  0.999902  0.625041  0.625083  1
  Te  Te4  1  0.000134  0.376316  0.374063  1
  Te  Te5  1  0.999814  0.873722  0.875858  1
  Te  Te6  1  0.499309  0.376436  0.873340  1
  Te  Te7  1  0.500775  0.873524  0.376723  1
  O  O8  1  0.829470  0.213305  0.399790  1
  O  O9  1  0.829571  0.711008  0.899510  1
  O  O10  1  0.670885  0.213701  0.898866  1
  O  O11  1  0.675173  0.711329  0.401523  1
  O  O12  1  0.329259  0.036291  0.350950  1
  O  O13  1  0.325017  0.538644  0.848496  1
  O  O14  1  0.170358  0.036669  0.850047  1
  O  O15  1  0.170340  0.538929  0.350398  1
  O  O16  1  0.284026  0.304474  0.613971  1
  O  O17  1  0.285463  0.802960  0.115635  1
  O  O18  1  0.216457  0.304634  0.114470  1
  O  O19  1  0.214356  0.801066  0.614638  1
  O  O20  1  0.785877  0.448897  0.635613  1
  O  O21  1  0.783765  0.945339  0.135763  1
  O  O22  1  0.714311  0.447032  0.134577  1
  O  O23  1  0.715670  0.945501  0.636272  1
