# generated using pymatgen
data_Ho2Er10In2Fe2Ru
_symmetry_space_group_name_H-M   'P 1'
_cell_length_a   8.30566477
_cell_length_b   8.30559649
_cell_length_c   8.30074063
_cell_angle_alpha   108.64264483
_cell_angle_beta   108.64408483
_cell_angle_gamma   111.16492333
_symmetry_Int_Tables_number   1
_chemical_formula_structural   Ho2Er10In2Fe2Ru
_chemical_formula_sum   'Ho2 Er10 In2 Fe2 Ru1'
_cell_volume   440.37699202
_cell_formula_units_Z   1
loop_
 _symmetry_equiv_pos_site_id
 _symmetry_equiv_pos_as_xyz
  1  'x, y, z'
loop_
 _atom_site_type_symbol
 _atom_site_label
 _atom_site_symmetry_multiplicity
 _atom_site_fract_x
 _atom_site_fract_y
 _atom_site_fract_z
 _atom_site_occupancy
  Ho  Ho0  1  0.307014  0.693009  0.999994  1
  Ho  Ho1  1  0.692986  0.306991  0.000006  1
  Er  Er2  1  0.431249  0.193206  0.238742  1
  Er  Er3  1  0.568751  0.806794  0.761258  1
  Er  Er4  1  0.954480  0.192588  0.761342  1
  Er  Er5  1  0.192534  0.954448  0.761273  1
  Er  Er6  1  0.045520  0.807412  0.238658  1
  Er  Er7  1  0.807466  0.045552  0.238727  1
  Er  Er8  1  0.193147  0.431298  0.238764  1
  Er  Er9  1  0.806853  0.568702  0.761236  1
  Er  Er10  1  0.307383  0.307292  0.614689  1
  Er  Er11  1  0.692617  0.692708  0.385311  1
  In  In12  1  0.500000  0.000000  0.500000  1
  In  In13  1  0.000000  0.500000  0.500000  1
  Fe  Fe14  1  0.385411  0.385411  0.000001  1
  Fe  Fe15  1  0.614589  0.614589  0.999999  1
  Ru  Ru16  1  0.000000  0.000000  0.000000  1
