# generated using pymatgen
data_Er7LuTi11Si16Ag
_symmetry_space_group_name_H-M   'P 1'
_cell_length_a   7.03875903
_cell_length_b   7.04001752
_cell_length_c   12.85477903
_cell_angle_alpha   90.07303270
_cell_angle_beta   89.93605787
_cell_angle_gamma   89.68464222
_symmetry_Int_Tables_number   1
_chemical_formula_structural   Er7LuTi11Si16Ag
_chemical_formula_sum   'Er7 Lu1 Ti11 Si16 Ag1'
_cell_volume   636.98212855
_cell_formula_units_Z   1
loop_
 _symmetry_equiv_pos_site_id
 _symmetry_equiv_pos_as_xyz
  1  'x, y, z'
loop_
 _atom_site_type_symbol
 _atom_site_label
 _atom_site_symmetry_multiplicity
 _atom_site_fract_x
 _atom_site_fract_y
 _atom_site_fract_z
 _atom_site_occupancy
  Er  Er0  1  0.497572  0.840987  0.716528  1
  Er  Er1  1  0.501387  0.157675  0.214897  1
  Er  Er2  1  0.840805  0.497736  0.283407  1
  Er  Er3  1  0.157800  0.501462  0.785202  1
  Er  Er4  1  0.656516  0.000889  0.968323  1
  Er  Er5  1  0.002120  0.340709  0.533307  1
  Er  Er6  1  0.000899  0.656549  0.031660  1
  Lu  Lu7  1  0.341280  0.001167  0.466501  1
  Ti  Ti8  1  0.174083  0.826387  0.250259  1
  Ti  Ti9  1  0.826358  0.173881  0.749816  1
  Ti  Ti10  1  0.672529  0.673035  0.499987  1
  Ti  Ti11  1  0.147714  0.007684  0.876575  1
  Ti  Ti12  1  0.495577  0.650565  0.123320  1
  Ti  Ti13  1  0.506957  0.350336  0.624850  1
  Ti  Ti14  1  0.650452  0.495567  0.876765  1
  Ti  Ti15  1  0.350415  0.507327  0.375079  1
  Ti  Ti16  1  0.850511  0.992366  0.374319  1
  Ti  Ti17  1  0.007830  0.147542  0.123440  1
  Ti  Ti18  1  0.992479  0.850496  0.625579  1
  Si  Si19  1  0.202489  0.133005  0.683454  1
  Si  Si20  1  0.373339  0.719108  0.928641  1
  Si  Si21  1  0.631243  0.293397  0.432015  1
  Si  Si22  1  0.719015  0.373347  0.071374  1
  Si  Si23  1  0.294052  0.632570  0.567777  1
  Si  Si24  1  0.797208  0.866787  0.182359  1
  Si  Si25  1  0.133723  0.201718  0.316802  1
  Si  Si26  1  0.866787  0.797270  0.817644  1
  Si  Si27  1  0.287001  0.938534  0.066178  1
  Si  Si28  1  0.546161  0.792044  0.314747  1
  Si  Si29  1  0.455175  0.207537  0.808965  1
  Si  Si30  1  0.791524  0.546711  0.685586  1
  Si  Si31  1  0.207584  0.455284  0.191067  1
  Si  Si32  1  0.707609  0.047068  0.563914  1
  Si  Si33  1  0.938607  0.286966  0.933805  1
  Si  Si34  1  0.047786  0.708878  0.435829  1
  Ag  Ag35  1  0.327413  0.327414  0.000032  1
