# generated using pymatgen
data_GdHo5C3Cl5
_symmetry_space_group_name_H-M   'P 1'
_cell_length_a   3.64470724
_cell_length_b   8.30813053
_cell_length_c   10.31644957
_cell_angle_alpha   85.44094621
_cell_angle_beta   79.71810961
_cell_angle_gamma   77.39680422
_symmetry_Int_Tables_number   1
_chemical_formula_structural   GdHo5C3Cl5
_chemical_formula_sum   'Gd1 Ho5 C3 Cl5'
_cell_volume   299.69911574
_cell_formula_units_Z   1
loop_
 _symmetry_equiv_pos_site_id
 _symmetry_equiv_pos_as_xyz
  1  'x, y, z'
loop_
 _atom_site_type_symbol
 _atom_site_label
 _atom_site_symmetry_multiplicity
 _atom_site_fract_x
 _atom_site_fract_y
 _atom_site_fract_z
 _atom_site_occupancy
  Gd  Gd0  1  0.432001  0.924015  0.217657  1
  Ho  Ho1  1  0.574741  0.074353  0.777364  1
  Ho  Ho2  1  0.959301  0.428233  0.656088  1
  Ho  Ho3  1  0.682876  0.179868  0.457116  1
  Ho  Ho4  1  0.044910  0.569115  0.344757  1
  Ho  Ho5  1  0.321030  0.818848  0.542788  1
  C  C6  1  0.127913  0.122878  0.624612  1
  C  C7  1  0.876942  0.875116  0.374807  1
  C  C8  1  0.501845  0.499081  0.500480  1
  Cl  Cl9  1  0.754230  0.745669  0.752253  1
  Cl  Cl10  1  0.380815  0.378501  0.863758  1
  Cl  Cl11  1  0.248385  0.255081  0.248685  1
  Cl  Cl12  1  0.627300  0.612373  0.135786  1
  Cl  Cl13  1  0.004933  0.000457  0.993165  1
