# generated using pymatgen
data_Ho3Tm3Al24ZnOs7
_symmetry_space_group_name_H-M   'P 1'
_cell_length_a   8.84713482
_cell_length_b   8.84566834
_cell_length_c   9.52821625
_cell_angle_alpha   89.93925322
_cell_angle_beta   90.04334768
_cell_angle_gamma   120.05251350
_symmetry_Int_Tables_number   1
_chemical_formula_structural   Ho3Tm3Al24ZnOs7
_chemical_formula_sum   'Ho3 Tm3 Al24 Zn1 Os7'
_cell_volume   645.42416375
_cell_formula_units_Z   1
loop_
 _symmetry_equiv_pos_site_id
 _symmetry_equiv_pos_as_xyz
  1  'x, y, z'
loop_
 _atom_site_type_symbol
 _atom_site_label
 _atom_site_symmetry_multiplicity
 _atom_site_fract_x
 _atom_site_fract_y
 _atom_site_fract_z
 _atom_site_occupancy
  Ho  Ho0  1  0.191593  0.387303  0.248534  1
  Ho  Ho1  1  0.808357  0.612720  0.751488  1
  Ho  Ho2  1  0.612737  0.808459  0.248589  1
  Tm  Tm3  1  0.388362  0.191869  0.751063  1
  Tm  Tm4  1  0.195611  0.804255  0.253565  1
  Tm  Tm5  1  0.804153  0.195656  0.746402  1
  Al  Al6  1  0.329676  0.670296  0.022709  1
  Al  Al7  1  0.669986  0.329638  0.977043  1
  Al  Al8  1  0.665763  0.333845  0.518536  1
  Al  Al9  1  0.333926  0.665972  0.481679  1
  Al  Al10  1  0.162682  0.325767  0.574472  1
  Al  Al11  1  0.837445  0.674087  0.425709  1
  Al  Al12  1  0.674145  0.837390  0.574447  1
  Al  Al13  1  0.849079  0.677307  0.081546  1
  Al  Al14  1  0.325852  0.162542  0.425903  1
  Al  Al15  1  0.151031  0.322570  0.918282  1
  Al  Al16  1  0.163033  0.837218  0.575366  1
  Al  Al17  1  0.322587  0.150844  0.081353  1
  Al  Al18  1  0.837055  0.162998  0.424768  1
  Al  Al19  1  0.677366  0.849138  0.918353  1
  Al  Al20  1  0.836538  0.163373  0.076542  1
  Al  Al21  1  0.163552  0.836871  0.923281  1
  Al  Al22  1  0.561299  0.121509  0.249293  1
  Al  Al23  1  0.438533  0.878835  0.750661  1
  Al  Al24  1  0.878473  0.438662  0.249356  1
  Al  Al25  1  0.121576  0.561344  0.750653  1
  Al  Al26  1  0.563436  0.436527  0.254303  1
  Al  Al27  1  0.436418  0.563004  0.745836  1
  Al  Al28  1  0.999435  0.000618  0.250507  1
  Al  Al29  1  0.001159  0.999727  0.749512  1
  Zn  Zn30  1  0.499944  0.499952  0.999967  1
  Os  Os31  1  0.499854  0.000203  0.999690  1
  Os  Os32  1  0.999865  0.499901  0.999943  1
  Os  Os33  1  0.499895  0.000133  0.500261  1
  Os  Os34  1  0.999808  0.499889  0.500081  1
  Os  Os35  1  0.499852  0.499648  0.500282  1
  Os  Os36  1  0.999937  0.999950  0.999977  1
  Os  Os37  1  0.999988  0.999978  0.500046  1
