# generated using pymatgen
data_Ba6MgU(SnSe6)2
_symmetry_space_group_name_H-M   'P 1'
_cell_length_a   8.90837223
_cell_length_b   8.90833421
_cell_length_c   8.90843354
_cell_angle_alpha   90.22284764
_cell_angle_beta   90.22426279
_cell_angle_gamma   90.22356864
_symmetry_Int_Tables_number   1
_chemical_formula_structural   Ba6MgU(SnSe6)2
_chemical_formula_sum   'Ba6 Mg1 U1 Sn2 Se12'
_cell_volume   706.94602705
_cell_formula_units_Z   1
loop_
 _symmetry_equiv_pos_site_id
 _symmetry_equiv_pos_as_xyz
  1  'x, y, z'
loop_
 _atom_site_type_symbol
 _atom_site_label
 _atom_site_symmetry_multiplicity
 _atom_site_fract_x
 _atom_site_fract_y
 _atom_site_fract_z
 _atom_site_occupancy
  Ba  Ba0  1  0.869774  0.620048  0.257795  1
  Ba  Ba1  1  0.257794  0.869774  0.620048  1
  Ba  Ba2  1  0.620048  0.257794  0.869774  1
  Ba  Ba3  1  0.742206  0.130226  0.379952  1
  Ba  Ba4  1  0.379952  0.742206  0.130226  1
  Ba  Ba5  1  0.130226  0.379952  0.742205  1
  Mg  Mg6  1  0.500000  0.500000  0.500000  1
  U  U7  1  0.000000  0.000000  0.000000  1
  Sn  Sn8  1  0.279638  0.279639  0.279640  1
  Sn  Sn9  1  0.720362  0.720361  0.720360  1
  Se  Se10  1  0.202970  0.554971  0.411264  1
  Se  Se11  1  0.411264  0.202970  0.554971  1
  Se  Se12  1  0.554971  0.411265  0.202970  1
  Se  Se13  1  0.930629  0.056163  0.709267  1
  Se  Se14  1  0.709261  0.930639  0.056178  1
  Se  Se15  1  0.056162  0.709269  0.930630  1
  Se  Se16  1  0.797030  0.445029  0.588736  1
  Se  Se17  1  0.588736  0.797030  0.445029  1
  Se  Se18  1  0.445029  0.588735  0.797030  1
  Se  Se19  1  0.069371  0.943837  0.290733  1
  Se  Se20  1  0.290739  0.069361  0.943822  1
  Se  Se21  1  0.943838  0.290731  0.069370  1
