# generated using pymatgen
data_Si4Pd5Rh3
_symmetry_space_group_name_H-M   'P 1'
_cell_length_a   3.90746900
_cell_length_b   5.95375034
_cell_length_c   7.34155135
_cell_angle_alpha   90.44467786
_cell_angle_beta   90.00000000
_cell_angle_gamma   90.00000000
_symmetry_Int_Tables_number   1
_chemical_formula_structural   Si4Pd5Rh3
_chemical_formula_sum   'Si4 Pd5 Rh3'
_cell_volume   170.78940344
_cell_formula_units_Z   1
loop_
 _symmetry_equiv_pos_site_id
 _symmetry_equiv_pos_as_xyz
  1  'x, y, z'
loop_
 _atom_site_type_symbol
 _atom_site_label
 _atom_site_symmetry_multiplicity
 _atom_site_fract_x
 _atom_site_fract_y
 _atom_site_fract_z
 _atom_site_occupancy
  Si  Si0  1  0.250000  0.253578  0.882343  1
  Si  Si1  1  0.750000  0.756025  0.126116  1
  Si  Si2  1  0.250000  0.745200  0.609701  1
  Si  Si3  1  0.750000  0.251201  0.382434  1
  Pd  Pd4  1  0.750000  0.532614  0.830302  1
  Pd  Pd5  1  0.250000  0.473511  0.173008  1
  Pd  Pd6  1  0.750000  0.030018  0.674444  1
  Pd  Pd7  1  0.250000  0.963110  0.322919  1
  Pd  Pd8  1  0.250000  0.849942  0.927927  1
  Rh  Rh9  1  0.750000  0.151571  0.068453  1
  Rh  Rh10  1  0.250000  0.346012  0.568497  1
  Rh  Rh11  1  0.750000  0.647217  0.433856  1
