# generated using pymatgen
data_Tb3Al9Si3Os3Ru
_symmetry_space_group_name_H-M   'P 1'
_cell_length_a   8.71201500
_cell_length_b   8.68412140
_cell_length_c   9.55157100
_cell_angle_alpha   90.00000000
_cell_angle_beta   90.00000000
_cell_angle_gamma   120.10631370
_symmetry_Int_Tables_number   1
_chemical_formula_structural   Tb3Al9Si3Os3Ru
_chemical_formula_sum   'Tb6 Al18 Si6 Os6 Ru2'
_cell_volume   625.14921291
_cell_formula_units_Z   2
loop_
 _symmetry_equiv_pos_site_id
 _symmetry_equiv_pos_as_xyz
  1  'x, y, z'
loop_
 _atom_site_type_symbol
 _atom_site_label
 _atom_site_symmetry_multiplicity
 _atom_site_fract_x
 _atom_site_fract_y
 _atom_site_fract_z
 _atom_site_occupancy
  Tb  Tb0  1  0.193113  0.386226  0.250000  1
  Tb  Tb1  1  0.806887  0.613774  0.750000  1
  Tb  Tb2  1  0.611192  0.808147  0.250000  1
  Tb  Tb3  1  0.388808  0.191853  0.750000  1
  Tb  Tb4  1  0.196956  0.808147  0.250000  1
  Tb  Tb5  1  0.803044  0.191853  0.750000  1
  Al  Al6  1  0.164454  0.328906  0.579763  1
  Al  Al7  1  0.835546  0.671094  0.420237  1
  Al  Al8  1  0.671512  0.835246  0.577861  1
  Al  Al9  1  0.835546  0.671094  0.079763  1
  Al  Al10  1  0.328488  0.164754  0.422139  1
  Al  Al11  1  0.164454  0.328906  0.920237  1
  Al  Al12  1  0.163736  0.835246  0.577861  1
  Al  Al13  1  0.328488  0.164754  0.077861  1
  Al  Al14  1  0.836264  0.164754  0.422139  1
  Al  Al15  1  0.671512  0.835246  0.922139  1
  Al  Al16  1  0.836264  0.164754  0.077861  1
  Al  Al17  1  0.163736  0.835246  0.922139  1
  Al  Al18  1  0.872294  0.433126  0.250000  1
  Al  Al19  1  0.127706  0.566874  0.750000  1
  Al  Al20  1  0.560833  0.433126  0.250000  1
  Al  Al21  1  0.439167  0.566874  0.750000  1
  Al  Al22  1  0.999459  0.998919  0.250000  1
  Al  Al23  1  0.000541  0.001081  0.750000  1
  Si  Si24  1  0.332046  0.664094  0.038243  1
  Si  Si25  1  0.667954  0.335906  0.961757  1
  Si  Si26  1  0.667954  0.335906  0.538243  1
  Si  Si27  1  0.332046  0.664094  0.461757  1
  Si  Si28  1  0.563670  0.127339  0.250000  1
  Si  Si29  1  0.436330  0.872661  0.750000  1
  Os  Os30  1  0.500000  0.000000  0.000000  1
  Os  Os31  1  0.000000  0.500000  0.000000  1
  Os  Os32  1  0.500000  0.000000  0.500000  1
  Os  Os33  1  0.500000  0.500000  0.000000  1
  Os  Os34  1  0.000000  0.500000  0.500000  1
  Os  Os35  1  0.500000  0.500000  0.500000  1
  Ru  Ru36  1  0.000000  0.000000  0.000000  1
  Ru  Ru37  1  0.000000  0.000000  0.500000  1
