# generated using pymatgen
data_Cs2TmInBr6
_symmetry_space_group_name_H-M   'P 1'
_cell_length_a   8.31583130
_cell_length_b   8.31583197
_cell_length_c   8.51752126
_cell_angle_alpha   119.86503698
_cell_angle_beta   119.86504082
_cell_angle_gamma   59.84430564
_symmetry_Int_Tables_number   1
_chemical_formula_structural   Cs2TmInBr6
_chemical_formula_sum   'Cs2 Tm1 In1 Br6'
_cell_volume   416.84715402
_cell_formula_units_Z   1
loop_
 _symmetry_equiv_pos_site_id
 _symmetry_equiv_pos_as_xyz
  1  'x, y, z'
loop_
 _atom_site_type_symbol
 _atom_site_label
 _atom_site_symmetry_multiplicity
 _atom_site_fract_x
 _atom_site_fract_y
 _atom_site_fract_z
 _atom_site_occupancy
  Cs  Cs0  1  0.248511  0.248511  0.242012  1
  Cs  Cs1  1  0.751489  0.751489  0.757989  1
  Tm  Tm2  1  0.500000  0.500000  0.000000  1
  In  In3  1  0.000000  0.000000  0.499999  1
  Br  Br4  1  0.694807  0.222697  0.184916  1
  Br  Br5  1  0.222697  0.694807  0.184916  1
  Br  Br6  1  0.728946  0.728946  0.303109  1
  Br  Br7  1  0.271054  0.271054  0.696891  1
  Br  Br8  1  0.777303  0.305194  0.815083  1
  Br  Br9  1  0.305194  0.777303  0.815083  1
