# generated using pymatgen
data_Lu20IrPd6Rh5
_symmetry_space_group_name_H-M   'P 1'
_cell_length_a   10.75686657
_cell_length_b   10.75686621
_cell_length_c   6.12370200
_cell_angle_alpha   89.94720434
_cell_angle_beta   89.94720967
_cell_angle_gamma   90.40033745
_symmetry_Int_Tables_number   1
_chemical_formula_structural   Lu20IrPd6Rh5
_chemical_formula_sum   'Lu20 Ir1 Pd6 Rh5'
_cell_volume   708.55672456
_cell_formula_units_Z   1
loop_
 _symmetry_equiv_pos_site_id
 _symmetry_equiv_pos_as_xyz
  1  'x, y, z'
loop_
 _atom_site_type_symbol
 _atom_site_label
 _atom_site_symmetry_multiplicity
 _atom_site_fract_x
 _atom_site_fract_y
 _atom_site_fract_z
 _atom_site_occupancy
  Lu  Lu0  1  0.291853  0.080974  0.367859  1
  Lu  Lu1  1  0.291714  0.905422  0.876557  1
  Lu  Lu2  1  0.705615  0.085663  0.870011  1
  Lu  Lu3  1  0.704186  0.912541  0.368974  1
  Lu  Lu4  1  0.579556  0.791275  0.867532  1
  Lu  Lu5  1  0.585995  0.205760  0.370390  1
  Lu  Lu6  1  0.406504  0.791008  0.376995  1
  Lu  Lu7  1  0.412515  0.204144  0.868781  1
  Lu  Lu8  1  0.208716  0.420441  0.632439  1
  Lu  Lu9  1  0.208991  0.593495  0.123009  1
  Lu  Lu10  1  0.794249  0.414000  0.129600  1
  Lu  Lu11  1  0.795861  0.587489  0.631230  1
  Lu  Lu12  1  0.919018  0.708154  0.132168  1
  Lu  Lu13  1  0.914331  0.294371  0.629992  1
  Lu  Lu14  1  0.094578  0.708289  0.623448  1
  Lu  Lu15  1  0.087461  0.295799  0.131012  1
  Lu  Lu16  1  0.000435  0.997671  0.500461  1
  Lu  Lu17  1  0.002322  0.999566  0.999538  1
  Lu  Lu18  1  0.497574  0.500323  0.000341  1
  Lu  Lu19  1  0.499673  0.502426  0.499660  1
  Ir  Ir20  1  0.347303  0.652696  0.750001  1
  Pd  Pd21  1  0.845752  0.154244  0.249993  1
  Pd  Pd22  1  0.841920  0.843972  0.752073  1
  Pd  Pd23  1  0.156027  0.158081  0.747922  1
  Pd  Pd24  1  0.654422  0.345579  0.750005  1
  Pd  Pd25  1  0.658278  0.656247  0.248631  1
  Pd  Pd26  1  0.343747  0.341722  0.251370  1
  Rh  Rh27  1  0.152237  0.847762  0.250001  1
  Rh  Rh28  1  0.500474  0.000438  0.120965  1
  Rh  Rh29  1  0.500025  0.000927  0.620579  1
  Rh  Rh30  1  0.999084  0.499985  0.879432  1
  Rh  Rh31  1  0.999582  0.499539  0.379030  1
