# generated using pymatgen
data_Pu(AlC)3
_symmetry_space_group_name_H-M   'P 1'
_cell_length_a   3.43548500
_cell_length_b   3.43549173
_cell_length_c   17.43163100
_cell_angle_alpha   90.00000000
_cell_angle_beta   90.00000000
_cell_angle_gamma   119.99935322
_symmetry_Int_Tables_number   1
_chemical_formula_structural   Pu(AlC)3
_chemical_formula_sum   'Pu2 Al6 C6'
_cell_volume   178.17569018
_cell_formula_units_Z   2
loop_
 _symmetry_equiv_pos_site_id
 _symmetry_equiv_pos_as_xyz
  1  'x, y, z'
loop_
 _atom_site_type_symbol
 _atom_site_label
 _atom_site_symmetry_multiplicity
 _atom_site_fract_x
 _atom_site_fract_y
 _atom_site_fract_z
 _atom_site_occupancy
  Pu  Pu0  1  0.000000  0.000001  0.000000  1
  Pu  Pu1  1  0.000000  0.000001  0.500000  1
  Al  Al2  1  0.333330  0.666660  0.133696  1
  Al  Al3  1  0.666666  0.333331  0.250000  1
  Al  Al4  1  0.333330  0.666660  0.366304  1
  Al  Al5  1  0.666670  0.333339  0.633696  1
  Al  Al6  1  0.333334  0.666667  0.750000  1
  Al  Al7  1  0.666670  0.333339  0.866304  1
  C  C8  1  0.666663  0.333327  0.093607  1
  C  C9  1  0.333328  0.666656  0.250000  1
  C  C10  1  0.666663  0.333327  0.406393  1
  C  C11  1  0.333336  0.666673  0.593608  1
  C  C12  1  0.666671  0.333343  0.750000  1
  C  C13  1  0.333336  0.666673  0.906393  1
