# generated using pymatgen
data_YbPr(Ga2Ag)2
_symmetry_space_group_name_H-M   'P 1'
_cell_length_a   4.44370800
_cell_length_b   7.03802367
_cell_length_c   10.44002224
_cell_angle_alpha   90.15914027
_cell_angle_beta   90.00000000
_cell_angle_gamma   90.00000000
_symmetry_Int_Tables_number   1
_chemical_formula_structural   YbPr(Ga2Ag)2
_chemical_formula_sum   'Yb2 Pr2 Ga8 Ag4'
_cell_volume   326.50962276
_cell_formula_units_Z   2
loop_
 _symmetry_equiv_pos_site_id
 _symmetry_equiv_pos_as_xyz
  1  'x, y, z'
loop_
 _atom_site_type_symbol
 _atom_site_label
 _atom_site_symmetry_multiplicity
 _atom_site_fract_x
 _atom_site_fract_y
 _atom_site_fract_z
 _atom_site_occupancy
  Yb  Yb0  1  0.750000  0.722410  0.331848  1
  Yb  Yb1  1  0.250000  0.277590  0.668152  1
  Pr  Pr2  1  0.250000  0.782286  0.827689  1
  Pr  Pr3  1  0.750000  0.217714  0.172311  1
  Ga  Ga4  1  0.250000  0.697195  0.533485  1
  Ga  Ga5  1  0.750000  0.302805  0.466515  1
  Ga  Ga6  1  0.750000  0.791370  0.039747  1
  Ga  Ga7  1  0.250000  0.208630  0.960253  1
  Ga  Ga8  1  0.250000  0.918047  0.151398  1
  Ga  Ga9  1  0.750000  0.081953  0.848602  1
  Ga  Ga10  1  0.750000  0.572069  0.650201  1
  Ga  Ga11  1  0.250000  0.427931  0.349799  1
  Ag  Ag12  1  0.250000  0.541853  0.100682  1
  Ag  Ag13  1  0.750000  0.458147  0.899318  1
  Ag  Ag14  1  0.750000  0.961060  0.596483  1
  Ag  Ag15  1  0.250000  0.038940  0.403517  1
