# generated using pymatgen
data_DySc4Pa3(ReB6)4
_symmetry_space_group_name_H-M   'P 1'
_cell_length_a   3.63047400
_cell_length_b   8.99814644
_cell_length_c   11.36890501
_cell_angle_alpha   90.07562645
_cell_angle_beta   90.00000000
_cell_angle_gamma   90.00000000
_symmetry_Int_Tables_number   1
_chemical_formula_structural   DySc4Pa3(ReB6)4
_chemical_formula_sum   'Dy1 Sc4 Pa3 Re4 B24'
_cell_volume   371.39379809
_cell_formula_units_Z   1
loop_
 _symmetry_equiv_pos_site_id
 _symmetry_equiv_pos_as_xyz
  1  'x, y, z'
loop_
 _atom_site_type_symbol
 _atom_site_label
 _atom_site_symmetry_multiplicity
 _atom_site_fract_x
 _atom_site_fract_y
 _atom_site_fract_z
 _atom_site_occupancy
  Dy  Dy0  1  0.000000  0.181257  0.913295  1
  Sc  Sc1  1  0.000000  0.946261  0.374803  1
  Sc  Sc2  1  0.000000  0.055002  0.626658  1
  Sc  Sc3  1  0.000000  0.444219  0.124394  1
  Sc  Sc4  1  0.000000  0.553388  0.874634  1
  Pa  Pa5  1  0.000000  0.319394  0.413851  1
  Pa  Pa6  1  0.000000  0.679899  0.586772  1
  Pa  Pa7  1  0.000000  0.821426  0.085531  1
  Re  Re8  1  0.000000  0.640336  0.319458  1
  Re  Re9  1  0.000000  0.361501  0.678570  1
  Re  Re10  1  0.000000  0.139931  0.182660  1
  Re  Re11  1  0.000000  0.857604  0.819181  1
  B  B12  1  0.500000  0.554730  0.432515  1
  B  B13  1  0.500000  0.445389  0.567210  1
  B  B14  1  0.500000  0.054590  0.067534  1
  B  B15  1  0.500000  0.944752  0.932688  1
  B  B16  1  0.500000  0.753737  0.419369  1
  B  B17  1  0.500000  0.246524  0.581663  1
  B  B18  1  0.500000  0.253119  0.080179  1
  B  B19  1  0.500000  0.747222  0.919472  1
  B  B20  1  0.500000  0.794424  0.264614  1
  B  B21  1  0.500000  0.205565  0.735480  1
  B  B22  1  0.500000  0.294489  0.234054  1
  B  B23  1  0.500000  0.705511  0.765245  1
  B  B24  1  0.500000  0.629685  0.182317  1
  B  B25  1  0.500000  0.370166  0.817171  1
  B  B26  1  0.500000  0.129927  0.317116  1
  B  B27  1  0.500000  0.870383  0.683604  1
  B  B28  1  0.500000  0.981757  0.213832  1
  B  B29  1  0.500000  0.018834  0.785739  1
  B  B30  1  0.500000  0.481784  0.284584  1
  B  B31  1  0.500000  0.517738  0.715465  1
  B  B32  1  0.500000  0.599574  0.027285  1
  B  B33  1  0.500000  0.399712  0.972343  1
  B  B34  1  0.500000  0.100425  0.472939  1
  B  B35  1  0.500000  0.899744  0.527773  1
