# generated using pymatgen
data_HoTh4Si4Ag
_symmetry_space_group_name_H-M   'P 1'
_cell_length_a   7.58441000
_cell_length_b   7.58441000
_cell_length_c   4.20921700
_cell_angle_alpha   90.00000000
_cell_angle_beta   90.00000000
_cell_angle_gamma   90.00000000
_symmetry_Int_Tables_number   1
_chemical_formula_structural   HoTh4Si4Ag
_chemical_formula_sum   'Ho1 Th4 Si4 Ag1'
_cell_volume   242.12794723
_cell_formula_units_Z   1
loop_
 _symmetry_equiv_pos_site_id
 _symmetry_equiv_pos_as_xyz
  1  'x, y, z'
loop_
 _atom_site_type_symbol
 _atom_site_label
 _atom_site_symmetry_multiplicity
 _atom_site_fract_x
 _atom_site_fract_y
 _atom_site_fract_z
 _atom_site_occupancy
  Ho  Ho0  1  0.000000  0.000000  0.000000  1
  Th  Th1  1  0.669705  0.193273  0.500000  1
  Th  Th2  1  0.330295  0.806727  0.500000  1
  Th  Th3  1  0.193273  0.330295  0.500000  1
  Th  Th4  1  0.806727  0.669705  0.500000  1
  Si  Si5  1  0.100936  0.624087  0.000000  1
  Si  Si6  1  0.899064  0.375913  0.000000  1
  Si  Si7  1  0.624087  0.899064  0.000000  1
  Si  Si8  1  0.375913  0.100936  0.000000  1
  Ag  Ag9  1  0.500000  0.500000  0.000000  1
