# generated using pymatgen
data_Tm20Co3Bi8Rh
_symmetry_space_group_name_H-M   'P 1'
_cell_length_a   7.88610206
_cell_length_b   8.86632500
_cell_length_c   12.30299672
_cell_angle_alpha   90.00000000
_cell_angle_beta   89.78417258
_cell_angle_gamma   90.00000000
_symmetry_Int_Tables_number   1
_chemical_formula_structural   Tm20Co3Bi8Rh
_chemical_formula_sum   'Tm20 Co3 Bi8 Rh1'
_cell_volume   860.22857828
_cell_formula_units_Z   1
loop_
 _symmetry_equiv_pos_site_id
 _symmetry_equiv_pos_as_xyz
  1  'x, y, z'
loop_
 _atom_site_type_symbol
 _atom_site_label
 _atom_site_symmetry_multiplicity
 _atom_site_fract_x
 _atom_site_fract_y
 _atom_site_fract_z
 _atom_site_occupancy
  Tm  Tm0  1  0.346390  0.750000  0.699771  1
  Tm  Tm1  1  0.653554  0.250000  0.300188  1
  Tm  Tm2  1  0.845842  0.250000  0.800408  1
  Tm  Tm3  1  0.157330  0.750000  0.206678  1
  Tm  Tm4  1  0.879562  0.750000  0.806903  1
  Tm  Tm5  1  0.113374  0.250000  0.187084  1
  Tm  Tm6  1  0.386061  0.250000  0.687336  1
  Tm  Tm7  1  0.614277  0.750000  0.313197  1
  Tm  Tm8  1  0.672995  0.539180  0.562619  1
  Tm  Tm9  1  0.326229  0.462357  0.437208  1
  Tm  Tm10  1  0.175660  0.453644  0.935226  1
  Tm  Tm11  1  0.326229  0.037643  0.437208  1
  Tm  Tm12  1  0.825106  0.534746  0.064231  1
  Tm  Tm13  1  0.672995  0.960820  0.562619  1
  Tm  Tm14  1  0.825106  0.965254  0.064231  1
  Tm  Tm15  1  0.175660  0.046356  0.935226  1
  Tm  Tm16  1  0.056215  0.750000  0.498743  1
  Tm  Tm17  1  0.942834  0.250000  0.502607  1
  Tm  Tm18  1  0.555010  0.250000  0.001724  1
  Tm  Tm19  1  0.448104  0.750000  0.998040  1
  Co  Co20  1  0.932025  0.250000  0.008019  1
  Co  Co21  1  0.565840  0.250000  0.507395  1
  Co  Co22  1  0.431964  0.750000  0.492103  1
  Bi  Bi23  1  0.569860  0.509364  0.826769  1
  Bi  Bi24  1  0.430436  0.490064  0.173181  1
  Bi  Bi25  1  0.070718  0.489872  0.672547  1
  Bi  Bi26  1  0.430436  0.009936  0.173181  1
  Bi  Bi27  1  0.929651  0.509635  0.327778  1
  Bi  Bi28  1  0.569860  0.990636  0.826769  1
  Bi  Bi29  1  0.929651  0.990365  0.327778  1
  Bi  Bi30  1  0.070718  0.010128  0.672547  1
  Rh  Rh31  1  0.070309  0.750000  0.990688  1
