# generated using pymatgen
data_SrAc11Ga12
_symmetry_space_group_name_H-M   'P 1'
_cell_length_a   4.32092800
_cell_length_b   14.35015038
_cell_length_c   11.96053131
_cell_angle_alpha   90.02617866
_cell_angle_beta   90.00000000
_cell_angle_gamma   90.00000000
_symmetry_Int_Tables_number   1
_chemical_formula_structural   SrAc11Ga12
_chemical_formula_sum   'Sr1 Ac11 Ga12'
_cell_volume   741.62422714
_cell_formula_units_Z   1
loop_
 _symmetry_equiv_pos_site_id
 _symmetry_equiv_pos_as_xyz
  1  'x, y, z'
loop_
 _atom_site_type_symbol
 _atom_site_label
 _atom_site_symmetry_multiplicity
 _atom_site_fract_x
 _atom_site_fract_y
 _atom_site_fract_z
 _atom_site_occupancy
  Sr  Sr0  1  0.750000  0.500440  0.638668  1
  Ac  Ac1  1  0.250000  0.664929  0.857784  1
  Ac  Ac2  1  0.250000  0.832210  0.355812  1
  Ac  Ac3  1  0.750000  0.334118  0.143412  1
  Ac  Ac4  1  0.750000  0.165175  0.640832  1
  Ac  Ac5  1  0.250000  0.334427  0.859410  1
  Ac  Ac6  1  0.250000  0.168405  0.357148  1
  Ac  Ac7  1  0.750000  0.666205  0.142070  1
  Ac  Ac8  1  0.750000  0.834584  0.639556  1
  Ac  Ac9  1  0.250000  0.000211  0.859487  1
  Ac  Ac10  1  0.250000  0.499893  0.361387  1
  Ac  Ac11  1  0.750000  0.999357  0.142557  1
  Ga  Ga12  1  0.250000  0.332931  0.568882  1
  Ga  Ga13  1  0.250000  0.166845  0.066044  1
  Ga  Ga14  1  0.750000  0.668561  0.434301  1
  Ga  Ga15  1  0.750000  0.831377  0.932732  1
  Ga  Ga16  1  0.250000  0.667595  0.566386  1
  Ga  Ga17  1  0.250000  0.832356  0.063120  1
  Ga  Ga18  1  0.750000  0.331862  0.436819  1
  Ga  Ga19  1  0.750000  0.168178  0.935622  1
  Ga  Ga20  1  0.250000  0.999958  0.564254  1
  Ga  Ga21  1  0.250000  0.500182  0.065771  1
  Ga  Ga22  1  0.750000  0.000237  0.432454  1
  Ga  Ga23  1  0.750000  0.499969  0.935491  1
