# generated using pymatgen
data_LuMg3Zn5Ni3
_symmetry_space_group_name_H-M   'P 1'
_cell_length_a   5.09521700
_cell_length_b   5.06398082
_cell_length_c   8.29380543
_cell_angle_alpha   89.51115910
_cell_angle_beta   90.00000000
_cell_angle_gamma   120.20423691
_symmetry_Int_Tables_number   1
_chemical_formula_structural   LuMg3Zn5Ni3
_chemical_formula_sum   'Lu1 Mg3 Zn5 Ni3'
_cell_volume   184.93562275
_cell_formula_units_Z   1
loop_
 _symmetry_equiv_pos_site_id
 _symmetry_equiv_pos_as_xyz
  1  'x, y, z'
loop_
 _atom_site_type_symbol
 _atom_site_label
 _atom_site_symmetry_multiplicity
 _atom_site_fract_x
 _atom_site_fract_y
 _atom_site_fract_z
 _atom_site_occupancy
  Lu  Lu0  1  0.329383  0.658767  0.079638  1
  Mg  Mg1  1  0.663407  0.326812  0.554361  1
  Mg  Mg2  1  0.664019  0.328037  0.932345  1
  Mg  Mg3  1  0.331117  0.662236  0.442878  1
  Zn  Zn4  1  0.007533  0.015066  0.001256  1
  Zn  Zn5  1  0.018000  0.035998  0.492500  1
  Zn  Zn6  1  0.660730  0.824601  0.747579  1
  Zn  Zn7  1  0.163871  0.824601  0.747579  1
  Zn  Zn8  1  0.828807  0.657615  0.256693  1
  Ni  Ni9  1  0.170175  0.340352  0.750726  1
  Ni  Ni10  1  0.821369  0.162959  0.247222  1
  Ni  Ni11  1  0.341590  0.162959  0.247222  1
