# generated using pymatgen
data_Lu12Tl2Tc2Ir
_symmetry_space_group_name_H-M   'P 1'
_cell_length_a   8.28247898
_cell_length_b   8.28248043
_cell_length_c   8.28248000
_cell_angle_alpha   109.53317569
_cell_angle_beta   109.53317923
_cell_angle_gamma   109.34737459
_symmetry_Int_Tables_number   1
_chemical_formula_structural   Lu12Tl2Tc2Ir
_chemical_formula_sum   'Lu12 Tl2 Tc2 Ir1'
_cell_volume   437.37883388
_cell_formula_units_Z   1
loop_
 _symmetry_equiv_pos_site_id
 _symmetry_equiv_pos_as_xyz
  1  'x, y, z'
loop_
 _atom_site_type_symbol
 _atom_site_label
 _atom_site_symmetry_multiplicity
 _atom_site_fract_x
 _atom_site_fract_y
 _atom_site_fract_z
 _atom_site_occupancy
  Lu  Lu0  1  0.313602  0.313602  0.630630  1
  Lu  Lu1  1  0.682973  0.682973  0.369370  1
  Lu  Lu2  1  0.682973  0.313602  0.000000  1
  Lu  Lu3  1  0.313602  0.682973  0.000000  1
  Lu  Lu4  1  0.186599  0.428361  0.241762  1
  Lu  Lu5  1  0.814899  0.572696  0.757796  1
  Lu  Lu6  1  0.186599  0.944835  0.758238  1
  Lu  Lu7  1  0.944835  0.186599  0.758238  1
  Lu  Lu8  1  0.814899  0.057105  0.242204  1
  Lu  Lu9  1  0.057105  0.814899  0.242204  1
  Lu  Lu10  1  0.428361  0.186599  0.241762  1
  Lu  Lu11  1  0.572696  0.814899  0.757796  1
  Tl  Tl12  1  0.000083  0.500083  0.500000  1
  Tl  Tl13  1  0.500083  0.000083  0.500000  1
  Tc  Tc14  1  0.348250  0.348250  0.000000  1
  Tc  Tc15  1  0.999179  0.999179  0.000000  1
  Ir  Ir16  1  0.653260  0.653260  0.000000  1
