# generated using pymatgen
data_Sr4Sm2TaSbO12
_symmetry_space_group_name_H-M   'P 1'
_cell_length_a   5.89402988
_cell_length_b   6.01535399
_cell_length_c   8.40812613
_cell_angle_alpha   90.05744743
_cell_angle_beta   90.32366558
_cell_angle_gamma   90.03190961
_symmetry_Int_Tables_number   1
_chemical_formula_structural   Sr4Sm2TaSbO12
_chemical_formula_sum   'Sr4 Sm2 Ta1 Sb1 O12'
_cell_volume   298.10243584
_cell_formula_units_Z   1
loop_
 _symmetry_equiv_pos_site_id
 _symmetry_equiv_pos_as_xyz
  1  'x, y, z'
loop_
 _atom_site_type_symbol
 _atom_site_label
 _atom_site_symmetry_multiplicity
 _atom_site_fract_x
 _atom_site_fract_y
 _atom_site_fract_z
 _atom_site_occupancy
  Sr  Sr0  1  0.012089  0.042278  0.248838  1
  Sr  Sr1  1  0.491295  0.540666  0.248775  1
  Sr  Sr2  1  0.987911  0.957720  0.751161  1
  Sr  Sr3  1  0.508706  0.459336  0.751225  1
  Sm  Sm4  1  0.500000  0.000000  0.999999  1
  Sm  Sm5  1  0.000001  0.499999  0.500001  1
  Ta  Ta6  1  0.000000  0.499999  0.000000  1
  Sb  Sb7  1  0.500000  0.000000  0.500000  1
  O  O8  1  0.914010  0.470332  0.230927  1
  O  O9  1  0.587523  0.970636  0.267986  1
  O  O10  1  0.085988  0.529666  0.769072  1
  O  O11  1  0.412477  0.029366  0.732015  1
  O  O12  1  0.310396  0.273472  0.450883  1
  O  O13  1  0.186975  0.774596  0.048518  1
  O  O14  1  0.689604  0.726528  0.549116  1
  O  O15  1  0.813026  0.225404  0.951482  1
  O  O16  1  0.274381  0.309205  0.043582  1
  O  O17  1  0.226863  0.806423  0.454848  1
  O  O18  1  0.725619  0.690795  0.956417  1
  O  O19  1  0.773137  0.193579  0.545152  1
