# generated using pymatgen
data_Zr3Al3ZnCuNi
_symmetry_space_group_name_H-M   'P 1'
_cell_length_a   6.61213900
_cell_length_b   6.61213795
_cell_length_c   3.98061400
_cell_angle_alpha   90.00000000
_cell_angle_beta   90.00000000
_cell_angle_gamma   119.99999025
_symmetry_Int_Tables_number   1
_chemical_formula_structural   Zr3Al3ZnCuNi
_chemical_formula_sum   'Zr3 Al3 Zn1 Cu1 Ni1'
_cell_volume   150.71782592
_cell_formula_units_Z   1
loop_
 _symmetry_equiv_pos_site_id
 _symmetry_equiv_pos_as_xyz
  1  'x, y, z'
loop_
 _atom_site_type_symbol
 _atom_site_label
 _atom_site_symmetry_multiplicity
 _atom_site_fract_x
 _atom_site_fract_y
 _atom_site_fract_z
 _atom_site_occupancy
  Zr  Zr0  1  0.994805  0.405104  0.500000  1
  Zr  Zr1  1  0.594896  0.589701  0.500000  1
  Zr  Zr2  1  0.410299  0.005195  0.500000  1
  Al  Al3  1  0.994552  0.755822  0.000000  1
  Al  Al4  1  0.244178  0.238729  0.000000  1
  Al  Al5  1  0.761271  0.005448  0.000000  1
  Zn  Zn6  1  0.333333  0.666667  0.000000  1
  Cu  Cu7  1  0.666667  0.333333  0.000000  1
  Ni  Ni8  1  0.000000  0.000000  0.500000  1
