# generated using pymatgen
data_Dy5Ta3Co16Si5P7
_symmetry_space_group_name_H-M   'P 1'
_cell_length_a   12.30192579
_cell_length_b   12.27817972
_cell_length_c   3.70585400
_cell_angle_alpha   90.00000000
_cell_angle_beta   90.00000000
_cell_angle_gamma   120.02289138
_symmetry_Int_Tables_number   1
_chemical_formula_structural   Dy5Ta3Co16Si5P7
_chemical_formula_sum   'Dy5 Ta3 Co16 Si5 P7'
_cell_volume   484.64730437
_cell_formula_units_Z   1
loop_
 _symmetry_equiv_pos_site_id
 _symmetry_equiv_pos_as_xyz
  1  'x, y, z'
loop_
 _atom_site_type_symbol
 _atom_site_label
 _atom_site_symmetry_multiplicity
 _atom_site_fract_x
 _atom_site_fract_y
 _atom_site_fract_z
 _atom_site_occupancy
  Dy  Dy0  1  0.663766  0.330601  0.000000  1
  Dy  Dy1  1  0.333556  0.666738  0.000000  1
  Dy  Dy2  1  0.180955  0.180327  0.500000  1
  Dy  Dy3  1  0.818648  0.001350  0.500000  1
  Dy  Dy4  1  0.999099  0.818621  0.500000  1
  Ta  Ta5  1  0.561038  0.562392  0.000000  1
  Ta  Ta6  1  0.437778  0.999506  0.000000  1
  Ta  Ta7  1  0.002186  0.439258  0.000000  1
  Co  Co8  1  0.825333  0.196925  0.000000  1
  Co  Co9  1  0.803298  0.629625  0.000000  1
  Co  Co10  1  0.373042  0.173509  0.000000  1
  Co  Co11  1  0.199468  0.824781  0.000000  1
  Co  Co12  1  0.624352  0.801592  0.000000  1
  Co  Co13  1  0.176899  0.374953  0.000000  1
  Co  Co14  1  0.638231  0.120828  0.500000  1
  Co  Co15  1  0.881424  0.521940  0.500000  1
  Co  Co16  1  0.478749  0.355126  0.500000  1
  Co  Co17  1  0.128148  0.643793  0.500000  1
  Co  Co18  1  0.515863  0.873168  0.500000  1
  Co  Co19  1  0.357054  0.483058  0.500000  1
  Co  Co20  1  0.718260  0.722507  0.500000  1
  Co  Co21  1  0.280166  0.999203  0.500000  1
  Co  Co22  1  0.003411  0.280956  0.500000  1
  Co  Co23  1  0.000230  0.999967  0.000000  1
  Si  Si24  1  0.355209  0.354785  0.000000  1
  Si  Si25  1  0.643896  0.000121  0.000000  1
  Si  Si26  1  0.000142  0.644857  0.000000  1
  Si  Si27  1  0.829413  0.308259  0.500000  1
  Si  Si28  1  0.692929  0.521688  0.500000  1
  P  P29  1  0.477686  0.169461  0.500000  1
  P  P30  1  0.309152  0.829937  0.500000  1
  P  P31  1  0.521064  0.691199  0.500000  1
  P  P32  1  0.170622  0.478761  0.500000  1
  P  P33  1  0.819464  0.820871  0.000000  1
  P  P34  1  0.178985  0.999288  0.000000  1
  P  P35  1  0.000483  0.180049  0.000000  1
