# generated using pymatgen
data_Lu8V11Si16Os
_symmetry_space_group_name_H-M   'P 1'
_cell_length_a   6.57809977
_cell_length_b   6.79198281
_cell_length_c   12.73393000
_cell_angle_alpha   90.00000000
_cell_angle_beta   90.00000000
_cell_angle_gamma   90.08383258
_symmetry_Int_Tables_number   1
_chemical_formula_structural   Lu8V11Si16Os
_chemical_formula_sum   'Lu8 V11 Si16 Os1'
_cell_volume   568.93025202
_cell_formula_units_Z   1
loop_
 _symmetry_equiv_pos_site_id
 _symmetry_equiv_pos_as_xyz
  1  'x, y, z'
loop_
 _atom_site_type_symbol
 _atom_site_label
 _atom_site_symmetry_multiplicity
 _atom_site_fract_x
 _atom_site_fract_y
 _atom_site_fract_z
 _atom_site_occupancy
  Lu  Lu0  1  0.498102  0.330626  0.095792  1
  Lu  Lu1  1  0.998282  0.169410  0.404598  1
  Lu  Lu2  1  0.502666  0.668258  0.594492  1
  Lu  Lu3  1  0.003518  0.830238  0.905559  1
  Lu  Lu4  1  0.502666  0.668258  0.905508  1
  Lu  Lu5  1  0.003518  0.830238  0.594441  1
  Lu  Lu6  1  0.498102  0.330626  0.404208  1
  Lu  Lu7  1  0.998282  0.169410  0.095402  1
  V  V8  1  0.837298  0.332796  0.626217  1
  V  V9  1  0.332402  0.171327  0.873992  1
  V  V10  1  0.163366  0.672149  0.126430  1
  V  V11  1  0.662870  0.828789  0.374953  1
  V  V12  1  0.163366  0.672149  0.373570  1
  V  V13  1  0.662870  0.828789  0.125047  1
  V  V14  1  0.837298  0.332796  0.873783  1
  V  V15  1  0.332402  0.171327  0.626008  1
  V  V16  1  0.166027  0.490940  0.750000  1
  V  V17  1  0.333813  0.986498  0.250000  1
  V  V18  1  0.834881  0.511423  0.250000  1
  Si  Si19  1  0.662210  0.044897  0.544382  1
  Si  Si20  1  0.162127  0.458341  0.956592  1
  Si  Si21  1  0.336890  0.957476  0.043451  1
  Si  Si22  1  0.837333  0.542754  0.455460  1
  Si  Si23  1  0.336890  0.957476  0.456549  1
  Si  Si24  1  0.837333  0.542754  0.044540  1
  Si  Si25  1  0.662210  0.044897  0.955618  1
  Si  Si26  1  0.162127  0.458341  0.543408  1
  Si  Si27  1  0.540037  0.364556  0.750000  1
  Si  Si28  1  0.035832  0.132652  0.750000  1
  Si  Si29  1  0.462376  0.630357  0.250000  1
  Si  Si30  1  0.960562  0.868613  0.250000  1
  Si  Si31  1  0.806447  0.622665  0.750000  1
  Si  Si32  1  0.306160  0.876707  0.750000  1
  Si  Si33  1  0.195355  0.377692  0.250000  1
  Si  Si34  1  0.695801  0.121877  0.250000  1
  Os  Os35  1  0.668582  0.001897  0.750000  1
