# generated using pymatgen
data_CsAl(CO3)2
_symmetry_space_group_name_H-M   'P 1'
_cell_length_a   13.83280499
_cell_length_b   13.83280509
_cell_length_c   13.83280593
_cell_angle_alpha   19.96908529
_cell_angle_beta   19.96908455
_cell_angle_gamma   19.96908200
_symmetry_Int_Tables_number   1
_chemical_formula_structural   CsAl(CO3)2
_chemical_formula_sum   'Cs2 Al2 C4 O12'
_cell_volume   270.05293174
_cell_formula_units_Z   2
loop_
 _symmetry_equiv_pos_site_id
 _symmetry_equiv_pos_as_xyz
  1  'x, y, z'
loop_
 _atom_site_type_symbol
 _atom_site_label
 _atom_site_symmetry_multiplicity
 _atom_site_fract_x
 _atom_site_fract_y
 _atom_site_fract_z
 _atom_site_occupancy
  Cs  Cs0  1  0.250000  0.250000  0.250000  1
  Cs  Cs1  1  0.750000  0.750000  0.750000  1
  Al  Al2  1  0.500000  0.500000  0.500000  1
  Al  Al3  1  0.000000  0.000000  0.000000  1
  C  C4  1  0.359459  0.359459  0.359459  1
  C  C5  1  0.859459  0.859459  0.859459  1
  C  C6  1  0.640541  0.640541  0.640541  1
  C  C7  1  0.140541  0.140541  0.140541  1
  O  O8  1  0.286018  0.660267  0.135621  1
  O  O9  1  0.135621  0.286018  0.660267  1
  O  O10  1  0.660267  0.135621  0.286018  1
  O  O11  1  0.635621  0.160267  0.786018  1
  O  O12  1  0.786018  0.635621  0.160267  1
  O  O13  1  0.160267  0.786018  0.635621  1
  O  O14  1  0.713982  0.339733  0.864379  1
  O  O15  1  0.864379  0.713982  0.339733  1
  O  O16  1  0.339733  0.864379  0.713982  1
  O  O17  1  0.364379  0.839733  0.213982  1
  O  O18  1  0.213982  0.364379  0.839733  1
  O  O19  1  0.839733  0.213982  0.364379  1
