# generated using pymatgen
data_Sm2Co2Tc
_symmetry_space_group_name_H-M   'P 1'
_cell_length_a   5.63768112
_cell_length_b   5.63768032
_cell_length_c   7.14624800
_cell_angle_alpha   90.00000000
_cell_angle_beta   90.00000000
_cell_angle_gamma   121.99826791
_symmetry_Int_Tables_number   1
_chemical_formula_structural   Sm2Co2Tc
_chemical_formula_sum   'Sm4 Co4 Tc2'
_cell_volume   192.62281449
_cell_formula_units_Z   2
loop_
 _symmetry_equiv_pos_site_id
 _symmetry_equiv_pos_as_xyz
  1  'x, y, z'
loop_
 _atom_site_type_symbol
 _atom_site_label
 _atom_site_symmetry_multiplicity
 _atom_site_fract_x
 _atom_site_fract_y
 _atom_site_fract_z
 _atom_site_occupancy
  Sm  Sm0  1  0.666093  0.333907  0.904134  1
  Sm  Sm1  1  0.333907  0.666093  0.095866  1
  Sm  Sm2  1  0.833907  0.166093  0.404134  1
  Sm  Sm3  1  0.166093  0.833907  0.595866  1
  Co  Co4  1  0.671279  0.828721  0.750000  1
  Co  Co5  1  0.828721  0.671279  0.250000  1
  Co  Co6  1  0.328721  0.171279  0.250000  1
  Co  Co7  1  0.171279  0.328721  0.750000  1
  Tc  Tc8  1  0.500000  0.500000  0.500000  1
  Tc  Tc9  1  0.000000  0.000000  0.000000  1
