# generated using pymatgen
data_Dy9Ho11(Bi2Os)4
_symmetry_space_group_name_H-M   'P 1'
_cell_length_a   7.94105204
_cell_length_b   9.02182300
_cell_length_c   12.47881606
_cell_angle_alpha   90.00000000
_cell_angle_beta   89.98901332
_cell_angle_gamma   90.00000000
_symmetry_Int_Tables_number   1
_chemical_formula_structural   Dy9Ho11(Bi2Os)4
_chemical_formula_sum   'Dy9 Ho11 Bi8 Os4'
_cell_volume   894.01688116
_cell_formula_units_Z   1
loop_
 _symmetry_equiv_pos_site_id
 _symmetry_equiv_pos_as_xyz
  1  'x, y, z'
loop_
 _atom_site_type_symbol
 _atom_site_label
 _atom_site_symmetry_multiplicity
 _atom_site_fract_x
 _atom_site_fract_y
 _atom_site_fract_z
 _atom_site_occupancy
  Dy  Dy0  1  0.839523  0.750000  0.792160  1
  Dy  Dy1  1  0.160445  0.250000  0.207899  1
  Dy  Dy2  1  0.339517  0.250000  0.707927  1
  Dy  Dy3  1  0.660367  0.750000  0.292000  1
  Dy  Dy4  1  0.375008  0.750000  0.690539  1
  Dy  Dy5  1  0.624987  0.250000  0.309466  1
  Dy  Dy6  1  0.875028  0.250000  0.809480  1
  Dy  Dy7  1  0.124978  0.750000  0.190512  1
  Dy  Dy8  1  0.943571  0.750000  0.504393  1
  Ho  Ho9  1  0.056702  0.250000  0.495591  1
  Ho  Ho10  1  0.443329  0.250000  0.995589  1
  Ho  Ho11  1  0.556647  0.750000  0.004414  1
  Ho  Ho12  1  0.673501  0.041553  0.564681  1
  Ho  Ho13  1  0.326445  0.958665  0.435343  1
  Ho  Ho14  1  0.173616  0.958642  0.935327  1
  Ho  Ho15  1  0.326445  0.541335  0.435343  1
  Ho  Ho16  1  0.826406  0.041439  0.064670  1
  Ho  Ho17  1  0.673501  0.458447  0.564681  1
  Ho  Ho18  1  0.826406  0.458561  0.064670  1
  Ho  Ho19  1  0.173616  0.541358  0.935327  1
  Bi  Bi20  1  0.566193  0.493344  0.827659  1
  Bi  Bi21  1  0.433799  0.506639  0.172342  1
  Bi  Bi22  1  0.066297  0.506500  0.672471  1
  Bi  Bi23  1  0.433799  0.993361  0.172342  1
  Bi  Bi24  1  0.933783  0.493209  0.327519  1
  Bi  Bi25  1  0.566193  0.006656  0.827659  1
  Bi  Bi26  1  0.933783  0.006791  0.327519  1
  Bi  Bi27  1  0.066297  0.993500  0.672471  1
  Os  Os28  1  0.575121  0.750000  0.509574  1
  Os  Os29  1  0.424714  0.250000  0.490428  1
  Os  Os30  1  0.075324  0.250000  0.990426  1
  Os  Os31  1  0.924659  0.750000  0.009576  1
