# generated using pymatgen
data_La15Dy5Pb16
_symmetry_space_group_name_H-M   'P 1'
_cell_length_a   8.49399290
_cell_length_b   8.61748130
_cell_length_c   16.40214100
_cell_angle_alpha   90.06594266
_cell_angle_beta   90.59493214
_cell_angle_gamma   89.83007935
_symmetry_Int_Tables_number   1
_chemical_formula_structural   La15Dy5Pb16
_chemical_formula_sum   'La15 Dy5 Pb16'
_cell_volume   1200.51388989
_cell_formula_units_Z   1
loop_
 _symmetry_equiv_pos_site_id
 _symmetry_equiv_pos_as_xyz
  1  'x, y, z'
loop_
 _atom_site_type_symbol
 _atom_site_label
 _atom_site_symmetry_multiplicity
 _atom_site_fract_x
 _atom_site_fract_y
 _atom_site_fract_z
 _atom_site_occupancy
  La  La0  1  0.376466  0.843849  0.380523  1
  La  La1  1  0.631114  0.156859  0.883963  1
  La  La2  1  0.123405  0.344760  0.618060  1
  La  La3  1  0.126868  0.341257  0.880673  1
  La  La4  1  0.623168  0.156605  0.617571  1
  La  La5  1  0.374374  0.843594  0.117548  1
  La  La6  1  0.876962  0.655959  0.381376  1
  La  La7  1  0.027740  0.179483  0.098263  1
  La  La8  1  0.534729  0.323129  0.397761  1
  La  La9  1  0.471934  0.680107  0.901893  1
  La  La10  1  0.966558  0.821898  0.600487  1
  La  La11  1  0.973726  0.819480  0.903646  1
  La  La12  1  0.466213  0.677861  0.601259  1
  La  La13  1  0.526273  0.323726  0.098786  1
  La  La14  1  0.033766  0.177629  0.397396  1
  Dy  Dy15  1  0.868595  0.654637  0.123778  1
  Dy  Dy16  1  0.709122  0.996248  0.248373  1
  Dy  Dy17  1  0.205370  0.503598  0.248743  1
  Dy  Dy18  1  0.791938  0.497798  0.751575  1
  Dy  Dy19  1  0.293365  0.002985  0.749816  1
  Pb  Pb20  1  0.065403  0.870063  0.247835  1
  Pb  Pb21  1  0.568600  0.625005  0.247376  1
  Pb  Pb22  1  0.434066  0.373382  0.750565  1
  Pb  Pb23  1  0.931892  0.124773  0.749788  1
  Pb  Pb24  1  0.841393  0.349304  0.247050  1
  Pb  Pb25  1  0.339775  0.154143  0.248136  1
  Pb  Pb26  1  0.659451  0.847695  0.751422  1
  Pb  Pb27  1  0.160260  0.653804  0.751324  1
  Pb  Pb28  1  0.787056  0.471058  0.959193  1
  Pb  Pb29  1  0.279899  0.028584  0.547495  1
  Pb  Pb30  1  0.721341  0.957940  0.048253  1
  Pb  Pb31  1  0.221066  0.528710  0.451098  1
  Pb  Pb32  1  0.200295  0.538049  0.047909  1
  Pb  Pb33  1  0.720382  0.971660  0.450716  1
  Pb  Pb34  1  0.287927  0.032646  0.952065  1
  Pb  Pb35  1  0.779504  0.471726  0.548286  1
