# generated using pymatgen
data_Ac11TmGa12
_symmetry_space_group_name_H-M   'P 1'
_cell_length_a   4.28182300
_cell_length_b   14.17918301
_cell_length_c   11.98434200
_cell_angle_alpha   90.00311451
_cell_angle_beta   90.00000000
_cell_angle_gamma   90.00000000
_symmetry_Int_Tables_number   1
_chemical_formula_structural   Ac11TmGa12
_chemical_formula_sum   'Ac11 Tm1 Ga12'
_cell_volume   727.60238188
_cell_formula_units_Z   1
loop_
 _symmetry_equiv_pos_site_id
 _symmetry_equiv_pos_as_xyz
  1  'x, y, z'
loop_
 _atom_site_type_symbol
 _atom_site_label
 _atom_site_symmetry_multiplicity
 _atom_site_fract_x
 _atom_site_fract_y
 _atom_site_fract_z
 _atom_site_occupancy
  Ac  Ac0  1  0.250000  0.662458  0.853616  1
  Ac  Ac1  1  0.250000  0.828598  0.359738  1
  Ac  Ac2  1  0.750000  0.333677  0.141834  1
  Ac  Ac3  1  0.750000  0.167943  0.643427  1
  Ac  Ac4  1  0.250000  0.336822  0.854921  1
  Ac  Ac5  1  0.250000  0.171890  0.360730  1
  Ac  Ac6  1  0.750000  0.666436  0.140795  1
  Ac  Ac7  1  0.750000  0.832006  0.642450  1
  Ac  Ac8  1  0.250000  0.000157  0.858520  1
  Ac  Ac9  1  0.250000  0.499836  0.357032  1
  Ac  Ac10  1  0.750000  0.999573  0.143305  1
  Tm  Tm11  1  0.750000  0.500402  0.623654  1
  Ga  Ga12  1  0.250000  0.346052  0.575496  1
  Ga  Ga13  1  0.250000  0.166600  0.066200  1
  Ga  Ga14  1  0.750000  0.661746  0.441619  1
  Ga  Ga15  1  0.750000  0.831222  0.932159  1
  Ga  Ga16  1  0.250000  0.654530  0.573642  1
  Ga  Ga17  1  0.250000  0.832895  0.064090  1
  Ga  Ga18  1  0.750000  0.338535  0.443527  1
  Ga  Ga19  1  0.750000  0.168488  0.934289  1
  Ga  Ga20  1  0.250000  0.000085  0.564263  1
  Ga  Ga21  1  0.250000  0.499959  0.061941  1
  Ga  Ga22  1  0.750000  0.000265  0.433131  1
  Ga  Ga23  1  0.750000  0.499831  0.929622  1
