# generated using pymatgen
data_NdHo3(AlRu)4
_symmetry_space_group_name_H-M   'P 1'
_cell_length_a   7.06766451
_cell_length_b   4.03054600
_cell_length_c   8.12434009
_cell_angle_alpha   90.00000000
_cell_angle_beta   89.77911231
_cell_angle_gamma   90.00000000
_symmetry_Int_Tables_number   1
_chemical_formula_structural   NdHo3(AlRu)4
_chemical_formula_sum   'Nd1 Ho3 Al4 Ru4'
_cell_volume   231.43267536
_cell_formula_units_Z   1
loop_
 _symmetry_equiv_pos_site_id
 _symmetry_equiv_pos_as_xyz
  1  'x, y, z'
loop_
 _atom_site_type_symbol
 _atom_site_label
 _atom_site_symmetry_multiplicity
 _atom_site_fract_x
 _atom_site_fract_y
 _atom_site_fract_z
 _atom_site_occupancy
  Nd  Nd0  1  0.529735  0.750000  0.680810  1
  Ho  Ho1  1  0.968279  0.250000  0.177372  1
  Ho  Ho2  1  0.468383  0.250000  0.318546  1
  Ho  Ho3  1  0.032024  0.750000  0.822061  1
  Al  Al4  1  0.864735  0.250000  0.555146  1
  Al  Al5  1  0.359176  0.250000  0.945084  1
  Al  Al6  1  0.135345  0.750000  0.439051  1
  Al  Al7  1  0.640222  0.750000  0.061665  1
  Ru  Ru8  1  0.735347  0.250000  0.877737  1
  Ru  Ru9  1  0.223471  0.250000  0.624786  1
  Ru  Ru10  1  0.272038  0.750000  0.127249  1
  Ru  Ru11  1  0.771249  0.750000  0.370494  1
