# generated using pymatgen
data_Rb4NdUSe6
_symmetry_space_group_name_H-M   'P 1'
_cell_length_a   7.76988916
_cell_length_b   7.76988769
_cell_length_c   8.38417489
_cell_angle_alpha   80.96398316
_cell_angle_beta   80.96399051
_cell_angle_gamma   119.96322383
_symmetry_Int_Tables_number   1
_chemical_formula_structural   Rb4NdUSe6
_chemical_formula_sum   'Rb4 Nd1 U1 Se6'
_cell_volume   416.34252297
_cell_formula_units_Z   1
loop_
 _symmetry_equiv_pos_site_id
 _symmetry_equiv_pos_as_xyz
  1  'x, y, z'
loop_
 _atom_site_type_symbol
 _atom_site_label
 _atom_site_symmetry_multiplicity
 _atom_site_fract_x
 _atom_site_fract_y
 _atom_site_fract_z
 _atom_site_occupancy
  Rb  Rb0  1  0.500037  0.499963  0.000000  1
  Rb  Rb1  1  0.655280  0.344720  0.500000  1
  Rb  Rb2  1  0.345100  0.654900  0.500000  1
  Rb  Rb3  1  0.999719  0.000281  0.500000  1
  Nd  Nd4  1  0.832315  0.167685  0.000000  1
  U  U5  1  0.167571  0.832429  0.000000  1
  Se  Se6  1  0.821108  0.801311  0.198862  1
  Se  Se7  1  0.198689  0.178892  0.801138  1
  Se  Se8  1  0.411046  0.041396  0.201542  1
  Se  Se9  1  0.548089  0.937557  0.797892  1
  Se  Se10  1  0.958604  0.588954  0.798458  1
  Se  Se11  1  0.062443  0.451911  0.202108  1
