# generated using pymatgen
data_Cs2MnI4
_symmetry_space_group_name_H-M   'P 1'
_cell_length_a   8.24447766
_cell_length_b   8.58137000
_cell_length_c   11.00660816
_cell_angle_alpha   90.00000000
_cell_angle_beta   109.22322225
_cell_angle_gamma   90.00000000
_symmetry_Int_Tables_number   1
_chemical_formula_structural   Cs2MnI4
_chemical_formula_sum   'Cs4 Mn2 I8'
_cell_volume   735.28728097
_cell_formula_units_Z   2
loop_
 _symmetry_equiv_pos_site_id
 _symmetry_equiv_pos_as_xyz
  1  'x, y, z'
loop_
 _atom_site_type_symbol
 _atom_site_label
 _atom_site_symmetry_multiplicity
 _atom_site_fract_x
 _atom_site_fract_y
 _atom_site_fract_z
 _atom_site_occupancy
  Cs  Cs0  1  0.201773  0.740113  0.039772  1
  Cs  Cs1  1  0.289113  0.739443  0.581842  1
  Cs  Cs2  1  0.710887  0.239443  0.418158  1
  Cs  Cs3  1  0.798227  0.240113  0.960228  1
  Mn  Mn4  1  0.795477  0.745103  0.210388  1
  Mn  Mn5  1  0.204523  0.245103  0.789612  1
  I  I6  1  0.633080  0.750448  0.952871  1
  I  I7  1  0.589086  0.747640  0.356635  1
  I  I8  1  0.007601  0.494773  0.269984  1
  I  I9  1  0.366920  0.250448  0.047129  1
  I  I10  1  0.986304  0.491179  0.725663  1
  I  I11  1  0.410914  0.247640  0.643365  1
  I  I12  1  0.992399  0.994773  0.730016  1
  I  I13  1  0.013696  0.991179  0.274337  1
