# generated using pymatgen
data_Tm3TaGa2Ir3
_symmetry_space_group_name_H-M   'P 1'
_cell_length_a   7.01195860
_cell_length_b   6.81822746
_cell_length_c   4.19143300
_cell_angle_alpha   90.00000000
_cell_angle_beta   90.00000000
_cell_angle_gamma   119.09020258
_symmetry_Int_Tables_number   1
_chemical_formula_structural   Tm3TaGa2Ir3
_chemical_formula_sum   'Tm3 Ta1 Ga2 Ir3'
_cell_volume   175.11079428
_cell_formula_units_Z   1
loop_
 _symmetry_equiv_pos_site_id
 _symmetry_equiv_pos_as_xyz
  1  'x, y, z'
loop_
 _atom_site_type_symbol
 _atom_site_label
 _atom_site_symmetry_multiplicity
 _atom_site_fract_x
 _atom_site_fract_y
 _atom_site_fract_z
 _atom_site_occupancy
  Tm  Tm0  1  0.000000  0.394948  0.500000  1
  Tm  Tm1  1  0.576603  0.582929  0.500000  1
  Tm  Tm2  1  0.423397  0.006325  0.500000  1
  Ta  Ta3  1  0.000000  0.760609  0.000000  1
  Ga  Ga4  1  0.248541  0.251038  0.000000  1
  Ga  Ga5  1  0.751459  0.002496  0.000000  1
  Ir  Ir6  1  0.322439  0.672976  0.000000  1
  Ir  Ir7  1  0.677561  0.350536  0.000000  1
  Ir  Ir8  1  0.000000  0.978141  0.500000  1
