# generated using pymatgen
data_Zr6Sc2Al15Rh7
_symmetry_space_group_name_H-M   'P 1'
_cell_length_a   8.89713888
_cell_length_b   8.89713826
_cell_length_c   8.89713906
_cell_angle_alpha   120.21023174
_cell_angle_beta   119.94636498
_cell_angle_gamma   89.86458819
_symmetry_Int_Tables_number   1
_chemical_formula_structural   Zr6Sc2Al15Rh7
_chemical_formula_sum   'Zr6 Sc2 Al15 Rh7'
_cell_volume   497.41354665
_cell_formula_units_Z   1
loop_
 _symmetry_equiv_pos_site_id
 _symmetry_equiv_pos_as_xyz
  1  'x, y, z'
loop_
 _atom_site_type_symbol
 _atom_site_label
 _atom_site_symmetry_multiplicity
 _atom_site_fract_x
 _atom_site_fract_y
 _atom_site_fract_z
 _atom_site_occupancy
  Zr  Zr0  1  0.799414  0.293161  0.080663  1
  Zr  Zr1  1  0.212498  0.293161  0.493747  1
  Zr  Zr2  1  0.199188  0.699188  0.500000  1
  Zr  Zr3  1  0.212498  0.718750  0.919337  1
  Zr  Zr4  1  0.799414  0.718750  0.506253  1
  Zr  Zr5  1  0.779458  0.279458  0.500000  1
  Sc  Sc6  1  0.378980  0.119086  0.740107  1
  Sc  Sc7  1  0.378980  0.638873  0.259893  1
  Al  Al8  1  0.988546  0.488546  0.500000  1
  Al  Al9  1  0.160256  0.335925  0.175668  1
  Al  Al10  1  0.160256  0.984590  0.824332  1
  Al  Al11  1  0.153238  0.344039  0.809198  1
  Al  Al12  1  0.534841  0.344039  0.190802  1
  Al  Al13  1  0.841345  0.657558  0.816213  1
  Al  Al14  1  0.841345  0.025131  0.183787  1
  Al  Al15  1  0.838952  0.659841  0.179112  1
  Al  Al16  1  0.480730  0.659841  0.820888  1
  Al  Al17  1  0.378733  0.122216  0.256517  1
  Al  Al18  1  0.865700  0.122216  0.743483  1
  Al  Al19  1  0.621034  0.874686  0.253653  1
  Al  Al20  1  0.621034  0.367381  0.746347  1
  Al  Al21  1  0.621298  0.877730  0.743568  1
  Al  Al22  1  0.134160  0.877730  0.256432  1
  Rh  Rh23  1  0.995375  0.998843  0.498928  1
  Rh  Rh24  1  0.499915  0.998843  0.003467  1
  Rh  Rh25  1  0.500406  0.500406  0.000000  1
  Rh  Rh26  1  0.499915  0.496447  0.501072  1
  Rh  Rh27  1  0.995375  0.496447  0.996533  1
  Rh  Rh28  1  0.999628  0.999628  0.000000  1
  Rh  Rh29  1  0.507484  0.007484  0.500000  1
