# generated using pymatgen
data_Pr5CoRhO12
_symmetry_space_group_name_H-M   'P 1'
_cell_length_a   7.07681341
_cell_length_b   7.07681234
_cell_length_c   7.59810118
_cell_angle_alpha   74.50696945
_cell_angle_beta   74.50697034
_cell_angle_gamma   50.65175399
_symmetry_Int_Tables_number   1
_chemical_formula_structural   Pr5CoRhO12
_chemical_formula_sum   'Pr5 Co1 Rh1 O12'
_cell_volume   281.11759221
_cell_formula_units_Z   1
loop_
 _symmetry_equiv_pos_site_id
 _symmetry_equiv_pos_as_xyz
  1  'x, y, z'
loop_
 _atom_site_type_symbol
 _atom_site_label
 _atom_site_symmetry_multiplicity
 _atom_site_fract_x
 _atom_site_fract_y
 _atom_site_fract_z
 _atom_site_occupancy
  Pr  Pr0  1  0.315410  0.299816  0.355342  1
  Pr  Pr1  1  0.700184  0.684590  0.644658  1
  Pr  Pr2  1  0.694824  0.691170  0.163669  1
  Pr  Pr3  1  0.308830  0.305176  0.836331  1
  Pr  Pr4  1  0.998802  0.001198  0.500000  1
  Co  Co5  1  0.747870  0.252130  0.000000  1
  Rh  Rh6  1  0.236469  0.763531  0.000000  1
  O  O7  1  0.099785  0.595362  0.577520  1
  O  O8  1  0.984200  0.014122  0.167018  1
  O  O9  1  0.404638  0.900215  0.422480  1
  O  O10  1  0.506579  0.494467  0.168496  1
  O  O11  1  0.099641  0.582333  0.078182  1
  O  O12  1  0.909188  0.400948  0.421065  1
  O  O13  1  0.985878  0.015800  0.832982  1
  O  O14  1  0.599052  0.090811  0.578935  1
  O  O15  1  0.505533  0.493421  0.831504  1
  O  O16  1  0.588036  0.102584  0.076046  1
  O  O17  1  0.417667  0.900359  0.921818  1
  O  O18  1  0.897416  0.411964  0.923954  1
