# generated using pymatgen
data_Li3(TiSe2)4
_symmetry_space_group_name_H-M   'P 1'
_cell_length_a   7.21748306
_cell_length_b   7.21748251
_cell_length_c   8.98743584
_cell_angle_alpha   53.24685558
_cell_angle_beta   53.24685695
_cell_angle_gamma   59.99894568
_symmetry_Int_Tables_number   1
_chemical_formula_structural   Li3(TiSe2)4
_chemical_formula_sum   'Li3 Ti4 Se8'
_cell_volume   293.10481219
_cell_formula_units_Z   1
loop_
 _symmetry_equiv_pos_site_id
 _symmetry_equiv_pos_as_xyz
  1  'x, y, z'
loop_
 _atom_site_type_symbol
 _atom_site_label
 _atom_site_symmetry_multiplicity
 _atom_site_fract_x
 _atom_site_fract_y
 _atom_site_fract_z
 _atom_site_occupancy
  Li  Li0  1  0.000000  0.500000  0.500000  1
  Li  Li1  1  0.500000  0.000000  0.500000  1
  Li  Li2  1  0.500000  0.500000  0.500000  1
  Ti  Ti3  1  0.759797  0.240203  0.000000  1
  Ti  Ti4  1  0.240203  0.759797  0.000000  1
  Ti  Ti5  1  0.247557  0.247557  0.001841  1
  Ti  Ti6  1  0.752443  0.752443  0.998159  1
  Se  Se7  1  0.965011  0.464595  0.237555  1
  Se  Se8  1  0.464595  0.965011  0.237555  1
  Se  Se9  1  0.465479  0.465479  0.235203  1
  Se  Se10  1  0.963840  0.963840  0.244434  1
  Se  Se11  1  0.036160  0.036160  0.755566  1
  Se  Se12  1  0.534521  0.534521  0.764797  1
  Se  Se13  1  0.535405  0.034989  0.762445  1
  Se  Se14  1  0.034989  0.535405  0.762445  1
