# generated using pymatgen
data_SrS2(ClO3)2
_symmetry_space_group_name_H-M   'P 1'
_cell_length_a   7.59491058
_cell_length_b   7.59491120
_cell_length_c   9.91352583
_cell_angle_alpha   112.63138056
_cell_angle_beta   104.14981194
_cell_angle_gamma   100.29040936
_symmetry_Int_Tables_number   1
_chemical_formula_structural   SrS2(ClO3)2
_chemical_formula_sum   'Sr2 S4 Cl4 O12'
_cell_volume   487.45651057
_cell_formula_units_Z   2
loop_
 _symmetry_equiv_pos_site_id
 _symmetry_equiv_pos_as_xyz
  1  'x, y, z'
loop_
 _atom_site_type_symbol
 _atom_site_label
 _atom_site_symmetry_multiplicity
 _atom_site_fract_x
 _atom_site_fract_y
 _atom_site_fract_z
 _atom_site_occupancy
  Sr  Sr0  1  0.673276  0.423276  0.750000  1
  Sr  Sr1  1  0.326724  0.576724  0.250000  1
  S  S2  1  0.168316  0.374040  0.793909  1
  S  S3  1  0.580132  0.874408  0.706091  1
  S  S4  1  0.831684  0.625960  0.206091  1
  S  S5  1  0.419868  0.125592  0.293909  1
  Cl  Cl6  1  0.054767  0.070265  0.705280  1
  Cl  Cl7  1  0.364985  0.849485  0.794720  1
  Cl  Cl8  1  0.945233  0.929735  0.294720  1
  Cl  Cl9  1  0.635015  0.150515  0.205280  1
  O  O10  1  0.325416  0.397603  0.735919  1
  O  O11  1  0.661685  0.089497  0.764081  1
  O  O12  1  0.674584  0.602397  0.264081  1
  O  O13  1  0.338315  0.910503  0.235919  1
  O  O14  1  0.010279  0.438634  0.731899  1
  O  O15  1  0.706735  0.778380  0.768101  1
  O  O16  1  0.989721  0.561366  0.268101  1
  O  O17  1  0.293265  0.221620  0.231899  1
  O  O18  1  0.229050  0.448649  0.962854  1
  O  O19  1  0.485794  0.766196  0.537146  1
  O  O20  1  0.770950  0.551351  0.037146  1
  O  O21  1  0.514206  0.233804  0.462854  1
