# generated using pymatgen
data_YU7(B6Mo)4
_symmetry_space_group_name_H-M   'P 1'
_cell_length_a   3.69514800
_cell_length_b   9.27496933
_cell_length_c   11.37267940
_cell_angle_alpha   89.96950556
_cell_angle_beta   90.00000000
_cell_angle_gamma   90.00000000
_symmetry_Int_Tables_number   1
_chemical_formula_structural   YU7(B6Mo)4
_chemical_formula_sum   'Y1 U7 B24 Mo4'
_cell_volume   389.76878453
_cell_formula_units_Z   1
loop_
 _symmetry_equiv_pos_site_id
 _symmetry_equiv_pos_as_xyz
  1  'x, y, z'
loop_
 _atom_site_type_symbol
 _atom_site_label
 _atom_site_symmetry_multiplicity
 _atom_site_fract_x
 _atom_site_fract_y
 _atom_site_fract_z
 _atom_site_occupancy
  Y  Y0  1  0.000000  0.335262  0.407924  1
  U  U1  1  0.000000  0.664388  0.592160  1
  U  U2  1  0.000000  0.834613  0.092623  1
  U  U3  1  0.000000  0.165343  0.907653  1
  U  U4  1  0.000000  0.956227  0.394452  1
  U  U5  1  0.000000  0.044497  0.605042  1
  U  U6  1  0.000000  0.456051  0.105188  1
  U  U7  1  0.000000  0.543769  0.894959  1
  B  B8  1  0.500000  0.552579  0.433366  1
  B  B9  1  0.500000  0.451350  0.568874  1
  B  B10  1  0.500000  0.049544  0.066708  1
  B  B11  1  0.500000  0.950140  0.932899  1
  B  B12  1  0.500000  0.742936  0.424688  1
  B  B13  1  0.500000  0.255875  0.576923  1
  B  B14  1  0.500000  0.243528  0.075865  1
  B  B15  1  0.500000  0.756743  0.924206  1
  B  B16  1  0.500000  0.803464  0.272851  1
  B  B17  1  0.500000  0.196617  0.727458  1
  B  B18  1  0.500000  0.302605  0.225251  1
  B  B19  1  0.500000  0.696488  0.772400  1
  B  B20  1  0.500000  0.644012  0.187547  1
  B  B21  1  0.500000  0.355437  0.812777  1
  B  B22  1  0.500000  0.142654  0.311757  1
  B  B23  1  0.500000  0.855473  0.687441  1
  B  B24  1  0.500000  0.985497  0.218337  1
  B  B25  1  0.500000  0.014519  0.781379  1
  B  B26  1  0.500000  0.487320  0.280216  1
  B  B27  1  0.500000  0.515387  0.718217  1
  B  B28  1  0.500000  0.642270  0.039299  1
  B  B29  1  0.500000  0.358045  0.960812  1
  B  B30  1  0.500000  0.138249  0.461542  1
  B  B31  1  0.500000  0.857655  0.539598  1
  Mo  Mo32  1  0.000000  0.647971  0.319219  1
  Mo  Mo33  1  0.000000  0.355380  0.682619  1
  Mo  Mo34  1  0.000000  0.142970  0.177491  1
  Mo  Mo35  1  0.000000  0.855142  0.820260  1
