# generated using pymatgen
data_TaNb3(SiIr)4
_symmetry_space_group_name_H-M   'P 1'
_cell_length_a   3.81720900
_cell_length_b   6.46049543
_cell_length_c   7.33044064
_cell_angle_alpha   90.07638314
_cell_angle_beta   90.00000000
_cell_angle_gamma   90.00000000
_symmetry_Int_Tables_number   1
_chemical_formula_structural   TaNb3(SiIr)4
_chemical_formula_sum   'Ta1 Nb3 Si4 Ir4'
_cell_volume   180.77628520
_cell_formula_units_Z   1
loop_
 _symmetry_equiv_pos_site_id
 _symmetry_equiv_pos_as_xyz
  1  'x, y, z'
loop_
 _atom_site_type_symbol
 _atom_site_label
 _atom_site_symmetry_multiplicity
 _atom_site_fract_x
 _atom_site_fract_y
 _atom_site_fract_z
 _atom_site_occupancy
  Ta  Ta0  1  0.750000  0.524068  0.828183  1
  Nb  Nb1  1  0.250000  0.975841  0.327934  1
  Nb  Nb2  1  0.750000  0.024368  0.671253  1
  Nb  Nb3  1  0.250000  0.475988  0.171444  1
  Si  Si4  1  0.250000  0.230436  0.875550  1
  Si  Si5  1  0.250000  0.731182  0.624241  1
  Si  Si6  1  0.750000  0.769524  0.125520  1
  Si  Si7  1  0.750000  0.269472  0.374679  1
  Ir  Ir8  1  0.250000  0.852513  0.935942  1
  Ir  Ir9  1  0.250000  0.355247  0.565413  1
  Ir  Ir10  1  0.750000  0.645454  0.437715  1
  Ir  Ir11  1  0.750000  0.145909  0.062125  1
