# generated using pymatgen
data_Tb4GaSi3Ni4
_symmetry_space_group_name_H-M   'P 1'
_cell_length_a   4.21309800
_cell_length_b   6.91804111
_cell_length_c   7.19401330
_cell_angle_alpha   90.10012591
_cell_angle_beta   90.00000000
_cell_angle_gamma   90.00000000
_symmetry_Int_Tables_number   1
_chemical_formula_structural   Tb4GaSi3Ni4
_chemical_formula_sum   'Tb4 Ga1 Si3 Ni4'
_cell_volume   209.67916231
_cell_formula_units_Z   1
loop_
 _symmetry_equiv_pos_site_id
 _symmetry_equiv_pos_as_xyz
  1  'x, y, z'
loop_
 _atom_site_type_symbol
 _atom_site_label
 _atom_site_symmetry_multiplicity
 _atom_site_fract_x
 _atom_site_fract_y
 _atom_site_fract_z
 _atom_site_occupancy
  Tb  Tb0  1  0.250000  0.483845  0.202323  1
  Tb  Tb1  1  0.750000  0.510280  0.799234  1
  Tb  Tb2  1  0.750000  0.013058  0.698568  1
  Tb  Tb3  1  0.250000  0.989688  0.303532  1
  Ga  Ga4  1  0.250000  0.809335  0.912452  1
  Si  Si5  1  0.750000  0.182491  0.085008  1
  Si  Si6  1  0.750000  0.688792  0.411025  1
  Si  Si7  1  0.250000  0.310832  0.589301  1
  Ni  Ni8  1  0.250000  0.680269  0.573113  1
  Ni  Ni9  1  0.750000  0.311173  0.416521  1
  Ni  Ni10  1  0.750000  0.816117  0.094306  1
  Ni  Ni11  1  0.250000  0.204121  0.914619  1
