# generated using pymatgen
data_Tb8GePtBr12
_symmetry_space_group_name_H-M   'P 1'
_cell_length_a   4.07692900
_cell_length_b   13.41018261
_cell_length_c   14.22501940
_cell_angle_alpha   90.53927059
_cell_angle_beta   90.00000000
_cell_angle_gamma   90.00000000
_symmetry_Int_Tables_number   1
_chemical_formula_structural   Tb8GePtBr12
_chemical_formula_sum   'Tb8 Ge1 Pt1 Br12'
_cell_volume   777.68096792
_cell_formula_units_Z   1
loop_
 _symmetry_equiv_pos_site_id
 _symmetry_equiv_pos_as_xyz
  1  'x, y, z'
loop_
 _atom_site_type_symbol
 _atom_site_label
 _atom_site_symmetry_multiplicity
 _atom_site_fract_x
 _atom_site_fract_y
 _atom_site_fract_z
 _atom_site_occupancy
  Tb  Tb0  1  0.500000  0.120524  0.339190  1
  Tb  Tb1  1  0.500000  0.879476  0.660810  1
  Tb  Tb2  1  0.500000  0.619544  0.160215  1
  Tb  Tb3  1  0.500000  0.380456  0.839785  1
  Tb  Tb4  1  0.000000  0.113654  0.575968  1
  Tb  Tb5  1  0.000000  0.886346  0.424032  1
  Tb  Tb6  1  0.000000  0.618168  0.921863  1
  Tb  Tb7  1  0.000000  0.381832  0.078137  1
  Ge  Ge8  1  0.500000  0.500000  0.000000  1
  Pt  Pt9  1  0.500000  0.000000  0.500000  1
  Br  Br10  1  0.500000  0.246968  0.162022  1
  Br  Br11  1  0.500000  0.753032  0.837978  1
  Br  Br12  1  0.500000  0.742745  0.334590  1
  Br  Br13  1  0.500000  0.257255  0.665410  1
  Br  Br14  1  0.000000  0.257601  0.409530  1
  Br  Br15  1  0.000000  0.742399  0.590470  1
  Br  Br16  1  0.000000  0.753960  0.088496  1
  Br  Br17  1  0.000000  0.246040  0.911504  1
  Br  Br18  1  0.000000  0.004491  0.239954  1
  Br  Br19  1  0.000000  0.995509  0.760046  1
  Br  Br20  1  0.000000  0.502510  0.254666  1
  Br  Br21  1  0.000000  0.497490  0.745334  1
