# generated using pymatgen
data_YTm3(Al3Rh)6
_symmetry_space_group_name_H-M   'P 1'
_cell_length_a   7.54280249
_cell_length_b   7.54524736
_cell_length_c   9.43115000
_cell_angle_alpha   90.00000000
_cell_angle_beta   90.00000000
_cell_angle_gamma   119.36301304
_symmetry_Int_Tables_number   1
_chemical_formula_structural   YTm3(Al3Rh)6
_chemical_formula_sum   'Y1 Tm3 Al18 Rh6'
_cell_volume   467.79273762
_cell_formula_units_Z   1
loop_
 _symmetry_equiv_pos_site_id
 _symmetry_equiv_pos_as_xyz
  1  'x, y, z'
loop_
 _atom_site_type_symbol
 _atom_site_label
 _atom_site_symmetry_multiplicity
 _atom_site_fract_x
 _atom_site_fract_y
 _atom_site_fract_z
 _atom_site_occupancy
  Y  Y0  1  0.993998  0.672006  0.250000  1
  Tm  Tm1  1  0.005487  0.327374  0.750000  1
  Tm  Tm2  1  0.672377  0.994260  0.250000  1
  Tm  Tm3  1  0.327591  0.005834  0.750000  1
  Al  Al4  1  0.128661  0.129445  0.250000  1
  Al  Al5  1  0.871551  0.872146  0.750000  1
  Al  Al6  1  0.000563  0.335485  0.074433  1
  Al  Al7  1  0.999753  0.663851  0.923020  1
  Al  Al8  1  0.999753  0.663851  0.576980  1
  Al  Al9  1  0.336436  0.000938  0.425444  1
  Al  Al10  1  0.000563  0.335485  0.425567  1
  Al  Al11  1  0.663823  0.999981  0.575806  1
  Al  Al12  1  0.663823  0.999981  0.924194  1
  Al  Al13  1  0.336436  0.000938  0.074556  1
  Al  Al14  1  0.332423  0.332448  0.550693  1
  Al  Al15  1  0.667200  0.667674  0.452379  1
  Al  Al16  1  0.667200  0.667674  0.047621  1
  Al  Al17  1  0.332423  0.332448  0.949307  1
  Al  Al18  1  0.341030  0.551293  0.250000  1
  Al  Al19  1  0.659425  0.448400  0.750000  1
  Al  Al20  1  0.550468  0.338855  0.250000  1
  Al  Al21  1  0.448522  0.660104  0.750000  1
  Rh  Rh22  1  0.672336  0.327299  0.999417  1
  Rh  Rh23  1  0.327511  0.672317  0.999831  1
  Rh  Rh24  1  0.327511  0.672317  0.500169  1
  Rh  Rh25  1  0.672336  0.327299  0.500583  1
  Rh  Rh26  1  0.000399  0.000150  0.999177  1
  Rh  Rh27  1  0.000399  0.000150  0.500823  1
