# generated using pymatgen
data_Er8Zn(Si4Ni)3
_symmetry_space_group_name_H-M   'P 1'
_cell_length_a   7.97288300
_cell_length_b   7.97288206
_cell_length_c   7.97378000
_cell_angle_alpha   90.00000000
_cell_angle_beta   90.00000000
_cell_angle_gamma   119.99999145
_symmetry_Int_Tables_number   1
_chemical_formula_structural   Er8Zn(Si4Ni)3
_chemical_formula_sum   'Er8 Zn1 Si12 Ni3'
_cell_volume   438.96070933
_cell_formula_units_Z   1
loop_
 _symmetry_equiv_pos_site_id
 _symmetry_equiv_pos_as_xyz
  1  'x, y, z'
loop_
 _atom_site_type_symbol
 _atom_site_label
 _atom_site_symmetry_multiplicity
 _atom_site_fract_x
 _atom_site_fract_y
 _atom_site_fract_z
 _atom_site_occupancy
  Er  Er0  1  0.501619  0.003240  0.246870  1
  Er  Er1  1  0.501514  0.003028  0.753093  1
  Er  Er2  1  0.996760  0.498381  0.246870  1
  Er  Er3  1  0.996972  0.498486  0.753093  1
  Er  Er4  1  0.501619  0.498381  0.246870  1
  Er  Er5  1  0.501514  0.498486  0.753093  1
  Er  Er6  1  0.000000  0.000000  0.247256  1
  Er  Er7  1  0.000000  0.000000  0.752814  1
  Zn  Zn8  1  0.333333  0.666667  0.499684  1
  Si  Si9  1  0.171398  0.342798  0.000055  1
  Si  Si10  1  0.829239  0.658478  0.999998  1
  Si  Si11  1  0.657202  0.828602  0.000055  1
  Si  Si12  1  0.826551  0.653101  0.499962  1
  Si  Si13  1  0.341522  0.170761  0.999998  1
  Si  Si14  1  0.163949  0.327897  0.500034  1
  Si  Si15  1  0.171398  0.828602  0.000055  1
  Si  Si16  1  0.346899  0.173449  0.499962  1
  Si  Si17  1  0.829239  0.170761  0.999998  1
  Si  Si18  1  0.672103  0.836051  0.500034  1
  Si  Si19  1  0.826551  0.173449  0.499962  1
  Si  Si20  1  0.163949  0.836051  0.500034  1
  Ni  Ni21  1  0.333333  0.666667  0.999909  1
  Ni  Ni22  1  0.666667  0.333333  0.999581  1
  Ni  Ni23  1  0.666667  0.333333  0.500720  1
