# generated using pymatgen
data_CsTbLu2Te5
_symmetry_space_group_name_H-M   'P 1'
_cell_length_a   4.37771000
_cell_length_b   13.30791100
_cell_length_c   23.59152800
_cell_angle_alpha   90.00000000
_cell_angle_beta   90.00000000
_cell_angle_gamma   90.00000000
_symmetry_Int_Tables_number   1
_chemical_formula_structural   CsTbLu2Te5
_chemical_formula_sum   'Cs4 Tb4 Lu8 Te20'
_cell_volume   1374.39936825
_cell_formula_units_Z   4
loop_
 _symmetry_equiv_pos_site_id
 _symmetry_equiv_pos_as_xyz
  1  'x, y, z'
loop_
 _atom_site_type_symbol
 _atom_site_label
 _atom_site_symmetry_multiplicity
 _atom_site_fract_x
 _atom_site_fract_y
 _atom_site_fract_z
 _atom_site_occupancy
  Cs  Cs0  1  0.250000  0.355063  0.088771  1
  Cs  Cs1  1  0.750000  0.644937  0.911229  1
  Cs  Cs2  1  0.750000  0.855063  0.411229  1
  Cs  Cs3  1  0.250000  0.144937  0.588771  1
  Tb  Tb4  1  0.250000  0.455172  0.697769  1
  Tb  Tb5  1  0.750000  0.544828  0.302231  1
  Tb  Tb6  1  0.750000  0.955172  0.802231  1
  Tb  Tb7  1  0.250000  0.044828  0.197769  1
  Lu  Lu8  1  0.250000  0.796269  0.674882  1
  Lu  Lu9  1  0.750000  0.203731  0.325118  1
  Lu  Lu10  1  0.750000  0.296269  0.825118  1
  Lu  Lu11  1  0.250000  0.703731  0.174882  1
  Lu  Lu12  1  0.250000  0.392445  0.444058  1
  Lu  Lu13  1  0.750000  0.607555  0.555942  1
  Lu  Lu14  1  0.750000  0.892445  0.055942  1
  Lu  Lu15  1  0.250000  0.107555  0.944058  1
  Te  Te16  1  0.250000  0.446168  0.567654  1
  Te  Te17  1  0.750000  0.553832  0.432346  1
  Te  Te18  1  0.750000  0.946168  0.932346  1
  Te  Te19  1  0.250000  0.053832  0.067654  1
  Te  Te20  1  0.250000  0.765320  0.547693  1
  Te  Te21  1  0.750000  0.234680  0.452307  1
  Te  Te22  1  0.750000  0.265320  0.952307  1
  Te  Te23  1  0.250000  0.734680  0.047693  1
  Te  Te24  1  0.250000  0.797064  0.802209  1
  Te  Te25  1  0.750000  0.202936  0.197791  1
  Te  Te26  1  0.750000  0.297064  0.697791  1
  Te  Te27  1  0.250000  0.702936  0.302209  1
  Te  Te28  1  0.250000  0.449942  0.828398  1
  Te  Te29  1  0.750000  0.550058  0.171602  1
  Te  Te30  1  0.750000  0.949942  0.671602  1
  Te  Te31  1  0.250000  0.050058  0.328398  1
  Te  Te32  1  0.250000  0.371959  0.314320  1
  Te  Te33  1  0.750000  0.628041  0.685680  1
  Te  Te34  1  0.750000  0.871959  0.185680  1
  Te  Te35  1  0.250000  0.128041  0.814320  1
