# generated using pymatgen
data_Ti3PtRh4
_symmetry_space_group_name_H-M   'P 1'
_cell_length_a   4.13834800
_cell_length_b   5.42935348
_cell_length_c   10.65230441
_cell_angle_alpha   91.56039158
_cell_angle_beta   90.00000000
_cell_angle_gamma   90.00000000
_symmetry_Int_Tables_number   1
_chemical_formula_structural   Ti3PtRh4
_chemical_formula_sum   'Ti6 Pt2 Rh8'
_cell_volume   239.25312492
_cell_formula_units_Z   2
loop_
 _symmetry_equiv_pos_site_id
 _symmetry_equiv_pos_as_xyz
  1  'x, y, z'
loop_
 _atom_site_type_symbol
 _atom_site_label
 _atom_site_symmetry_multiplicity
 _atom_site_fract_x
 _atom_site_fract_y
 _atom_site_fract_z
 _atom_site_occupancy
  Ti  Ti0  1  0.000000  0.000000  0.000000  1
  Ti  Ti1  1  0.000000  0.500000  0.500000  1
  Ti  Ti2  1  0.500000  0.345725  0.142979  1
  Ti  Ti3  1  0.500000  0.654275  0.857021  1
  Ti  Ti4  1  0.500000  0.833929  0.358169  1
  Ti  Ti5  1  0.500000  0.166071  0.641831  1
  Pt  Pt6  1  0.000000  0.096097  0.240177  1
  Pt  Pt7  1  0.000000  0.903903  0.759823  1
  Rh  Rh8  1  0.000000  0.000000  0.500000  1
  Rh  Rh9  1  0.000000  0.500000  0.000000  1
  Rh  Rh10  1  0.000000  0.597282  0.262312  1
  Rh  Rh11  1  0.000000  0.402718  0.737688  1
  Rh  Rh12  1  0.500000  0.314946  0.392120  1
  Rh  Rh13  1  0.500000  0.685054  0.607880  1
  Rh  Rh14  1  0.500000  0.816120  0.106950  1
  Rh  Rh15  1  0.500000  0.183880  0.893050  1
