# generated using pymatgen
data_TbBi7(TeO6)4
_symmetry_space_group_name_H-M   'P 1'
_cell_length_a   5.46480759
_cell_length_b   9.48242256
_cell_length_c   10.26828800
_cell_angle_alpha   90.07855011
_cell_angle_beta   90.26532173
_cell_angle_gamma   90.12207650
_symmetry_Int_Tables_number   1
_chemical_formula_structural   TbBi7(TeO6)4
_chemical_formula_sum   'Tb1 Bi7 Te4 O24'
_cell_volume   532.09130895
_cell_formula_units_Z   1
loop_
 _symmetry_equiv_pos_site_id
 _symmetry_equiv_pos_as_xyz
  1  'x, y, z'
loop_
 _atom_site_type_symbol
 _atom_site_label
 _atom_site_symmetry_multiplicity
 _atom_site_fract_x
 _atom_site_fract_y
 _atom_site_fract_z
 _atom_site_occupancy
  Tb  Tb0  1  0.518716  0.397484  0.459292  1
  Bi  Bi1  1  0.038483  0.215411  0.140507  1
  Bi  Bi2  1  0.469801  0.789513  0.639358  1
  Bi  Bi3  1  0.966096  0.708864  0.359030  1
  Bi  Bi4  1  0.535976  0.285111  0.858540  1
  Bi  Bi5  1  0.026440  0.105069  0.542168  1
  Bi  Bi6  1  0.479427  0.898129  0.044165  1
  Bi  Bi7  1  0.978944  0.601012  0.956815  1
  Te  Te8  1  0.539737  0.006999  0.357789  1
  Te  Te9  1  0.962393  0.996868  0.856728  1
  Te  Te10  1  0.463877  0.502287  0.145538  1
  Te  Te11  1  0.035434  0.494372  0.640520  1
  O  O12  1  0.423622  0.160952  0.466404  1
  O  O13  1  0.076696  0.850164  0.973602  1
  O  O14  1  0.580677  0.650703  0.031551  1
  O  O15  1  0.897669  0.346963  0.531428  1
  O  O16  1  0.726703  0.387572  0.065967  1
  O  O17  1  0.766699  0.608646  0.564405  1
  O  O18  1  0.275382  0.893021  0.436281  1
  O  O19  1  0.226486  0.113380  0.934222  1
  O  O20  1  0.259252  0.417144  0.005243  1
  O  O21  1  0.233499  0.572919  0.496838  1
  O  O22  1  0.739087  0.924628  0.500400  1
  O  O23  1  0.758079  0.084095  0.994875  1
  O  O24  1  0.188747  0.632626  0.179648  1
  O  O25  1  0.312674  0.363842  0.667494  1
  O  O26  1  0.815630  0.135548  0.322705  1
  O  O27  1  0.691170  0.864242  0.820735  1
  O  O28  1  0.334777  0.049787  0.207055  1
  O  O29  1  0.168857  0.951522  0.709048  1
  O  O30  1  0.667048  0.545776  0.296290  1
  O  O31  1  0.838394  0.447983  0.792827  1
  O  O32  1  0.328608  0.359650  0.259219  1
  O  O33  1  0.179261  0.637317  0.752531  1
  O  O34  1  0.674842  0.861070  0.246691  1
  O  O35  1  0.820818  0.139333  0.744084  1
