# generated using pymatgen
data_LiHf6Al15Pt7
_symmetry_space_group_name_H-M   'P 1'
_cell_length_a   8.76275574
_cell_length_b   8.76275552
_cell_length_c   8.74728685
_cell_angle_alpha   59.94148150
_cell_angle_beta   59.94148231
_cell_angle_gamma   60.00000289
_symmetry_Int_Tables_number   1
_chemical_formula_structural   LiHf6Al15Pt7
_chemical_formula_sum   'Li1 Hf6 Al15 Pt7'
_cell_volume   474.52061046
_cell_formula_units_Z   1
loop_
 _symmetry_equiv_pos_site_id
 _symmetry_equiv_pos_as_xyz
  1  'x, y, z'
loop_
 _atom_site_type_symbol
 _atom_site_label
 _atom_site_symmetry_multiplicity
 _atom_site_fract_x
 _atom_site_fract_y
 _atom_site_fract_z
 _atom_site_occupancy
  Li  Li0  1  0.880262  0.880262  0.359212  1
  Hf  Hf1  1  0.680639  0.680639  0.319454  1
  Hf  Hf2  1  0.319269  0.680639  0.319454  1
  Hf  Hf3  1  0.680639  0.319269  0.319454  1
  Hf  Hf4  1  0.319330  0.319330  0.680659  1
  Hf  Hf5  1  0.680682  0.319330  0.680659  1
  Hf  Hf6  1  0.319330  0.680682  0.680659  1
  Al  Al7  1  0.879599  0.359759  0.881042  1
  Al  Al8  1  0.359759  0.879599  0.881042  1
  Al  Al9  1  0.879599  0.879599  0.881042  1
  Al  Al10  1  0.119993  0.119993  0.640021  1
  Al  Al11  1  0.115456  0.643753  0.125335  1
  Al  Al12  1  0.643753  0.115456  0.125335  1
  Al  Al13  1  0.115456  0.115456  0.125335  1
  Al  Al14  1  0.663250  0.663250  0.010248  1
  Al  Al15  1  0.668675  0.004518  0.658131  1
  Al  Al16  1  0.004518  0.668675  0.658131  1
  Al  Al17  1  0.668675  0.668675  0.658131  1
  Al  Al18  1  0.335560  0.335560  0.993320  1
  Al  Al19  1  0.337161  0.991077  0.334602  1
  Al  Al20  1  0.991077  0.337161  0.334602  1
  Al  Al21  1  0.337161  0.337161  0.334602  1
  Pt  Pt22  1  0.002415  0.002415  0.992754  1
  Pt  Pt23  1  0.001989  0.001989  0.505219  1
  Pt  Pt24  1  0.490803  0.001989  0.505219  1
  Pt  Pt25  1  0.001989  0.490803  0.505219  1
  Pt  Pt26  1  0.501097  0.501097  0.997038  1
  Pt  Pt27  1  0.000768  0.501097  0.997038  1
  Pt  Pt28  1  0.501097  0.000768  0.997038  1
