# generated using pymatgen
data_Dy16Cd2CoNi2Hg2Ru
_symmetry_space_group_name_H-M   'P 1'
_cell_length_a   9.52081153
_cell_length_b   9.51828331
_cell_length_c   9.55325500
_cell_angle_alpha   60.12101339
_cell_angle_beta   60.11590844
_cell_angle_gamma   60.00877910
_symmetry_Int_Tables_number   1
_chemical_formula_structural   Dy16Cd2CoNi2Hg2Ru
_chemical_formula_sum   'Dy16 Cd2 Co1 Ni2 Hg2 Ru1'
_cell_volume   613.30030273
_cell_formula_units_Z   1
loop_
 _symmetry_equiv_pos_site_id
 _symmetry_equiv_pos_as_xyz
  1  'x, y, z'
loop_
 _atom_site_type_symbol
 _atom_site_label
 _atom_site_symmetry_multiplicity
 _atom_site_fract_x
 _atom_site_fract_y
 _atom_site_fract_z
 _atom_site_occupancy
  Dy  Dy0  1  0.152279  0.542069  0.155747  1
  Dy  Dy1  1  0.690209  0.310125  0.689464  1
  Dy  Dy2  1  0.686344  0.310675  0.311194  1
  Dy  Dy3  1  0.938302  0.562829  0.564063  1
  Dy  Dy4  1  0.545544  0.151538  0.154351  1
  Dy  Dy5  1  0.151726  0.153589  0.544809  1
  Dy  Dy6  1  0.936812  0.935388  0.564704  1
  Dy  Dy7  1  0.312223  0.685132  0.311090  1
  Dy  Dy8  1  0.562178  0.941116  0.935532  1
  Dy  Dy9  1  0.563437  0.937486  0.563829  1
  Dy  Dy10  1  0.690109  0.689243  0.310446  1
  Dy  Dy11  1  0.561766  0.560877  0.936966  1
  Dy  Dy12  1  0.941625  0.561965  0.934685  1
  Dy  Dy13  1  0.312135  0.689339  0.688756  1
  Dy  Dy14  1  0.150406  0.151617  0.153782  1
  Dy  Dy15  1  0.312824  0.310212  0.685167  1
  Cd  Cd16  1  0.919939  0.919500  0.241258  1
  Cd  Cd17  1  0.241398  0.919806  0.919099  1
  Co  Co18  1  0.357582  0.358277  0.359802  1
  Ni  Ni19  1  0.357737  0.925137  0.358979  1
  Ni  Ni20  1  0.924434  0.358101  0.359145  1
  Hg  Hg21  1  0.916590  0.252901  0.915659  1
  Hg  Hg22  1  0.916554  0.915058  0.915791  1
  Ru  Ru23  1  0.357850  0.358022  0.925682  1
