# generated using pymatgen
data_Er16Tm4Bi11Sb
_symmetry_space_group_name_H-M   'P 1'
_cell_length_a   8.17218551
_cell_length_b   9.44723903
_cell_length_c   11.92190521
_cell_angle_alpha   90.00011740
_cell_angle_beta   89.94450172
_cell_angle_gamma   89.99025825
_symmetry_Int_Tables_number   1
_chemical_formula_structural   Er16Tm4Bi11Sb
_chemical_formula_sum   'Er16 Tm4 Bi11 Sb1'
_cell_volume   920.42535836
_cell_formula_units_Z   1
loop_
 _symmetry_equiv_pos_site_id
 _symmetry_equiv_pos_as_xyz
  1  'x, y, z'
loop_
 _atom_site_type_symbol
 _atom_site_label
 _atom_site_symmetry_multiplicity
 _atom_site_fract_x
 _atom_site_fract_y
 _atom_site_fract_z
 _atom_site_occupancy
  Er  Er0  1  0.028116  0.250045  0.511330  1
  Er  Er1  1  0.976102  0.749947  0.489104  1
  Er  Er2  1  0.475042  0.749981  0.011399  1
  Er  Er3  1  0.525218  0.250054  0.988561  1
  Er  Er4  1  0.356056  0.250053  0.286230  1
  Er  Er5  1  0.645012  0.749965  0.716799  1
  Er  Er6  1  0.145065  0.749945  0.782550  1
  Er  Er7  1  0.854995  0.250049  0.217237  1
  Er  Er8  1  0.189143  0.250042  0.780047  1
  Er  Er9  1  0.812364  0.749987  0.217976  1
  Er  Er10  1  0.312759  0.749963  0.282045  1
  Er  Er11  1  0.682630  0.249998  0.715102  1
  Er  Er12  1  0.193062  0.065473  0.059890  1
  Er  Er13  1  0.807024  0.934962  0.940416  1
  Er  Er14  1  0.308387  0.938598  0.559344  1
  Er  Er15  1  0.806960  0.565004  0.940390  1
  Tm  Tm16  1  0.690234  0.067782  0.441954  1
  Tm  Tm17  1  0.193103  0.434419  0.059887  1
  Tm  Tm18  1  0.690283  0.432255  0.441943  1
  Tm  Tm19  1  0.308329  0.561507  0.559360  1
  Bi  Bi20  1  0.594322  0.749895  0.457187  1
  Bi  Bi21  1  0.093902  0.749695  0.042639  1
  Bi  Bi22  1  0.906996  0.250102  0.956614  1
  Bi  Bi23  1  0.066478  0.003659  0.325895  1
  Bi  Bi24  1  0.932907  0.996680  0.674195  1
  Bi  Bi25  1  0.433268  0.996042  0.825719  1
  Bi  Bi26  1  0.932980  0.503297  0.674193  1
  Bi  Bi27  1  0.566741  0.004063  0.174475  1
  Bi  Bi28  1  0.066481  0.496331  0.325903  1
  Bi  Bi29  1  0.566671  0.495945  0.174470  1
  Bi  Bi30  1  0.433264  0.503957  0.825716  1
  Sb  Sb31  1  0.406110  0.250305  0.541427  1
