# generated using pymatgen
data_Tm2Mn5NiP7Ir6
_symmetry_space_group_name_H-M   'P 1'
_cell_length_a   9.35328256
_cell_length_b   9.38381996
_cell_length_c   3.81506400
_cell_angle_alpha   90.00000000
_cell_angle_beta   90.00000000
_cell_angle_gamma   119.60486860
_symmetry_Int_Tables_number   1
_chemical_formula_structural   Tm2Mn5NiP7Ir6
_chemical_formula_sum   'Tm2 Mn5 Ni1 P7 Ir6'
_cell_volume   291.13313489
_cell_formula_units_Z   1
loop_
 _symmetry_equiv_pos_site_id
 _symmetry_equiv_pos_as_xyz
  1  'x, y, z'
loop_
 _atom_site_type_symbol
 _atom_site_label
 _atom_site_symmetry_multiplicity
 _atom_site_fract_x
 _atom_site_fract_y
 _atom_site_fract_z
 _atom_site_occupancy
  Tm  Tm0  1  0.998796  0.999181  0.000000  1
  Tm  Tm1  1  0.667161  0.334052  0.500000  1
  Mn  Mn2  1  0.603539  0.825097  0.000000  1
  Mn  Mn3  1  0.174943  0.780096  0.000000  1
  Mn  Mn4  1  0.454247  0.573923  0.500000  1
  Mn  Mn5  1  0.430174  0.883725  0.500000  1
  Mn  Mn6  1  0.115791  0.543837  0.500000  1
  Ni  Ni7  1  0.226149  0.398700  0.000000  1
  P  P8  1  0.446184  0.366674  0.000000  1
  P  P9  1  0.633707  0.076514  0.000000  1
  P  P10  1  0.925294  0.555595  0.000000  1
  P  P11  1  0.051077  0.268539  0.500000  1
  P  P12  1  0.729354  0.785317  0.500000  1
  P  P13  1  0.212566  0.944254  0.500000  1
  P  P14  1  0.334043  0.667656  0.000000  1
  Ir  Ir15  1  0.693938  0.598472  0.000000  1
  Ir  Ir16  1  0.401230  0.095632  0.000000  1
  Ir  Ir17  1  0.905296  0.304030  0.000000  1
  Ir  Ir18  1  0.275834  0.223815  0.500000  1
  Ir  Ir19  1  0.774657  0.051842  0.500000  1
  Ir  Ir20  1  0.946018  0.723049  0.500000  1
