# generated using pymatgen
data_Re3I8Cl
_symmetry_space_group_name_H-M   'P 1'
_cell_length_a   11.30391226
_cell_length_b   9.45327463
_cell_length_c   10.06015336
_cell_angle_alpha   70.88177937
_cell_angle_beta   89.92754363
_cell_angle_gamma   89.80734754
_symmetry_Int_Tables_number   1
_chemical_formula_structural   Re3I8Cl
_chemical_formula_sum   'Re6 I16 Cl2'
_cell_volume   1015.71922502
_cell_formula_units_Z   2
loop_
 _symmetry_equiv_pos_site_id
 _symmetry_equiv_pos_as_xyz
  1  'x, y, z'
loop_
 _atom_site_type_symbol
 _atom_site_label
 _atom_site_symmetry_multiplicity
 _atom_site_fract_x
 _atom_site_fract_y
 _atom_site_fract_z
 _atom_site_occupancy
  Re  Re0  1  0.749483  0.156982  0.655811  1
  Re  Re1  1  0.860633  0.158264  0.866465  1
  Re  Re2  1  0.361040  0.841629  0.134688  1
  Re  Re3  1  0.139772  0.841580  0.134213  1
  Re  Re4  1  0.638132  0.157239  0.867238  1
  Re  Re5  1  0.250357  0.844856  0.344106  1
  I  I6  1  0.408955  0.143920  0.019840  1
  I  I7  1  0.994269  0.157065  0.635740  1
  I  I8  1  0.252653  0.574105  0.519585  1
  I  I9  1  0.590791  0.854309  0.983333  1
  I  I10  1  0.749554  0.150238  0.113166  1
  I  I11  1  0.005850  0.846057  0.364183  1
  I  I12  1  0.251960  0.846518  0.888337  1
  I  I13  1  0.748471  0.425304  0.474792  1
  I  I14  1  0.495328  0.844642  0.364034  1
  I  I15  1  0.587170  0.444986  0.812502  1
  I  I16  1  0.095200  0.552782  0.190443  1
  I  I17  1  0.090003  0.144768  0.017422  1
  I  I18  1  0.911555  0.855142  0.983411  1
  I  I19  1  0.504649  0.156397  0.636698  1
  I  I20  1  0.909586  0.446059  0.811263  1
  I  I21  1  0.750365  0.890943  0.625108  1
  Cl  Cl22  1  0.404111  0.591270  0.184879  1
  Cl  Cl23  1  0.250113  0.074946  0.372745  1
