# generated using pymatgen
data_TbYb(MnAl5)4
_symmetry_space_group_name_H-M   'P 1'
_cell_length_a   6.83260033
_cell_length_b   6.83259979
_cell_length_c   9.04563200
_cell_angle_alpha   90.00221558
_cell_angle_beta   89.99778263
_cell_angle_gamma   97.43412562
_symmetry_Int_Tables_number   1
_chemical_formula_structural   TbYb(MnAl5)4
_chemical_formula_sum   'Tb1 Yb1 Mn4 Al20'
_cell_volume   418.74046072
_cell_formula_units_Z   1
loop_
 _symmetry_equiv_pos_site_id
 _symmetry_equiv_pos_as_xyz
  1  'x, y, z'
loop_
 _atom_site_type_symbol
 _atom_site_label
 _atom_site_symmetry_multiplicity
 _atom_site_fract_x
 _atom_site_fract_y
 _atom_site_fract_z
 _atom_site_occupancy
  Tb  Tb0  1  0.124798  0.875202  0.250025  1
  Yb  Yb1  1  0.875454  0.124546  0.749943  1
  Mn  Mn2  1  0.498972  0.000289  0.001132  1
  Mn  Mn3  1  0.999711  0.501028  0.001132  1
  Mn  Mn4  1  0.498886  0.999902  0.498969  1
  Mn  Mn5  1  0.000098  0.501114  0.498969  1
  Al  Al6  1  0.411349  0.133084  0.749951  1
  Al  Al7  1  0.131837  0.411902  0.250102  1
  Al  Al8  1  0.588098  0.868163  0.250102  1
  Al  Al9  1  0.866916  0.588651  0.749951  1
  Al  Al10  1  0.524965  0.782050  0.749911  1
  Al  Al11  1  0.780864  0.524075  0.250078  1
  Al  Al12  1  0.475925  0.219136  0.250078  1
  Al  Al13  1  0.217950  0.475035  0.749911  1
  Al  Al14  1  0.844801  0.155199  0.404621  1
  Al  Al15  1  0.157666  0.842334  0.596085  1
  Al  Al16  1  0.844783  0.155217  0.095461  1
  Al  Al17  1  0.157667  0.842333  0.903817  1
  Al  Al18  1  0.626185  0.373815  0.958031  1
  Al  Al19  1  0.374224  0.625776  0.046212  1
  Al  Al20  1  0.626235  0.373765  0.541852  1
  Al  Al21  1  0.374244  0.625756  0.453809  1
  Al  Al22  1  0.770563  0.771426  0.000004  1
  Al  Al23  1  0.770635  0.771400  0.499924  1
  Al  Al24  1  0.228573  0.229437  0.000004  1
  Al  Al25  1  0.228599  0.229365  0.499924  1
