# generated using pymatgen
data_Tm3MgCoP6Rh7
_symmetry_space_group_name_H-M   'P 1'
_cell_length_a   3.87413600
_cell_length_b   11.14166900
_cell_length_c   12.80004300
_cell_angle_alpha   90.00000000
_cell_angle_beta   90.00000000
_cell_angle_gamma   90.00000000
_symmetry_Int_Tables_number   1
_chemical_formula_structural   Tm3MgCoP6Rh7
_chemical_formula_sum   'Tm6 Mg2 Co2 P12 Rh14'
_cell_volume   552.50542052
_cell_formula_units_Z   2
loop_
 _symmetry_equiv_pos_site_id
 _symmetry_equiv_pos_as_xyz
  1  'x, y, z'
loop_
 _atom_site_type_symbol
 _atom_site_label
 _atom_site_symmetry_multiplicity
 _atom_site_fract_x
 _atom_site_fract_y
 _atom_site_fract_z
 _atom_site_occupancy
  Tm  Tm0  1  0.000000  0.500000  0.521703  1
  Tm  Tm1  1  0.500000  0.000000  0.478297  1
  Tm  Tm2  1  0.500000  0.821425  0.202257  1
  Tm  Tm3  1  0.500000  0.178575  0.202257  1
  Tm  Tm4  1  0.000000  0.678575  0.797743  1
  Tm  Tm5  1  0.000000  0.321425  0.797743  1
  Mg  Mg6  1  0.500000  0.500000  0.160285  1
  Mg  Mg7  1  0.000000  0.000000  0.839715  1
  Co  Co8  1  0.000000  0.500000  0.986438  1
  Co  Co9  1  0.500000  0.000000  0.013562  1
  P  P10  1  0.500000  0.500000  0.883633  1
  P  P11  1  0.000000  0.000000  0.116367  1
  P  P12  1  0.500000  0.500000  0.357692  1
  P  P13  1  0.000000  0.000000  0.642308  1
  P  P14  1  0.500000  0.314537  0.619026  1
  P  P15  1  0.500000  0.685463  0.619026  1
  P  P16  1  0.000000  0.185463  0.380974  1
  P  P17  1  0.000000  0.814537  0.380974  1
  P  P18  1  0.500000  0.844048  0.893575  1
  P  P19  1  0.500000  0.155952  0.893575  1
  P  P20  1  0.000000  0.655952  0.106425  1
  P  P21  1  0.000000  0.344048  0.106425  1
  Rh  Rh22  1  0.500000  0.500000  0.704189  1
  Rh  Rh23  1  0.000000  0.000000  0.295811  1
  Rh  Rh24  1  0.500000  0.335480  0.996390  1
  Rh  Rh25  1  0.500000  0.664520  0.996390  1
  Rh  Rh26  1  0.000000  0.164520  0.003610  1
  Rh  Rh27  1  0.000000  0.835480  0.003610  1
  Rh  Rh28  1  0.500000  0.293935  0.431669  1
  Rh  Rh29  1  0.500000  0.706065  0.431669  1
  Rh  Rh30  1  0.000000  0.206065  0.568331  1
  Rh  Rh31  1  0.000000  0.793935  0.568331  1
  Rh  Rh32  1  0.500000  0.873116  0.712168  1
  Rh  Rh33  1  0.500000  0.126884  0.712168  1
  Rh  Rh34  1  0.000000  0.626884  0.287832  1
  Rh  Rh35  1  0.000000  0.373116  0.287832  1
