# generated using pymatgen
data_SmTh2Ga2Pt3Au
_symmetry_space_group_name_H-M   'P 1'
_cell_length_a   7.42490153
_cell_length_b   7.42490006
_cell_length_c   3.96803000
_cell_angle_alpha   90.00000000
_cell_angle_beta   90.00000000
_cell_angle_gamma   117.61306581
_symmetry_Int_Tables_number   1
_chemical_formula_structural   SmTh2Ga2Pt3Au
_chemical_formula_sum   'Sm1 Th2 Ga2 Pt3 Au1'
_cell_volume   193.83757478
_cell_formula_units_Z   1
loop_
 _symmetry_equiv_pos_site_id
 _symmetry_equiv_pos_as_xyz
  1  'x, y, z'
loop_
 _atom_site_type_symbol
 _atom_site_label
 _atom_site_symmetry_multiplicity
 _atom_site_fract_x
 _atom_site_fract_y
 _atom_site_fract_z
 _atom_site_occupancy
  Sm  Sm0  1  0.409644  0.409644  0.500000  1
  Th  Th1  1  0.596124  0.990689  0.500000  1
  Th  Th2  1  0.990689  0.596124  0.500000  1
  Ga  Ga3  1  0.250062  0.009213  0.000000  1
  Ga  Ga4  1  0.009213  0.250062  0.000000  1
  Pt  Pt5  1  0.670458  0.310303  0.000000  1
  Pt  Pt6  1  0.310303  0.670458  0.000000  1
  Pt  Pt7  1  0.025221  0.025221  0.500000  1
  Au  Au8  1  0.738284  0.738284  0.000000  1
