# generated using pymatgen
data_NbAs3(Se2F3)2
_symmetry_space_group_name_H-M   'P 1'
_cell_length_a   6.55922139
_cell_length_b   10.05817300
_cell_length_c   10.66375035
_cell_angle_alpha   90.00000000
_cell_angle_beta   92.31331587
_cell_angle_gamma   90.00000000
_symmetry_Int_Tables_number   1
_chemical_formula_structural   NbAs3(Se2F3)2
_chemical_formula_sum   'Nb2 As6 Se8 F12'
_cell_volume   702.95461116
_cell_formula_units_Z   2
loop_
 _symmetry_equiv_pos_site_id
 _symmetry_equiv_pos_as_xyz
  1  'x, y, z'
loop_
 _atom_site_type_symbol
 _atom_site_label
 _atom_site_symmetry_multiplicity
 _atom_site_fract_x
 _atom_site_fract_y
 _atom_site_fract_z
 _atom_site_occupancy
  Nb  Nb0  1  0.499628  0.750000  0.169449  1
  Nb  Nb1  1  0.500362  0.250000  0.830520  1
  As  As2  1  0.977943  0.125100  0.154566  1
  As  As3  1  0.977943  0.374899  0.154566  1
  As  As4  1  0.060422  0.250000  0.485512  1
  As  As5  1  0.939548  0.750000  0.514531  1
  As  As6  1  0.022096  0.625097  0.845463  1
  As  As7  1  0.022096  0.874903  0.845463  1
  Se  Se8  1  0.668925  0.250000  0.226290  1
  Se  Se9  1  0.138039  0.067893  0.348416  1
  Se  Se10  1  0.138039  0.432107  0.348416  1
  Se  Se11  1  0.693357  0.250000  0.445470  1
  Se  Se12  1  0.306636  0.750000  0.554550  1
  Se  Se13  1  0.861969  0.567885  0.651623  1
  Se  Se14  1  0.861969  0.932115  0.651623  1
  Se  Se15  1  0.331098  0.750000  0.773721  1
  F  F16  1  0.717029  0.750000  0.051645  1
  F  F17  1  0.348120  0.617016  0.071287  1
  F  F18  1  0.348120  0.882985  0.071287  1
  F  F19  1  0.635218  0.611726  0.267359  1
  F  F20  1  0.635218  0.888275  0.267359  1
  F  F21  1  0.283698  0.750000  0.291506  1
  F  F22  1  0.716285  0.250000  0.708450  1
  F  F23  1  0.364755  0.111728  0.732616  1
  F  F24  1  0.364755  0.388274  0.732616  1
  F  F25  1  0.651865  0.117013  0.928675  1
  F  F26  1  0.651865  0.382988  0.928675  1
  F  F27  1  0.283000  0.250000  0.948346  1
