# generated using pymatgen
data_Y11Er5MgCo4Hg3
_symmetry_space_group_name_H-M   'P 1'
_cell_length_a   9.51300973
_cell_length_b   9.48708493
_cell_length_c   9.48708705
_cell_angle_alpha   59.94536214
_cell_angle_beta   60.12128720
_cell_angle_gamma   60.12128475
_symmetry_Int_Tables_number   1
_chemical_formula_structural   Y11Er5MgCo4Hg3
_chemical_formula_sum   'Y11 Er5 Mg1 Co4 Hg3'
_cell_volume   606.29229398
_cell_formula_units_Z   1
loop_
 _symmetry_equiv_pos_site_id
 _symmetry_equiv_pos_as_xyz
  1  'x, y, z'
loop_
 _atom_site_type_symbol
 _atom_site_label
 _atom_site_symmetry_multiplicity
 _atom_site_fract_x
 _atom_site_fract_y
 _atom_site_fract_z
 _atom_site_occupancy
  Y  Y0  1  0.185254  0.811941  0.811941  1
  Y  Y1  1  0.186452  0.811540  0.187796  1
  Y  Y2  1  0.807787  0.189855  0.810062  1
  Y  Y3  1  0.186452  0.187796  0.811540  1
  Y  Y4  1  0.807787  0.810062  0.189855  1
  Y  Y5  1  0.939488  0.560995  0.560995  1
  Y  Y6  1  0.560181  0.939199  0.939199  1
  Y  Y7  1  0.561058  0.940548  0.561355  1
  Y  Y8  1  0.938304  0.559190  0.941535  1
  Y  Y9  1  0.561058  0.561355  0.940548  1
  Y  Y10  1  0.938304  0.941535  0.559190  1
  Er  Er11  1  0.345765  0.343400  0.343400  1
  Er  Er12  1  0.346908  0.345485  0.965484  1
  Er  Er13  1  0.346908  0.965484  0.345485  1
  Er  Er14  1  0.954224  0.349143  0.349143  1
  Er  Er15  1  0.808112  0.189922  0.189922  1
  Mg  Mg16  1  0.285583  0.570279  0.570279  1
  Co  Co17  1  0.137116  0.144508  0.144508  1
  Co  Co18  1  0.139957  0.144387  0.573850  1
  Co  Co19  1  0.139957  0.573850  0.144387  1
  Co  Co20  1  0.576068  0.143042  0.143042  1
  Hg  Hg21  1  0.581478  0.584604  0.584604  1
  Hg  Hg22  1  0.582899  0.584733  0.247148  1
  Hg  Hg23  1  0.582899  0.247148  0.584733  1
