# generated using pymatgen
data_Hf12Zn8CuAu3C4
_symmetry_space_group_name_H-M   'P 1'
_cell_length_a   8.61804389
_cell_length_b   8.61804337
_cell_length_c   8.61804402
_cell_angle_alpha   59.99326964
_cell_angle_beta   59.99327290
_cell_angle_gamma   59.99326928
_symmetry_Int_Tables_number   1
_chemical_formula_structural   Hf12Zn8CuAu3C4
_chemical_formula_sum   'Hf12 Zn8 Cu1 Au3 C4'
_cell_volume   452.52733515
_cell_formula_units_Z   1
loop_
 _symmetry_equiv_pos_site_id
 _symmetry_equiv_pos_as_xyz
  1  'x, y, z'
loop_
 _atom_site_type_symbol
 _atom_site_label
 _atom_site_symmetry_multiplicity
 _atom_site_fract_x
 _atom_site_fract_y
 _atom_site_fract_z
 _atom_site_occupancy
  Hf  Hf0  1  0.437777  0.437777  0.062553  1
  Hf  Hf1  1  0.062462  0.437686  0.062462  1
  Hf  Hf2  1  0.437686  0.062462  0.062462  1
  Hf  Hf3  1  0.062462  0.062462  0.437686  1
  Hf  Hf4  1  0.437777  0.062553  0.437777  1
  Hf  Hf5  1  0.062553  0.437777  0.437777  1
  Hf  Hf6  1  0.812223  0.812223  0.187447  1
  Hf  Hf7  1  0.187538  0.812314  0.187538  1
  Hf  Hf8  1  0.812314  0.187538  0.187538  1
  Hf  Hf9  1  0.187538  0.187538  0.812314  1
  Hf  Hf10  1  0.812223  0.187447  0.812223  1
  Hf  Hf11  1  0.187447  0.812223  0.812223  1
  Zn  Zn12  1  0.828409  0.828409  0.500206  1
  Zn  Zn13  1  0.828409  0.500206  0.828409  1
  Zn  Zn14  1  0.500206  0.828409  0.828409  1
  Zn  Zn15  1  0.834404  0.834404  0.834404  1
  Zn  Zn16  1  0.421591  0.421591  0.749794  1
  Zn  Zn17  1  0.421591  0.749794  0.421591  1
  Zn  Zn18  1  0.749794  0.421591  0.421591  1
  Zn  Zn19  1  0.415596  0.415596  0.415596  1
  Cu  Cu20  1  0.625000  0.625000  0.625000  1
  Au  Au21  1  0.625000  0.625000  0.125000  1
  Au  Au22  1  0.625000  0.125000  0.625000  1
  Au  Au23  1  0.125000  0.625000  0.625000  1
  C  C24  1  0.125000  0.125000  0.625000  1
  C  C25  1  0.125000  0.625000  0.125000  1
  C  C26  1  0.625000  0.125000  0.125000  1
  C  C27  1  0.125000  0.125000  0.125000  1
