# generated using pymatgen
data_CaTm3(Ga2Ag)4
_symmetry_space_group_name_H-M   'P 1'
_cell_length_a   4.34504200
_cell_length_b   6.95014047
_cell_length_c   10.27470388
_cell_angle_alpha   90.42497382
_cell_angle_beta   90.00000000
_cell_angle_gamma   90.00000000
_symmetry_Int_Tables_number   1
_chemical_formula_structural   CaTm3(Ga2Ag)4
_chemical_formula_sum   'Ca1 Tm3 Ga8 Ag4'
_cell_volume   310.27367432
_cell_formula_units_Z   1
loop_
 _symmetry_equiv_pos_site_id
 _symmetry_equiv_pos_as_xyz
  1  'x, y, z'
loop_
 _atom_site_type_symbol
 _atom_site_label
 _atom_site_symmetry_multiplicity
 _atom_site_fract_x
 _atom_site_fract_y
 _atom_site_fract_z
 _atom_site_occupancy
  Ca  Ca0  1  0.250000  0.275287  0.672764  1
  Tm  Tm1  1  0.250000  0.778614  0.827464  1
  Tm  Tm2  1  0.750000  0.224333  0.172757  1
  Tm  Tm3  1  0.750000  0.722512  0.327883  1
  Ga  Ga4  1  0.250000  0.705927  0.535869  1
  Ga  Ga5  1  0.750000  0.297373  0.462377  1
  Ga  Ga6  1  0.750000  0.794029  0.037602  1
  Ga  Ga7  1  0.250000  0.200469  0.965593  1
  Ga  Ga8  1  0.250000  0.927746  0.155164  1
  Ga  Ga9  1  0.750000  0.069100  0.848947  1
  Ga  Ga10  1  0.750000  0.573917  0.651628  1
  Ga  Ga11  1  0.250000  0.429599  0.344309  1
  Ag  Ag12  1  0.250000  0.543376  0.097512  1
  Ag  Ag13  1  0.750000  0.457010  0.902156  1
  Ag  Ag14  1  0.750000  0.956822  0.597213  1
  Ag  Ag15  1  0.250000  0.043888  0.400760  1
