# generated using pymatgen
data_Yb4LuTa3(B6Os)4
_symmetry_space_group_name_H-M   'P 1'
_cell_length_a   3.52272300
_cell_length_b   8.95009704
_cell_length_c   11.31802190
_cell_angle_alpha   89.90521765
_cell_angle_beta   90.00000000
_cell_angle_gamma   90.00000000
_symmetry_Int_Tables_number   1
_chemical_formula_structural   Yb4LuTa3(B6Os)4
_chemical_formula_sum   'Yb4 Lu1 Ta3 B24 Os4'
_cell_volume   356.84217246
_cell_formula_units_Z   1
loop_
 _symmetry_equiv_pos_site_id
 _symmetry_equiv_pos_as_xyz
  1  'x, y, z'
loop_
 _atom_site_type_symbol
 _atom_site_label
 _atom_site_symmetry_multiplicity
 _atom_site_fract_x
 _atom_site_fract_y
 _atom_site_fract_z
 _atom_site_occupancy
  Yb  Yb0  1  0.000000  0.322846  0.414885  1
  Yb  Yb1  1  0.000000  0.676447  0.586786  1
  Yb  Yb2  1  0.000000  0.823488  0.085433  1
  Yb  Yb3  1  0.000000  0.176915  0.913440  1
  Lu  Lu4  1  0.000000  0.945548  0.373554  1
  Ta  Ta5  1  0.000000  0.053989  0.626981  1
  Ta  Ta6  1  0.000000  0.446718  0.122122  1
  Ta  Ta7  1  0.000000  0.554047  0.877090  1
  B  B8  1  0.500000  0.551631  0.432478  1
  B  B9  1  0.500000  0.445063  0.567703  1
  B  B10  1  0.500000  0.055485  0.065958  1
  B  B11  1  0.500000  0.946022  0.933375  1
  B  B12  1  0.500000  0.748811  0.416292  1
  B  B13  1  0.500000  0.245617  0.584145  1
  B  B14  1  0.500000  0.255093  0.080277  1
  B  B15  1  0.500000  0.746038  0.918262  1
  B  B16  1  0.500000  0.793932  0.262094  1
  B  B17  1  0.500000  0.203472  0.739288  1
  B  B18  1  0.500000  0.297212  0.235468  1
  B  B19  1  0.500000  0.703092  0.762652  1
  B  B20  1  0.500000  0.629756  0.180816  1
  B  B21  1  0.500000  0.369865  0.819423  1
  B  B22  1  0.500000  0.133853  0.316179  1
  B  B23  1  0.500000  0.869961  0.681824  1
  B  B24  1  0.500000  0.985775  0.211282  1
  B  B25  1  0.500000  0.017424  0.788160  1
  B  B26  1  0.500000  0.480502  0.286060  1
  B  B27  1  0.500000  0.518945  0.713026  1
  B  B28  1  0.500000  0.599900  0.025659  1
  B  B29  1  0.500000  0.401420  0.972914  1
  B  B30  1  0.500000  0.101719  0.478229  1
  B  B31  1  0.500000  0.901411  0.530716  1
  Os  Os32  1  0.000000  0.637204  0.314162  1
  Os  Os33  1  0.000000  0.357203  0.684861  1
  Os  Os34  1  0.000000  0.148181  0.178763  1
  Os  Os35  1  0.000000  0.855414  0.819645  1
