# generated using pymatgen
data_Sr3LaV2O8
_symmetry_space_group_name_H-M   'P 1'
_cell_length_a   6.90575306
_cell_length_b   6.90575068
_cell_length_c   5.54457400
_cell_angle_alpha   90.00000000
_cell_angle_beta   90.00000000
_cell_angle_gamma   132.72320521
_symmetry_Int_Tables_number   1
_chemical_formula_structural   Sr3LaV2O8
_chemical_formula_sum   'Sr3 La1 V2 O8'
_cell_volume   194.25160739
_cell_formula_units_Z   1
loop_
 _symmetry_equiv_pos_site_id
 _symmetry_equiv_pos_as_xyz
  1  'x, y, z'
loop_
 _atom_site_type_symbol
 _atom_site_label
 _atom_site_symmetry_multiplicity
 _atom_site_fract_x
 _atom_site_fract_y
 _atom_site_fract_z
 _atom_site_occupancy
  Sr  Sr0  1  0.644023  0.355977  0.000000  1
  Sr  Sr1  1  0.357182  0.642818  0.000000  1
  Sr  Sr2  1  0.855408  0.144592  0.500000  1
  La  La3  1  0.142328  0.857672  0.500000  1
  V  V4  1  0.499673  0.500327  0.500000  1
  V  V5  1  0.996696  0.003304  0.000000  1
  O  O6  1  0.845183  0.154817  0.000000  1
  O  O7  1  0.324975  0.675025  0.500000  1
  O  O8  1  0.665438  0.334562  0.500000  1
  O  O9  1  0.159421  0.840579  0.000000  1
  O  O10  1  0.756449  0.751611  0.749299  1
  O  O11  1  0.248389  0.243551  0.250701  1
  O  O12  1  0.248389  0.243551  0.749299  1
  O  O13  1  0.756449  0.751611  0.250701  1
