# generated using pymatgen
data_Tm3Lu3(CoSi3)2
_symmetry_space_group_name_H-M   'P 1'
_cell_length_a   5.53383612
_cell_length_b   5.53383605
_cell_length_c   13.22921975
_cell_angle_alpha   70.80501596
_cell_angle_beta   70.80501682
_cell_angle_gamma   43.60818116
_symmetry_Int_Tables_number   1
_chemical_formula_structural   Tm3Lu3(CoSi3)2
_chemical_formula_sum   'Tm3 Lu3 Co2 Si6'
_cell_volume   261.31621873
_cell_formula_units_Z   1
loop_
 _symmetry_equiv_pos_site_id
 _symmetry_equiv_pos_as_xyz
  1  'x, y, z'
loop_
 _atom_site_type_symbol
 _atom_site_label
 _atom_site_symmetry_multiplicity
 _atom_site_fract_x
 _atom_site_fract_y
 _atom_site_fract_z
 _atom_site_occupancy
  Tm  Tm0  1  0.747194  0.747194  0.771376  1
  Tm  Tm1  1  0.399074  0.399074  0.919513  1
  Tm  Tm2  1  0.600515  0.600515  0.081288  1
  Lu  Lu3  1  0.474635  0.474635  0.379971  1
  Lu  Lu4  1  0.253415  0.253415  0.229015  1
  Lu  Lu5  1  0.525690  0.525690  0.619666  1
  Co  Co6  1  0.751916  0.751916  0.417093  1
  Co  Co7  1  0.248235  0.248235  0.582115  1
  Si  Si8  1  0.051281  0.051281  0.757713  1
  Si  Si9  1  0.136861  0.136861  0.455553  1
  Si  Si10  1  0.863672  0.863672  0.543487  1
  Si  Si11  1  0.948412  0.948412  0.242292  1
  Si  Si12  1  0.883818  0.883818  0.076744  1
  Si  Si13  1  0.115282  0.115282  0.924172  1
