# generated using pymatgen
data_Tm2Lu3CoRu
_symmetry_space_group_name_H-M   'P 1'
_cell_length_a   6.18650709
_cell_length_b   7.08744513
_cell_length_c   8.32231374
_cell_angle_alpha   96.81240722
_cell_angle_beta   112.43358722
_cell_angle_gamma   89.61682381
_symmetry_Int_Tables_number   1
_chemical_formula_structural   Tm2Lu3CoRu
_chemical_formula_sum   'Tm4 Lu6 Co2 Ru2'
_cell_volume   334.61218756
_cell_formula_units_Z   2
loop_
 _symmetry_equiv_pos_site_id
 _symmetry_equiv_pos_as_xyz
  1  'x, y, z'
loop_
 _atom_site_type_symbol
 _atom_site_label
 _atom_site_symmetry_multiplicity
 _atom_site_fract_x
 _atom_site_fract_y
 _atom_site_fract_z
 _atom_site_occupancy
  Tm  Tm0  1  0.525869  0.088356  0.815361  1
  Tm  Tm1  1  0.474131  0.911644  0.184639  1
  Tm  Tm2  1  0.700308  0.417856  0.188800  1
  Tm  Tm3  1  0.299692  0.582144  0.811200  1
  Lu  Lu4  1  0.289481  0.320344  0.433066  1
  Lu  Lu5  1  0.710519  0.679656  0.566934  1
  Lu  Lu6  1  0.856463  0.186452  0.564511  1
  Lu  Lu7  1  0.143537  0.813548  0.435489  1
  Lu  Lu8  1  0.078531  0.258830  0.000253  1
  Lu  Lu9  1  0.921469  0.741170  0.999747  1
  Co  Co10  1  0.325758  0.577484  0.226519  1
  Co  Co11  1  0.674242  0.422516  0.773481  1
  Ru  Ru12  1  0.104013  0.925142  0.783765  1
  Ru  Ru13  1  0.895987  0.074858  0.216235  1
