# generated using pymatgen
data_Ca6Fe6Sb3RhO24
_symmetry_space_group_name_H-M   'P 1'
_cell_length_a   11.05249998
_cell_length_b   11.03876885
_cell_length_c   11.03876822
_cell_angle_alpha   109.41821258
_cell_angle_beta   109.48097078
_cell_angle_gamma   109.46409524
_symmetry_Int_Tables_number   1
_chemical_formula_structural   Ca6Fe6Sb3RhO24
_chemical_formula_sum   'Ca12 Fe12 Sb6 Rh2 O48'
_cell_volume   1037.40785280
_cell_formula_units_Z   2
loop_
 _symmetry_equiv_pos_site_id
 _symmetry_equiv_pos_as_xyz
  1  'x, y, z'
loop_
 _atom_site_type_symbol
 _atom_site_label
 _atom_site_symmetry_multiplicity
 _atom_site_fract_x
 _atom_site_fract_y
 _atom_site_fract_z
 _atom_site_occupancy
  Ca  Ca0  1  0.250000  0.374544  0.124544  1
  Ca  Ca1  1  0.750000  0.625456  0.875456  1
  Ca  Ca2  1  0.750000  0.120221  0.370221  1
  Ca  Ca3  1  0.116948  0.237137  0.374427  1
  Ca  Ca4  1  0.383052  0.757480  0.120189  1
  Ca  Ca5  1  0.250000  0.879779  0.629779  1
  Ca  Ca6  1  0.883052  0.762863  0.625573  1
  Ca  Ca7  1  0.616948  0.242520  0.879811  1
  Ca  Ca8  1  0.374623  0.118153  0.238282  1
  Ca  Ca9  1  0.625377  0.881847  0.761718  1
  Ca  Ca10  1  0.125377  0.363659  0.743530  1
  Ca  Ca11  1  0.874623  0.636341  0.256470  1
  Fe  Fe12  1  0.250000  0.626202  0.376202  1
  Fe  Fe13  1  0.750000  0.373798  0.623798  1
  Fe  Fe14  1  0.750000  0.878036  0.128036  1
  Fe  Fe15  1  0.372472  0.249212  0.624627  1
  Fe  Fe16  1  0.627528  0.750788  0.375373  1
  Fe  Fe17  1  0.250000  0.121964  0.871964  1
  Fe  Fe18  1  0.127528  0.752155  0.876740  1
  Fe  Fe19  1  0.872472  0.247845  0.123260  1
  Fe  Fe20  1  0.625294  0.371506  0.248926  1
  Fe  Fe21  1  0.374706  0.628494  0.751074  1
  Fe  Fe22  1  0.874706  0.123632  0.746212  1
  Fe  Fe23  1  0.125294  0.876368  0.253788  1
  Sb  Sb24  1  0.000000  0.000000  0.000000  1
  Sb  Sb25  1  0.500000  0.000000  0.500000  1
  Sb  Sb26  1  0.000000  0.500000  0.500000  1
  Sb  Sb27  1  0.500000  0.500000  0.000000  1
  Sb  Sb28  1  0.500000  0.500000  0.500000  1
  Sb  Sb29  1  0.000000  0.500000  0.000000  1
  Rh  Rh30  1  0.500000  0.000000  0.000000  1
  Rh  Rh31  1  0.000000  0.000000  0.500000  1
  O  O32  1  0.478015  0.381243  0.302448  1
  O  O33  1  0.521985  0.618757  0.697552  1
  O  O34  1  0.582943  0.179659  0.203278  1
  O  O35  1  0.917057  0.120336  0.596716  1
  O  O36  1  0.303941  0.480953  0.381079  1
  O  O37  1  0.325402  0.923593  0.303714  1
  O  O38  1  0.417057  0.820341  0.796722  1
  O  O39  1  0.082943  0.879664  0.403284  1
  O  O40  1  0.696059  0.519047  0.618921  1
  O  O41  1  0.674598  0.076407  0.696286  1
  O  O42  1  0.021985  0.324432  0.903226  1
  O  O43  1  0.196059  0.577138  0.177014  1
  O  O44  1  0.120277  0.020993  0.196316  1
  O  O45  1  0.978015  0.675568  0.096774  1
  O  O46  1  0.803941  0.422862  0.822986  1
  O  O47  1  0.879723  0.979007  0.803684  1
  O  O48  1  0.595859  0.916444  0.121517  1
  O  O49  1  0.174598  0.478311  0.598191  1
  O  O50  1  0.404141  0.083556  0.878483  1
  O  O51  1  0.825402  0.521689  0.401809  1
  O  O52  1  0.904141  0.025659  0.320584  1
  O  O53  1  0.379723  0.576039  0.900716  1
  O  O54  1  0.095859  0.974341  0.679416  1
  O  O55  1  0.620277  0.423961  0.099284  1
  O  O56  1  0.380204  0.303500  0.478072  1
  O  O57  1  0.576414  0.901312  0.380632  1
  O  O58  1  0.619796  0.696500  0.521928  1
  O  O59  1  0.423586  0.098688  0.619368  1
  O  O60  1  0.119796  0.597868  0.923295  1
  O  O61  1  0.021760  0.196849  0.120339  1
  O  O62  1  0.880204  0.402132  0.076705  1
  O  O63  1  0.978240  0.803151  0.879661  1
  O  O64  1  0.319405  0.903193  0.022601  1
  O  O65  1  0.923586  0.304218  0.324899  1
  O  O66  1  0.680595  0.096807  0.977399  1
  O  O67  1  0.076414  0.695782  0.675101  1
  O  O68  1  0.180595  0.203195  0.583788  1
  O  O69  1  0.478240  0.598580  0.175091  1
  O  O70  1  0.819405  0.796805  0.416212  1
  O  O71  1  0.521760  0.401420  0.824909  1
  O  O72  1  0.303717  0.325401  0.924091  1
  O  O73  1  0.696283  0.674599  0.075909  1
  O  O74  1  0.196283  0.120375  0.021686  1
  O  O75  1  0.803717  0.879625  0.978314  1
  O  O76  1  0.901255  0.380376  0.576867  1
  O  O77  1  0.098745  0.619624  0.423133  1
  O  O78  1  0.598745  0.175612  0.479120  1
  O  O79  1  0.401255  0.824388  0.520880  1
