# generated using pymatgen
data_TmLuNbB2Ru5
_symmetry_space_group_name_H-M   'P 1'
_cell_length_a   9.62679117
_cell_length_b   9.62679117
_cell_length_c   3.11270100
_cell_angle_alpha   90.00000000
_cell_angle_beta   90.00000000
_cell_angle_gamma   90.07700311
_symmetry_Int_Tables_number   1
_chemical_formula_structural   TmLuNbB2Ru5
_chemical_formula_sum   'Tm2 Lu2 Nb2 B4 Ru10'
_cell_volume   288.46964176
_cell_formula_units_Z   2
loop_
 _symmetry_equiv_pos_site_id
 _symmetry_equiv_pos_as_xyz
  1  'x, y, z'
loop_
 _atom_site_type_symbol
 _atom_site_label
 _atom_site_symmetry_multiplicity
 _atom_site_fract_x
 _atom_site_fract_y
 _atom_site_fract_z
 _atom_site_occupancy
  Tm  Tm0  1  0.825294  0.674706  0.000000  1
  Tm  Tm1  1  0.174706  0.325294  0.000000  1
  Lu  Lu2  1  0.325217  0.825217  0.000000  1
  Lu  Lu3  1  0.674783  0.174783  0.000000  1
  Nb  Nb4  1  0.500000  0.500000  0.000000  1
  Nb  Nb5  1  0.000000  0.000000  0.000000  1
  B  B6  1  0.620105  0.879895  0.000000  1
  B  B7  1  0.379895  0.120105  0.000000  1
  B  B8  1  0.120344  0.620344  0.000000  1
  B  B9  1  0.879656  0.379656  0.000000  1
  Ru  Ru10  1  0.570842  0.718383  0.500000  1
  Ru  Ru11  1  0.429158  0.281617  0.500000  1
  Ru  Ru12  1  0.071785  0.782001  0.500000  1
  Ru  Ru13  1  0.928215  0.217999  0.500000  1
  Ru  Ru14  1  0.282001  0.571785  0.500000  1
  Ru  Ru15  1  0.717999  0.428215  0.500000  1
  Ru  Ru16  1  0.218383  0.070842  0.500000  1
  Ru  Ru17  1  0.781617  0.929158  0.500000  1
  Ru  Ru18  1  0.500000  0.000000  0.500000  1
  Ru  Ru19  1  0.000000  0.500000  0.500000  1
