# generated using pymatgen
data_Ho8Ti9Si16Tc3
_symmetry_space_group_name_H-M   'P 1'
_cell_length_a   6.96687562
_cell_length_b   6.96687562
_cell_length_c   12.78988744
_cell_angle_alpha   90.09305852
_cell_angle_beta   89.90694148
_cell_angle_gamma   90.03525300
_symmetry_Int_Tables_number   1
_chemical_formula_structural   Ho8Ti9Si16Tc3
_chemical_formula_sum   'Ho8 Ti9 Si16 Tc3'
_cell_volume   620.78556516
_cell_formula_units_Z   1
loop_
 _symmetry_equiv_pos_site_id
 _symmetry_equiv_pos_as_xyz
  1  'x, y, z'
loop_
 _atom_site_type_symbol
 _atom_site_label
 _atom_site_symmetry_multiplicity
 _atom_site_fract_x
 _atom_site_fract_y
 _atom_site_fract_z
 _atom_site_occupancy
  Ho  Ho0  1  0.340452  0.001431  0.467468  1
  Ho  Ho1  1  0.498916  0.841430  0.719442  1
  Ho  Ho2  1  0.500337  0.158984  0.217845  1
  Ho  Ho3  1  0.841430  0.498916  0.280558  1
  Ho  Ho4  1  0.158984  0.500337  0.782155  1
  Ho  Ho5  1  0.658999  0.999474  0.968589  1
  Ho  Ho6  1  0.001431  0.340452  0.532532  1
  Ho  Ho7  1  0.999474  0.658999  0.031411  1
  Ti  Ti8  1  0.674025  0.674025  0.500000  1
  Ti  Ti9  1  0.151699  0.005778  0.877209  1
  Ti  Ti10  1  0.494137  0.653252  0.124370  1
  Ti  Ti11  1  0.505405  0.348037  0.627435  1
  Ti  Ti12  1  0.653252  0.494137  0.875630  1
  Ti  Ti13  1  0.348037  0.505405  0.372565  1
  Ti  Ti14  1  0.847658  0.991966  0.375972  1
  Ti  Ti15  1  0.005778  0.151699  0.122791  1
  Ti  Ti16  1  0.991966  0.847658  0.624028  1
  Si  Si17  1  0.200451  0.129472  0.683730  1
  Si  Si18  1  0.370162  0.700623  0.932955  1
  Si  Si19  1  0.631302  0.296981  0.434068  1
  Si  Si20  1  0.700623  0.370162  0.067045  1
  Si  Si21  1  0.296981  0.631302  0.565932  1
  Si  Si22  1  0.798839  0.869932  0.183513  1
  Si  Si23  1  0.129472  0.200451  0.316270  1
  Si  Si24  1  0.869932  0.798839  0.816487  1
  Si  Si25  1  0.290823  0.951925  0.066673  1
  Si  Si26  1  0.547309  0.790499  0.315744  1
  Si  Si27  1  0.452138  0.210185  0.816715  1
  Si  Si28  1  0.790499  0.547309  0.684256  1
  Si  Si29  1  0.210185  0.452138  0.183285  1
  Si  Si30  1  0.708058  0.049210  0.567493  1
  Si  Si31  1  0.951925  0.290823  0.933327  1
  Si  Si32  1  0.049210  0.708058  0.432507  1
  Tc  Tc33  1  0.327773  0.327773  0.000000  1
  Tc  Tc34  1  0.174015  0.828322  0.248953  1
  Tc  Tc35  1  0.828322  0.174015  0.751047  1
