# generated using pymatgen
data_LiPr3ZnIn3Rh
_symmetry_space_group_name_H-M   'P 1'
_cell_length_a   7.89465300
_cell_length_b   7.89465357
_cell_length_c   4.03208300
_cell_angle_alpha   90.00000000
_cell_angle_beta   90.00000000
_cell_angle_gamma   119.99999342
_symmetry_Int_Tables_number   1
_chemical_formula_structural   LiPr3ZnIn3Rh
_chemical_formula_sum   'Li1 Pr3 Zn1 In3 Rh1'
_cell_volume   217.63375087
_cell_formula_units_Z   1
loop_
 _symmetry_equiv_pos_site_id
 _symmetry_equiv_pos_as_xyz
  1  'x, y, z'
loop_
 _atom_site_type_symbol
 _atom_site_label
 _atom_site_symmetry_multiplicity
 _atom_site_fract_x
 _atom_site_fract_y
 _atom_site_fract_z
 _atom_site_occupancy
  Li  Li0  1  0.000000  0.000000  0.500000  1
  Pr  Pr1  1  0.979533  0.575041  0.500000  1
  Pr  Pr2  1  0.424959  0.404493  0.500000  1
  Pr  Pr3  1  0.595507  0.020467  0.500000  1
  Zn  Zn4  1  0.333333  0.666667  0.000000  1
  In  In5  1  0.747068  0.748397  0.000000  1
  In  In6  1  0.001328  0.252932  0.000000  1
  In  In7  1  0.251603  0.998672  0.000000  1
  Rh  Rh8  1  0.666667  0.333333  0.000000  1
