# generated using pymatgen
data_Y17Ho3(Ir2Ru)4
_symmetry_space_group_name_H-M   'P 1'
_cell_length_a   10.88684700
_cell_length_b   10.88684700
_cell_length_c   6.45395800
_cell_angle_alpha   90.00000000
_cell_angle_beta   90.00000000
_cell_angle_gamma   90.00000000
_symmetry_Int_Tables_number   1
_chemical_formula_structural   Y17Ho3(Ir2Ru)4
_chemical_formula_sum   'Y17 Ho3 Ir8 Ru4'
_cell_volume   764.94528830
_cell_formula_units_Z   1
loop_
 _symmetry_equiv_pos_site_id
 _symmetry_equiv_pos_as_xyz
  1  'x, y, z'
loop_
 _atom_site_type_symbol
 _atom_site_label
 _atom_site_symmetry_multiplicity
 _atom_site_fract_x
 _atom_site_fract_y
 _atom_site_fract_z
 _atom_site_occupancy
  Y  Y0  1  0.293361  0.086803  0.378362  1
  Y  Y1  1  0.293395  0.913327  0.878317  1
  Y  Y2  1  0.706605  0.086673  0.878317  1
  Y  Y3  1  0.706639  0.913197  0.378362  1
  Y  Y4  1  0.586723  0.793448  0.878294  1
  Y  Y5  1  0.586895  0.206418  0.378376  1
  Y  Y6  1  0.413105  0.793582  0.378376  1
  Y  Y7  1  0.413277  0.206552  0.878294  1
  Y  Y8  1  0.206418  0.413105  0.621624  1
  Y  Y9  1  0.206552  0.586723  0.121706  1
  Y  Y10  1  0.793448  0.413277  0.121706  1
  Y  Y11  1  0.793582  0.586895  0.621624  1
  Y  Y12  1  0.913327  0.706605  0.121683  1
  Y  Y13  1  0.913197  0.293361  0.621638  1
  Y  Y14  1  0.086803  0.706639  0.621638  1
  Y  Y15  1  0.086673  0.293395  0.121683  1
  Y  Y16  1  0.500000  0.500000  0.500000  1
  Ho  Ho17  1  0.000000  0.000000  0.500000  1
  Ho  Ho18  1  0.000000  0.000000  0.000000  1
  Ho  Ho19  1  0.500000  0.500000  0.000000  1
  Ir  Ir20  1  0.848605  0.151394  0.249863  1
  Ir  Ir21  1  0.848606  0.848605  0.750137  1
  Ir  Ir22  1  0.151394  0.151395  0.750137  1
  Ir  Ir23  1  0.151395  0.848606  0.249863  1
  Ir  Ir24  1  0.652054  0.347908  0.751290  1
  Ir  Ir25  1  0.652092  0.652054  0.248710  1
  Ir  Ir26  1  0.347908  0.347946  0.248710  1
  Ir  Ir27  1  0.347946  0.652092  0.751290  1
  Ru  Ru28  1  0.500000  0.000000  0.123771  1
  Ru  Ru29  1  0.500000  0.000000  0.623858  1
  Ru  Ru30  1  0.000000  0.500000  0.876229  1
  Ru  Ru31  1  0.000000  0.500000  0.376142  1
