# generated using pymatgen
data_Lu2AlGa2Ru
_symmetry_space_group_name_H-M   'P 1'
_cell_length_a   5.40183897
_cell_length_b   5.35967509
_cell_length_c   8.70077000
_cell_angle_alpha   90.00000000
_cell_angle_beta   90.00000000
_cell_angle_gamma   119.74214069
_symmetry_Int_Tables_number   1
_chemical_formula_structural   Lu2AlGa2Ru
_chemical_formula_sum   'Lu4 Al2 Ga4 Ru2'
_cell_volume   218.72126895
_cell_formula_units_Z   2
loop_
 _symmetry_equiv_pos_site_id
 _symmetry_equiv_pos_as_xyz
  1  'x, y, z'
loop_
 _atom_site_type_symbol
 _atom_site_label
 _atom_site_symmetry_multiplicity
 _atom_site_fract_x
 _atom_site_fract_y
 _atom_site_fract_z
 _atom_site_occupancy
  Lu  Lu0  1  0.332720  0.667782  0.053910  1
  Lu  Lu1  1  0.667280  0.335060  0.553910  1
  Lu  Lu2  1  0.332720  0.667782  0.446090  1
  Lu  Lu3  1  0.667280  0.335060  0.946090  1
  Al  Al4  1  0.838178  0.161236  0.250000  1
  Al  Al5  1  0.161822  0.323059  0.750000  1
  Ga  Ga6  1  0.837504  0.666575  0.250000  1
  Ga  Ga7  1  0.162496  0.829071  0.750000  1
  Ga  Ga8  1  0.665143  0.827504  0.750000  1
  Ga  Ga9  1  0.334857  0.162360  0.250000  1
  Ru  Ru10  1  0.000000  0.012256  0.500000  1
  Ru  Ru11  1  0.000000  0.012256  0.000000  1
