# generated using pymatgen
data_Dy2Th(AlCo)3
_symmetry_space_group_name_H-M   'P 1'
_cell_length_a   6.98271131
_cell_length_b   6.98271084
_cell_length_c   3.83795600
_cell_angle_alpha   90.00000000
_cell_angle_beta   90.00000000
_cell_angle_gamma   118.60512463
_symmetry_Int_Tables_number   1
_chemical_formula_structural   Dy2Th(AlCo)3
_chemical_formula_sum   'Dy2 Th1 Al3 Co3'
_cell_volume   164.29072665
_cell_formula_units_Z   1
loop_
 _symmetry_equiv_pos_site_id
 _symmetry_equiv_pos_as_xyz
  1  'x, y, z'
loop_
 _atom_site_type_symbol
 _atom_site_label
 _atom_site_symmetry_multiplicity
 _atom_site_fract_x
 _atom_site_fract_y
 _atom_site_fract_z
 _atom_site_occupancy
  Dy  Dy0  1  0.581496  0.996828  0.000000  1
  Dy  Dy1  1  0.996828  0.581496  0.000000  1
  Th  Th2  1  0.427575  0.427575  0.000000  1
  Al  Al3  1  0.236166  0.994833  0.500000  1
  Al  Al4  1  0.994833  0.236166  0.500000  1
  Al  Al5  1  0.779547  0.779547  0.500000  1
  Co  Co6  1  0.332292  0.645628  0.500000  1
  Co  Co7  1  0.645628  0.332292  0.500000  1
  Co  Co8  1  0.005634  0.005634  0.000000  1
