# generated using pymatgen
data_Tb6Er2In2IrRh
_symmetry_space_group_name_H-M   'P 1'
_cell_length_a   9.69416708
_cell_length_b   9.70032603
_cell_length_c   9.68301151
_cell_angle_alpha   59.97571077
_cell_angle_beta   59.87173303
_cell_angle_gamma   59.88202811
_symmetry_Int_Tables_number   1
_chemical_formula_structural   Tb6Er2In2IrRh
_chemical_formula_sum   'Tb12 Er4 In4 Ir2 Rh2'
_cell_volume   642.54282191
_cell_formula_units_Z   2
loop_
 _symmetry_equiv_pos_site_id
 _symmetry_equiv_pos_as_xyz
  1  'x, y, z'
loop_
 _atom_site_type_symbol
 _atom_site_label
 _atom_site_symmetry_multiplicity
 _atom_site_fract_x
 _atom_site_fract_y
 _atom_site_fract_z
 _atom_site_occupancy
  Tb  Tb0  1  0.060204  0.061186  0.439914  1
  Tb  Tb1  1  0.440014  0.437066  0.060713  1
  Tb  Tb2  1  0.652112  0.650644  0.651382  1
  Tb  Tb3  1  0.811644  0.189593  0.188938  1
  Tb  Tb4  1  0.189314  0.811117  0.810828  1
  Tb  Tb5  1  0.048865  0.649273  0.649825  1
  Tb  Tb6  1  0.440125  0.060753  0.060016  1
  Tb  Tb7  1  0.437621  0.061938  0.437749  1
  Tb  Tb8  1  0.059824  0.439004  0.059907  1
  Tb  Tb9  1  0.649811  0.649695  0.048867  1
  Tb  Tb10  1  0.189187  0.811774  0.189071  1
  Tb  Tb11  1  0.060441  0.437016  0.440208  1
  Er  Er12  1  0.810450  0.810747  0.189441  1
  Er  Er13  1  0.810429  0.190184  0.810497  1
  Er  Er14  1  0.189207  0.190197  0.811274  1
  Er  Er15  1  0.649748  0.047838  0.650460  1
  In  In16  1  0.417557  0.416165  0.417894  1
  In  In17  1  0.417891  0.416764  0.748012  1
  In  In18  1  0.417899  0.747959  0.417762  1
  In  In19  1  0.748257  0.416950  0.418104  1
  Ir  Ir20  1  0.859584  0.424076  0.857373  1
  Ir  Ir21  1  0.856777  0.860561  0.858680  1
  Rh  Rh22  1  0.857659  0.858772  0.425520  1
  Rh  Rh23  1  0.425378  0.860732  0.857562  1
