# generated using pymatgen
data_La3Dy7Y6(CdNi)4
_symmetry_space_group_name_H-M   'P 1'
_cell_length_a   9.65113640
_cell_length_b   9.64819845
_cell_length_c   9.64242828
_cell_angle_alpha   59.98202072
_cell_angle_beta   60.02068797
_cell_angle_gamma   59.99813917
_symmetry_Int_Tables_number   1
_chemical_formula_structural   La3Dy7Y6(CdNi)4
_chemical_formula_sum   'La3 Dy7 Y6 Cd4 Ni4'
_cell_volume   634.89043465
_cell_formula_units_Z   1
loop_
 _symmetry_equiv_pos_site_id
 _symmetry_equiv_pos_as_xyz
  1  'x, y, z'
loop_
 _atom_site_type_symbol
 _atom_site_label
 _atom_site_symmetry_multiplicity
 _atom_site_fract_x
 _atom_site_fract_y
 _atom_site_fract_z
 _atom_site_occupancy
  La  La0  1  0.595870  0.600460  0.599688  1
  La  La1  1  0.596908  0.601111  0.200896  1
  La  La2  1  0.595863  0.204021  0.599711  1
  Dy  Dy3  1  0.194955  0.601074  0.602936  1
  Dy  Dy4  1  0.064238  0.437152  0.437331  1
  Dy  Dy5  1  0.437573  0.063058  0.064621  1
  Dy  Dy6  1  0.437859  0.062881  0.436332  1
  Dy  Dy7  1  0.065000  0.436182  0.062574  1
  Dy  Dy8  1  0.437567  0.434695  0.064605  1
  Dy  Dy9  1  0.064220  0.061281  0.437307  1
  Y  Y10  1  0.187090  0.814860  0.814824  1
  Y  Y11  1  0.815456  0.184011  0.185131  1
  Y  Y12  1  0.815869  0.184258  0.815570  1
  Y  Y13  1  0.186412  0.814095  0.185371  1
  Y  Y14  1  0.815529  0.815412  0.185088  1
  Y  Y15  1  0.187067  0.183195  0.814836  1
  Cd  Cd16  1  0.836167  0.830382  0.828862  1
  Cd  Cd17  1  0.835811  0.830557  0.503030  1
  Cd  Cd18  1  0.836116  0.504659  0.828787  1
  Cd  Cd19  1  0.504369  0.832292  0.830989  1
  Ni  Ni20  1  0.387708  0.394260  0.392386  1
  Ni  Ni21  1  0.386977  0.393244  0.826656  1
  Ni  Ni22  1  0.387536  0.825775  0.392478  1
  Ni  Ni23  1  0.827841  0.391086  0.389993  1
