# generated using pymatgen
data_Dy11Ho2Tm7(CoBi2)4
_symmetry_space_group_name_H-M   'P 1'
_cell_length_a   7.96018931
_cell_length_b   8.90015447
_cell_length_c   12.41543111
_cell_angle_alpha   89.97300475
_cell_angle_beta   90.00948900
_cell_angle_gamma   90.02679472
_symmetry_Int_Tables_number   1
_chemical_formula_structural   Dy11Ho2Tm7(CoBi2)4
_chemical_formula_sum   'Dy11 Ho2 Tm7 Co4 Bi8'
_cell_volume   879.59478004
_cell_formula_units_Z   1
loop_
 _symmetry_equiv_pos_site_id
 _symmetry_equiv_pos_as_xyz
  1  'x, y, z'
loop_
 _atom_site_type_symbol
 _atom_site_label
 _atom_site_symmetry_multiplicity
 _atom_site_fract_x
 _atom_site_fract_y
 _atom_site_fract_z
 _atom_site_occupancy
  Dy  Dy0  1  0.348039  0.749971  0.699433  1
  Dy  Dy1  1  0.652037  0.249992  0.300345  1
  Dy  Dy2  1  0.847396  0.250303  0.800608  1
  Dy  Dy3  1  0.152232  0.749857  0.199486  1
  Dy  Dy4  1  0.883889  0.749572  0.811846  1
  Dy  Dy5  1  0.114923  0.250633  0.188213  1
  Dy  Dy6  1  0.384577  0.249834  0.687843  1
  Dy  Dy7  1  0.615478  0.750060  0.312077  1
  Dy  Dy8  1  0.176024  0.037555  0.937225  1
  Dy  Dy9  1  0.053686  0.749973  0.497648  1
  Dy  Dy10  1  0.946238  0.250083  0.502286  1
  Ho  Ho11  1  0.554609  0.250368  0.002359  1
  Ho  Ho12  1  0.447420  0.749464  0.997751  1
  Tm  Tm13  1  0.673179  0.537921  0.562601  1
  Tm  Tm14  1  0.326742  0.462053  0.437313  1
  Tm  Tm15  1  0.173396  0.462144  0.937497  1
  Tm  Tm16  1  0.326719  0.037980  0.437370  1
  Tm  Tm17  1  0.826557  0.538286  0.062816  1
  Tm  Tm18  1  0.673262  0.962136  0.562577  1
  Tm  Tm19  1  0.826111  0.962008  0.062816  1
  Co  Co20  1  0.064233  0.749357  0.992450  1
  Co  Co21  1  0.933320  0.250788  0.008096  1
  Co  Co22  1  0.564577  0.250016  0.507477  1
  Co  Co23  1  0.435511  0.750004  0.492427  1
  Bi  Bi24  1  0.570331  0.509035  0.827098  1
  Bi  Bi25  1  0.429347  0.490914  0.172818  1
  Bi  Bi26  1  0.070691  0.490926  0.673247  1
  Bi  Bi27  1  0.429089  0.009066  0.172695  1
  Bi  Bi28  1  0.929091  0.509188  0.326948  1
  Bi  Bi29  1  0.571638  0.990666  0.826893  1
  Bi  Bi30  1  0.929254  0.990868  0.326800  1
  Bi  Bi31  1  0.070405  0.008981  0.672943  1
