# generated using pymatgen
data_Y2Tm4Bi2Ru
_symmetry_space_group_name_H-M   'P 1'
_cell_length_a   8.29445078
_cell_length_b   8.25791373
_cell_length_c   4.19784300
_cell_angle_alpha   90.00000000
_cell_angle_beta   90.00000000
_cell_angle_gamma   119.85439298
_symmetry_Int_Tables_number   1
_chemical_formula_structural   Y2Tm4Bi2Ru
_chemical_formula_sum   'Y2 Tm4 Bi2 Ru1'
_cell_volume   249.37340943
_cell_formula_units_Z   1
loop_
 _symmetry_equiv_pos_site_id
 _symmetry_equiv_pos_as_xyz
  1  'x, y, z'
loop_
 _atom_site_type_symbol
 _atom_site_label
 _atom_site_symmetry_multiplicity
 _atom_site_fract_x
 _atom_site_fract_y
 _atom_site_fract_z
 _atom_site_occupancy
  Y  Y0  1  0.610367  0.000179  0.500001  1
  Y  Y1  1  0.389633  0.389811  0.500001  1
  Tm  Tm2  1  0.231318  0.998825  0.000000  1
  Tm  Tm3  1  0.000000  0.231755  0.000000  1
  Tm  Tm4  1  0.768682  0.767507  0.000000  1
  Tm  Tm5  1  0.000000  0.614242  0.500001  1
  Bi  Bi6  1  0.667789  0.334725  0.000000  1
  Bi  Bi7  1  0.332211  0.666935  0.000000  1
  Ru  Ru8  1  0.000000  0.996022  0.500001  1
