# generated using pymatgen
data_Li2TbSi(PPd4)5
_symmetry_space_group_name_H-M   'P 1'
_cell_length_a   8.60778793
_cell_length_b   8.60488279
_cell_length_c   8.60488132
_cell_angle_alpha   60.01333104
_cell_angle_beta   59.98882735
_cell_angle_gamma   59.98882953
_symmetry_Int_Tables_number   1
_chemical_formula_structural   Li2TbSi(PPd4)5
_chemical_formula_sum   'Li2 Tb1 Si1 P5 Pd20'
_cell_volume   450.64729758
_cell_formula_units_Z   1
loop_
 _symmetry_equiv_pos_site_id
 _symmetry_equiv_pos_as_xyz
  1  'x, y, z'
loop_
 _atom_site_type_symbol
 _atom_site_label
 _atom_site_symmetry_multiplicity
 _atom_site_fract_x
 _atom_site_fract_y
 _atom_site_fract_z
 _atom_site_occupancy
  Li  Li0  1  0.250138  0.249862  0.249862  1
  Li  Li1  1  0.999751  0.000249  0.000249  1
  Tb  Tb2  1  0.750316  0.749684  0.749684  1
  Si  Si3  1  0.736543  0.263457  0.263457  1
  P  P4  1  0.262106  0.737894  0.737894  1
  P  P5  1  0.263121  0.736717  0.262030  1
  P  P6  1  0.738132  0.262030  0.736717  1
  P  P7  1  0.263121  0.262030  0.736717  1
  P  P8  1  0.738132  0.736717  0.262030  1
  Pd  Pd9  1  0.380719  0.381930  0.381930  1
  Pd  Pd10  1  0.613604  0.613710  0.613710  1
  Pd  Pd11  1  0.381857  0.381840  0.854448  1
  Pd  Pd12  1  0.381857  0.854448  0.381840  1
  Pd  Pd13  1  0.613307  0.615395  0.157991  1
  Pd  Pd14  1  0.613307  0.157991  0.615395  1
  Pd  Pd15  1  0.855422  0.381930  0.381930  1
  Pd  Pd16  1  0.158976  0.613710  0.613710  1
  Pd  Pd17  1  0.344398  0.999109  0.999109  1
  Pd  Pd18  1  0.657384  0.999109  0.999109  1
  Pd  Pd19  1  0.998125  0.345458  0.658292  1
  Pd  Pd20  1  0.998125  0.658292  0.345458  1
  Pd  Pd21  1  0.000137  0.346081  0.996909  1
  Pd  Pd22  1  0.656873  0.996909  0.346081  1
  Pd  Pd23  1  0.998323  0.657757  0.998472  1
  Pd  Pd24  1  0.345448  0.998472  0.657757  1
  Pd  Pd25  1  0.000137  0.996909  0.346081  1
  Pd  Pd26  1  0.998323  0.998472  0.657757  1
  Pd  Pd27  1  0.656873  0.346081  0.996909  1
  Pd  Pd28  1  0.345448  0.657757  0.998472  1
