# generated using pymatgen
data_La9NdRu4
_symmetry_space_group_name_H-M   'P 1'
_cell_length_a   9.13408404
_cell_length_b   9.13408387
_cell_length_c   7.36875072
_cell_angle_alpha   85.70178357
_cell_angle_beta   85.70178460
_cell_angle_gamma   43.12000430
_symmetry_Int_Tables_number   1
_chemical_formula_structural   La9NdRu4
_chemical_formula_sum   'La9 Nd1 Ru4'
_cell_volume   418.85703811
_cell_formula_units_Z   1
loop_
 _symmetry_equiv_pos_site_id
 _symmetry_equiv_pos_as_xyz
  1  'x, y, z'
loop_
 _atom_site_type_symbol
 _atom_site_label
 _atom_site_symmetry_multiplicity
 _atom_site_fract_x
 _atom_site_fract_y
 _atom_site_fract_z
 _atom_site_occupancy
  La  La0  1  0.017006  0.798885  0.906773  1
  La  La1  1  0.201115  0.982994  0.593227  1
  La  La2  1  0.986039  0.197724  0.096970  1
  La  La3  1  0.802276  0.013961  0.403030  1
  La  La4  1  0.362959  0.209108  0.819222  1
  La  La5  1  0.790892  0.637041  0.680778  1
  La  La6  1  0.636444  0.789529  0.179948  1
  La  La7  1  0.210471  0.363556  0.320052  1
  La  La8  1  0.574635  0.425365  0.750000  1
  Nd  Nd9  1  0.424454  0.575546  0.250000  1
  Ru  Ru10  1  0.168325  0.606284  0.584015  1
  Ru  Ru11  1  0.393716  0.831675  0.915985  1
  Ru  Ru12  1  0.828946  0.397277  0.417448  1
  Ru  Ru13  1  0.602723  0.171054  0.082552  1
