# generated using pymatgen
data_Nd3TaIn2Ir3
_symmetry_space_group_name_H-M   'P 1'
_cell_length_a   7.46542027
_cell_length_b   7.25993610
_cell_length_c   4.32075300
_cell_angle_alpha   90.00000000
_cell_angle_beta   90.00000000
_cell_angle_gamma   119.11428905
_symmetry_Int_Tables_number   1
_chemical_formula_structural   Nd3TaIn2Ir3
_chemical_formula_sum   'Nd3 Ta1 In2 Ir3'
_cell_volume   204.59001410
_cell_formula_units_Z   1
loop_
 _symmetry_equiv_pos_site_id
 _symmetry_equiv_pos_as_xyz
  1  'x, y, z'
loop_
 _atom_site_type_symbol
 _atom_site_label
 _atom_site_symmetry_multiplicity
 _atom_site_fract_x
 _atom_site_fract_y
 _atom_site_fract_z
 _atom_site_occupancy
  Nd  Nd0  1  0.416821  0.415505  0.000000  1
  Nd  Nd1  1  0.583070  0.998565  0.000000  1
  Nd  Nd2  1  0.999980  0.596776  0.000000  1
  Ta  Ta3  1  0.000039  0.243234  0.500000  1
  In  In4  1  0.754321  0.753794  0.500000  1
  In  In5  1  0.245659  0.999677  0.500000  1
  Ir  Ir6  1  0.999998  0.043065  0.000000  1
  Ir  Ir7  1  0.305403  0.627440  0.500000  1
  Ir  Ir8  1  0.694709  0.321944  0.500000  1
