# generated using pymatgen
data_Ga(SnPt)2
_symmetry_space_group_name_H-M   'P 1'
_cell_length_a   4.25435400
_cell_length_b   4.25370098
_cell_length_c   13.22210700
_cell_angle_alpha   90.00000000
_cell_angle_beta   90.00000000
_cell_angle_gamma   120.00509403
_symmetry_Int_Tables_number   1
_chemical_formula_structural   Ga(SnPt)2
_chemical_formula_sum   'Ga2 Sn4 Pt4'
_cell_volume   207.20946312
_cell_formula_units_Z   2
loop_
 _symmetry_equiv_pos_site_id
 _symmetry_equiv_pos_as_xyz
  1  'x, y, z'
loop_
 _atom_site_type_symbol
 _atom_site_label
 _atom_site_symmetry_multiplicity
 _atom_site_fract_x
 _atom_site_fract_y
 _atom_site_fract_z
 _atom_site_occupancy
  Ga  Ga0  1  0.666667  0.333333  0.075226  1
  Ga  Ga1  1  0.666667  0.333333  0.424775  1
  Sn  Sn2  1  0.000100  0.000200  0.250000  1
  Sn  Sn3  1  0.333323  0.666647  0.560173  1
  Sn  Sn4  1  0.999987  0.999975  0.750000  1
  Sn  Sn5  1  0.333323  0.666647  0.939826  1
  Pt  Pt6  1  0.333301  0.666601  0.142990  1
  Pt  Pt7  1  0.333301  0.666601  0.357010  1
  Pt  Pt8  1  0.666667  0.333334  0.641858  1
  Pt  Pt9  1  0.666667  0.333334  0.858142  1
