# generated using pymatgen
data_LaCuPRh3
_symmetry_space_group_name_H-M   'P 1'
_cell_length_a   5.58905521
_cell_length_b   6.74442759
_cell_length_c   6.74442775
_cell_angle_alpha   67.11442616
_cell_angle_beta   65.24387810
_cell_angle_gamma   65.24386091
_symmetry_Int_Tables_number   1
_chemical_formula_structural   LaCuPRh3
_chemical_formula_sum   'La2 Cu2 P2 Rh6'
_cell_volume   202.49921943
_cell_formula_units_Z   2
loop_
 _symmetry_equiv_pos_site_id
 _symmetry_equiv_pos_as_xyz
  1  'x, y, z'
loop_
 _atom_site_type_symbol
 _atom_site_label
 _atom_site_symmetry_multiplicity
 _atom_site_fract_x
 _atom_site_fract_y
 _atom_site_fract_z
 _atom_site_occupancy
  La  La0  1  0.536557  0.729152  0.729152  1
  La  La1  1  0.463443  0.270848  0.270848  1
  Cu  Cu2  1  0.208988  0.566921  0.566921  1
  Cu  Cu3  1  0.791012  0.433079  0.433079  1
  P  P4  1  0.135861  0.104000  0.104000  1
  P  P5  1  0.864139  0.896000  0.896000  1
  Rh  Rh6  1  0.500000  0.202488  0.797512  1
  Rh  Rh7  1  0.000000  0.784446  0.215554  1
  Rh  Rh8  1  0.500000  0.797512  0.202488  1
  Rh  Rh9  1  0.000000  0.215554  0.784446  1
  Rh  Rh10  1  0.000000  0.500000  0.000000  1
  Rh  Rh11  1  0.000000  0.000000  0.500000  1
