# generated using pymatgen
data_Ho2B3Ru4C
_symmetry_space_group_name_H-M   'P 1'
_cell_length_a   6.59603714
_cell_length_b   5.79962534
_cell_length_c   5.52336260
_cell_angle_alpha   71.21045489
_cell_angle_beta   57.81698344
_cell_angle_gamma   52.44329781
_symmetry_Int_Tables_number   1
_chemical_formula_structural   Ho2B3Ru4C
_chemical_formula_sum   'Ho2 B3 Ru4 C1'
_cell_volume   141.76547740
_cell_formula_units_Z   1
loop_
 _symmetry_equiv_pos_site_id
 _symmetry_equiv_pos_as_xyz
  1  'x, y, z'
loop_
 _atom_site_type_symbol
 _atom_site_label
 _atom_site_symmetry_multiplicity
 _atom_site_fract_x
 _atom_site_fract_y
 _atom_site_fract_z
 _atom_site_occupancy
  Ho  Ho0  1  0.999122  0.000878  0.999122  1
  Ho  Ho1  1  0.250481  0.249519  0.250481  1
  B  B2  1  0.311954  0.688046  0.311954  1
  B  B3  1  0.937438  0.562562  0.937438  1
  B  B4  1  0.559234  0.940766  0.559234  1
  Ru  Ru5  1  0.611071  0.607515  0.884619  1
  Ru  Ru6  1  0.645089  0.626013  0.362738  1
  Ru  Ru7  1  0.362738  0.366158  0.645089  1
  Ru  Ru8  1  0.884620  0.896794  0.611070  1
  C  C9  1  0.688252  0.311748  0.688252  1
