# generated using pymatgen
data_Sr5Al3InGa2
_symmetry_space_group_name_H-M   'P 1'
_cell_length_a   5.86395300
_cell_length_b   5.86395302
_cell_length_c   10.72547700
_cell_angle_alpha   90.00000000
_cell_angle_beta   90.00000000
_cell_angle_gamma   120.00000552
_symmetry_Int_Tables_number   1
_chemical_formula_structural   Sr5Al3InGa2
_chemical_formula_sum   'Sr5 Al3 In1 Ga2'
_cell_volume   319.39505392
_cell_formula_units_Z   1
loop_
 _symmetry_equiv_pos_site_id
 _symmetry_equiv_pos_as_xyz
  1  'x, y, z'
loop_
 _atom_site_type_symbol
 _atom_site_label
 _atom_site_symmetry_multiplicity
 _atom_site_fract_x
 _atom_site_fract_y
 _atom_site_fract_z
 _atom_site_occupancy
  Sr  Sr0  1  0.666667  0.333333  0.000000  1
  Sr  Sr1  1  0.333334  0.666667  0.196840  1
  Sr  Sr2  1  0.000000  0.000000  0.329991  1
  Sr  Sr3  1  0.000000  0.000000  0.670009  1
  Sr  Sr4  1  0.333334  0.666667  0.803160  1
  Al  Al5  1  0.013842  0.506922  0.500000  1
  Al  Al6  1  0.493079  0.506922  0.500000  1
  Al  Al7  1  0.493079  0.986157  0.500000  1
  In  In8  1  0.000000  0.000000  0.000000  1
  Ga  Ga9  1  0.666667  0.333333  0.307700  1
  Ga  Ga10  1  0.666667  0.333333  0.692301  1
