# generated using pymatgen
data_LiHo8Sc10Si16Rh
_symmetry_space_group_name_H-M   'P 1'
_cell_length_a   6.92873353
_cell_length_b   7.37196073
_cell_length_c   13.91132700
_cell_angle_alpha   90.00000000
_cell_angle_beta   90.00000000
_cell_angle_gamma   89.83836569
_symmetry_Int_Tables_number   1
_chemical_formula_structural   LiHo8Sc10Si16Rh
_chemical_formula_sum   'Li1 Ho8 Sc10 Si16 Rh1'
_cell_volume   710.56482272
_cell_formula_units_Z   1
loop_
 _symmetry_equiv_pos_site_id
 _symmetry_equiv_pos_as_xyz
  1  'x, y, z'
loop_
 _atom_site_type_symbol
 _atom_site_label
 _atom_site_symmetry_multiplicity
 _atom_site_fract_x
 _atom_site_fract_y
 _atom_site_fract_z
 _atom_site_occupancy
  Li  Li0  1  0.841596  0.494936  0.250000  1
  Ho  Ho1  1  0.010978  0.184838  0.095642  1
  Ho  Ho2  1  0.991069  0.815111  0.901935  1
  Ho  Ho3  1  0.489016  0.673926  0.902686  1
  Ho  Ho4  1  0.991069  0.815111  0.598065  1
  Ho  Ho5  1  0.514763  0.324839  0.095438  1
  Ho  Ho6  1  0.010978  0.184838  0.404358  1
  Ho  Ho7  1  0.514763  0.324839  0.404562  1
  Ho  Ho8  1  0.489016  0.673926  0.597314  1
  Sc  Sc9  1  0.342573  0.003498  0.250000  1
  Sc  Sc10  1  0.654354  0.998122  0.750000  1
  Sc  Sc11  1  0.322188  0.177150  0.627719  1
  Sc  Sc12  1  0.675081  0.820484  0.374275  1
  Sc  Sc13  1  0.168991  0.671102  0.374949  1
  Sc  Sc14  1  0.675081  0.820484  0.125725  1
  Sc  Sc15  1  0.829505  0.328208  0.629080  1
  Sc  Sc16  1  0.322188  0.177150  0.872281  1
  Sc  Sc17  1  0.829505  0.328208  0.870920  1
  Sc  Sc18  1  0.168991  0.671102  0.125051  1
  Si  Si19  1  0.024648  0.098507  0.750000  1
  Si  Si20  1  0.972826  0.896199  0.250000  1
  Si  Si21  1  0.468141  0.612519  0.250000  1
  Si  Si22  1  0.517365  0.395137  0.750000  1
  Si  Si23  1  0.283095  0.863961  0.750000  1
  Si  Si24  1  0.714740  0.122107  0.250000  1
  Si  Si25  1  0.220310  0.373133  0.250000  1
  Si  Si26  1  0.792540  0.627747  0.750000  1
  Si  Si27  1  0.159066  0.463047  0.541559  1
  Si  Si28  1  0.842069  0.537878  0.467096  1
  Si  Si29  1  0.343327  0.965677  0.462632  1
  Si  Si30  1  0.842069  0.537878  0.032904  1
  Si  Si31  1  0.658077  0.033525  0.539482  1
  Si  Si32  1  0.159066  0.463047  0.958441  1
  Si  Si33  1  0.658077  0.033525  0.960518  1
  Si  Si34  1  0.343327  0.965677  0.037368  1
  Rh  Rh35  1  0.159558  0.522560  0.750000  1
