# generated using pymatgen
data_Lu4MgPt11
_symmetry_space_group_name_H-M   'P 1'
_cell_length_a   4.14177200
_cell_length_b   5.75644398
_cell_length_c   11.52503011
_cell_angle_alpha   87.90280633
_cell_angle_beta   90.00000000
_cell_angle_gamma   90.00000000
_symmetry_Int_Tables_number   1
_chemical_formula_structural   Lu4MgPt11
_chemical_formula_sum   'Lu4 Mg1 Pt11'
_cell_volume   274.59431736
_cell_formula_units_Z   1
loop_
 _symmetry_equiv_pos_site_id
 _symmetry_equiv_pos_as_xyz
  1  'x, y, z'
loop_
 _atom_site_type_symbol
 _atom_site_label
 _atom_site_symmetry_multiplicity
 _atom_site_fract_x
 _atom_site_fract_y
 _atom_site_fract_z
 _atom_site_occupancy
  Lu  Lu0  1  0.500000  0.759410  0.374055  1
  Lu  Lu1  1  0.500000  0.716328  0.864624  1
  Lu  Lu2  1  0.500000  0.283672  0.135376  1
  Lu  Lu3  1  0.500000  0.240590  0.625945  1
  Mg  Mg4  1  0.000000  0.000000  0.000000  1
  Pt  Pt5  1  0.000000  0.018545  0.246546  1
  Pt  Pt6  1  0.000000  0.981455  0.753454  1
  Pt  Pt7  1  0.000000  0.500000  0.000000  1
  Pt  Pt8  1  0.000000  0.500000  0.500000  1
  Pt  Pt9  1  0.000000  0.520777  0.249449  1
  Pt  Pt10  1  0.000000  0.479223  0.750551  1
  Pt  Pt11  1  0.500000  0.256514  0.377941  1
  Pt  Pt12  1  0.500000  0.221799  0.882678  1
  Pt  Pt13  1  0.500000  0.778201  0.117322  1
  Pt  Pt14  1  0.500000  0.743486  0.622059  1
  Pt  Pt15  1  0.000000  0.000000  0.500000  1
