# generated using pymatgen
data_YErAl20RuRh3
_symmetry_space_group_name_H-M   'P 1'
_cell_length_a   6.84092140
_cell_length_b   6.84023617
_cell_length_c   9.14177114
_cell_angle_alpha   90.11941599
_cell_angle_beta   90.10006663
_cell_angle_gamma   97.19905496
_symmetry_Int_Tables_number   1
_chemical_formula_structural   YErAl20RuRh3
_chemical_formula_sum   'Y1 Er1 Al20 Ru1 Rh3'
_cell_volume   424.40158767
_cell_formula_units_Z   1
loop_
 _symmetry_equiv_pos_site_id
 _symmetry_equiv_pos_as_xyz
  1  'x, y, z'
loop_
 _atom_site_type_symbol
 _atom_site_label
 _atom_site_symmetry_multiplicity
 _atom_site_fract_x
 _atom_site_fract_y
 _atom_site_fract_z
 _atom_site_occupancy
  Y  Y0  1  0.869387  0.128087  0.749905  1
  Er  Er1  1  0.130633  0.871842  0.249949  1
  Al  Al2  1  0.621298  0.375850  0.548051  1
  Al  Al3  1  0.378463  0.624351  0.451625  1
  Al  Al4  1  0.377837  0.622780  0.049748  1
  Al  Al5  1  0.621947  0.377451  0.950625  1
  Al  Al6  1  0.222493  0.220813  0.499017  1
  Al  Al7  1  0.777682  0.779052  0.500512  1
  Al  Al8  1  0.776930  0.777088  0.000308  1
  Al  Al9  1  0.223246  0.222763  0.000233  1
  Al  Al10  1  0.846208  0.154343  0.103318  1
  Al  Al11  1  0.154194  0.845306  0.897086  1
  Al  Al12  1  0.155265  0.846460  0.601796  1
  Al  Al13  1  0.845094  0.153171  0.397853  1
  Al  Al14  1  0.856941  0.589417  0.749521  1
  Al  Al15  1  0.143293  0.411176  0.250495  1
  Al  Al16  1  0.410791  0.142304  0.749047  1
  Al  Al17  1  0.588640  0.857499  0.250946  1
  Al  Al18  1  0.225614  0.480498  0.749963  1
  Al  Al19  1  0.774762  0.519854  0.250064  1
  Al  Al20  1  0.519037  0.775877  0.747137  1
  Al  Al21  1  0.480614  0.223790  0.252865  1
  Ru  Ru22  1  0.499721  0.999898  0.499661  1
  Rh  Rh23  1  0.000060  0.500199  0.499762  1
  Rh  Rh24  1  0.000037  0.500183  0.000236  1
  Rh  Rh25  1  0.499812  0.999948  0.000277  1
