# generated using pymatgen
data_Rb6Na3GaBi3Sb
_symmetry_space_group_name_H-M   'P 1'
_cell_length_a   10.74776600
_cell_length_b   10.76702264
_cell_length_c   11.04172900
_cell_angle_alpha   90.00000000
_cell_angle_beta   90.00000000
_cell_angle_gamma   119.94084891
_symmetry_Int_Tables_number   1
_chemical_formula_structural   Rb6Na3GaBi3Sb
_chemical_formula_sum   'Rb12 Na6 Ga2 Bi6 Sb2'
_cell_volume   1107.23573902
_cell_formula_units_Z   2
loop_
 _symmetry_equiv_pos_site_id
 _symmetry_equiv_pos_as_xyz
  1  'x, y, z'
loop_
 _atom_site_type_symbol
 _atom_site_label
 _atom_site_symmetry_multiplicity
 _atom_site_fract_x
 _atom_site_fract_y
 _atom_site_fract_z
 _atom_site_occupancy
  Rb  Rb0  1  0.207898  0.415356  0.541496  1
  Rb  Rb1  1  0.792744  0.208027  0.041714  1
  Rb  Rb2  1  0.415237  0.207786  0.041204  1
  Rb  Rb3  1  0.584718  0.791973  0.541714  1
  Rb  Rb4  1  0.207452  0.792214  0.541204  1
  Rb  Rb5  1  0.792542  0.584644  0.458504  1
  Rb  Rb6  1  0.792744  0.208027  0.458286  1
  Rb  Rb7  1  0.792542  0.584644  0.041496  1
  Rb  Rb8  1  0.415237  0.207786  0.458796  1
  Rb  Rb9  1  0.584718  0.791973  0.958286  1
  Rb  Rb10  1  0.207898  0.415356  0.958504  1
  Rb  Rb11  1  0.207452  0.792214  0.958796  1
  Na  Na12  1  0.115964  0.232439  0.250000  1
  Na  Na13  1  0.883959  0.116043  0.750000  1
  Na  Na14  1  0.232438  0.116475  0.750000  1
  Na  Na15  1  0.767917  0.883957  0.250000  1
  Na  Na16  1  0.115963  0.883525  0.250000  1
  Na  Na17  1  0.883524  0.767561  0.750000  1
  Ga  Ga18  1  0.329649  0.664929  0.250000  1
  Ga  Ga19  1  0.664721  0.335071  0.750000  1
  Bi  Bi20  1  0.479052  0.520796  0.250000  1
  Bi  Bi21  1  0.958256  0.479204  0.750000  1
  Bi  Bi22  1  0.520863  0.041850  0.750000  1
  Bi  Bi23  1  0.479014  0.958150  0.250000  1
  Bi  Bi24  1  0.000009  0.000000  0.000000  1
  Bi  Bi25  1  0.000009  0.000000  0.500000  1
  Sb  Sb26  1  0.044976  0.522470  0.250000  1
  Sb  Sb27  1  0.522505  0.477530  0.750000  1
