# generated using pymatgen
data_CaHoSc2(ReB6)2
_symmetry_space_group_name_H-M   'P 1'
_cell_length_a   3.57253700
_cell_length_b   9.04133639
_cell_length_c   11.39636849
_cell_angle_alpha   90.03368627
_cell_angle_beta   90.00000000
_cell_angle_gamma   90.00000000
_symmetry_Int_Tables_number   1
_chemical_formula_structural   CaHoSc2(ReB6)2
_chemical_formula_sum   'Ca2 Ho2 Sc4 Re4 B24'
_cell_volume   368.10843699
_cell_formula_units_Z   2
loop_
 _symmetry_equiv_pos_site_id
 _symmetry_equiv_pos_as_xyz
  1  'x, y, z'
loop_
 _atom_site_type_symbol
 _atom_site_label
 _atom_site_symmetry_multiplicity
 _atom_site_fract_x
 _atom_site_fract_y
 _atom_site_fract_z
 _atom_site_occupancy
  Ca  Ca0  1  0.000000  0.323174  0.414640  1
  Ca  Ca1  1  0.000000  0.676826  0.585360  1
  Ho  Ho2  1  0.000000  0.822320  0.085544  1
  Ho  Ho3  1  0.000000  0.177680  0.914456  1
  Sc  Sc4  1  0.000000  0.943459  0.367575  1
  Sc  Sc5  1  0.000000  0.056541  0.632425  1
  Sc  Sc6  1  0.000000  0.444544  0.130682  1
  Sc  Sc7  1  0.000000  0.555456  0.869318  1
  Re  Re8  1  0.000000  0.644599  0.316650  1
  Re  Re9  1  0.000000  0.355401  0.683350  1
  Re  Re10  1  0.000000  0.140913  0.181614  1
  Re  Re11  1  0.000000  0.859087  0.818386  1
  B  B12  1  0.500000  0.554471  0.431970  1
  B  B13  1  0.500000  0.445529  0.568030  1
  B  B14  1  0.500000  0.054425  0.066938  1
  B  B15  1  0.500000  0.945575  0.933062  1
  B  B16  1  0.500000  0.754888  0.418292  1
  B  B17  1  0.500000  0.245112  0.581708  1
  B  B18  1  0.500000  0.254354  0.081247  1
  B  B19  1  0.500000  0.745646  0.918753  1
  B  B20  1  0.500000  0.796228  0.263591  1
  B  B21  1  0.500000  0.203772  0.736409  1
  B  B22  1  0.500000  0.295946  0.235124  1
  B  B23  1  0.500000  0.704054  0.764876  1
  B  B24  1  0.500000  0.629642  0.182313  1
  B  B25  1  0.500000  0.370358  0.817687  1
  B  B26  1  0.500000  0.129351  0.317036  1
  B  B27  1  0.500000  0.870649  0.682964  1
  B  B28  1  0.500000  0.981658  0.212972  1
  B  B29  1  0.500000  0.018342  0.787028  1
  B  B30  1  0.500000  0.482177  0.286120  1
  B  B31  1  0.500000  0.517823  0.713880  1
  B  B32  1  0.500000  0.594669  0.025704  1
  B  B33  1  0.500000  0.405331  0.974296  1
  B  B34  1  0.500000  0.091955  0.474957  1
  B  B35  1  0.500000  0.908045  0.525043  1
