# generated using pymatgen
data_Sc4ReOs5Ru2
_symmetry_space_group_name_H-M   'P 1'
_cell_length_a   5.13001115
_cell_length_b   5.22659705
_cell_length_c   8.77480900
_cell_angle_alpha   90.00000000
_cell_angle_beta   90.00000000
_cell_angle_gamma   120.62480113
_symmetry_Int_Tables_number   1
_chemical_formula_structural   Sc4ReOs5Ru2
_chemical_formula_sum   'Sc4 Re1 Os5 Ru2'
_cell_volume   202.45885517
_cell_formula_units_Z   1
loop_
 _symmetry_equiv_pos_site_id
 _symmetry_equiv_pos_as_xyz
  1  'x, y, z'
loop_
 _atom_site_type_symbol
 _atom_site_label
 _atom_site_symmetry_multiplicity
 _atom_site_fract_x
 _atom_site_fract_y
 _atom_site_fract_z
 _atom_site_occupancy
  Sc  Sc0  1  0.333379  0.666690  0.432367  1
  Sc  Sc1  1  0.662951  0.331475  0.567047  1
  Sc  Sc2  1  0.662951  0.331475  0.932953  1
  Sc  Sc3  1  0.333379  0.666690  0.067633  1
  Re  Re4  1  0.668968  0.834485  0.750000  1
  Os  Os5  1  0.832748  0.172022  0.250000  1
  Os  Os6  1  0.832748  0.660726  0.250000  1
  Os  Os7  1  0.345474  0.172737  0.250000  1
  Os  Os8  1  0.178381  0.831599  0.750000  1
  Os  Os9  1  0.178381  0.346784  0.750000  1
  Ru  Ru10  1  0.985319  0.992660  0.499063  1
  Ru  Ru11  1  0.985319  0.992660  0.000937  1
