# generated using pymatgen
data_Ta4Nb5V3(BOs)12
_symmetry_space_group_name_H-M   'P 1'
_cell_length_a   3.07629300
_cell_length_b   9.01646210
_cell_length_c   15.67691117
_cell_angle_alpha   89.98297956
_cell_angle_beta   90.00000000
_cell_angle_gamma   90.00000000
_symmetry_Int_Tables_number   1
_chemical_formula_structural   Ta4Nb5V3(BOs)12
_chemical_formula_sum   'Ta4 Nb5 V3 B12 Os12'
_cell_volume   434.83484366
_cell_formula_units_Z   1
loop_
 _symmetry_equiv_pos_site_id
 _symmetry_equiv_pos_as_xyz
  1  'x, y, z'
loop_
 _atom_site_type_symbol
 _atom_site_label
 _atom_site_symmetry_multiplicity
 _atom_site_fract_x
 _atom_site_fract_y
 _atom_site_fract_z
 _atom_site_occupancy
  Ta  Ta0  1  0.000000  0.795899  0.496569  1
  Ta  Ta1  1  0.000000  0.204503  0.505067  1
  Ta  Ta2  1  0.000000  0.297529  0.003408  1
  Ta  Ta3  1  0.000000  0.700873  0.993444  1
  Nb  Nb4  1  0.000000  0.984515  0.091710  1
  Nb  Nb5  1  0.000000  0.687857  0.203282  1
  Nb  Nb6  1  0.000000  0.311338  0.797439  1
  Nb  Nb7  1  0.000000  0.189527  0.299651  1
  Nb  Nb8  1  0.000000  0.811075  0.701053  1
  V  V9  1  0.000000  0.517399  0.588709  1
  V  V10  1  0.000000  0.482303  0.412500  1
  V  V11  1  0.000000  0.018291  0.908081  1
  B  B12  1  0.500000  0.598517  0.496715  1
  B  B13  1  0.500000  0.401290  0.504239  1
  B  B14  1  0.500000  0.100826  0.998029  1
  B  B15  1  0.500000  0.898516  0.991128  1
  B  B16  1  0.000000  0.611751  0.828741  1
  B  B17  1  0.000000  0.393421  0.171328  1
  B  B18  1  0.000000  0.111928  0.669251  1
  B  B19  1  0.000000  0.886456  0.333762  1
  B  B20  1  0.500000  0.701374  0.598454  1
  B  B21  1  0.500000  0.298314  0.402468  1
  B  B22  1  0.500000  0.203872  0.900075  1
  B  B23  1  0.500000  0.784158  0.096932  1
  Os  Os24  1  0.500000  0.712968  0.358106  1
  Os  Os25  1  0.500000  0.286600  0.644023  1
  Os  Os26  1  0.500000  0.220678  0.145850  1
  Os  Os27  1  0.500000  0.786086  0.854594  1
  Os  Os28  1  0.500000  0.515906  0.093522  1
  Os  Os29  1  0.500000  0.485258  0.905137  1
  Os  Os30  1  0.500000  0.015510  0.408088  1
  Os  Os31  1  0.500000  0.984954  0.593770  1
  Os  Os32  1  0.500000  0.559845  0.729673  1
  Os  Os33  1  0.500000  0.441464  0.271096  1
  Os  Os34  1  0.500000  0.059766  0.768541  1
  Os  Os35  1  0.500000  0.939432  0.235563  1
