# generated using pymatgen
data_Ho2Zr5SnF30
_symmetry_space_group_name_H-M   'P 1'
_cell_length_a   8.14449554
_cell_length_b   8.14449498
_cell_length_c   8.14834800
_cell_angle_alpha   79.74424009
_cell_angle_beta   79.74422651
_cell_angle_gamma   100.03274146
_symmetry_Int_Tables_number   1
_chemical_formula_structural   Ho2Zr5SnF30
_chemical_formula_sum   'Ho2 Zr5 Sn1 F30'
_cell_volume   511.39889733
_cell_formula_units_Z   1
loop_
 _symmetry_equiv_pos_site_id
 _symmetry_equiv_pos_as_xyz
  1  'x, y, z'
loop_
 _atom_site_type_symbol
 _atom_site_label
 _atom_site_symmetry_multiplicity
 _atom_site_fract_x
 _atom_site_fract_y
 _atom_site_fract_z
 _atom_site_occupancy
  Ho  Ho0  1  0.177642  0.822358  0.250000  1
  Ho  Ho1  1  0.821780  0.178220  0.750000  1
  Zr  Zr2  1  0.247938  0.752062  0.750000  1
  Zr  Zr3  1  0.747872  0.678337  0.674526  1
  Zr  Zr4  1  0.321663  0.252128  0.825474  1
  Zr  Zr5  1  0.252172  0.321925  0.325627  1
  Zr  Zr6  1  0.678075  0.747828  0.174373  1
  Sn  Sn7  1  0.750924  0.249076  0.250000  1
  F  F8  1  0.315793  0.350452  0.054113  1
  F  F9  1  0.937459  0.812994  0.150578  1
  F  F10  1  0.844288  0.459544  0.683631  1
  F  F11  1  0.460031  0.843078  0.182744  1
  F  F12  1  0.814579  0.938082  0.652345  1
  F  F13  1  0.350428  0.318659  0.552505  1
  F  F14  1  0.681341  0.649572  0.947494  1
  F  F15  1  0.061918  0.185421  0.847655  1
  F  F16  1  0.156922  0.539969  0.317256  1
  F  F17  1  0.540456  0.155712  0.816369  1
  F  F18  1  0.187006  0.062541  0.349422  1
  F  F19  1  0.649548  0.684207  0.445887  1
  F  F20  1  0.773725  0.284934  0.999004  1
  F  F21  1  0.005353  0.274782  0.213769  1
  F  F22  1  0.784256  0.504659  0.223587  1
  F  F23  1  0.507599  0.778258  0.722453  1
  F  F24  1  0.276092  0.010138  0.718355  1
  F  F25  1  0.280539  0.774030  0.495168  1
  F  F26  1  0.225970  0.719461  0.004832  1
  F  F27  1  0.989862  0.723908  0.781645  1
  F  F28  1  0.221742  0.492401  0.777547  1
  F  F29  1  0.495341  0.215744  0.276413  1
  F  F30  1  0.725218  0.994647  0.286231  1
  F  F31  1  0.715066  0.226275  0.500996  1
  F  F32  1  0.470605  0.529395  0.250000  1
  F  F33  1  0.747756  0.957183  0.972408  1
  F  F34  1  0.042817  0.252244  0.527592  1
  F  F35  1  0.252513  0.044421  0.029174  1
  F  F36  1  0.955579  0.747487  0.470826  1
  F  F37  1  0.532130  0.467870  0.750000  1
