# generated using pymatgen
data_CsEu(SeO4)2
_symmetry_space_group_name_H-M   'P 1'
_cell_length_a   5.30259500
_cell_length_b   5.30259477
_cell_length_c   9.27371400
_cell_angle_alpha   90.00000000
_cell_angle_beta   90.00000000
_cell_angle_gamma   119.99999519
_symmetry_Int_Tables_number   1
_chemical_formula_structural   CsEu(SeO4)2
_chemical_formula_sum   'Cs1 Eu1 Se2 O8'
_cell_volume   225.81939945
_cell_formula_units_Z   1
loop_
 _symmetry_equiv_pos_site_id
 _symmetry_equiv_pos_as_xyz
  1  'x, y, z'
loop_
 _atom_site_type_symbol
 _atom_site_label
 _atom_site_symmetry_multiplicity
 _atom_site_fract_x
 _atom_site_fract_y
 _atom_site_fract_z
 _atom_site_occupancy
  Cs  Cs0  1  0.000000  0.000000  0.500001  1
  Eu  Eu1  1  0.000000  0.000000  0.000000  1
  Se  Se2  1  0.333333  0.666666  0.218872  1
  Se  Se3  1  0.666666  0.333333  0.781128  1
  O  O4  1  0.043076  0.363611  0.155935  1
  O  O5  1  0.636391  0.679467  0.155935  1
  O  O6  1  0.320534  0.956924  0.155935  1
  O  O7  1  0.333333  0.666666  0.396577  1
  O  O8  1  0.666666  0.333333  0.603423  1
  O  O9  1  0.679466  0.043077  0.844065  1
  O  O10  1  0.363611  0.320534  0.844065  1
  O  O11  1  0.956923  0.636390  0.844065  1
