# generated using pymatgen
data_HfZr17Ta8O6
_symmetry_space_group_name_H-M   'P 1'
_cell_length_a   8.81438000
_cell_length_b   8.80780472
_cell_length_c   8.66839700
_cell_angle_alpha   90.00000000
_cell_angle_beta   90.00000000
_cell_angle_gamma   120.02469905
_symmetry_Int_Tables_number   1
_chemical_formula_structural   HfZr17Ta8O6
_chemical_formula_sum   'Hf1 Zr17 Ta8 O6'
_cell_volume   582.66741194
_cell_formula_units_Z   1
loop_
 _symmetry_equiv_pos_site_id
 _symmetry_equiv_pos_as_xyz
  1  'x, y, z'
loop_
 _atom_site_type_symbol
 _atom_site_label
 _atom_site_symmetry_multiplicity
 _atom_site_fract_x
 _atom_site_fract_y
 _atom_site_fract_z
 _atom_site_occupancy
  Hf  Hf0  1  0.453788  0.907578  0.250000  1
  Zr  Zr1  1  0.547049  0.094099  0.750000  1
  Zr  Zr2  1  0.095953  0.548687  0.250000  1
  Zr  Zr3  1  0.905854  0.453213  0.750000  1
  Zr  Zr4  1  0.452733  0.548687  0.250000  1
  Zr  Zr5  1  0.547359  0.453213  0.750000  1
  Zr  Zr6  1  0.207025  0.414051  0.563332  1
  Zr  Zr7  1  0.792687  0.585373  0.436454  1
  Zr  Zr8  1  0.585116  0.792572  0.562566  1
  Zr  Zr9  1  0.792687  0.585373  0.063546  1
  Zr  Zr10  1  0.414528  0.207022  0.435940  1
  Zr  Zr11  1  0.207025  0.414051  0.936668  1
  Zr  Zr12  1  0.207455  0.792573  0.562566  1
  Zr  Zr13  1  0.414528  0.207022  0.064060  1
  Zr  Zr14  1  0.792495  0.207023  0.435940  1
  Zr  Zr15  1  0.585116  0.792572  0.937434  1
  Zr  Zr16  1  0.792495  0.207023  0.064060  1
  Zr  Zr17  1  0.207455  0.792573  0.937434  1
  Ta  Ta18  1  0.111247  0.222491  0.250000  1
  Ta  Ta19  1  0.888668  0.777336  0.750000  1
  Ta  Ta20  1  0.777436  0.888809  0.250000  1
  Ta  Ta21  1  0.222656  0.110997  0.750000  1
  Ta  Ta22  1  0.111375  0.888810  0.250000  1
  Ta  Ta23  1  0.888341  0.110997  0.750000  1
  Ta  Ta24  1  0.999934  0.999868  0.999916  1
  Ta  Ta25  1  0.999934  0.999868  0.500084  1
  O  O26  1  0.499461  0.998922  0.003241  1
  O  O27  1  0.000276  0.500069  0.999997  1
  O  O28  1  0.499461  0.998922  0.496759  1
  O  O29  1  0.499794  0.500069  0.999997  1
  O  O30  1  0.000276  0.500069  0.500003  1
  O  O31  1  0.499794  0.500069  0.500003  1
