# generated using pymatgen
data_Mg2AlGaPt2
_symmetry_space_group_name_H-M   'P 1'
_cell_length_a   4.06132600
_cell_length_b   6.59405957
_cell_length_c   7.78647361
_cell_angle_alpha   90.04590949
_cell_angle_beta   90.00000000
_cell_angle_gamma   90.00000000
_symmetry_Int_Tables_number   1
_chemical_formula_structural   Mg2AlGaPt2
_chemical_formula_sum   'Mg4 Al2 Ga2 Pt4'
_cell_volume   208.52656752
_cell_formula_units_Z   2
loop_
 _symmetry_equiv_pos_site_id
 _symmetry_equiv_pos_as_xyz
  1  'x, y, z'
loop_
 _atom_site_type_symbol
 _atom_site_label
 _atom_site_symmetry_multiplicity
 _atom_site_fract_x
 _atom_site_fract_y
 _atom_site_fract_z
 _atom_site_occupancy
  Mg  Mg0  1  0.250000  0.472246  0.168956  1
  Mg  Mg1  1  0.750000  0.527754  0.831044  1
  Mg  Mg2  1  0.750000  0.030918  0.672214  1
  Mg  Mg3  1  0.250000  0.969082  0.327786  1
  Al  Al4  1  0.750000  0.647213  0.442224  1
  Al  Al5  1  0.250000  0.352787  0.557776  1
  Ga  Ga6  1  0.250000  0.846649  0.940262  1
  Ga  Ga7  1  0.750000  0.153351  0.059738  1
  Pt  Pt8  1  0.250000  0.726998  0.626431  1
  Pt  Pt9  1  0.750000  0.273002  0.373569  1
  Pt  Pt10  1  0.750000  0.769840  0.134183  1
  Pt  Pt11  1  0.250000  0.230160  0.865817  1
