# generated using pymatgen
data_Tm5PaCo5
_symmetry_space_group_name_H-M   'P 1'
_cell_length_a   5.71680982
_cell_length_b   5.71681045
_cell_length_c   21.35359900
_cell_angle_alpha   90.00000000
_cell_angle_beta   90.00000000
_cell_angle_gamma   141.46681197
_symmetry_Int_Tables_number   1
_chemical_formula_structural   Tm5PaCo5
_chemical_formula_sum   'Tm10 Pa2 Co10'
_cell_volume   434.75466926
_cell_formula_units_Z   2
loop_
 _symmetry_equiv_pos_site_id
 _symmetry_equiv_pos_as_xyz
  1  'x, y, z'
loop_
 _atom_site_type_symbol
 _atom_site_label
 _atom_site_symmetry_multiplicity
 _atom_site_fract_x
 _atom_site_fract_y
 _atom_site_fract_z
 _atom_site_occupancy
  Tm  Tm0  1  0.285011  0.714989  0.250000  1
  Tm  Tm1  1  0.283557  0.716443  0.075187  1
  Tm  Tm2  1  0.994502  0.005498  0.836007  1
  Tm  Tm3  1  0.714989  0.285011  0.750000  1
  Tm  Tm4  1  0.716443  0.283557  0.575187  1
  Tm  Tm5  1  0.005498  0.994502  0.336007  1
  Tm  Tm6  1  0.994502  0.005498  0.663993  1
  Tm  Tm7  1  0.716443  0.283557  0.924813  1
  Tm  Tm8  1  0.005498  0.994502  0.163993  1
  Tm  Tm9  1  0.283557  0.716443  0.424813  1
  Pa  Pa10  1  0.000000  0.000000  0.500000  1
  Pa  Pa11  1  0.000000  0.000000  0.000000  1
  Co  Co12  1  0.293949  0.706051  0.658241  1
  Co  Co13  1  0.578982  0.421018  0.435460  1
  Co  Co14  1  0.414524  0.585476  0.750000  1
  Co  Co15  1  0.421018  0.578982  0.935460  1
  Co  Co16  1  0.585476  0.414524  0.250000  1
  Co  Co17  1  0.421018  0.578982  0.564540  1
  Co  Co18  1  0.706051  0.293949  0.341759  1
  Co  Co19  1  0.706051  0.293949  0.158241  1
  Co  Co20  1  0.578982  0.421018  0.064540  1
  Co  Co21  1  0.293949  0.706051  0.841759  1
