# generated using pymatgen
data_Yb20Ir3Au
_symmetry_space_group_name_H-M   'P 1'
_cell_length_a   7.47941107
_cell_length_b   15.77662700
_cell_length_c   6.77026898
_cell_angle_alpha   90.00000000
_cell_angle_beta   90.18196533
_cell_angle_gamma   90.00000000
_symmetry_Int_Tables_number   1
_chemical_formula_structural   Yb20Ir3Au
_chemical_formula_sum   'Yb20 Ir3 Au1'
_cell_volume   798.88688895
_cell_formula_units_Z   1
loop_
 _symmetry_equiv_pos_site_id
 _symmetry_equiv_pos_as_xyz
  1  'x, y, z'
loop_
 _atom_site_type_symbol
 _atom_site_label
 _atom_site_symmetry_multiplicity
 _atom_site_fract_x
 _atom_site_fract_y
 _atom_site_fract_z
 _atom_site_occupancy
  Yb  Yb0  1  0.310720  0.069820  0.138567  1
  Yb  Yb1  1  0.310720  0.430180  0.138567  1
  Yb  Yb2  1  0.598108  0.250000  0.152170  1
  Yb  Yb3  1  0.050335  0.641276  0.177212  1
  Yb  Yb4  1  0.050335  0.858724  0.177212  1
  Yb  Yb5  1  0.529226  0.641629  0.335099  1
  Yb  Yb6  1  0.529226  0.858371  0.335099  1
  Yb  Yb7  1  0.096607  0.250000  0.346613  1
  Yb  Yb8  1  0.809696  0.069033  0.359467  1
  Yb  Yb9  1  0.809696  0.430967  0.359467  1
  Yb  Yb10  1  0.186287  0.566085  0.644757  1
  Yb  Yb11  1  0.186287  0.933916  0.644757  1
  Yb  Yb12  1  0.905705  0.750000  0.641585  1
  Yb  Yb13  1  0.463571  0.146948  0.675161  1
  Yb  Yb14  1  0.463571  0.353052  0.675161  1
  Yb  Yb15  1  0.964259  0.146992  0.823558  1
  Yb  Yb16  1  0.964259  0.353008  0.823558  1
  Yb  Yb17  1  0.395016  0.750000  0.838482  1
  Yb  Yb18  1  0.687651  0.558703  0.855012  1
  Yb  Yb19  1  0.687651  0.941298  0.855012  1
  Ir  Ir20  1  0.238502  0.750000  0.459598  1
  Ir  Ir21  1  0.760184  0.250000  0.535325  1
  Ir  Ir22  1  0.260327  0.250000  0.964070  1
  Au  Au23  1  0.742064  0.750000  0.044492  1
