# generated using pymatgen
data_Hf3Ti(V3Os)2
_symmetry_space_group_name_H-M   'P 1'
_cell_length_a   8.91840266
_cell_length_b   8.92622393
_cell_length_c   8.91840328
_cell_angle_alpha   33.42439239
_cell_angle_beta   33.58478625
_cell_angle_gamma   33.42438535
_symmetry_Int_Tables_number   1
_chemical_formula_structural   Hf3Ti(V3Os)2
_chemical_formula_sum   'Hf3 Ti1 V6 Os2'
_cell_volume   192.39461945
_cell_formula_units_Z   1
loop_
 _symmetry_equiv_pos_site_id
 _symmetry_equiv_pos_as_xyz
  1  'x, y, z'
loop_
 _atom_site_type_symbol
 _atom_site_label
 _atom_site_symmetry_multiplicity
 _atom_site_fract_x
 _atom_site_fract_y
 _atom_site_fract_z
 _atom_site_occupancy
  Hf  Hf0  1  0.624698  0.625127  0.624698  1
  Hf  Hf1  1  0.001597  0.000564  0.001597  1
  Hf  Hf2  1  0.500016  0.497490  0.500016  1
  Ti  Ti3  1  0.125421  0.124491  0.125421  1
  V  V4  1  0.063226  0.564432  0.562710  1
  V  V5  1  0.560759  0.061362  0.062198  1
  V  V6  1  0.811975  0.812363  0.811975  1
  V  V7  1  0.312641  0.313137  0.312641  1
  V  V8  1  0.562710  0.564432  0.063226  1
  V  V9  1  0.062198  0.061362  0.560759  1
  Os  Os10  1  0.562616  0.063820  0.562616  1
  Os  Os11  1  0.062143  0.561420  0.062143  1
