# generated using pymatgen
data_YbCePt2Pb
_symmetry_space_group_name_H-M   'P 1'
_cell_length_a   7.93980000
_cell_length_b   7.93980000
_cell_length_c   7.33355500
_cell_angle_alpha   90.00000000
_cell_angle_beta   90.00000000
_cell_angle_gamma   90.00000000
_symmetry_Int_Tables_number   1
_chemical_formula_structural   YbCePt2Pb
_chemical_formula_sum   'Yb4 Ce4 Pt8 Pb4'
_cell_volume   462.31041692
_cell_formula_units_Z   4
loop_
 _symmetry_equiv_pos_site_id
 _symmetry_equiv_pos_as_xyz
  1  'x, y, z'
loop_
 _atom_site_type_symbol
 _atom_site_label
 _atom_site_symmetry_multiplicity
 _atom_site_fract_x
 _atom_site_fract_y
 _atom_site_fract_z
 _atom_site_occupancy
  Yb  Yb0  1  0.341719  0.341719  0.500000  1
  Yb  Yb1  1  0.658281  0.658281  0.500000  1
  Yb  Yb2  1  0.841719  0.158281  0.000000  1
  Yb  Yb3  1  0.158281  0.841719  0.000000  1
  Ce  Ce4  1  0.676350  0.676350  0.000000  1
  Ce  Ce5  1  0.823650  0.176350  0.500000  1
  Ce  Ce6  1  0.323650  0.323650  0.000000  1
  Ce  Ce7  1  0.176350  0.823650  0.500000  1
  Pt  Pt8  1  0.869697  0.869697  0.733822  1
  Pt  Pt9  1  0.130303  0.130303  0.733822  1
  Pt  Pt10  1  0.630303  0.369697  0.766178  1
  Pt  Pt11  1  0.630303  0.369697  0.233822  1
  Pt  Pt12  1  0.369697  0.630303  0.233822  1
  Pt  Pt13  1  0.130303  0.130303  0.266178  1
  Pt  Pt14  1  0.869697  0.869697  0.266178  1
  Pt  Pt15  1  0.369697  0.630303  0.766178  1
  Pb  Pb16  1  0.500000  0.000000  0.750000  1
  Pb  Pb17  1  0.500000  0.000000  0.250000  1
  Pb  Pb18  1  0.000000  0.500000  0.750000  1
  Pb  Pb19  1  0.000000  0.500000  0.250000  1
