# generated using pymatgen
data_Tb8ErTmIn6
_symmetry_space_group_name_H-M   'P 1'
_cell_length_a   6.04635101
_cell_length_b   9.19831785
_cell_length_c   9.19831800
_cell_angle_alpha   83.79873060
_cell_angle_beta   70.81216286
_cell_angle_gamma   70.81216314
_symmetry_Int_Tables_number   1
_chemical_formula_structural   Tb8ErTmIn6
_chemical_formula_sum   'Tb8 Er1 Tm1 In6'
_cell_volume   456.31484786
_cell_formula_units_Z   1
loop_
 _symmetry_equiv_pos_site_id
 _symmetry_equiv_pos_as_xyz
  1  'x, y, z'
loop_
 _atom_site_type_symbol
 _atom_site_label
 _atom_site_symmetry_multiplicity
 _atom_site_fract_x
 _atom_site_fract_y
 _atom_site_fract_z
 _atom_site_occupancy
  Tb  Tb0  1  0.719705  0.862786  0.697723  1
  Tb  Tb1  1  0.280215  0.137214  0.302277  1
  Tb  Tb2  1  0.780295  0.302277  0.137214  1
  Tb  Tb3  1  0.219785  0.697723  0.862786  1
  Tb  Tb4  1  0.582572  0.697723  0.137214  1
  Tb  Tb5  1  0.417508  0.302277  0.862786  1
  Tb  Tb6  1  0.082492  0.137214  0.697723  1
  Tb  Tb7  1  0.917428  0.862786  0.302277  1
  Er  Er8  1  0.750000  0.500000  0.500000  1
  Tm  Tm9  1  0.250000  0.500000  0.500000  1
  In  In10  1  0.160768  0.500000  0.178290  1
  In  In11  1  0.839059  0.500000  0.821710  1
  In  In12  1  0.339232  0.821710  0.500000  1
  In  In13  1  0.660941  0.178290  0.500000  1
  In  In14  1  0.250000  0.000000  0.000000  1
  In  In15  1  0.750000  0.000000  0.000000  1
