# generated using pymatgen
data_Sc6WO12
_symmetry_space_group_name_H-M   'P 1'
_cell_length_a   6.13832355
_cell_length_b   6.13832360
_cell_length_c   6.13832405
_cell_angle_alpha   99.01479994
_cell_angle_beta   99.01479749
_cell_angle_gamma   99.01480040
_symmetry_Int_Tables_number   1
_chemical_formula_structural   Sc6WO12
_chemical_formula_sum   'Sc6 W1 O12'
_cell_volume   221.67906578
_cell_formula_units_Z   1
loop_
 _symmetry_equiv_pos_site_id
 _symmetry_equiv_pos_as_xyz
  1  'x, y, z'
loop_
 _atom_site_type_symbol
 _atom_site_label
 _atom_site_symmetry_multiplicity
 _atom_site_fract_x
 _atom_site_fract_y
 _atom_site_fract_z
 _atom_site_occupancy
  Sc  Sc0  1  0.609093  0.144659  0.329664  1
  Sc  Sc1  1  0.144659  0.329664  0.609093  1
  Sc  Sc2  1  0.329664  0.609093  0.144659  1
  Sc  Sc3  1  0.390907  0.855341  0.670336  1
  Sc  Sc4  1  0.855341  0.670336  0.390907  1
  Sc  Sc5  1  0.670336  0.390907  0.855341  1
  W  W6  1  0.000000  0.000000  0.000000  1
  O  O7  1  0.822033  0.413446  0.582264  1
  O  O8  1  0.413446  0.582264  0.822033  1
  O  O9  1  0.582264  0.822033  0.413446  1
  O  O10  1  0.177967  0.586554  0.417736  1
  O  O11  1  0.586554  0.417736  0.177967  1
  O  O12  1  0.417736  0.177967  0.586554  1
  O  O13  1  0.305983  0.957285  0.099449  1
  O  O14  1  0.900551  0.694017  0.042715  1
  O  O15  1  0.042715  0.900551  0.694017  1
  O  O16  1  0.694017  0.042715  0.900551  1
  O  O17  1  0.099449  0.305983  0.957285  1
  O  O18  1  0.957285  0.099449  0.305983  1
