# generated using pymatgen
data_Nd6IrAu7
_symmetry_space_group_name_H-M   'P 1'
_cell_length_a   8.37069573
_cell_length_b   8.37069593
_cell_length_c   8.37069592
_cell_angle_alpha   114.52301058
_cell_angle_beta   114.52301235
_cell_angle_gamma   114.52302111
_symmetry_Int_Tables_number   1
_chemical_formula_structural   Nd6IrAu7
_chemical_formula_sum   'Nd6 Ir1 Au7'
_cell_volume   342.08461201
_cell_formula_units_Z   1
loop_
 _symmetry_equiv_pos_site_id
 _symmetry_equiv_pos_as_xyz
  1  'x, y, z'
loop_
 _atom_site_type_symbol
 _atom_site_label
 _atom_site_symmetry_multiplicity
 _atom_site_fract_x
 _atom_site_fract_y
 _atom_site_fract_z
 _atom_site_occupancy
  Nd  Nd0  1  0.736757  0.617500  0.985908  1
  Nd  Nd1  1  0.985908  0.736757  0.617500  1
  Nd  Nd2  1  0.617500  0.985908  0.736757  1
  Nd  Nd3  1  0.263243  0.382500  0.014092  1
  Nd  Nd4  1  0.014092  0.263243  0.382500  1
  Nd  Nd5  1  0.382500  0.014092  0.263243  1
  Ir  Ir6  1  0.000000  0.000000  0.000000  1
  Au  Au7  1  0.570168  0.234696  0.070902  1
  Au  Au8  1  0.070902  0.570168  0.234696  1
  Au  Au9  1  0.234696  0.070902  0.570168  1
  Au  Au10  1  0.429832  0.765304  0.929098  1
  Au  Au11  1  0.929098  0.429832  0.765304  1
  Au  Au12  1  0.765304  0.929098  0.429832  1
  Au  Au13  1  0.500000  0.500000  0.500000  1
