# generated using pymatgen
data_TbDy5C2Br7
_symmetry_space_group_name_H-M   'P 1'
_cell_length_a   10.50481907
_cell_length_b   10.50481990
_cell_length_c   11.96322449
_cell_angle_alpha   57.67211545
_cell_angle_beta   57.67211339
_cell_angle_gamma   20.92350439
_symmetry_Int_Tables_number   1
_chemical_formula_structural   TbDy5C2Br7
_chemical_formula_sum   'Tb1 Dy5 C2 Br7'
_cell_volume   395.65167261
_cell_formula_units_Z   1
loop_
 _symmetry_equiv_pos_site_id
 _symmetry_equiv_pos_as_xyz
  1  'x, y, z'
loop_
 _atom_site_type_symbol
 _atom_site_label
 _atom_site_symmetry_multiplicity
 _atom_site_fract_x
 _atom_site_fract_y
 _atom_site_fract_z
 _atom_site_occupancy
  Tb  Tb0  1  0.230750  0.230750  0.835213  1
  Dy  Dy1  1  0.312735  0.312735  0.366572  1
  Dy  Dy2  1  0.131660  0.131660  0.441963  1
  Dy  Dy3  1  0.868321  0.868321  0.557999  1
  Dy  Dy4  1  0.687322  0.687322  0.633366  1
  Dy  Dy5  1  0.769141  0.769141  0.165581  1
  C  C6  1  0.280182  0.280182  0.605094  1
  C  C7  1  0.719999  0.719999  0.393985  1
  Br  Br8  1  0.164105  0.164105  0.164678  1
  Br  Br9  1  0.836474  0.836474  0.835364  1
  Br  Br10  1  0.059024  0.059024  0.718301  1
  Br  Br11  1  0.940996  0.940996  0.281580  1
  Br  Br12  1  0.500028  0.500028  0.499971  1
  Br  Br13  1  0.388599  0.388599  0.070124  1
  Br  Br14  1  0.610664  0.610664  0.930210  1
