# generated using pymatgen
data_Y8Lu2In5Bi
_symmetry_space_group_name_H-M   'P 1'
_cell_length_a   6.64946320
_cell_length_b   9.02055117
_cell_length_c   8.99864574
_cell_angle_alpha   120.08052720
_cell_angle_beta   89.93101469
_cell_angle_gamma   90.14276338
_symmetry_Int_Tables_number   1
_chemical_formula_structural   Y8Lu2In5Bi
_chemical_formula_sum   'Y8 Lu2 In5 Bi1'
_cell_volume   467.06047954
_cell_formula_units_Z   1
loop_
 _symmetry_equiv_pos_site_id
 _symmetry_equiv_pos_as_xyz
  1  'x, y, z'
loop_
 _atom_site_type_symbol
 _atom_site_label
 _atom_site_symmetry_multiplicity
 _atom_site_fract_x
 _atom_site_fract_y
 _atom_site_fract_z
 _atom_site_occupancy
  Y  Y0  1  0.495870  0.326739  0.660286  1
  Y  Y1  1  0.495881  0.666423  0.339715  1
  Y  Y2  1  0.753038  0.234604  0.000004  1
  Y  Y3  1  0.752630  0.762790  0.755546  1
  Y  Y4  1  0.752626  0.007254  0.244469  1
  Y  Y5  1  0.248636  0.761155  0.999978  1
  Y  Y6  1  0.246804  0.240808  0.239383  1
  Y  Y7  1  0.246808  0.001429  0.760593  1
  Lu  Lu8  1  0.004325  0.665435  0.337432  1
  Lu  Lu9  1  0.004319  0.327984  0.662568  1
  In  In10  1  0.756313  0.404877  0.403576  1
  In  In11  1  0.756245  0.001334  0.596450  1
  In  In12  1  0.246905  0.398915  0.000028  1
  In  In13  1  0.243298  0.597952  0.601048  1
  In  In14  1  0.243371  0.996911  0.398916  1
  Bi  Bi15  1  0.752932  0.605396  0.000008  1
