# generated using pymatgen
data_Ta6AlGa3(BIr)2
_symmetry_space_group_name_H-M   'P 1'
_cell_length_a   8.37954272
_cell_length_b   8.38197658
_cell_length_c   8.38197501
_cell_angle_alpha   60.02136126
_cell_angle_beta   60.00960862
_cell_angle_gamma   60.00959444
_symmetry_Int_Tables_number   1
_chemical_formula_structural   Ta6AlGa3(BIr)2
_chemical_formula_sum   'Ta12 Al2 Ga6 B4 Ir4'
_cell_volume   416.41965669
_cell_formula_units_Z   2
loop_
 _symmetry_equiv_pos_site_id
 _symmetry_equiv_pos_as_xyz
  1  'x, y, z'
loop_
 _atom_site_type_symbol
 _atom_site_label
 _atom_site_symmetry_multiplicity
 _atom_site_fract_x
 _atom_site_fract_y
 _atom_site_fract_z
 _atom_site_occupancy
  Ta  Ta0  1  0.557160  0.941960  0.559247  1
  Ta  Ta1  1  0.307343  0.693031  0.693031  1
  Ta  Ta2  1  0.691198  0.307403  0.307403  1
  Ta  Ta3  1  0.308367  0.690753  0.308040  1
  Ta  Ta4  1  0.693385  0.694075  0.306505  1
  Ta  Ta5  1  0.308367  0.308040  0.690753  1
  Ta  Ta6  1  0.557160  0.559247  0.941960  1
  Ta  Ta7  1  0.943405  0.556969  0.556969  1
  Ta  Ta8  1  0.556005  0.942597  0.942597  1
  Ta  Ta9  1  0.943964  0.943494  0.555926  1
  Ta  Ta10  1  0.693385  0.306505  0.694075  1
  Ta  Ta11  1  0.943964  0.555926  0.943494  1
  Al  Al12  1  0.249802  0.916885  0.916885  1
  Al  Al13  1  0.333571  0.333115  0.333115  1
  Ga  Ga14  1  0.913345  0.913068  0.913068  1
  Ga  Ga15  1  0.989479  0.336933  0.336933  1
  Ga  Ga16  1  0.336934  0.989908  0.336733  1
  Ga  Ga17  1  0.336934  0.336733  0.989908  1
  Ga  Ga18  1  0.913575  0.260092  0.913268  1
  Ga  Ga19  1  0.913575  0.913268  0.260092  1
  B  B20  1  0.625502  0.624635  0.624635  1
  B  B21  1  0.124773  0.625364  0.625364  1
  B  B22  1  0.625872  0.125000  0.624999  1
  B  B23  1  0.625872  0.624999  0.125000  1
  Ir  Ir24  1  0.126941  0.123534  0.123534  1
  Ir  Ir25  1  0.624010  0.126466  0.126466  1
  Ir  Ir26  1  0.128057  0.625000  0.125000  1
  Ir  Ir27  1  0.128057  0.125000  0.625000  1
