# generated using pymatgen
data_U7Pa3Se20
_symmetry_space_group_name_H-M   'P 1'
_cell_length_a   10.72453514
_cell_length_b   10.72777674
_cell_length_c   6.60880951
_cell_angle_alpha   89.98405814
_cell_angle_beta   90.04212758
_cell_angle_gamma   90.18855928
_symmetry_Int_Tables_number   1
_chemical_formula_structural   U7Pa3Se20
_chemical_formula_sum   'U7 Pa3 Se20'
_cell_volume   760.34194809
_cell_formula_units_Z   1
loop_
 _symmetry_equiv_pos_site_id
 _symmetry_equiv_pos_as_xyz
  1  'x, y, z'
loop_
 _atom_site_type_symbol
 _atom_site_label
 _atom_site_symmetry_multiplicity
 _atom_site_fract_x
 _atom_site_fract_y
 _atom_site_fract_z
 _atom_site_occupancy
  U  U0  1  0.652764  0.660036  0.248021  1
  U  U1  1  0.345824  0.341403  0.250463  1
  U  U2  1  0.159455  0.846267  0.249269  1
  U  U3  1  0.341505  0.653244  0.751451  1
  U  U4  1  0.155237  0.159266  0.751161  1
  U  U5  1  0.846317  0.839960  0.749819  1
  U  U6  1  0.657583  0.347908  0.749691  1
  Pa  Pa7  1  0.840842  0.153393  0.249230  1
  Pa  Pa8  1  0.500064  0.999860  0.859816  1
  Pa  Pa9  1  0.001167  0.502333  0.139928  1
  Se  Se10  1  0.709215  0.088800  0.616785  1
  Se  Se11  1  0.587552  0.791625  0.622894  1
  Se  Se12  1  0.413184  0.208762  0.622199  1
  Se  Se13  1  0.290860  0.912002  0.622129  1
  Se  Se14  1  0.708269  0.914604  0.113708  1
  Se  Se15  1  0.590168  0.206792  0.113633  1
  Se  Se16  1  0.412989  0.792362  0.112426  1
  Se  Se17  1  0.293558  0.087657  0.112045  1
  Se  Se18  1  0.499308  0.499384  0.001054  1
  Se  Se19  1  0.998777  0.000667  0.001107  1
  Se  Se20  1  0.206470  0.412452  0.887358  1
  Se  Se21  1  0.087876  0.708800  0.887346  1
  Se  Se22  1  0.911223  0.290636  0.893238  1
  Se  Se23  1  0.792562  0.586535  0.888429  1
  Se  Se24  1  0.500056  0.500650  0.499619  1
  Se  Se25  1  0.999687  0.000662  0.499182  1
  Se  Se26  1  0.208963  0.587084  0.377774  1
  Se  Se27  1  0.085520  0.289328  0.375812  1
  Se  Se28  1  0.911221  0.708189  0.378483  1
  Se  Se29  1  0.791786  0.409338  0.375931  1
