# generated using pymatgen
data_ZrPaGaRh5
_symmetry_space_group_name_H-M   'P 1'
_cell_length_a   5.66773597
_cell_length_b   5.66773661
_cell_length_c   8.20047800
_cell_angle_alpha   90.00000000
_cell_angle_beta   90.00000000
_cell_angle_gamma   96.51590102
_symmetry_Int_Tables_number   1
_chemical_formula_structural   ZrPaGaRh5
_chemical_formula_sum   'Zr2 Pa2 Ga2 Rh10'
_cell_volume   261.72425337
_cell_formula_units_Z   2
loop_
 _symmetry_equiv_pos_site_id
 _symmetry_equiv_pos_as_xyz
  1  'x, y, z'
loop_
 _atom_site_type_symbol
 _atom_site_label
 _atom_site_symmetry_multiplicity
 _atom_site_fract_x
 _atom_site_fract_y
 _atom_site_fract_z
 _atom_site_occupancy
  Zr  Zr0  1  0.224031  0.775969  0.500000  1
  Zr  Zr1  1  0.775969  0.224031  0.000000  1
  Pa  Pa2  1  0.780178  0.219822  0.500000  1
  Pa  Pa3  1  0.219822  0.780178  0.000000  1
  Ga  Ga4  1  0.502365  0.502365  0.750000  1
  Ga  Ga5  1  0.497635  0.497635  0.250000  1
  Rh  Rh6  1  0.721223  0.720075  0.000885  1
  Rh  Rh7  1  0.720075  0.721223  0.499115  1
  Rh  Rh8  1  0.279925  0.278777  0.999115  1
  Rh  Rh9  1  0.278777  0.279925  0.500885  1
  Rh  Rh10  1  0.500060  0.000207  0.749961  1
  Rh  Rh11  1  0.499940  0.999793  0.249961  1
  Rh  Rh12  1  0.000225  0.000225  0.250000  1
  Rh  Rh13  1  0.999775  0.999775  0.750000  1
  Rh  Rh14  1  0.000207  0.500060  0.750039  1
  Rh  Rh15  1  0.999793  0.499940  0.250039  1
