# generated using pymatgen
data_Er14Tm2MgIn3Rh4
_symmetry_space_group_name_H-M   'P 1'
_cell_length_a   9.57683831
_cell_length_b   9.57683869
_cell_length_c   9.58027919
_cell_angle_alpha   60.10020309
_cell_angle_beta   60.10020055
_cell_angle_gamma   60.07148126
_symmetry_Int_Tables_number   1
_chemical_formula_structural   Er14Tm2MgIn3Rh4
_chemical_formula_sum   'Er14 Tm2 Mg1 In3 Rh4'
_cell_volume   622.58459742
_cell_formula_units_Z   1
loop_
 _symmetry_equiv_pos_site_id
 _symmetry_equiv_pos_as_xyz
  1  'x, y, z'
loop_
 _atom_site_type_symbol
 _atom_site_label
 _atom_site_symmetry_multiplicity
 _atom_site_fract_x
 _atom_site_fract_y
 _atom_site_fract_z
 _atom_site_occupancy
  Er  Er0  1  0.061191  0.061191  0.438002  1
  Er  Er1  1  0.435364  0.064472  0.435181  1
  Er  Er2  1  0.060853  0.438373  0.061043  1
  Er  Er3  1  0.047744  0.649677  0.649672  1
  Er  Er4  1  0.435453  0.435453  0.064284  1
  Er  Er5  1  0.649677  0.047744  0.649672  1
  Er  Er6  1  0.187886  0.812401  0.187775  1
  Er  Er7  1  0.187681  0.187681  0.812509  1
  Er  Er8  1  0.809210  0.809210  0.191340  1
  Er  Er9  1  0.438373  0.060853  0.061043  1
  Er  Er10  1  0.812401  0.187886  0.187775  1
  Er  Er11  1  0.064472  0.435364  0.435181  1
  Er  Er12  1  0.809580  0.191066  0.809622  1
  Er  Er13  1  0.191066  0.809580  0.809622  1
  Tm  Tm14  1  0.649665  0.649665  0.047203  1
  Tm  Tm15  1  0.652397  0.652397  0.652428  1
  Mg  Mg16  1  0.422715  0.422715  0.422684  1
  In  In17  1  0.748134  0.417822  0.417876  1
  In  In18  1  0.417822  0.748134  0.417876  1
  In  In19  1  0.417973  0.417973  0.748074  1
  Rh  Rh20  1  0.858887  0.858887  0.425634  1
  Rh  Rh21  1  0.856449  0.856449  0.857342  1
  Rh  Rh22  1  0.426725  0.858282  0.859082  1
  Rh  Rh23  1  0.858282  0.426725  0.859082  1
