# generated using pymatgen
data_Y2Co3P7Ru9
_symmetry_space_group_name_H-M   'P 1'
_cell_length_a   9.33002400
_cell_length_b   9.33002417
_cell_length_c   3.83377700
_cell_angle_alpha   90.00000000
_cell_angle_beta   90.00000000
_cell_angle_gamma   119.99999939
_symmetry_Int_Tables_number   1
_chemical_formula_structural   Y2Co3P7Ru9
_chemical_formula_sum   'Y2 Co3 P7 Ru9'
_cell_volume   289.01674911
_cell_formula_units_Z   1
loop_
 _symmetry_equiv_pos_site_id
 _symmetry_equiv_pos_as_xyz
  1  'x, y, z'
loop_
 _atom_site_type_symbol
 _atom_site_label
 _atom_site_symmetry_multiplicity
 _atom_site_fract_x
 _atom_site_fract_y
 _atom_site_fract_z
 _atom_site_occupancy
  Y  Y0  1  0.000000  0.000000  0.000000  1
  Y  Y1  1  0.333333  0.666667  0.500000  1
  Co  Co2  1  0.824433  0.602034  0.000000  1
  Co  Co3  1  0.397966  0.222399  0.000000  1
  Co  Co4  1  0.777601  0.175567  0.000000  1
  P  P5  1  0.781618  0.734273  0.500000  1
  P  P6  1  0.265727  0.047346  0.500000  1
  P  P7  1  0.952654  0.218382  0.500000  1
  P  P8  1  0.666667  0.333333  0.000000  1
  P  P9  1  0.077537  0.634579  0.000000  1
  P  P10  1  0.365421  0.442958  0.000000  1
  P  P11  1  0.557042  0.922463  0.000000  1
  Ru  Ru12  1  0.091755  0.394334  0.000000  1
  Ru  Ru13  1  0.605666  0.697421  0.000000  1
  Ru  Ru14  1  0.302579  0.908245  0.000000  1
  Ru  Ru15  1  0.048692  0.767912  0.500000  1
  Ru  Ru16  1  0.232088  0.280779  0.500000  1
  Ru  Ru17  1  0.719221  0.951308  0.500000  1
  Ru  Ru18  1  0.872584  0.418312  0.500000  1
  Ru  Ru19  1  0.581688  0.454271  0.500000  1
  Ru  Ru20  1  0.545729  0.127416  0.500000  1
