# generated using pymatgen
data_Yb(Dy2Ru)2
_symmetry_space_group_name_H-M   'P 1'
_cell_length_a   8.54333312
_cell_length_b   8.54333337
_cell_length_c   7.24204193
_cell_angle_alpha   83.24738965
_cell_angle_beta   83.24739082
_cell_angle_gamma   43.89072823
_symmetry_Int_Tables_number   1
_chemical_formula_structural   Yb(Dy2Ru)2
_chemical_formula_sum   'Yb2 Dy8 Ru4'
_cell_volume   363.50445074
_cell_formula_units_Z   2
loop_
 _symmetry_equiv_pos_site_id
 _symmetry_equiv_pos_as_xyz
  1  'x, y, z'
loop_
 _atom_site_type_symbol
 _atom_site_label
 _atom_site_symmetry_multiplicity
 _atom_site_fract_x
 _atom_site_fract_y
 _atom_site_fract_z
 _atom_site_occupancy
  Yb  Yb0  1  0.017463  0.798260  0.916784  1
  Yb  Yb1  1  0.201740  0.982537  0.583216  1
  Dy  Dy2  1  0.981137  0.205146  0.084692  1
  Dy  Dy3  1  0.794854  0.018863  0.415308  1
  Dy  Dy4  1  0.365005  0.201025  0.815442  1
  Dy  Dy5  1  0.798975  0.634995  0.684558  1
  Dy  Dy6  1  0.639829  0.793351  0.186373  1
  Dy  Dy7  1  0.206649  0.360171  0.313627  1
  Dy  Dy8  1  0.569824  0.430176  0.750000  1
  Dy  Dy9  1  0.421260  0.578740  0.250000  1
  Ru  Ru10  1  0.175658  0.591814  0.571974  1
  Ru  Ru11  1  0.408186  0.824342  0.928026  1
  Ru  Ru12  1  0.818751  0.399330  0.421918  1
  Ru  Ru13  1  0.600670  0.181249  0.078082  1
