# generated using pymatgen
data_Er16MgIn2AgIr4
_symmetry_space_group_name_H-M   'P 1'
_cell_length_a   9.57097215
_cell_length_b   9.57543255
_cell_length_c   9.54556439
_cell_angle_alpha   59.89644221
_cell_angle_beta   59.92257559
_cell_angle_gamma   59.98458776
_symmetry_Int_Tables_number   1
_chemical_formula_structural   Er16MgIn2AgIr4
_chemical_formula_sum   'Er16 Mg1 In2 Ag1 Ir4'
_cell_volume   617.66810798
_cell_formula_units_Z   1
loop_
 _symmetry_equiv_pos_site_id
 _symmetry_equiv_pos_as_xyz
  1  'x, y, z'
loop_
 _atom_site_type_symbol
 _atom_site_label
 _atom_site_symmetry_multiplicity
 _atom_site_fract_x
 _atom_site_fract_y
 _atom_site_fract_z
 _atom_site_occupancy
  Er  Er0  1  0.062837  0.062110  0.437149  1
  Er  Er1  1  0.650824  0.044777  0.651140  1
  Er  Er2  1  0.191828  0.808287  0.191598  1
  Er  Er3  1  0.437614  0.062367  0.437652  1
  Er  Er4  1  0.191482  0.190064  0.809737  1
  Er  Er5  1  0.650824  0.653259  0.651140  1
  Er  Er6  1  0.049719  0.650603  0.649075  1
  Er  Er7  1  0.438003  0.065458  0.057862  1
  Er  Er8  1  0.649868  0.652002  0.046128  1
  Er  Er9  1  0.191482  0.808717  0.809737  1
  Er  Er10  1  0.812301  0.187861  0.811975  1
  Er  Er11  1  0.811862  0.188058  0.189775  1
  Er  Er12  1  0.811862  0.810303  0.189775  1
  Er  Er13  1  0.062837  0.437902  0.437149  1
  Er  Er14  1  0.438003  0.438678  0.057862  1
  Er  Er15  1  0.064921  0.438523  0.058033  1
  Mg  Mg16  1  0.729477  0.422391  0.425741  1
  In  In17  1  0.417813  0.745965  0.419513  1
  In  In18  1  0.417813  0.416708  0.419513  1
  Ag  Ag19  1  0.417694  0.415888  0.750531  1
  Ir  Ir20  1  0.859201  0.858064  0.857833  1
  Ir  Ir21  1  0.423949  0.858910  0.858230  1
  Ir  Ir22  1  0.858582  0.858201  0.425018  1
  Ir  Ir23  1  0.859201  0.424903  0.857833  1
