# generated using pymatgen
data_VMo15
_symmetry_space_group_name_H-M   'P 1'
_cell_length_a   4.47789304
_cell_length_b   4.47789385
_cell_length_c   14.72641664
_cell_angle_alpha   89.99999901
_cell_angle_beta   81.25506921
_cell_angle_gamma   119.99999150
_symmetry_Int_Tables_number   1
_chemical_formula_structural   VMo15
_chemical_formula_sum   'V1 Mo15'
_cell_volume   251.75465296
_cell_formula_units_Z   1
loop_
 _symmetry_equiv_pos_site_id
 _symmetry_equiv_pos_as_xyz
  1  'x, y, z'
loop_
 _atom_site_type_symbol
 _atom_site_label
 _atom_site_symmetry_multiplicity
 _atom_site_fract_x
 _atom_site_fract_y
 _atom_site_fract_z
 _atom_site_occupancy
  V  V0  1  0.875000  0.937500  0.187500  1
  Mo  Mo1  1  0.000744  0.500371  0.498885  1
  Mo  Mo2  1  0.499758  0.749879  0.750363  1
  Mo  Mo3  1  0.998570  0.999286  0.002145  1
  Mo  Mo4  1  0.500821  0.250411  0.248769  1
  Mo  Mo5  1  0.250242  0.125121  0.624637  1
  Mo  Mo6  1  0.749256  0.374629  0.876115  1
  Mo  Mo7  1  0.249179  0.624589  0.126231  1
  Mo  Mo8  1  0.751430  0.875714  0.372855  1
  Mo  Mo9  1  0.375915  0.187958  0.436126  1
  Mo  Mo10  1  0.875000  0.437500  0.687500  1
  Mo  Mo11  1  0.374085  0.687042  0.938874  1
  Mo  Mo12  1  0.625562  0.812782  0.561656  1
  Mo  Mo13  1  0.124438  0.062218  0.813344  1
  Mo  Mo14  1  0.623354  0.311676  0.064970  1
  Mo  Mo15  1  0.126646  0.563324  0.310030  1
