# generated using pymatgen
data_La7Nd9Cd4TcPt3
_symmetry_space_group_name_H-M   'P 1'
_cell_length_a   10.11887345
_cell_length_b   10.11262341
_cell_length_c   10.14307474
_cell_angle_alpha   59.39298357
_cell_angle_beta   59.55267486
_cell_angle_gamma   59.68562728
_symmetry_Int_Tables_number   1
_chemical_formula_structural   La7Nd9Cd4TcPt3
_chemical_formula_sum   'La7 Nd9 Cd4 Tc1 Pt3'
_cell_volume   726.30036851
_cell_formula_units_Z   1
loop_
 _symmetry_equiv_pos_site_id
 _symmetry_equiv_pos_as_xyz
  1  'x, y, z'
loop_
 _atom_site_type_symbol
 _atom_site_label
 _atom_site_symmetry_multiplicity
 _atom_site_fract_x
 _atom_site_fract_y
 _atom_site_fract_z
 _atom_site_occupancy
  La  La0  1  0.350196  0.350619  0.352034  1
  La  La1  1  0.345427  0.343298  0.957678  1
  La  La2  1  0.347244  0.956076  0.344991  1
  La  La3  1  0.955737  0.346720  0.346558  1
  La  La4  1  0.818852  0.188322  0.186181  1
  La  La5  1  0.187981  0.808559  0.807576  1
  La  La6  1  0.187956  0.819286  0.187787  1
  Nd  Nd7  1  0.806432  0.190084  0.807213  1
  Nd  Nd8  1  0.189509  0.191630  0.811974  1
  Nd  Nd9  1  0.804940  0.806694  0.189809  1
  Nd  Nd10  1  0.933311  0.565679  0.567424  1
  Nd  Nd11  1  0.560245  0.936704  0.934409  1
  Nd  Nd12  1  0.566186  0.934776  0.566234  1
  Nd  Nd13  1  0.936513  0.559062  0.935484  1
  Nd  Nd14  1  0.566354  0.564591  0.934771  1
  Nd  Nd15  1  0.935634  0.936907  0.559975  1
  Cd  Cd16  1  0.581413  0.579302  0.579414  1
  Cd  Cd17  1  0.581753  0.581418  0.256230  1
  Cd  Cd18  1  0.580170  0.256326  0.582165  1
  Cd  Cd19  1  0.256471  0.579279  0.581684  1
  Tc  Tc20  1  0.139797  0.138958  0.146065  1
  Pt  Pt21  1  0.145368  0.143640  0.575316  1
  Pt  Pt22  1  0.146320  0.576071  0.143941  1
  Pt  Pt23  1  0.576190  0.145998  0.145087  1
