# generated using pymatgen
data_Eu2Zn2Ga5Cu
_symmetry_space_group_name_H-M   'P 1'
_cell_length_a   4.34763700
_cell_length_b   4.34763700
_cell_length_c   10.59760700
_cell_angle_alpha   90.00000000
_cell_angle_beta   90.00000000
_cell_angle_gamma   90.00000000
_symmetry_Int_Tables_number   1
_chemical_formula_structural   Eu2Zn2Ga5Cu
_chemical_formula_sum   'Eu2 Zn2 Ga5 Cu1'
_cell_volume   200.31541097
_cell_formula_units_Z   1
loop_
 _symmetry_equiv_pos_site_id
 _symmetry_equiv_pos_as_xyz
  1  'x, y, z'
loop_
 _atom_site_type_symbol
 _atom_site_label
 _atom_site_symmetry_multiplicity
 _atom_site_fract_x
 _atom_site_fract_y
 _atom_site_fract_z
 _atom_site_occupancy
  Eu  Eu0  1  0.500000  0.000000  0.752461  1
  Eu  Eu1  1  0.000000  0.500000  0.247539  1
  Zn  Zn2  1  0.000000  0.000000  0.500000  1
  Zn  Zn3  1  0.500000  0.500000  0.500000  1
  Ga  Ga4  1  0.000000  0.500000  0.870614  1
  Ga  Ga5  1  0.500000  0.000000  0.366525  1
  Ga  Ga6  1  0.500000  0.000000  0.129386  1
  Ga  Ga7  1  0.000000  0.500000  0.633475  1
  Ga  Ga8  1  0.500000  0.500000  0.000000  1
  Cu  Cu9  1  0.000000  0.000000  0.000000  1
