# generated using pymatgen
data_Tb4Ho(GaTe)2
_symmetry_space_group_name_H-M   'P 1'
_cell_length_a   8.67073300
_cell_length_b   8.67073366
_cell_length_c   7.91751900
_cell_angle_alpha   90.00000000
_cell_angle_beta   90.00000000
_cell_angle_gamma   125.81604191
_symmetry_Int_Tables_number   1
_chemical_formula_structural   Tb4Ho(GaTe)2
_chemical_formula_sum   'Tb8 Ho2 Ga4 Te4'
_cell_volume   482.68975216
_cell_formula_units_Z   2
loop_
 _symmetry_equiv_pos_site_id
 _symmetry_equiv_pos_as_xyz
  1  'x, y, z'
loop_
 _atom_site_type_symbol
 _atom_site_label
 _atom_site_symmetry_multiplicity
 _atom_site_fract_x
 _atom_site_fract_y
 _atom_site_fract_z
 _atom_site_occupancy
  Tb  Tb0  1  0.795348  0.539303  0.166876  1
  Tb  Tb1  1  0.460697  0.204652  0.833124  1
  Tb  Tb2  1  0.960697  0.704652  0.666876  1
  Tb  Tb3  1  0.295348  0.039303  0.333124  1
  Tb  Tb4  1  0.204652  0.460697  0.833124  1
  Tb  Tb5  1  0.539303  0.795348  0.166876  1
  Tb  Tb6  1  0.039303  0.295348  0.333124  1
  Tb  Tb7  1  0.704652  0.960697  0.666876  1
  Ho  Ho8  1  0.000000  0.000000  0.000000  1
  Ho  Ho9  1  0.500000  0.500000  0.500000  1
  Ga  Ga10  1  0.871020  0.871020  0.372159  1
  Ga  Ga11  1  0.128980  0.128980  0.627841  1
  Ga  Ga12  1  0.628980  0.628980  0.872159  1
  Ga  Ga13  1  0.371020  0.371020  0.127841  1
  Te  Te14  1  0.204132  0.795868  0.000000  1
  Te  Te15  1  0.704132  0.295868  0.500000  1
  Te  Te16  1  0.795868  0.204132  0.000000  1
  Te  Te17  1  0.295868  0.704132  0.500000  1
