# generated using pymatgen
data_Tb2HoCo4P6Rh5
_symmetry_space_group_name_H-M   'P 1'
_cell_length_a   3.78561900
_cell_length_b   10.93631500
_cell_length_c   12.55122300
_cell_angle_alpha   90.00000000
_cell_angle_beta   90.00000000
_cell_angle_gamma   90.00000000
_symmetry_Int_Tables_number   1
_chemical_formula_structural   Tb2HoCo4P6Rh5
_chemical_formula_sum   'Tb4 Ho2 Co8 P12 Rh10'
_cell_volume   519.62969235
_cell_formula_units_Z   2
loop_
 _symmetry_equiv_pos_site_id
 _symmetry_equiv_pos_as_xyz
  1  'x, y, z'
loop_
 _atom_site_type_symbol
 _atom_site_label
 _atom_site_symmetry_multiplicity
 _atom_site_fract_x
 _atom_site_fract_y
 _atom_site_fract_z
 _atom_site_occupancy
  Tb  Tb0  1  0.000000  0.500000  0.517821  1
  Tb  Tb1  1  0.500000  0.000000  0.476036  1
  Tb  Tb2  1  0.000000  0.680342  0.803970  1
  Tb  Tb3  1  0.000000  0.319658  0.803970  1
  Ho  Ho4  1  0.500000  0.816027  0.197670  1
  Ho  Ho5  1  0.500000  0.183973  0.197670  1
  Co  Co6  1  0.000000  0.500000  0.993346  1
  Co  Co7  1  0.500000  0.000000  0.011921  1
  Co  Co8  1  0.000000  0.620734  0.283467  1
  Co  Co9  1  0.000000  0.379266  0.283467  1
  Co  Co10  1  0.500000  0.334074  0.998160  1
  Co  Co11  1  0.500000  0.665926  0.998160  1
  Co  Co12  1  0.000000  0.168151  0.007405  1
  Co  Co13  1  0.000000  0.831849  0.007405  1
  P  P14  1  0.500000  0.316319  0.618874  1
  P  P15  1  0.500000  0.683681  0.618874  1
  P  P16  1  0.000000  0.192649  0.371927  1
  P  P17  1  0.000000  0.807351  0.371927  1
  P  P18  1  0.500000  0.500000  0.895757  1
  P  P19  1  0.000000  0.000000  0.107411  1
  P  P20  1  0.500000  0.840849  0.905216  1
  P  P21  1  0.500000  0.159151  0.905216  1
  P  P22  1  0.000000  0.657091  0.104280  1
  P  P23  1  0.000000  0.342909  0.104280  1
  P  P24  1  0.500000  0.500000  0.340669  1
  P  P25  1  0.000000  0.000000  0.653012  1
  Rh  Rh26  1  0.500000  0.300499  0.425283  1
  Rh  Rh27  1  0.500000  0.699501  0.425283  1
  Rh  Rh28  1  0.000000  0.205486  0.568656  1
  Rh  Rh29  1  0.000000  0.794514  0.568656  1
  Rh  Rh30  1  0.500000  0.873060  0.716293  1
  Rh  Rh31  1  0.500000  0.126940  0.716293  1
  Rh  Rh32  1  0.500000  0.500000  0.157571  1
  Rh  Rh33  1  0.000000  0.000000  0.842923  1
  Rh  Rh34  1  0.500000  0.500000  0.708930  1
  Rh  Rh35  1  0.000000  0.000000  0.292199  1
