# generated using pymatgen
data_Nd5Ho2Er(Si3Rh)4
_symmetry_space_group_name_H-M   'P 1'
_cell_length_a   8.23316008
_cell_length_b   8.23315947
_cell_length_c   8.16464300
_cell_angle_alpha   90.00000000
_cell_angle_beta   90.00000000
_cell_angle_gamma   119.98451850
_symmetry_Int_Tables_number   1
_chemical_formula_structural   Nd5Ho2Er(Si3Rh)4
_chemical_formula_sum   'Nd5 Ho2 Er1 Si12 Rh4'
_cell_volume   479.36756772
_cell_formula_units_Z   1
loop_
 _symmetry_equiv_pos_site_id
 _symmetry_equiv_pos_as_xyz
  1  'x, y, z'
loop_
 _atom_site_type_symbol
 _atom_site_label
 _atom_site_symmetry_multiplicity
 _atom_site_fract_x
 _atom_site_fract_y
 _atom_site_fract_z
 _atom_site_occupancy
  Nd  Nd0  1  0.000043  0.999957  0.250000  1
  Nd  Nd1  1  0.999980  0.000020  0.750000  1
  Nd  Nd2  1  0.504995  0.495005  0.250000  1
  Nd  Nd3  1  0.505024  0.010096  0.250000  1
  Nd  Nd4  1  0.989904  0.494976  0.250000  1
  Ho  Ho5  1  0.492384  0.984656  0.750000  1
  Ho  Ho6  1  0.015344  0.507616  0.750000  1
  Er  Er7  1  0.492498  0.507502  0.750000  1
  Si  Si8  1  0.166820  0.833180  0.506674  1
  Si  Si9  1  0.166859  0.333591  0.507040  1
  Si  Si10  1  0.666409  0.833141  0.507040  1
  Si  Si11  1  0.831603  0.168397  0.504432  1
  Si  Si12  1  0.831643  0.663349  0.504509  1
  Si  Si13  1  0.336651  0.168357  0.504509  1
  Si  Si14  1  0.831603  0.168397  0.995568  1
  Si  Si15  1  0.831643  0.663349  0.995491  1
  Si  Si16  1  0.336651  0.168357  0.995491  1
  Si  Si17  1  0.166820  0.833180  0.993326  1
  Si  Si18  1  0.166859  0.333591  0.992960  1
  Si  Si19  1  0.666409  0.833141  0.992960  1
  Rh  Rh20  1  0.333454  0.666546  0.490523  1
  Rh  Rh21  1  0.666475  0.333525  0.545474  1
  Rh  Rh22  1  0.666475  0.333525  0.954526  1
  Rh  Rh23  1  0.333454  0.666546  0.009477  1
