# generated using pymatgen
data_PaIN
_symmetry_space_group_name_H-M   'P 1'
_cell_length_a   3.96113600
_cell_length_b   3.96113600
_cell_length_c   10.10815000
_cell_angle_alpha   90.00000000
_cell_angle_beta   90.00000000
_cell_angle_gamma   90.00000000
_symmetry_Int_Tables_number   1
_chemical_formula_structural   PaIN
_chemical_formula_sum   'Pa2 I2 N2'
_cell_volume   158.60292232
_cell_formula_units_Z   2
loop_
 _symmetry_equiv_pos_site_id
 _symmetry_equiv_pos_as_xyz
  1  'x, y, z'
loop_
 _atom_site_type_symbol
 _atom_site_label
 _atom_site_symmetry_multiplicity
 _atom_site_fract_x
 _atom_site_fract_y
 _atom_site_fract_z
 _atom_site_occupancy
  Pa  Pa0  1  0.000000  0.500000  0.885435  1
  Pa  Pa1  1  0.500000  0.000000  0.114565  1
  I  I2  1  0.000000  0.500000  0.308955  1
  I  I3  1  0.500000  0.000000  0.691045  1
  N  N4  1  0.000000  0.000000  0.000000  1
  N  N5  1  0.500000  0.500000  0.000000  1
