# generated using pymatgen
data_CaEr3Tc3B16W
_symmetry_space_group_name_H-M   'P 1'
_cell_length_a   3.57819900
_cell_length_b   5.98444982
_cell_length_c   11.57209215
_cell_angle_alpha   89.92598691
_cell_angle_beta   90.00000000
_cell_angle_gamma   90.00000000
_symmetry_Int_Tables_number   1
_chemical_formula_structural   CaEr3Tc3B16W
_chemical_formula_sum   'Ca1 Er3 Tc3 B16 W1'
_cell_volume   247.79939456
_cell_formula_units_Z   1
loop_
 _symmetry_equiv_pos_site_id
 _symmetry_equiv_pos_as_xyz
  1  'x, y, z'
loop_
 _atom_site_type_symbol
 _atom_site_label
 _atom_site_symmetry_multiplicity
 _atom_site_fract_x
 _atom_site_fract_y
 _atom_site_fract_z
 _atom_site_occupancy
  Ca  Ca0  1  0.000000  0.625871  0.347987  1
  Er  Er1  1  0.000000  0.371561  0.651373  1
  Er  Er2  1  0.000000  0.127766  0.149502  1
  Er  Er3  1  0.000000  0.873106  0.851778  1
  Tc  Tc4  1  0.000000  0.635072  0.085919  1
  Tc  Tc5  1  0.000000  0.366626  0.913635  1
  Tc  Tc6  1  0.000000  0.130668  0.415873  1
  B  B7  1  0.500000  0.786529  0.184621  1
  B  B8  1  0.500000  0.214145  0.815835  1
  B  B9  1  0.500000  0.285641  0.314050  1
  B  B10  1  0.500000  0.708974  0.687529  1
  B  B11  1  0.500000  0.864524  0.031335  1
  B  B12  1  0.500000  0.135827  0.968920  1
  B  B13  1  0.500000  0.365204  0.467004  1
  B  B14  1  0.500000  0.631220  0.531471  1
  B  B15  1  0.500000  0.886990  0.450557  1
  B  B16  1  0.500000  0.117203  0.546400  1
  B  B17  1  0.500000  0.386581  0.047496  1
  B  B18  1  0.500000  0.613460  0.952847  1
  B  B19  1  0.500000  0.979487  0.305896  1
  B  B20  1  0.500000  0.025805  0.694798  1
  B  B21  1  0.500000  0.475661  0.191802  1
  B  B22  1  0.500000  0.522102  0.808436  1
  W  W23  1  0.000000  0.869976  0.584934  1
