# generated using pymatgen
data_Ho6Tm4In2Hg5Pd4Pb
_symmetry_space_group_name_H-M   'P 1'
_cell_length_a   3.61222500
_cell_length_b   7.92367020
_cell_length_c   18.22436700
_cell_angle_alpha   89.70899581
_cell_angle_beta   90.00000000
_cell_angle_gamma   90.00000000
_symmetry_Int_Tables_number   1
_chemical_formula_structural   Ho6Tm4In2Hg5Pd4Pb
_chemical_formula_sum   'Ho6 Tm4 In2 Hg5 Pd4 Pb1'
_cell_volume   521.61255484
_cell_formula_units_Z   1
loop_
 _symmetry_equiv_pos_site_id
 _symmetry_equiv_pos_as_xyz
  1  'x, y, z'
loop_
 _atom_site_type_symbol
 _atom_site_label
 _atom_site_symmetry_multiplicity
 _atom_site_fract_x
 _atom_site_fract_y
 _atom_site_fract_z
 _atom_site_occupancy
  Ho  Ho0  1  0.000000  0.497810  0.502654  1
  Ho  Ho1  1  0.000000  0.000926  0.000325  1
  Ho  Ho2  1  0.000000  0.747270  0.284784  1
  Ho  Ho3  1  0.000000  0.265765  0.712041  1
  Ho  Ho4  1  0.000000  0.752351  0.782947  1
  Ho  Ho5  1  0.000000  0.244419  0.214244  1
  Tm  Tm6  1  0.000000  0.611344  0.082454  1
  Tm  Tm7  1  0.000000  0.388890  0.916501  1
  Tm  Tm8  1  0.000000  0.882841  0.585615  1
  Tm  Tm9  1  0.000000  0.106903  0.417751  1
  In  In10  1  0.500000  0.918973  0.150016  1
  In  In11  1  0.500000  0.081019  0.849445  1
  Hg  Hg12  1  0.500000  0.710849  0.934746  1
  Hg  Hg13  1  0.500000  0.290073  0.065521  1
  Hg  Hg14  1  0.500000  0.792402  0.436332  1
  Hg  Hg15  1  0.500000  0.202531  0.563377  1
  Hg  Hg16  1  0.500000  0.581658  0.648249  1
  Pd  Pd17  1  0.500000  0.536850  0.195874  1
  Pd  Pd18  1  0.500000  0.464798  0.804105  1
  Pd  Pd19  1  0.500000  0.972396  0.697381  1
  Pd  Pd20  1  0.500000  0.032170  0.302892  1
  Pb  Pb21  1  0.500000  0.417763  0.352747  1
