# generated using pymatgen
data_TbYb3(ReN3)4
_symmetry_space_group_name_H-M   'P 1'
_cell_length_a   7.36727294
_cell_length_b   7.36727261
_cell_length_c   6.25891090
_cell_angle_alpha   73.99947181
_cell_angle_beta   73.99948109
_cell_angle_gamma   83.58655892
_symmetry_Int_Tables_number   1
_chemical_formula_structural   TbYb3(ReN3)4
_chemical_formula_sum   'Tb1 Yb3 Re4 N12'
_cell_volume   313.66676246
_cell_formula_units_Z   1
loop_
 _symmetry_equiv_pos_site_id
 _symmetry_equiv_pos_as_xyz
  1  'x, y, z'
loop_
 _atom_site_type_symbol
 _atom_site_label
 _atom_site_symmetry_multiplicity
 _atom_site_fract_x
 _atom_site_fract_y
 _atom_site_fract_z
 _atom_site_occupancy
  Tb  Tb0  1  0.911993  0.088007  0.750000  1
  Yb  Yb1  1  0.295906  0.704094  0.750000  1
  Yb  Yb2  1  0.088336  0.911664  0.250000  1
  Yb  Yb3  1  0.704505  0.295495  0.250000  1
  Re  Re4  1  0.622522  0.798305  0.270331  1
  Re  Re5  1  0.201695  0.377478  0.229669  1
  Re  Re6  1  0.378459  0.203160  0.727528  1
  Re  Re7  1  0.796840  0.621541  0.772472  1
  N  N8  1  0.343136  0.354430  0.937694  1
  N  N9  1  0.005315  0.221966  0.346891  1
  N  N10  1  0.778034  0.994685  0.153109  1
  N  N11  1  0.219895  0.010372  0.837092  1
  N  N12  1  0.655066  0.641719  0.063672  1
  N  N13  1  0.879936  0.381559  0.829153  1
  N  N14  1  0.121596  0.615155  0.167426  1
  N  N15  1  0.989628  0.780105  0.662908  1
  N  N16  1  0.384845  0.878404  0.332574  1
  N  N17  1  0.645570  0.656864  0.562306  1
  N  N18  1  0.618441  0.120064  0.670847  1
  N  N19  1  0.358281  0.344934  0.436328  1
