# generated using pymatgen
data_Y14Er2MgHg3Rh4
_symmetry_space_group_name_H-M   'P 1'
_cell_length_a   9.66605958
_cell_length_b   9.64295767
_cell_length_c   9.66441600
_cell_angle_alpha   59.92636770
_cell_angle_beta   60.00563144
_cell_angle_gamma   59.92580342
_symmetry_Int_Tables_number   1
_chemical_formula_structural   Y14Er2MgHg3Rh4
_chemical_formula_sum   'Y14 Er2 Mg1 Hg3 Rh4'
_cell_volume   636.28645641
_cell_formula_units_Z   1
loop_
 _symmetry_equiv_pos_site_id
 _symmetry_equiv_pos_as_xyz
  1  'x, y, z'
loop_
 _atom_site_type_symbol
 _atom_site_label
 _atom_site_symmetry_multiplicity
 _atom_site_fract_x
 _atom_site_fract_y
 _atom_site_fract_z
 _atom_site_occupancy
  Y  Y0  1  0.601882  0.201619  0.598251  1
  Y  Y1  1  0.190128  0.603671  0.603102  1
  Y  Y2  1  0.058452  0.440353  0.440859  1
  Y  Y3  1  0.436625  0.061675  0.062962  1
  Y  Y4  1  0.436625  0.061675  0.438737  1
  Y  Y5  1  0.058452  0.440353  0.060337  1
  Y  Y6  1  0.437285  0.438700  0.062007  1
  Y  Y7  1  0.059341  0.060168  0.440246  1
  Y  Y8  1  0.185879  0.813259  0.813395  1
  Y  Y9  1  0.812385  0.187325  0.186091  1
  Y  Y10  1  0.812385  0.187325  0.814200  1
  Y  Y11  1  0.185879  0.813259  0.187466  1
  Y  Y12  1  0.812046  0.813498  0.187228  1
  Y  Y13  1  0.184864  0.187555  0.813791  1
  Er  Er14  1  0.600225  0.597819  0.596927  1
  Er  Er15  1  0.600225  0.597819  0.205031  1
  Mg  Mg16  1  0.534281  0.821171  0.822274  1
  Hg  Hg17  1  0.831922  0.836180  0.836768  1
  Hg  Hg18  1  0.831922  0.836180  0.495129  1
  Hg  Hg19  1  0.831791  0.494696  0.836756  1
  Rh  Rh20  1  0.391700  0.395728  0.392099  1
  Rh  Rh21  1  0.391700  0.395728  0.820475  1
  Rh  Rh22  1  0.393543  0.818698  0.393880  1
  Rh  Rh23  1  0.820464  0.395551  0.391993  1
