# generated using pymatgen
data_Yb3Ho3Al17Si7Os8
_symmetry_space_group_name_H-M   'P 1'
_cell_length_a   8.66017065
_cell_length_b   8.64368349
_cell_length_c   9.53370400
_cell_angle_alpha   90.00000000
_cell_angle_beta   90.00000000
_cell_angle_gamma   120.15587133
_symmetry_Int_Tables_number   1
_chemical_formula_structural   Yb3Ho3Al17Si7Os8
_chemical_formula_sum   'Yb3 Ho3 Al17 Si7 Os8'
_cell_volume   617.06842743
_cell_formula_units_Z   1
loop_
 _symmetry_equiv_pos_site_id
 _symmetry_equiv_pos_as_xyz
  1  'x, y, z'
loop_
 _atom_site_type_symbol
 _atom_site_label
 _atom_site_symmetry_multiplicity
 _atom_site_fract_x
 _atom_site_fract_y
 _atom_site_fract_z
 _atom_site_occupancy
  Yb  Yb0  1  0.806161  0.612472  0.750000  1
  Yb  Yb1  1  0.389974  0.191755  0.750000  1
  Yb  Yb2  1  0.801089  0.192223  0.750000  1
  Ho  Ho3  1  0.193733  0.390011  0.250000  1
  Ho  Ho4  1  0.609023  0.806398  0.250000  1
  Ho  Ho5  1  0.196869  0.804491  0.250000  1
  Al  Al6  1  0.165640  0.332299  0.578705  1
  Al  Al7  1  0.833310  0.669209  0.421774  1
  Al  Al8  1  0.669042  0.834251  0.578068  1
  Al  Al9  1  0.833310  0.669209  0.078226  1
  Al  Al10  1  0.331815  0.166657  0.423199  1
  Al  Al11  1  0.165640  0.332299  0.921295  1
  Al  Al12  1  0.165089  0.833463  0.576957  1
  Al  Al13  1  0.331815  0.166657  0.076801  1
  Al  Al14  1  0.834248  0.164931  0.422957  1
  Al  Al15  1  0.669042  0.834251  0.921932  1
  Al  Al16  1  0.834248  0.164931  0.077043  1
  Al  Al17  1  0.165089  0.833463  0.923043  1
  Al  Al18  1  0.125340  0.565540  0.750000  1
  Al  Al19  1  0.564780  0.434503  0.250000  1
  Al  Al20  1  0.439058  0.565863  0.750000  1
  Al  Al21  1  0.999635  0.999030  0.250000  1
  Al  Al22  1  0.999994  0.001068  0.750000  1
  Si  Si23  1  0.333423  0.664780  0.040318  1
  Si  Si24  1  0.666559  0.335879  0.960655  1
  Si  Si25  1  0.666559  0.335879  0.539345  1
  Si  Si26  1  0.333423  0.664780  0.459682  1
  Si  Si27  1  0.565294  0.125300  0.250000  1
  Si  Si28  1  0.435423  0.871864  0.750000  1
  Si  Si29  1  0.873655  0.433905  0.250000  1
  Os  Os30  1  0.500104  0.999368  0.004443  1
  Os  Os31  1  0.000012  0.500202  0.009797  1
  Os  Os32  1  0.500104  0.999368  0.495557  1
  Os  Os33  1  0.499962  0.501096  0.003418  1
  Os  Os34  1  0.000012  0.500202  0.490203  1
  Os  Os35  1  0.499962  0.501096  0.496582  1
  Os  Os36  1  0.000782  0.000651  0.999116  1
  Os  Os37  1  0.000782  0.000651  0.500884  1
