# generated using pymatgen
data_Nd12CoRuI17
_symmetry_space_group_name_H-M   'P 1'
_cell_length_a   10.03427394
_cell_length_b   12.03178663
_cell_length_c   12.03411341
_cell_angle_alpha   93.40860141
_cell_angle_beta   104.60741042
_cell_angle_gamma   114.61319418
_symmetry_Int_Tables_number   1
_chemical_formula_structural   Nd12CoRuI17
_chemical_formula_sum   'Nd12 Co1 Ru1 I17'
_cell_volume   1255.63648547
_cell_formula_units_Z   1
loop_
 _symmetry_equiv_pos_site_id
 _symmetry_equiv_pos_as_xyz
  1  'x, y, z'
loop_
 _atom_site_type_symbol
 _atom_site_label
 _atom_site_symmetry_multiplicity
 _atom_site_fract_x
 _atom_site_fract_y
 _atom_site_fract_z
 _atom_site_occupancy
  Nd  Nd0  1  0.054950  0.507238  0.321084  1
  Nd  Nd1  1  0.989861  0.811188  0.582315  1
  Nd  Nd2  1  0.647297  0.240930  0.283145  1
  Nd  Nd3  1  0.009377  0.191338  0.415703  1
  Nd  Nd4  1  0.221496  0.667561  0.990542  1
  Nd  Nd5  1  0.260896  0.987143  0.892482  1
  Nd  Nd6  1  0.356917  0.759822  0.715570  1
  Nd  Nd7  1  0.941948  0.488248  0.676612  1
  Nd  Nd8  1  0.742758  0.019067  0.108983  1
  Nd  Nd9  1  0.148714  0.287630  0.150471  1
  Nd  Nd10  1  0.779853  0.329922  0.013868  1
  Nd  Nd11  1  0.845760  0.711961  0.849620  1
  Co  Co12  1  0.896369  0.262072  0.214703  1
  Ru  Ru13  1  0.103934  0.737875  0.786114  1
  I  I14  1  0.783626  0.528166  0.416670  1
  I  I15  1  0.640681  0.416586  0.762120  1
  I  I16  1  0.842799  0.896576  0.324078  1
  I  I17  1  0.325917  0.212354  0.367813  1
  I  I18  1  0.156508  0.106557  0.673473  1
  I  I19  1  0.591342  0.054927  0.843615  1
  I  I20  1  0.753724  0.182765  0.537431  1
  I  I21  1  0.550675  0.711005  0.956399  1
  I  I22  1  0.359229  0.580631  0.241373  1
  I  I23  1  0.216562  0.470876  0.580152  1
  I  I24  1  0.054356  0.364177  0.895362  1
  I  I25  1  0.451515  0.293189  0.046570  1
  I  I26  1  0.999850  0.000469  0.000912  1
  I  I27  1  0.243520  0.813027  0.459208  1
  I  I28  1  0.414106  0.946898  0.158552  1
  I  I29  1  0.672961  0.787304  0.629649  1
  I  I30  1  0.942503  0.632499  0.105413  1
