# generated using pymatgen
data_SmErZn2Ga7Pd3
_symmetry_space_group_name_H-M   'P 1'
_cell_length_a   7.62862702
_cell_length_b   7.66662568
_cell_length_c   9.52414400
_cell_angle_alpha   90.00000000
_cell_angle_beta   90.00000000
_cell_angle_gamma   119.30869161
_symmetry_Int_Tables_number   1
_chemical_formula_structural   SmErZn2Ga7Pd3
_chemical_formula_sum   'Sm2 Er2 Zn4 Ga14 Pd6'
_cell_volume   485.72516157
_cell_formula_units_Z   2
loop_
 _symmetry_equiv_pos_site_id
 _symmetry_equiv_pos_as_xyz
  1  'x, y, z'
loop_
 _atom_site_type_symbol
 _atom_site_label
 _atom_site_symmetry_multiplicity
 _atom_site_fract_x
 _atom_site_fract_y
 _atom_site_fract_z
 _atom_site_occupancy
  Sm  Sm0  1  0.995461  0.670413  0.250000  1
  Sm  Sm1  1  0.004539  0.329587  0.750000  1
  Er  Er2  1  0.673378  0.998850  0.250000  1
  Er  Er3  1  0.326622  0.001150  0.750000  1
  Zn  Zn4  1  0.138242  0.137789  0.250000  1
  Zn  Zn5  1  0.861758  0.862211  0.750000  1
  Zn  Zn6  1  0.343463  0.545324  0.250000  1
  Zn  Zn7  1  0.656537  0.454676  0.750000  1
  Ga  Ga8  1  0.008702  0.334943  0.085941  1
  Ga  Ga9  1  0.991298  0.665057  0.914059  1
  Ga  Ga10  1  0.991298  0.665057  0.585941  1
  Ga  Ga11  1  0.335032  0.002298  0.416241  1
  Ga  Ga12  1  0.008702  0.334943  0.414059  1
  Ga  Ga13  1  0.664968  0.997702  0.583759  1
  Ga  Ga14  1  0.664968  0.997702  0.916241  1
  Ga  Ga15  1  0.335032  0.002298  0.083759  1
  Ga  Ga16  1  0.337201  0.332315  0.564174  1
  Ga  Ga17  1  0.662799  0.667685  0.435826  1
  Ga  Ga18  1  0.662799  0.667685  0.064174  1
  Ga  Ga19  1  0.337201  0.332315  0.935826  1
  Ga  Ga20  1  0.537902  0.340597  0.250000  1
  Ga  Ga21  1  0.462098  0.659403  0.750000  1
  Pd  Pd22  1  0.675863  0.325539  0.003859  1
  Pd  Pd23  1  0.324137  0.674461  0.996141  1
  Pd  Pd24  1  0.324137  0.674461  0.503859  1
  Pd  Pd25  1  0.675863  0.325539  0.496141  1
  Pd  Pd26  1  0.000000  0.000000  0.000000  1
  Pd  Pd27  1  0.000000  0.000000  0.500000  1
