# generated using pymatgen
data_Dy3Y6Th3Co4
_symmetry_space_group_name_H-M   'P 1'
_cell_length_a   6.31924070
_cell_length_b   6.90497079
_cell_length_c   9.58047100
_cell_angle_alpha   90.00000000
_cell_angle_beta   90.00000000
_cell_angle_gamma   90.88074750
_symmetry_Int_Tables_number   1
_chemical_formula_structural   Dy3Y6Th3Co4
_chemical_formula_sum   'Dy3 Y6 Th3 Co4'
_cell_volume   417.98653416
_cell_formula_units_Z   1
loop_
 _symmetry_equiv_pos_site_id
 _symmetry_equiv_pos_as_xyz
  1  'x, y, z'
loop_
 _atom_site_type_symbol
 _atom_site_label
 _atom_site_symmetry_multiplicity
 _atom_site_fract_x
 _atom_site_fract_y
 _atom_site_fract_z
 _atom_site_occupancy
  Dy  Dy0  1  0.645351  0.045182  0.250000  1
  Dy  Dy1  1  0.324014  0.671987  0.069647  1
  Dy  Dy2  1  0.324014  0.671987  0.430353  1
  Y  Y3  1  0.672016  0.327134  0.931860  1
  Y  Y4  1  0.175976  0.172645  0.428682  1
  Y  Y5  1  0.828916  0.827806  0.568576  1
  Y  Y6  1  0.175976  0.172645  0.071318  1
  Y  Y7  1  0.828916  0.827806  0.931424  1
  Y  Y8  1  0.672016  0.327134  0.568140  1
  Th  Th9  1  0.156950  0.445348  0.750000  1
  Th  Th10  1  0.346167  0.944289  0.750000  1
  Th  Th11  1  0.842424  0.552927  0.250000  1
  Co  Co12  1  0.531366  0.628237  0.750000  1
  Co  Co13  1  0.970406  0.127357  0.750000  1
  Co  Co14  1  0.036822  0.866463  0.250000  1
  Co  Co15  1  0.468671  0.391050  0.250000  1
