# generated using pymatgen
data_Ba10TaTcN10
_symmetry_space_group_name_H-M   'P 1'
_cell_length_a   8.19948021
_cell_length_b   8.19947998
_cell_length_c   9.62038276
_cell_angle_alpha   76.17783367
_cell_angle_beta   76.17783233
_cell_angle_gamma   96.96984703
_symmetry_Int_Tables_number   1
_chemical_formula_structural   Ba10TaTcN10
_chemical_formula_sum   'Ba10 Ta1 Tc1 N10'
_cell_volume   598.85699282
_cell_formula_units_Z   1
loop_
 _symmetry_equiv_pos_site_id
 _symmetry_equiv_pos_as_xyz
  1  'x, y, z'
loop_
 _atom_site_type_symbol
 _atom_site_label
 _atom_site_symmetry_multiplicity
 _atom_site_fract_x
 _atom_site_fract_y
 _atom_site_fract_z
 _atom_site_occupancy
  Ba  Ba0  1  0.390393  0.392358  0.382842  1
  Ba  Ba1  1  0.607642  0.609607  0.617158  1
  Ba  Ba2  1  0.668179  0.666943  0.008190  1
  Ba  Ba3  1  0.333057  0.331821  0.991810  1
  Ba  Ba4  1  0.921544  0.916642  0.203165  1
  Ba  Ba5  1  0.083358  0.078456  0.796835  1
  Ba  Ba6  1  0.559645  0.094143  0.753740  1
  Ba  Ba7  1  0.905857  0.440355  0.246260  1
  Ba  Ba8  1  0.433223  0.899629  0.247286  1
  Ba  Ba9  1  0.100371  0.566777  0.752714  1
  Ta  Ta10  1  0.243843  0.756157  0.000000  1
  Tc  Tc11  1  0.756891  0.243109  0.000000  1
  N  N12  1  0.654326  0.654528  0.309256  1
  N  N13  1  0.345472  0.345674  0.690744  1
  N  N14  1  0.713576  0.020820  0.991477  1
  N  N15  1  0.979180  0.286424  0.008523  1
  N  N16  1  0.286845  0.993427  0.009267  1
  N  N17  1  0.006573  0.713155  0.990733  1
  N  N18  1  0.400921  0.732057  0.820154  1
  N  N19  1  0.267943  0.599079  0.179845  1
  N  N20  1  0.610264  0.269103  0.166423  1
  N  N21  1  0.730897  0.389736  0.833576  1
