# generated using pymatgen
data_Tb5Ho11Cd2(HgPt2)2
_symmetry_space_group_name_H-M   'P 1'
_cell_length_a   9.62080893
_cell_length_b   9.61073934
_cell_length_c   9.63590259
_cell_angle_alpha   60.21669492
_cell_angle_beta   60.15867874
_cell_angle_gamma   60.29286709
_symmetry_Int_Tables_number   1
_chemical_formula_structural   Tb5Ho11Cd2(HgPt2)2
_chemical_formula_sum   'Tb5 Ho11 Cd2 Hg2 Pt4'
_cell_volume   633.18305267
_cell_formula_units_Z   1
loop_
 _symmetry_equiv_pos_site_id
 _symmetry_equiv_pos_as_xyz
  1  'x, y, z'
loop_
 _atom_site_type_symbol
 _atom_site_label
 _atom_site_symmetry_multiplicity
 _atom_site_fract_x
 _atom_site_fract_y
 _atom_site_fract_z
 _atom_site_occupancy
  Tb  Tb0  1  0.561726  0.936798  0.938476  1
  Tb  Tb1  1  0.565177  0.934618  0.564998  1
  Tb  Tb2  1  0.936714  0.561521  0.937531  1
  Tb  Tb3  1  0.564546  0.564326  0.936119  1
  Tb  Tb4  1  0.937391  0.936456  0.562168  1
  Ho  Ho5  1  0.350344  0.350702  0.349577  1
  Ho  Ho6  1  0.355359  0.355452  0.939336  1
  Ho  Ho7  1  0.356447  0.936392  0.355514  1
  Ho  Ho8  1  0.936211  0.356724  0.355673  1
  Ho  Ho9  1  0.811295  0.189312  0.190321  1
  Ho  Ho10  1  0.186302  0.811725  0.811786  1
  Ho  Ho11  1  0.188727  0.811330  0.190647  1
  Ho  Ho12  1  0.811710  0.186859  0.811788  1
  Ho  Ho13  1  0.188738  0.189691  0.811526  1
  Ho  Ho14  1  0.810513  0.810384  0.189006  1
  Ho  Ho15  1  0.935575  0.564152  0.564296  1
  Cd  Cd16  1  0.579606  0.255864  0.581400  1
  Cd  Cd17  1  0.255561  0.580019  0.581279  1
  Hg  Hg18  1  0.585266  0.584223  0.586785  1
  Hg  Hg19  1  0.584480  0.584863  0.242018  1
  Pt  Pt20  1  0.144017  0.144029  0.145013  1
  Pt  Pt21  1  0.142209  0.142442  0.569201  1
  Pt  Pt22  1  0.141599  0.570364  0.142833  1
  Pt  Pt23  1  0.570484  0.141753  0.142712  1
