# generated using pymatgen
data_Ca2TbHo2AgPb3
_symmetry_space_group_name_H-M   'P 1'
_cell_length_a   9.34092602
_cell_length_b   9.34193313
_cell_length_c   6.83928700
_cell_angle_alpha   90.00000000
_cell_angle_beta   90.00000000
_cell_angle_gamma   120.00358102
_symmetry_Int_Tables_number   1
_chemical_formula_structural   Ca2TbHo2AgPb3
_chemical_formula_sum   'Ca4 Tb2 Ho4 Ag2 Pb6'
_cell_volume   516.83566388
_cell_formula_units_Z   2
loop_
 _symmetry_equiv_pos_site_id
 _symmetry_equiv_pos_as_xyz
  1  'x, y, z'
loop_
 _atom_site_type_symbol
 _atom_site_label
 _atom_site_symmetry_multiplicity
 _atom_site_fract_x
 _atom_site_fract_y
 _atom_site_fract_z
 _atom_site_occupancy
  Ca  Ca0  1  0.666822  0.333259  0.500152  1
  Ca  Ca1  1  0.333178  0.666438  0.500152  1
  Ca  Ca2  1  0.333178  0.666438  0.999848  1
  Ca  Ca3  1  0.666822  0.333259  0.999848  1
  Tb  Tb4  1  0.729570  0.729423  0.250000  1
  Tb  Tb5  1  0.270430  0.999853  0.250000  1
  Ho  Ho6  1  0.000000  0.270133  0.250000  1
  Ho  Ho7  1  0.270519  0.270512  0.750000  1
  Ho  Ho8  1  0.729481  0.999993  0.750000  1
  Ho  Ho9  1  0.000000  0.729786  0.750000  1
  Ag  Ag10  1  0.000000  0.000811  0.501196  1
  Ag  Ag11  1  0.000000  0.000811  0.998804  1
  Pb  Pb12  1  0.378628  0.379136  0.250000  1
  Pb  Pb13  1  0.621372  0.000508  0.250000  1
  Pb  Pb14  1  0.000000  0.619763  0.250000  1
  Pb  Pb15  1  0.620695  0.620685  0.750000  1
  Pb  Pb16  1  0.379305  0.999990  0.750000  1
  Pb  Pb17  1  0.000000  0.379203  0.750000  1
