# generated using pymatgen
data_TbGaCu3Ag
_symmetry_space_group_name_H-M   'P 1'
_cell_length_a   5.14344386
_cell_length_b   5.14344434
_cell_length_c   5.09382741
_cell_angle_alpha   59.67726731
_cell_angle_beta   59.67726117
_cell_angle_gamma   60.00000624
_symmetry_Int_Tables_number   1
_chemical_formula_structural   TbGaCu3Ag
_chemical_formula_sum   'Tb1 Ga1 Cu3 Ag1'
_cell_volume   94.82032272
_cell_formula_units_Z   1
loop_
 _symmetry_equiv_pos_site_id
 _symmetry_equiv_pos_as_xyz
  1  'x, y, z'
loop_
 _atom_site_type_symbol
 _atom_site_label
 _atom_site_symmetry_multiplicity
 _atom_site_fract_x
 _atom_site_fract_y
 _atom_site_fract_z
 _atom_site_occupancy
  Tb  Tb0  1  0.001791  0.001791  0.994626  1
  Ga  Ga1  1  0.622071  0.622071  0.133788  1
  Cu  Cu2  1  0.623504  0.126713  0.626279  1
  Cu  Cu3  1  0.126713  0.623504  0.626279  1
  Cu  Cu4  1  0.623504  0.623504  0.626279  1
  Ag  Ag5  1  0.252417  0.252417  0.242750  1
