# generated using pymatgen
data_ThNb(PO4)3
_symmetry_space_group_name_H-M   'P 1'
_cell_length_a   9.12346407
_cell_length_b   9.12391608
_cell_length_c   9.39953200
_cell_angle_alpha   90.10671789
_cell_angle_beta   118.91379923
_cell_angle_gamma   119.97632407
_symmetry_Int_Tables_number   1
_chemical_formula_structural   ThNb(PO4)3
_chemical_formula_sum   'Th2 Nb2 P6 O24'
_cell_volume   561.87679065
_cell_formula_units_Z   2
loop_
 _symmetry_equiv_pos_site_id
 _symmetry_equiv_pos_as_xyz
  1  'x, y, z'
loop_
 _atom_site_type_symbol
 _atom_site_label
 _atom_site_symmetry_multiplicity
 _atom_site_fract_x
 _atom_site_fract_y
 _atom_site_fract_z
 _atom_site_occupancy
  Th  Th0  1  0.215458  0.859297  0.074221  1
  Th  Th1  1  0.784759  0.641057  0.426180  1
  Nb  Nb2  1  0.212969  0.357366  0.569564  1
  Nb  Nb3  1  0.786070  0.142153  0.928568  1
  P  P4  1  0.996928  0.980263  0.248397  1
  P  P5  1  0.268131  0.517695  0.250567  1
  P  P6  1  0.300936  0.751050  0.747816  1
  P  P7  1  0.732064  0.249698  0.251518  1
  P  P8  1  0.699766  0.448921  0.749347  1
  P  P9  1  0.001918  0.052149  0.752217  1
  O  O10  1  0.283748  0.690682  0.235928  1
  O  O11  1  0.880835  0.013498  0.080360  1
  O  O12  1  0.856877  0.879784  0.600842  1
  O  O13  1  0.839410  0.819034  0.263399  1
  O  O14  1  0.144976  0.950936  0.242817  1
  O  O15  1  0.446403  0.524488  0.266869  1
  O  O16  1  0.125300  0.741545  0.589934  1
  O  O17  1  0.876084  0.616980  0.905523  1
  O  O18  1  0.289574  0.766024  0.903681  1
  O  O19  1  0.508106  0.916122  0.787814  1
  O  O20  1  0.716411  0.467563  0.595160  1
  O  O21  1  0.734671  0.418316  0.259242  1
  O  O22  1  0.295279  0.580332  0.710703  1
  O  O23  1  0.267590  0.488961  0.413032  1
  O  O24  1  0.548293  0.092693  0.242178  1
  O  O25  1  0.723910  0.199347  0.088617  1
  O  O26  1  0.067824  0.361325  0.086785  1
  O  O27  1  0.927172  0.287035  0.416374  1
  O  O28  1  0.493426  0.414056  0.703885  1
  O  O29  1  0.873524  0.094171  0.787251  1
  O  O30  1  0.129308  0.212358  0.707004  1
  O  O31  1  0.124713  0.145055  0.407488  1
  O  O32  1  0.148757  0.036859  0.913470  1
  O  O33  1  0.698810  0.283190  0.793247  1
