# generated using pymatgen
data_Lu6Zn23As
_symmetry_space_group_name_H-M   'P 1'
_cell_length_a   8.98094284
_cell_length_b   8.98093327
_cell_length_c   8.98093500
_cell_angle_alpha   60.00002687
_cell_angle_beta   59.99990245
_cell_angle_gamma   60.00003127
_symmetry_Int_Tables_number   1
_chemical_formula_structural   Lu6Zn23As
_chemical_formula_sum   'Lu6 Zn23 As1'
_cell_volume   512.21209294
_cell_formula_units_Z   1
loop_
 _symmetry_equiv_pos_site_id
 _symmetry_equiv_pos_as_xyz
  1  'x, y, z'
loop_
 _atom_site_type_symbol
 _atom_site_label
 _atom_site_symmetry_multiplicity
 _atom_site_fract_x
 _atom_site_fract_y
 _atom_site_fract_z
 _atom_site_occupancy
  Lu  Lu0  1  0.714783  0.285221  0.285221  1
  Lu  Lu1  1  0.714777  0.285225  0.714771  1
  Lu  Lu2  1  0.714776  0.714777  0.285221  1
  Lu  Lu3  1  0.285222  0.714774  0.714780  1
  Lu  Lu4  1  0.285224  0.714775  0.285226  1
  Lu  Lu5  1  0.285221  0.285226  0.714781  1
  Zn  Zn6  1  0.623940  0.125353  0.125352  1
  Zn  Zn7  1  0.125354  0.623938  0.125353  1
  Zn  Zn8  1  0.125353  0.125355  0.623941  1
  Zn  Zn9  1  0.125357  0.125353  0.125355  1
  Zn  Zn10  1  0.376061  0.874648  0.874645  1
  Zn  Zn11  1  0.874644  0.376061  0.874647  1
  Zn  Zn12  1  0.874648  0.874648  0.376057  1
  Zn  Zn13  1  0.874645  0.874647  0.874646  1
  Zn  Zn14  1  0.499998  0.000000  0.000002  1
  Zn  Zn15  1  0.500000  0.000000  0.500001  1
  Zn  Zn16  1  0.499999  0.500000  0.000001  1
  Zn  Zn17  1  0.000002  0.500000  0.499997  1
  Zn  Zn18  1  0.000002  0.500000  0.999999  1
  Zn  Zn19  1  0.000000  0.000000  0.500000  1
  Zn  Zn20  1  0.999999  0.000000  0.000000  1
  Zn  Zn21  1  0.006432  0.331191  0.331190  1
  Zn  Zn22  1  0.331188  0.006435  0.331190  1
  Zn  Zn23  1  0.331191  0.331188  0.006437  1
  Zn  Zn24  1  0.331186  0.331187  0.331190  1
  Zn  Zn25  1  0.993567  0.668813  0.668809  1
  Zn  Zn26  1  0.668812  0.993565  0.668811  1
  Zn  Zn27  1  0.668810  0.668811  0.993563  1
  Zn  Zn28  1  0.668811  0.668811  0.668813  1
  As  As29  1  0.499999  0.500000  0.500001  1
