# generated using pymatgen
data_Be8Al2FeTc
_symmetry_space_group_name_H-M   'P 1'
_cell_length_a   4.33648500
_cell_length_b   4.33648683
_cell_length_c   6.97885900
_cell_angle_alpha   90.00000000
_cell_angle_beta   90.00000000
_cell_angle_gamma   119.99999365
_symmetry_Int_Tables_number   1
_chemical_formula_structural   Be8Al2FeTc
_chemical_formula_sum   'Be8 Al2 Fe1 Tc1'
_cell_volume   113.65563270
_cell_formula_units_Z   1
loop_
 _symmetry_equiv_pos_site_id
 _symmetry_equiv_pos_as_xyz
  1  'x, y, z'
loop_
 _atom_site_type_symbol
 _atom_site_label
 _atom_site_symmetry_multiplicity
 _atom_site_fract_x
 _atom_site_fract_y
 _atom_site_fract_z
 _atom_site_occupancy
  Be  Be0  1  0.000000  0.000000  0.990521  1
  Be  Be1  1  0.000000  0.000000  0.489743  1
  Be  Be2  1  0.830874  0.661749  0.254597  1
  Be  Be3  1  0.169685  0.830315  0.745458  1
  Be  Be4  1  0.660629  0.830315  0.745458  1
  Be  Be5  1  0.338251  0.169126  0.254597  1
  Be  Be6  1  0.830874  0.169126  0.254597  1
  Be  Be7  1  0.169685  0.339371  0.745458  1
  Al  Al8  1  0.333333  0.666667  0.070786  1
  Al  Al9  1  0.666667  0.333333  0.561178  1
  Fe  Fe10  1  0.333333  0.666667  0.445102  1
  Tc  Tc11  1  0.666667  0.333333  0.942504  1
