# generated using pymatgen
data_Yb4ZrN4
_symmetry_space_group_name_H-M   'P 1'
_cell_length_a   6.08994590
_cell_length_b   6.09122578
_cell_length_c   9.25276950
_cell_angle_alpha   84.40820150
_cell_angle_beta   109.26093079
_cell_angle_gamma   111.72084664
_symmetry_Int_Tables_number   1
_chemical_formula_structural   Yb4ZrN4
_chemical_formula_sum   'Yb8 Zr2 N8'
_cell_volume   300.89652694
_cell_formula_units_Z   2
loop_
 _symmetry_equiv_pos_site_id
 _symmetry_equiv_pos_as_xyz
  1  'x, y, z'
loop_
 _atom_site_type_symbol
 _atom_site_label
 _atom_site_symmetry_multiplicity
 _atom_site_fract_x
 _atom_site_fract_y
 _atom_site_fract_z
 _atom_site_occupancy
  Yb  Yb0  1  0.814109  0.272456  0.196767  1
  Yb  Yb1  1  0.185891  0.727544  0.803233  1
  Yb  Yb2  1  0.239770  0.244869  0.993634  1
  Yb  Yb3  1  0.760230  0.755131  0.006366  1
  Yb  Yb4  1  0.049303  0.263035  0.573927  1
  Yb  Yb5  1  0.950697  0.736965  0.426073  1
  Yb  Yb6  1  0.538421  0.753164  0.594953  1
  Yb  Yb7  1  0.461579  0.246836  0.405047  1
  Zr  Zr8  1  0.608194  0.279763  0.765955  1
  Zr  Zr9  1  0.391806  0.720237  0.234045  1
  N  N10  1  0.311991  0.011178  0.615090  1
  N  N11  1  0.688009  0.988822  0.384910  1
  N  N12  1  0.813256  0.155606  0.959039  1
  N  N13  1  0.186744  0.844394  0.040961  1
  N  N14  1  0.422448  0.490088  0.801658  1
  N  N15  1  0.577552  0.509912  0.198342  1
  N  N16  1  0.197369  0.512048  0.383173  1
  N  N17  1  0.802631  0.487952  0.616827  1
