# generated using pymatgen
data_Cs6CeLuBr12
_symmetry_space_group_name_H-M   'P 1'
_cell_length_a   10.05967497
_cell_length_b   10.06092088
_cell_length_c   8.36757700
_cell_angle_alpha   90.00000000
_cell_angle_beta   90.00000000
_cell_angle_gamma   90.07089436
_symmetry_Int_Tables_number   1
_chemical_formula_structural   Cs6CeLuBr12
_chemical_formula_sum   'Cs6 Ce1 Lu1 Br12'
_cell_volume   846.87842233
_cell_formula_units_Z   1
loop_
 _symmetry_equiv_pos_site_id
 _symmetry_equiv_pos_as_xyz
  1  'x, y, z'
loop_
 _atom_site_type_symbol
 _atom_site_label
 _atom_site_symmetry_multiplicity
 _atom_site_fract_x
 _atom_site_fract_y
 _atom_site_fract_z
 _atom_site_occupancy
  Cs  Cs0  1  0.000000  0.000000  0.500000  1
  Cs  Cs1  1  0.000000  0.000000  0.000000  1
  Cs  Cs2  1  0.239090  0.584089  0.500000  1
  Cs  Cs3  1  0.760910  0.415911  0.500000  1
  Cs  Cs4  1  0.417484  0.231393  0.000000  1
  Cs  Cs5  1  0.582516  0.768607  0.000000  1
  Ce  Ce6  1  0.000000  0.500000  0.000000  1
  Lu  Lu7  1  0.500000  0.000000  0.500000  1
  Br  Br8  1  0.687450  0.055624  0.734349  1
  Br  Br9  1  0.312550  0.944376  0.734349  1
  Br  Br10  1  0.940919  0.697781  0.246262  1
  Br  Br11  1  0.059081  0.302219  0.246262  1
  Br  Br12  1  0.312550  0.944376  0.265651  1
  Br  Br13  1  0.687450  0.055624  0.265651  1
  Br  Br14  1  0.059081  0.302219  0.753738  1
  Br  Br15  1  0.940919  0.697781  0.753738  1
  Br  Br16  1  0.569232  0.735591  0.500000  1
  Br  Br17  1  0.430768  0.264409  0.500000  1
  Br  Br18  1  0.279599  0.570822  0.000000  1
  Br  Br19  1  0.720401  0.429178  0.000000  1
