# generated using pymatgen
data_Th3AlIn2Pt2Rh
_symmetry_space_group_name_H-M   'P 1'
_cell_length_a   7.58659900
_cell_length_b   7.58011188
_cell_length_c   4.12486500
_cell_angle_alpha   90.00000000
_cell_angle_beta   90.00000000
_cell_angle_gamma   120.02830958
_symmetry_Int_Tables_number   1
_chemical_formula_structural   Th3AlIn2Pt2Rh
_chemical_formula_sum   'Th3 Al1 In2 Pt2 Rh1'
_cell_volume   205.37101805
_cell_formula_units_Z   1
loop_
 _symmetry_equiv_pos_site_id
 _symmetry_equiv_pos_as_xyz
  1  'x, y, z'
loop_
 _atom_site_type_symbol
 _atom_site_label
 _atom_site_symmetry_multiplicity
 _atom_site_fract_x
 _atom_site_fract_y
 _atom_site_fract_z
 _atom_site_occupancy
  Th  Th0  1  0.997770  0.407210  0.500000  1
  Th  Th1  1  0.590560  0.592790  0.500000  1
  Th  Th2  1  0.425850  0.000000  0.500000  1
  Al  Al3  1  0.756844  0.000000  0.000000  1
  In  In4  1  0.004788  0.761817  0.000000  1
  In  In5  1  0.242971  0.238183  0.000000  1
  Pt  Pt6  1  0.349314  0.674897  0.000000  1
  Pt  Pt7  1  0.674418  0.325103  0.000000  1
  Rh  Rh8  1  0.957486  0.000000  0.500000  1
