# generated using pymatgen
data_Sc9UMo3Se
_symmetry_space_group_name_H-M   'P 1'
_cell_length_a   9.01908800
_cell_length_b   9.01889105
_cell_length_c   8.47246900
_cell_angle_alpha   90.00000000
_cell_angle_beta   90.00000000
_cell_angle_gamma   120.00403098
_symmetry_Int_Tables_number   1
_chemical_formula_structural   Sc9UMo3Se
_chemical_formula_sum   'Sc18 U2 Mo6 Se2'
_cell_volume   596.81364453
_cell_formula_units_Z   2
loop_
 _symmetry_equiv_pos_site_id
 _symmetry_equiv_pos_as_xyz
  1  'x, y, z'
loop_
 _atom_site_type_symbol
 _atom_site_label
 _atom_site_symmetry_multiplicity
 _atom_site_fract_x
 _atom_site_fract_y
 _atom_site_fract_z
 _atom_site_occupancy
  Sc  Sc0  1  0.200601  0.799362  0.456644  1
  Sc  Sc1  1  0.200736  0.401255  0.456616  1
  Sc  Sc2  1  0.598737  0.799242  0.456618  1
  Sc  Sc3  1  0.799399  0.200638  0.543356  1
  Sc  Sc4  1  0.799264  0.598745  0.543384  1
  Sc  Sc5  1  0.401263  0.200758  0.543382  1
  Sc  Sc6  1  0.799399  0.200638  0.956644  1
  Sc  Sc7  1  0.799264  0.598745  0.956616  1
  Sc  Sc8  1  0.401263  0.200758  0.956618  1
  Sc  Sc9  1  0.200601  0.799362  0.043356  1
  Sc  Sc10  1  0.200736  0.401255  0.043384  1
  Sc  Sc11  1  0.598737  0.799242  0.043382  1
  Sc  Sc12  1  0.542218  0.457787  0.250000  1
  Sc  Sc13  1  0.542236  0.084528  0.250000  1
  Sc  Sc14  1  0.915484  0.457771  0.250000  1
  Sc  Sc15  1  0.457782  0.542213  0.750000  1
  Sc  Sc16  1  0.457764  0.915472  0.750000  1
  Sc  Sc17  1  0.084516  0.542229  0.750000  1
  U  U18  1  0.000000  0.000000  0.500000  1
  U  U19  1  0.000000  0.000000  0.000000  1
  Mo  Mo20  1  0.891989  0.108043  0.250000  1
  Mo  Mo21  1  0.891823  0.783825  0.250000  1
  Mo  Mo22  1  0.216173  0.108190  0.250000  1
  Mo  Mo23  1  0.108011  0.891957  0.750000  1
  Mo  Mo24  1  0.108177  0.216175  0.750000  1
  Mo  Mo25  1  0.783827  0.891810  0.750000  1
  Se  Se26  1  0.333375  0.666602  0.250000  1
  Se  Se27  1  0.666625  0.333398  0.750000  1
