# generated using pymatgen
data_Sr8Al3Si12Au
_symmetry_space_group_name_H-M   'P 1'
_cell_length_a   8.36044900
_cell_length_b   8.36045029
_cell_length_c   9.44688400
_cell_angle_alpha   90.00000000
_cell_angle_beta   90.00000000
_cell_angle_gamma   119.99999094
_symmetry_Int_Tables_number   1
_chemical_formula_structural   Sr8Al3Si12Au
_chemical_formula_sum   'Sr8 Al3 Si12 Au1'
_cell_volume   571.84525910
_cell_formula_units_Z   1
loop_
 _symmetry_equiv_pos_site_id
 _symmetry_equiv_pos_as_xyz
  1  'x, y, z'
loop_
 _atom_site_type_symbol
 _atom_site_label
 _atom_site_symmetry_multiplicity
 _atom_site_fract_x
 _atom_site_fract_y
 _atom_site_fract_z
 _atom_site_occupancy
  Sr  Sr0  1  0.500354  0.499646  0.748547  1
  Sr  Sr1  1  0.501308  0.498692  0.251400  1
  Sr  Sr2  1  0.999292  0.499646  0.748547  1
  Sr  Sr3  1  0.997386  0.498692  0.251400  1
  Sr  Sr4  1  0.500354  0.000708  0.748547  1
  Sr  Sr5  1  0.501308  0.002614  0.251400  1
  Sr  Sr6  1  0.000000  0.000000  0.749877  1
  Sr  Sr7  1  0.000000  0.000000  0.250208  1
  Al  Al8  1  0.666667  0.333333  0.998090  1
  Al  Al9  1  0.333333  0.666667  0.002177  1
  Al  Al10  1  0.333333  0.666667  0.498253  1
  Si  Si11  1  0.835710  0.164290  0.000317  1
  Si  Si12  1  0.163714  0.836286  0.999624  1
  Si  Si13  1  0.328580  0.164290  0.000317  1
  Si  Si14  1  0.161051  0.838949  0.500163  1
  Si  Si15  1  0.672572  0.836286  0.999624  1
  Si  Si16  1  0.834891  0.165109  0.500046  1
  Si  Si17  1  0.835710  0.671420  0.000317  1
  Si  Si18  1  0.677899  0.838949  0.500163  1
  Si  Si19  1  0.163714  0.327428  0.999624  1
  Si  Si20  1  0.330219  0.165109  0.500046  1
  Si  Si21  1  0.161051  0.322101  0.500163  1
  Si  Si22  1  0.834891  0.669781  0.500046  1
  Au  Au23  1  0.666667  0.333333  0.501100  1
