# generated using pymatgen
data_Np7PaS20
_symmetry_space_group_name_H-M   'P 1'
_cell_length_a   7.39219403
_cell_length_b   7.45005860
_cell_length_c   9.88187612
_cell_angle_alpha   89.87029579
_cell_angle_beta   89.94032408
_cell_angle_gamma   90.12026549
_symmetry_Int_Tables_number   1
_chemical_formula_structural   Np7PaS20
_chemical_formula_sum   'Np7 Pa1 S20'
_cell_volume   544.21454488
_cell_formula_units_Z   1
loop_
 _symmetry_equiv_pos_site_id
 _symmetry_equiv_pos_as_xyz
  1  'x, y, z'
loop_
 _atom_site_type_symbol
 _atom_site_label
 _atom_site_symmetry_multiplicity
 _atom_site_fract_x
 _atom_site_fract_y
 _atom_site_fract_z
 _atom_site_occupancy
  Np  Np0  1  0.737788  0.488926  0.848127  1
  Np  Np1  1  0.235404  0.010796  0.351917  1
  Np  Np2  1  0.734549  0.987308  0.148883  1
  Np  Np3  1  0.765669  0.988211  0.650540  1
  Np  Np4  1  0.265205  0.010196  0.849538  1
  Np  Np5  1  0.763257  0.488888  0.352445  1
  Np  Np6  1  0.236407  0.511871  0.650688  1
  Pa  Pa7  1  0.262267  0.509546  0.149477  1
  S  S8  1  0.396011  0.646452  0.399718  1
  S  S9  1  0.602574  0.354889  0.600659  1
  S  S10  1  0.104898  0.146939  0.100027  1
  S  S11  1  0.603728  0.855090  0.399634  1
  S  S12  1  0.896258  0.854605  0.900699  1
  S  S13  1  0.395924  0.146545  0.600622  1
  S  S14  1  0.898944  0.357017  0.099840  1
  S  S15  1  0.103668  0.646507  0.899690  1
  S  S16  1  0.365712  0.879661  0.106656  1
  S  S17  1  0.632604  0.117326  0.895533  1
  S  S18  1  0.132012  0.382873  0.391831  1
  S  S19  1  0.629706  0.615498  0.106507  1
  S  S20  1  0.869999  0.618822  0.604900  1
  S  S21  1  0.367995  0.383931  0.898406  1
  S  S22  1  0.866082  0.116324  0.393592  1
  S  S23  1  0.132761  0.882470  0.605766  1
  S  S24  1  0.001133  0.748703  0.246544  1
  S  S25  1  0.001018  0.250048  0.752134  1
  S  S26  1  0.497720  0.250652  0.247632  1
  S  S27  1  0.500709  0.749906  0.747994  1
