# generated using pymatgen
data_NaDy5YCo6Sn23
_symmetry_space_group_name_H-M   'P 1'
_cell_length_a   9.72648002
_cell_length_b   9.72648175
_cell_length_c   9.97405802
_cell_angle_alpha   90.00645416
_cell_angle_beta   89.99354350
_cell_angle_gamma   120.00012113
_symmetry_Int_Tables_number   1
_chemical_formula_structural   NaDy5YCo6Sn23
_chemical_formula_sum   'Na1 Dy5 Y1 Co6 Sn23'
_cell_volume   817.17197361
_cell_formula_units_Z   1
loop_
 _symmetry_equiv_pos_site_id
 _symmetry_equiv_pos_as_xyz
  1  'x, y, z'
loop_
 _atom_site_type_symbol
 _atom_site_label
 _atom_site_symmetry_multiplicity
 _atom_site_fract_x
 _atom_site_fract_y
 _atom_site_fract_z
 _atom_site_occupancy
  Na  Na0  1  0.000007  0.999993  0.000005  1
  Dy  Dy1  1  0.041324  0.520695  0.305533  1
  Dy  Dy2  1  0.479305  0.958676  0.305533  1
  Dy  Dy3  1  0.479359  0.520641  0.305492  1
  Dy  Dy4  1  0.958658  0.479321  0.694448  1
  Dy  Dy5  1  0.520679  0.041342  0.694448  1
  Y  Y6  1  0.520828  0.479172  0.694324  1
  Co  Co7  1  0.170362  0.829638  0.799211  1
  Co  Co8  1  0.659375  0.829930  0.799252  1
  Co  Co9  1  0.170070  0.340625  0.799252  1
  Co  Co10  1  0.829625  0.170375  0.200806  1
  Co  Co11  1  0.340751  0.170388  0.200804  1
  Co  Co12  1  0.829612  0.659249  0.200804  1
  Sn  Sn13  1  0.000006  0.999994  0.499967  1
  Sn  Sn14  1  0.115945  0.884055  0.271871  1
  Sn  Sn15  1  0.768070  0.883954  0.271887  1
  Sn  Sn16  1  0.116046  0.231930  0.271887  1
  Sn  Sn17  1  0.884053  0.115947  0.728122  1
  Sn  Sn18  1  0.231810  0.115885  0.728173  1
  Sn  Sn19  1  0.884115  0.768190  0.728173  1
  Sn  Sn20  1  0.343946  0.000027  0.000054  1
  Sn  Sn21  1  0.656176  0.656178  0.000101  1
  Sn  Sn22  1  0.000032  0.343946  0.999983  1
  Sn  Sn23  1  0.343822  0.343824  0.000101  1
  Sn  Sn24  1  0.999973  0.656054  0.000054  1
  Sn  Sn25  1  0.656054  0.999968  0.999983  1
  Sn  Sn26  1  0.781689  0.563129  0.453085  1
  Sn  Sn27  1  0.781508  0.218492  0.453289  1
  Sn  Sn28  1  0.436871  0.218311  0.453085  1
  Sn  Sn29  1  0.218319  0.436914  0.546731  1
  Sn  Sn30  1  0.218496  0.781504  0.546733  1
  Sn  Sn31  1  0.563086  0.781681  0.546731  1
  Sn  Sn32  1  0.666626  0.333374  0.185444  1
  Sn  Sn33  1  0.333276  0.666724  0.814542  1
  Sn  Sn34  1  0.666779  0.333221  0.884787  1
  Sn  Sn35  1  0.333349  0.666651  0.115307  1
