# generated using pymatgen
data_Yb12Er3Tm5Si16
_symmetry_space_group_name_H-M   'P 1'
_cell_length_a   7.35626404
_cell_length_b   7.77290802
_cell_length_c   15.01781903
_cell_angle_alpha   89.99892424
_cell_angle_beta   90.00768947
_cell_angle_gamma   89.99157738
_symmetry_Int_Tables_number   1
_chemical_formula_structural   Yb12Er3Tm5Si16
_chemical_formula_sum   'Yb12 Er3 Tm5 Si16'
_cell_volume   858.71232349
_cell_formula_units_Z   1
loop_
 _symmetry_equiv_pos_site_id
 _symmetry_equiv_pos_as_xyz
  1  'x, y, z'
loop_
 _atom_site_type_symbol
 _atom_site_label
 _atom_site_symmetry_multiplicity
 _atom_site_fract_x
 _atom_site_fract_y
 _atom_site_fract_z
 _atom_site_occupancy
  Yb  Yb0  1  0.972969  0.816440  0.403795  1
  Yb  Yb1  1  0.473002  0.683592  0.096226  1
  Yb  Yb2  1  0.527044  0.316404  0.596229  1
  Yb  Yb3  1  0.026974  0.183568  0.903758  1
  Yb  Yb4  1  0.027111  0.183556  0.596244  1
  Yb  Yb5  1  0.527180  0.316409  0.903753  1
  Yb  Yb6  1  0.472862  0.683615  0.403795  1
  Yb  Yb7  1  0.972828  0.816414  0.096232  1
  Yb  Yb8  1  0.352602  0.019664  0.749952  1
  Yb  Yb9  1  0.852509  0.480358  0.749987  1
  Yb  Yb10  1  0.147450  0.519702  0.250013  1
  Yb  Yb11  1  0.647468  0.980288  0.249986  1
  Er  Er12  1  0.314357  0.176513  0.121108  1
  Er  Er13  1  0.814345  0.323487  0.378905  1
  Er  Er14  1  0.185671  0.676546  0.878864  1
  Tm  Tm15  1  0.685619  0.823481  0.621133  1
  Tm  Tm16  1  0.314340  0.176446  0.378921  1
  Tm  Tm17  1  0.814309  0.323552  0.121109  1
  Tm  Tm18  1  0.185689  0.676545  0.621132  1
  Tm  Tm19  1  0.685683  0.823517  0.878844  1
  Si  Si20  1  0.857045  0.534042  0.538556  1
  Si  Si21  1  0.357282  0.966123  0.961531  1
  Si  Si22  1  0.642818  0.033711  0.461656  1
  Si  Si23  1  0.142698  0.466137  0.038474  1
  Si  Si24  1  0.143334  0.466243  0.461656  1
  Si  Si25  1  0.643369  0.033827  0.038355  1
  Si  Si26  1  0.356862  0.966056  0.538436  1
  Si  Si27  1  0.856640  0.533817  0.961644  1
  Si  Si28  1  0.977644  0.880160  0.749941  1
  Si  Si29  1  0.477954  0.619925  0.749887  1
  Si  Si30  1  0.522211  0.380255  0.249952  1
  Si  Si31  1  0.022210  0.119752  0.250056  1
  Si  Si32  1  0.249172  0.396011  0.749881  1
  Si  Si33  1  0.749010  0.103862  0.749980  1
  Si  Si34  1  0.250873  0.895981  0.250100  1
  Si  Si35  1  0.750865  0.604005  0.249909  1
