# generated using pymatgen
data_Ce6Al24Ru7Pt
_symmetry_space_group_name_H-M   'P 1'
_cell_length_a   8.90622791
_cell_length_b   8.90622736
_cell_length_c   9.53816551
_cell_angle_alpha   89.81009821
_cell_angle_beta   90.18990416
_cell_angle_gamma   119.83993603
_symmetry_Int_Tables_number   1
_chemical_formula_structural   Ce6Al24Ru7Pt
_chemical_formula_sum   'Ce6 Al24 Ru7 Pt1'
_cell_volume   656.26327835
_cell_formula_units_Z   1
loop_
 _symmetry_equiv_pos_site_id
 _symmetry_equiv_pos_as_xyz
  1  'x, y, z'
loop_
 _atom_site_type_symbol
 _atom_site_label
 _atom_site_symmetry_multiplicity
 _atom_site_fract_x
 _atom_site_fract_y
 _atom_site_fract_z
 _atom_site_occupancy
  Ce  Ce0  1  0.809439  0.613973  0.748448  1
  Ce  Ce1  1  0.193899  0.806101  0.251000  1
  Ce  Ce2  1  0.613973  0.809439  0.251552  1
  Ce  Ce3  1  0.386027  0.190561  0.748448  1
  Ce  Ce4  1  0.806101  0.193899  0.749000  1
  Ce  Ce5  1  0.190561  0.386027  0.251552  1
  Al  Al6  1  0.333246  0.666754  0.485909  1
  Al  Al7  1  0.668818  0.331182  0.984097  1
  Al  Al8  1  0.666754  0.333246  0.514091  1
  Al  Al9  1  0.331182  0.668818  0.015903  1
  Al  Al10  1  0.162091  0.324118  0.578026  1
  Al  Al11  1  0.675882  0.837909  0.578026  1
  Al  Al12  1  0.162533  0.837467  0.577761  1
  Al  Al13  1  0.837745  0.162255  0.078189  1
  Al  Al14  1  0.837467  0.162533  0.422239  1
  Al  Al15  1  0.841999  0.677196  0.077729  1
  Al  Al16  1  0.322804  0.158001  0.077729  1
  Al  Al17  1  0.677196  0.841999  0.922271  1
  Al  Al18  1  0.158001  0.322804  0.922271  1
  Al  Al19  1  0.837909  0.675882  0.421974  1
  Al  Al20  1  0.999665  0.000335  0.250206  1
  Al  Al21  1  0.000335  0.999665  0.749794  1
  Al  Al22  1  0.561784  0.124482  0.249387  1
  Al  Al23  1  0.437497  0.562503  0.747191  1
  Al  Al24  1  0.124482  0.561784  0.750613  1
  Al  Al25  1  0.875518  0.438216  0.249387  1
  Al  Al26  1  0.562503  0.437497  0.252809  1
  Al  Al27  1  0.438216  0.875518  0.750613  1
  Al  Al28  1  0.162255  0.837745  0.921811  1
  Al  Al29  1  0.324118  0.162091  0.421974  1
  Ru  Ru30  1  0.000000  0.000000  0.500000  1
  Ru  Ru31  1  0.000000  0.000000  0.000000  1
  Ru  Ru32  1  0.500000  0.000000  0.500000  1
  Ru  Ru33  1  0.000000  0.500000  0.000000  1
  Ru  Ru34  1  0.000000  0.500000  0.500000  1
  Ru  Ru35  1  0.500000  0.500000  0.500000  1
  Ru  Ru36  1  0.500000  0.000000  0.000000  1
  Pt  Pt37  1  0.500000  0.500000  0.000000  1
