# generated using pymatgen
data_DyLu3(Al3Ir)6
_symmetry_space_group_name_H-M   'P 1'
_cell_length_a   7.52955014
_cell_length_b   7.53425148
_cell_length_c   9.41951300
_cell_angle_alpha   90.00000000
_cell_angle_beta   90.00000000
_cell_angle_gamma   119.48404415
_symmetry_Int_Tables_number   1
_chemical_formula_structural   DyLu3(Al3Ir)6
_chemical_formula_sum   'Dy1 Lu3 Al18 Ir6'
_cell_volume   465.16043873
_cell_formula_units_Z   1
loop_
 _symmetry_equiv_pos_site_id
 _symmetry_equiv_pos_as_xyz
  1  'x, y, z'
loop_
 _atom_site_type_symbol
 _atom_site_label
 _atom_site_symmetry_multiplicity
 _atom_site_fract_x
 _atom_site_fract_y
 _atom_site_fract_z
 _atom_site_occupancy
  Dy  Dy0  1  0.994649  0.671439  0.250000  1
  Lu  Lu1  1  0.005292  0.327773  0.750000  1
  Lu  Lu2  1  0.672028  0.994677  0.250000  1
  Lu  Lu3  1  0.327988  0.005628  0.750000  1
  Al  Al4  1  0.129559  0.130362  0.250000  1
  Al  Al5  1  0.870724  0.871275  0.750000  1
  Al  Al6  1  0.000344  0.334413  0.073547  1
  Al  Al7  1  0.999863  0.664668  0.923208  1
  Al  Al8  1  0.999863  0.664668  0.576792  1
  Al  Al9  1  0.335935  0.001024  0.426364  1
  Al  Al10  1  0.000344  0.334413  0.426453  1
  Al  Al11  1  0.664773  0.000032  0.575399  1
  Al  Al12  1  0.664773  0.000032  0.924601  1
  Al  Al13  1  0.335935  0.001024  0.073636  1
  Al  Al14  1  0.332423  0.332488  0.553125  1
  Al  Al15  1  0.666803  0.667470  0.449639  1
  Al  Al16  1  0.666803  0.667470  0.050361  1
  Al  Al17  1  0.332423  0.332488  0.946875  1
  Al  Al18  1  0.341394  0.549977  0.250000  1
  Al  Al19  1  0.659212  0.449502  0.750000  1
  Al  Al20  1  0.548635  0.338898  0.250000  1
  Al  Al21  1  0.449869  0.659882  0.750000  1
  Ir  Ir22  1  0.672078  0.327581  0.999359  1
  Ir  Ir23  1  0.327848  0.672202  0.999430  1
  Ir  Ir24  1  0.327848  0.672202  0.500570  1
  Ir  Ir25  1  0.672078  0.327581  0.500641  1
  Ir  Ir26  1  0.000258  0.000415  0.999337  1
  Ir  Ir27  1  0.000258  0.000415  0.500663  1
