# generated using pymatgen
data_Li4Ce4Ir3Pt
_symmetry_space_group_name_H-M   'P 1'
_cell_length_a   3.96016900
_cell_length_b   7.05407693
_cell_length_c   8.52423694
_cell_angle_alpha   90.48904136
_cell_angle_beta   90.00000000
_cell_angle_gamma   90.00000000
_symmetry_Int_Tables_number   1
_chemical_formula_structural   Li4Ce4Ir3Pt
_chemical_formula_sum   'Li4 Ce4 Ir3 Pt1'
_cell_volume   238.11875580
_cell_formula_units_Z   1
loop_
 _symmetry_equiv_pos_site_id
 _symmetry_equiv_pos_as_xyz
  1  'x, y, z'
loop_
 _atom_site_type_symbol
 _atom_site_label
 _atom_site_symmetry_multiplicity
 _atom_site_fract_x
 _atom_site_fract_y
 _atom_site_fract_z
 _atom_site_occupancy
  Li  Li0  1  0.250000  0.628082  0.554215  1
  Li  Li1  1  0.250000  0.127957  0.944970  1
  Li  Li2  1  0.750000  0.372385  0.443844  1
  Li  Li3  1  0.750000  0.872083  0.055786  1
  Ce  Ce4  1  0.750000  0.458906  0.807830  1
  Ce  Ce5  1  0.250000  0.040318  0.322302  1
  Ce  Ce6  1  0.750000  0.956314  0.688789  1
  Ce  Ce7  1  0.250000  0.553580  0.186620  1
  Ir  Ir8  1  0.250000  0.732780  0.868823  1
  Ir  Ir9  1  0.250000  0.233847  0.631514  1
  Ir  Ir10  1  0.750000  0.764156  0.367725  1
  Pt  Pt11  1  0.750000  0.259591  0.127582  1
