# generated using pymatgen
data_Yb5Y11(HoIr3)4
_symmetry_space_group_name_H-M   'P 1'
_cell_length_a   10.91304961
_cell_length_b   10.94711420
_cell_length_c   6.35995636
_cell_angle_alpha   90.08733002
_cell_angle_beta   89.92132658
_cell_angle_gamma   89.93008542
_symmetry_Int_Tables_number   1
_chemical_formula_structural   Yb5Y11(HoIr3)4
_chemical_formula_sum   'Yb5 Y11 Ho4 Ir12'
_cell_volume   759.79892596
_cell_formula_units_Z   1
loop_
 _symmetry_equiv_pos_site_id
 _symmetry_equiv_pos_as_xyz
  1  'x, y, z'
loop_
 _atom_site_type_symbol
 _atom_site_label
 _atom_site_symmetry_multiplicity
 _atom_site_fract_x
 _atom_site_fract_y
 _atom_site_fract_z
 _atom_site_occupancy
  Yb  Yb0  1  0.291173  0.087464  0.377984  1
  Yb  Yb1  1  0.292529  0.912180  0.878202  1
  Yb  Yb2  1  0.709920  0.083720  0.877100  1
  Yb  Yb3  1  0.709117  0.913433  0.377195  1
  Yb  Yb4  1  0.588482  0.794176  0.876011  1
  Y  Y5  1  0.585572  0.203271  0.379689  1
  Y  Y6  1  0.412670  0.797266  0.379750  1
  Y  Y7  1  0.412095  0.204839  0.880801  1
  Y  Y8  1  0.210373  0.413186  0.624074  1
  Y  Y9  1  0.210019  0.587315  0.124466  1
  Y  Y10  1  0.789007  0.412119  0.125591  1
  Y  Y11  1  0.789193  0.587360  0.623779  1
  Y  Y12  1  0.912594  0.709660  0.126813  1
  Y  Y13  1  0.911946  0.290093  0.625580  1
  Y  Y14  1  0.087243  0.710499  0.626193  1
  Y  Y15  1  0.086742  0.290520  0.125252  1
  Ho  Ho16  1  0.000740  0.000264  0.494816  1
  Ho  Ho17  1  0.001615  0.999575  0.995056  1
  Ho  Ho18  1  0.500120  0.502548  0.993340  1
  Ho  Ho19  1  0.500200  0.499111  0.492860  1
  Ir  Ir20  1  0.854089  0.158104  0.250423  1
  Ir  Ir21  1  0.859983  0.841188  0.747262  1
  Ir  Ir22  1  0.145366  0.159210  0.750370  1
  Ir  Ir23  1  0.146562  0.840593  0.249371  1
  Ir  Ir24  1  0.651676  0.351192  0.747566  1
  Ir  Ir25  1  0.652185  0.648296  0.251941  1
  Ir  Ir26  1  0.347904  0.352616  0.243190  1
  Ir  Ir27  1  0.343211  0.645902  0.740587  1
  Ir  Ir28  1  0.499475  0.002338  0.124543  1
  Ir  Ir29  1  0.499516  0.002126  0.627326  1
  Ir  Ir30  1  0.999276  0.499979  0.881393  1
  Ir  Ir31  1  0.999406  0.499857  0.381476  1
