# generated using pymatgen
data_Er2Al10Re2Os
_symmetry_space_group_name_H-M   'P 1'
_cell_length_a   9.05184700
_cell_length_b   9.05184700
_cell_length_c   6.31863100
_cell_angle_alpha   90.00000000
_cell_angle_beta   90.00000000
_cell_angle_gamma   90.00000000
_symmetry_Int_Tables_number   1
_chemical_formula_structural   Er2Al10Re2Os
_chemical_formula_sum   'Er4 Al20 Re4 Os2'
_cell_volume   517.72293329
_cell_formula_units_Z   2
loop_
 _symmetry_equiv_pos_site_id
 _symmetry_equiv_pos_as_xyz
  1  'x, y, z'
loop_
 _atom_site_type_symbol
 _atom_site_label
 _atom_site_symmetry_multiplicity
 _atom_site_fract_x
 _atom_site_fract_y
 _atom_site_fract_z
 _atom_site_occupancy
  Er  Er0  1  0.682615  0.182615  0.000000  1
  Er  Er1  1  0.317385  0.817385  0.000000  1
  Er  Er2  1  0.817385  0.682615  0.000000  1
  Er  Er3  1  0.182615  0.317385  0.000000  1
  Al  Al4  1  0.940958  0.203288  0.290300  1
  Al  Al5  1  0.703288  0.440958  0.290300  1
  Al  Al6  1  0.500000  0.000000  0.293807  1
  Al  Al7  1  0.559042  0.703288  0.709700  1
  Al  Al8  1  0.296712  0.559042  0.709700  1
  Al  Al9  1  0.796712  0.940958  0.290300  1
  Al  Al10  1  0.940958  0.203288  0.709700  1
  Al  Al11  1  0.296712  0.559042  0.290300  1
  Al  Al12  1  0.059042  0.796712  0.290300  1
  Al  Al13  1  0.703288  0.440958  0.709700  1
  Al  Al14  1  0.440958  0.296712  0.709700  1
  Al  Al15  1  0.059042  0.796712  0.709700  1
  Al  Al16  1  0.203288  0.059042  0.709700  1
  Al  Al17  1  0.796712  0.940958  0.709700  1
  Al  Al18  1  0.203288  0.059042  0.290300  1
  Al  Al19  1  0.000000  0.500000  0.706193  1
  Al  Al20  1  0.000000  0.500000  0.293807  1
  Al  Al21  1  0.559042  0.703288  0.290300  1
  Al  Al22  1  0.440958  0.296712  0.290300  1
  Al  Al23  1  0.500000  0.000000  0.706193  1
  Re  Re24  1  0.679102  0.179102  0.500000  1
  Re  Re25  1  0.820898  0.679102  0.500000  1
  Re  Re26  1  0.179102  0.320898  0.500000  1
  Re  Re27  1  0.320898  0.820898  0.500000  1
  Os  Os28  1  0.000000  0.000000  0.000000  1
  Os  Os29  1  0.500000  0.500000  0.000000  1
