# generated using pymatgen
data_Th4HgRu3Pb2
_symmetry_space_group_name_H-M   'P 1'
_cell_length_a   7.91680300
_cell_length_b   7.91680201
_cell_length_c   3.73912400
_cell_angle_alpha   90.00000000
_cell_angle_beta   90.00000000
_cell_angle_gamma   89.20764918
_symmetry_Int_Tables_number   1
_chemical_formula_structural   Th4HgRu3Pb2
_chemical_formula_sum   'Th4 Hg1 Ru3 Pb2'
_cell_volume   234.33003661
_cell_formula_units_Z   1
loop_
 _symmetry_equiv_pos_site_id
 _symmetry_equiv_pos_as_xyz
  1  'x, y, z'
loop_
 _atom_site_type_symbol
 _atom_site_label
 _atom_site_symmetry_multiplicity
 _atom_site_fract_x
 _atom_site_fract_y
 _atom_site_fract_z
 _atom_site_occupancy
  Th  Th0  1  0.641757  0.141757  0.500000  1
  Th  Th1  1  0.202312  0.341146  0.500000  1
  Th  Th2  1  0.841146  0.702312  0.500000  1
  Th  Th3  1  0.323579  0.823579  0.500000  1
  Hg  Hg4  1  0.868243  0.368243  0.000000  1
  Ru  Ru5  1  0.358340  0.127728  0.000000  1
  Ru  Ru6  1  0.120330  0.620330  0.000000  1
  Ru  Ru7  1  0.627728  0.858340  0.000000  1
  Pb  Pb8  1  0.009882  0.006684  0.000000  1
  Pb  Pb9  1  0.506684  0.509882  0.000000  1
