# generated using pymatgen
data_La5Pr6Lu5(CdIr)4
_symmetry_space_group_name_H-M   'P 1'
_cell_length_a   9.88475844
_cell_length_b   9.86821792
_cell_length_c   9.86733653
_cell_angle_alpha   59.66455024
_cell_angle_beta   60.00447621
_cell_angle_gamma   60.00156021
_symmetry_Int_Tables_number   1
_chemical_formula_structural   La5Pr6Lu5(CdIr)4
_chemical_formula_sum   'La5 Pr6 Lu5 Cd4 Ir4'
_cell_volume   678.88518462
_cell_formula_units_Z   1
loop_
 _symmetry_equiv_pos_site_id
 _symmetry_equiv_pos_as_xyz
  1  'x, y, z'
loop_
 _atom_site_type_symbol
 _atom_site_label
 _atom_site_symmetry_multiplicity
 _atom_site_fract_x
 _atom_site_fract_y
 _atom_site_fract_z
 _atom_site_occupancy
  La  La0  1  0.343226  0.352762  0.352606  1
  La  La1  1  0.350808  0.349432  0.949046  1
  La  La2  1  0.350749  0.948679  0.349659  1
  La  La3  1  0.950643  0.352416  0.352823  1
  La  La4  1  0.816435  0.182528  0.183080  1
  Pr  Pr5  1  0.935741  0.563013  0.563057  1
  Pr  Pr6  1  0.558788  0.939146  0.938992  1
  Pr  Pr7  1  0.556679  0.938434  0.562825  1
  Pr  Pr8  1  0.944209  0.561324  0.937688  1
  Pr  Pr9  1  0.556649  0.562809  0.938448  1
  Pr  Pr10  1  0.944312  0.937744  0.561202  1
  Lu  Lu11  1  0.182885  0.818458  0.818497  1
  Lu  Lu12  1  0.188561  0.812535  0.183163  1
  Lu  Lu13  1  0.815851  0.182226  0.812880  1
  Lu  Lu14  1  0.188553  0.183215  0.812560  1
  Lu  Lu15  1  0.815835  0.812772  0.182296  1
  Cd  Cd16  1  0.581246  0.579197  0.579244  1
  Cd  Cd17  1  0.578836  0.583425  0.258459  1
  Cd  Cd18  1  0.579814  0.258364  0.582466  1
  Cd  Cd19  1  0.260549  0.578979  0.578663  1
  Ir  Ir20  1  0.140984  0.138118  0.138119  1
  Ir  Ir21  1  0.138331  0.139864  0.585935  1
  Ir  Ir22  1  0.138187  0.586007  0.139743  1
  Ir  Ir23  1  0.582127  0.138551  0.138548  1
