# generated using pymatgen
data_Ho2Ga2Cu3Si2Au
_symmetry_space_group_name_H-M   'P 1'
_cell_length_a   4.00130700
_cell_length_b   4.00130700
_cell_length_c   10.65574700
_cell_angle_alpha   90.00000000
_cell_angle_beta   90.00000000
_cell_angle_gamma   90.00000000
_symmetry_Int_Tables_number   1
_chemical_formula_structural   Ho2Ga2Cu3Si2Au
_chemical_formula_sum   'Ho2 Ga2 Cu3 Si2 Au1'
_cell_volume   170.60338669
_cell_formula_units_Z   1
loop_
 _symmetry_equiv_pos_site_id
 _symmetry_equiv_pos_as_xyz
  1  'x, y, z'
loop_
 _atom_site_type_symbol
 _atom_site_label
 _atom_site_symmetry_multiplicity
 _atom_site_fract_x
 _atom_site_fract_y
 _atom_site_fract_z
 _atom_site_occupancy
  Ho  Ho0  1  0.000000  0.500000  0.776542  1
  Ho  Ho1  1  0.500000  0.000000  0.234427  1
  Ga  Ga2  1  0.500000  0.500000  0.484147  1
  Ga  Ga3  1  0.000000  0.000000  0.484147  1
  Cu  Cu4  1  0.000000  0.000000  0.005045  1
  Cu  Cu5  1  0.500000  0.500000  0.005045  1
  Cu  Cu6  1  0.000000  0.500000  0.345871  1
  Si  Si7  1  0.000000  0.500000  0.130850  1
  Si  Si8  1  0.500000  0.000000  0.881985  1
  Au  Au9  1  0.500000  0.000000  0.651943  1
