# generated using pymatgen
data_Li4Pr3Si3As
_symmetry_space_group_name_H-M   'P 1'
_cell_length_a   4.40397836
_cell_length_b   6.85447188
_cell_length_c   8.40573960
_cell_angle_alpha   114.06204860
_cell_angle_beta   105.18656321
_cell_angle_gamma   89.99999599
_symmetry_Int_Tables_number   1
_chemical_formula_structural   Li4Pr3Si3As
_chemical_formula_sum   'Li4 Pr3 Si3 As1'
_cell_volume   221.95462521
_cell_formula_units_Z   1
loop_
 _symmetry_equiv_pos_site_id
 _symmetry_equiv_pos_as_xyz
  1  'x, y, z'
loop_
 _atom_site_type_symbol
 _atom_site_label
 _atom_site_symmetry_multiplicity
 _atom_site_fract_x
 _atom_site_fract_y
 _atom_site_fract_z
 _atom_site_occupancy
  Li  Li0  1  0.671067  0.980548  0.342132  1
  Li  Li1  1  0.329600  0.018157  0.659203  1
  Li  Li2  1  0.329600  0.641045  0.659203  1
  Li  Li3  1  0.671067  0.361584  0.342132  1
  Pr  Pr4  1  0.998163  0.998163  0.996327  1
  Pr  Pr5  1  0.131288  0.631288  0.262576  1
  Pr  Pr6  1  0.870879  0.370879  0.741757  1
  Si  Si7  1  0.499761  0.676476  0.999524  1
  Si  Si8  1  0.499761  0.323048  0.999524  1
  Si  Si9  1  0.786281  0.786281  0.572560  1
  As  As10  1  0.212532  0.212532  0.425064  1
