# generated using pymatgen
data_ErTm7B24(IrRh)2
_symmetry_space_group_name_H-M   'P 1'
_cell_length_a   3.61167900
_cell_length_b   9.11906628
_cell_length_c   11.44586622
_cell_angle_alpha   90.12893192
_cell_angle_beta   90.00000000
_cell_angle_gamma   90.00000000
_symmetry_Int_Tables_number   1
_chemical_formula_structural   ErTm7B24(IrRh)2
_chemical_formula_sum   'Er1 Tm7 B24 Ir2 Rh2'
_cell_volume   376.97025380
_cell_formula_units_Z   1
loop_
 _symmetry_equiv_pos_site_id
 _symmetry_equiv_pos_as_xyz
  1  'x, y, z'
loop_
 _atom_site_type_symbol
 _atom_site_label
 _atom_site_symmetry_multiplicity
 _atom_site_fract_x
 _atom_site_fract_y
 _atom_site_fract_z
 _atom_site_occupancy
  Er  Er0  1  0.500000  0.322798  0.414032  1
  Tm  Tm1  1  0.500000  0.677212  0.585875  1
  Tm  Tm2  1  0.500000  0.179570  0.912705  1
  Tm  Tm3  1  0.500000  0.820417  0.087295  1
  Tm  Tm4  1  0.500000  0.445254  0.126507  1
  Tm  Tm5  1  0.500000  0.554794  0.873461  1
  Tm  Tm6  1  0.500000  0.056493  0.625833  1
  Tm  Tm7  1  0.500000  0.943366  0.374239  1
  B  B8  1  0.000000  0.109401  0.470167  1
  B  B9  1  0.000000  0.890248  0.529953  1
  B  B10  1  0.000000  0.390793  0.970320  1
  B  B11  1  0.000000  0.609263  0.029641  1
  B  B12  1  0.000000  0.132335  0.316255  1
  B  B13  1  0.000000  0.867441  0.683652  1
  B  B14  1  0.000000  0.366799  0.816479  1
  B  B15  1  0.000000  0.633260  0.183491  1
  B  B16  1  0.000000  0.053935  0.065195  1
  B  B17  1  0.000000  0.946044  0.934756  1
  B  B18  1  0.000000  0.446859  0.565163  1
  B  B19  1  0.000000  0.553566  0.435065  1
  B  B20  1  0.000000  0.482217  0.286814  1
  B  B21  1  0.000000  0.518122  0.713037  1
  B  B22  1  0.000000  0.018195  0.786415  1
  B  B23  1  0.000000  0.981713  0.213601  1
  B  B24  1  0.000000  0.250145  0.078707  1
  B  B25  1  0.000000  0.749855  0.921232  1
  B  B26  1  0.000000  0.250848  0.579156  1
  B  B27  1  0.000000  0.749085  0.421147  1
  B  B28  1  0.000000  0.294399  0.235344  1
  B  B29  1  0.000000  0.705529  0.764455  1
  B  B30  1  0.000000  0.205554  0.736179  1
  B  B31  1  0.000000  0.794424  0.263858  1
  Ir  Ir32  1  0.500000  0.138503  0.177922  1
  Ir  Ir33  1  0.500000  0.861423  0.822010  1
  Rh  Rh34  1  0.500000  0.360417  0.680204  1
  Rh  Rh35  1  0.500000  0.639722  0.319836  1
