# generated using pymatgen
data_Y2Ga5CoRh2
_symmetry_space_group_name_H-M   'P 1'
_cell_length_a   8.52458334
_cell_length_b   8.52458369
_cell_length_c   5.59926600
_cell_angle_alpha   70.87210381
_cell_angle_beta   70.87211010
_cell_angle_gamma   96.62391295
_symmetry_Int_Tables_number   1
_chemical_formula_structural   Y2Ga5CoRh2
_chemical_formula_sum   'Y4 Ga10 Co2 Rh4'
_cell_volume   351.71364556
_cell_formula_units_Z   2
loop_
 _symmetry_equiv_pos_site_id
 _symmetry_equiv_pos_as_xyz
  1  'x, y, z'
loop_
 _atom_site_type_symbol
 _atom_site_label
 _atom_site_symmetry_multiplicity
 _atom_site_fract_x
 _atom_site_fract_y
 _atom_site_fract_z
 _atom_site_occupancy
  Y  Y0  1  0.582280  0.867835  0.775441  1
  Y  Y1  1  0.132165  0.417720  0.724559  1
  Y  Y2  1  0.417720  0.132165  0.224559  1
  Y  Y3  1  0.867835  0.582280  0.275441  1
  Ga  Ga4  1  0.499891  0.500109  0.750000  1
  Ga  Ga5  1  0.500109  0.499891  0.250000  1
  Ga  Ga6  1  0.252650  0.092592  0.826907  1
  Ga  Ga7  1  0.907408  0.747350  0.673093  1
  Ga  Ga8  1  0.747350  0.907408  0.173093  1
  Ga  Ga9  1  0.092592  0.252650  0.326907  1
  Ga  Ga10  1  0.802096  0.197904  0.750000  1
  Ga  Ga11  1  0.197904  0.802096  0.250000  1
  Ga  Ga12  1  0.198114  0.801886  0.750000  1
  Ga  Ga13  1  0.801886  0.198114  0.250000  1
  Co  Co14  1  0.999956  0.000044  0.750000  1
  Co  Co15  1  0.000044  0.999956  0.250000  1
  Rh  Rh16  1  0.560528  0.257495  0.591138  1
  Rh  Rh17  1  0.742505  0.439472  0.908862  1
  Rh  Rh18  1  0.439472  0.742505  0.408862  1
  Rh  Rh19  1  0.257495  0.560528  0.091138  1
