# generated using pymatgen
data_Tb5Dy3Mg2(SiB4)4
_symmetry_space_group_name_H-M   'P 1'
_cell_length_a   7.18326303
_cell_length_b   7.18325903
_cell_length_c   7.88291700
_cell_angle_alpha   89.99936105
_cell_angle_beta   90.00220554
_cell_angle_gamma   90.00976299
_symmetry_Int_Tables_number   1
_chemical_formula_structural   Tb5Dy3Mg2(SiB4)4
_chemical_formula_sum   'Tb5 Dy3 Mg2 Si4 B16'
_cell_volume   406.75251198
_cell_formula_units_Z   1
loop_
 _symmetry_equiv_pos_site_id
 _symmetry_equiv_pos_as_xyz
  1  'x, y, z'
loop_
 _atom_site_type_symbol
 _atom_site_label
 _atom_site_symmetry_multiplicity
 _atom_site_fract_x
 _atom_site_fract_y
 _atom_site_fract_z
 _atom_site_occupancy
  Tb  Tb0  1  0.682989  0.182998  0.233566  1
  Tb  Tb1  1  0.317028  0.817104  0.766403  1
  Tb  Tb2  1  0.317030  0.817039  0.233601  1
  Tb  Tb3  1  0.817066  0.682916  0.233655  1
  Tb  Tb4  1  0.817057  0.682919  0.766331  1
  Dy  Dy5  1  0.682924  0.182998  0.767015  1
  Dy  Dy6  1  0.182980  0.316994  0.767008  1
  Dy  Dy7  1  0.182962  0.317021  0.233029  1
  Mg  Mg8  1  0.000003  0.000195  0.500062  1
  Mg  Mg9  1  0.499886  0.499842  0.500062  1
  Si  Si10  1  0.115306  0.614706  0.500027  1
  Si  Si11  1  0.885051  0.384458  0.500255  1
  Si  Si12  1  0.384595  0.115701  0.500209  1
  Si  Si13  1  0.615227  0.885073  0.500166  1
  B  B14  1  0.173427  0.040278  0.999913  1
  B  B15  1  0.826642  0.960267  0.999890  1
  B  B16  1  0.960140  0.173503  0.999900  1
  B  B17  1  0.326589  0.539674  0.999968  1
  B  B18  1  0.040026  0.826815  0.999943  1
  B  B19  1  0.673276  0.459791  0.999875  1
  B  B20  1  0.539909  0.673244  0.999965  1
  B  B21  1  0.459896  0.326460  0.999836  1
  B  B22  1  0.089763  0.589498  0.999965  1
  B  B23  1  0.910461  0.410196  0.999973  1
  B  B24  1  0.410344  0.089789  0.999863  1
  B  B25  1  0.589707  0.910427  0.999845  1
  B  B26  1  0.000105  0.000268  0.161233  1
  B  B27  1  0.999939  0.000332  0.838604  1
  B  B28  1  0.499881  0.499634  0.838604  1
  B  B29  1  0.499794  0.499861  0.161234  1
