# generated using pymatgen
data_Cd3SnP7N12
_symmetry_space_group_name_H-M   'P 1'
_cell_length_a   7.43962843
_cell_length_b   7.44932221
_cell_length_c   7.44932379
_cell_angle_alpha   109.49756097
_cell_angle_beta   109.44486101
_cell_angle_gamma   109.44486481
_symmetry_Int_Tables_number   1
_chemical_formula_structural   Cd3SnP7N12
_chemical_formula_sum   'Cd3 Sn1 P7 N12'
_cell_volume   317.90997714
_cell_formula_units_Z   1
loop_
 _symmetry_equiv_pos_site_id
 _symmetry_equiv_pos_as_xyz
  1  'x, y, z'
loop_
 _atom_site_type_symbol
 _atom_site_label
 _atom_site_symmetry_multiplicity
 _atom_site_fract_x
 _atom_site_fract_y
 _atom_site_fract_z
 _atom_site_occupancy
  Cd  Cd0  1  0.997674  0.000000  0.666403  1
  Cd  Cd1  1  0.997674  0.666403  0.000000  1
  Cd  Cd2  1  0.331271  0.333597  0.333597  1
  Sn  Sn3  1  0.659313  0.000000  0.000000  1
  P  P4  1  0.247980  0.748455  0.497883  1
  P  P5  1  0.750097  0.250572  0.502117  1
  P  P6  1  0.750097  0.502117  0.250572  1
  P  P7  1  0.247980  0.497883  0.748455  1
  P  P8  1  0.499525  0.749428  0.251545  1
  P  P9  1  0.499525  0.251545  0.749428  1
  P  P10  1  0.013077  0.000000  0.000000  1
  N  N11  1  0.709705  0.288458  0.288458  1
  N  N12  1  0.286870  0.709201  0.287258  1
  N  N13  1  0.298230  0.584700  0.584700  1
  N  N14  1  0.577670  0.578058  0.290799  1
  N  N15  1  0.421247  0.711542  0.000000  1
  N  N16  1  0.999612  0.712742  0.421942  1
  N  N17  1  0.577670  0.290799  0.578058  1
  N  N18  1  0.713529  0.000000  0.415300  1
  N  N19  1  0.421247  0.000000  0.711542  1
  N  N20  1  0.713529  0.415300  0.000000  1
  N  N21  1  0.286870  0.287258  0.709201  1
  N  N22  1  0.999612  0.421942  0.712742  1
