# generated using pymatgen
data_Ca7CeP6
_symmetry_space_group_name_H-M   'P 1'
_cell_length_a   7.57476713
_cell_length_b   7.57476756
_cell_length_c   7.57476708
_cell_angle_alpha   109.68661310
_cell_angle_beta   109.68659170
_cell_angle_gamma   109.68660512
_symmetry_Int_Tables_number   1
_chemical_formula_structural   Ca7CeP6
_chemical_formula_sum   'Ca7 Ce1 P6'
_cell_volume   331.87445349
_cell_formula_units_Z   1
loop_
 _symmetry_equiv_pos_site_id
 _symmetry_equiv_pos_as_xyz
  1  'x, y, z'
loop_
 _atom_site_type_symbol
 _atom_site_label
 _atom_site_symmetry_multiplicity
 _atom_site_fract_x
 _atom_site_fract_y
 _atom_site_fract_z
 _atom_site_occupancy
  Ca  Ca0  1  0.492754  0.002452  0.870456  1
  Ca  Ca1  1  0.870456  0.492754  0.002452  1
  Ca  Ca2  1  0.136239  0.136239  0.136239  1
  Ca  Ca3  1  0.002452  0.870456  0.492754  1
  Ca  Ca4  1  0.499439  0.999432  0.364273  1
  Ca  Ca5  1  0.999432  0.364273  0.499439  1
  Ca  Ca6  1  0.364273  0.499439  0.999432  1
  Ce  Ce7  1  0.640852  0.640852  0.640852  1
  P  P8  1  0.744610  0.868060  0.110358  1
  P  P9  1  0.383341  0.261376  0.626356  1
  P  P10  1  0.261376  0.626356  0.383341  1
  P  P11  1  0.868060  0.110358  0.744610  1
  P  P12  1  0.626356  0.383341  0.261376  1
  P  P13  1  0.110358  0.744610  0.868060  1
