# generated using pymatgen
data_Mn3AlCr17(OsC3)2
_symmetry_space_group_name_H-M   'P 1'
_cell_length_a   7.48737850
_cell_length_b   7.48737969
_cell_length_c   7.48737983
_cell_angle_alpha   60.13514354
_cell_angle_beta   60.13514054
_cell_angle_gamma   60.13513899
_symmetry_Int_Tables_number   1
_chemical_formula_structural   Mn3AlCr17(OsC3)2
_chemical_formula_sum   'Mn3 Al1 Cr17 Os2 C6'
_cell_volume   297.71589029
_cell_formula_units_Z   1
loop_
 _symmetry_equiv_pos_site_id
 _symmetry_equiv_pos_as_xyz
  1  'x, y, z'
loop_
 _atom_site_type_symbol
 _atom_site_label
 _atom_site_symmetry_multiplicity
 _atom_site_fract_x
 _atom_site_fract_y
 _atom_site_fract_z
 _atom_site_occupancy
  Mn  Mn0  1  0.615802  0.615802  0.152402  1
  Mn  Mn1  1  0.615802  0.152401  0.615802  1
  Mn  Mn2  1  0.152402  0.615802  0.615802  1
  Al  Al3  1  0.999345  0.999345  0.999345  1
  Cr  Cr4  1  0.616473  0.616473  0.616473  1
  Cr  Cr5  1  0.386099  0.386099  0.843833  1
  Cr  Cr6  1  0.386099  0.843833  0.386099  1
  Cr  Cr7  1  0.843833  0.386099  0.386099  1
  Cr  Cr8  1  0.385903  0.385903  0.385903  1
  Cr  Cr9  1  0.997940  0.997940  0.345807  1
  Cr  Cr10  1  0.656593  0.999869  0.344189  1
  Cr  Cr11  1  0.999869  0.656593  0.344189  1
  Cr  Cr12  1  0.656593  0.344189  0.999869  1
  Cr  Cr13  1  0.997940  0.345807  0.997940  1
  Cr  Cr14  1  0.999869  0.344189  0.656593  1
  Cr  Cr15  1  0.344189  0.656593  0.999869  1
  Cr  Cr16  1  0.344189  0.999869  0.656593  1
  Cr  Cr17  1  0.345807  0.997940  0.997940  1
  Cr  Cr18  1  0.999366  0.999366  0.655108  1
  Cr  Cr19  1  0.999366  0.655108  0.999366  1
  Cr  Cr20  1  0.655108  0.999366  0.999366  1
  Os  Os21  1  0.750067  0.750067  0.750067  1
  Os  Os22  1  0.250263  0.250263  0.250263  1
  C  C23  1  0.722699  0.722699  0.276283  1
  C  C24  1  0.278703  0.722002  0.278703  1
  C  C25  1  0.722002  0.278703  0.278703  1
  C  C26  1  0.278703  0.278703  0.722002  1
  C  C27  1  0.722699  0.276283  0.722699  1
  C  C28  1  0.276283  0.722699  0.722699  1
