# generated using pymatgen
data_Cs4TaInBr12
_symmetry_space_group_name_H-M   'P 1'
_cell_length_a   8.05062100
_cell_length_b   8.05062100
_cell_length_c   11.33516300
_cell_angle_alpha   90.00000000
_cell_angle_beta   90.00000000
_cell_angle_gamma   90.00000000
_symmetry_Int_Tables_number   1
_chemical_formula_structural   Cs4TaInBr12
_chemical_formula_sum   'Cs4 Ta1 In1 Br12'
_cell_volume   734.66023477
_cell_formula_units_Z   1
loop_
 _symmetry_equiv_pos_site_id
 _symmetry_equiv_pos_as_xyz
  1  'x, y, z'
loop_
 _atom_site_type_symbol
 _atom_site_label
 _atom_site_symmetry_multiplicity
 _atom_site_fract_x
 _atom_site_fract_y
 _atom_site_fract_z
 _atom_site_occupancy
  Cs  Cs0  1  0.500000  0.000000  0.780433  1
  Cs  Cs1  1  0.000000  0.500000  0.219567  1
  Cs  Cs2  1  0.500000  0.000000  0.219567  1
  Cs  Cs3  1  0.000000  0.500000  0.780433  1
  Ta  Ta4  1  0.500000  0.500000  0.500000  1
  In  In5  1  0.000000  0.000000  0.000000  1
  Br  Br6  1  0.000000  0.000000  0.758873  1
  Br  Br7  1  0.500000  0.500000  0.275210  1
  Br  Br8  1  0.723120  0.723120  0.500000  1
  Br  Br9  1  0.239771  0.239771  0.000000  1
  Br  Br10  1  0.723120  0.276880  0.500000  1
  Br  Br11  1  0.239771  0.760229  0.000000  1
  Br  Br12  1  0.000000  0.000000  0.241127  1
  Br  Br13  1  0.500000  0.500000  0.724790  1
  Br  Br14  1  0.276880  0.276880  0.500000  1
  Br  Br15  1  0.760229  0.760229  0.000000  1
  Br  Br16  1  0.276880  0.723120  0.500000  1
  Br  Br17  1  0.760229  0.239771  0.000000  1
