# generated using pymatgen
data_Er10Ir5Au
_symmetry_space_group_name_H-M   'P 1'
_cell_length_a   10.94186761
_cell_length_b   10.88834200
_cell_length_c   6.29543131
_cell_angle_alpha   90.00000000
_cell_angle_beta   89.78573845
_cell_angle_gamma   90.00000000
_symmetry_Int_Tables_number   1
_chemical_formula_structural   Er10Ir5Au
_chemical_formula_sum   'Er20 Ir10 Au2'
_cell_volume   750.02486590
_cell_formula_units_Z   2
loop_
 _symmetry_equiv_pos_site_id
 _symmetry_equiv_pos_as_xyz
  1  'x, y, z'
loop_
 _atom_site_type_symbol
 _atom_site_label
 _atom_site_symmetry_multiplicity
 _atom_site_fract_x
 _atom_site_fract_y
 _atom_site_fract_z
 _atom_site_occupancy
  Er  Er0  1  0.292388  0.088198  0.373104  1
  Er  Er1  1  0.292388  0.911802  0.873104  1
  Er  Er2  1  0.699378  0.091594  0.867109  1
  Er  Er3  1  0.699378  0.908406  0.367109  1
  Er  Er4  1  0.579048  0.789589  0.877761  1
  Er  Er5  1  0.579048  0.210411  0.377761  1
  Er  Er6  1  0.409644  0.790798  0.377206  1
  Er  Er7  1  0.409644  0.209202  0.877206  1
  Er  Er8  1  0.209186  0.411553  0.621757  1
  Er  Er9  1  0.209186  0.588447  0.121757  1
  Er  Er10  1  0.789605  0.419034  0.122338  1
  Er  Er11  1  0.789605  0.580966  0.622338  1
  Er  Er12  1  0.916320  0.704904  0.136499  1
  Er  Er13  1  0.916320  0.295096  0.636499  1
  Er  Er14  1  0.095218  0.704061  0.623431  1
  Er  Er15  1  0.095218  0.295939  0.123431  1
  Er  Er16  1  0.008715  0.998992  0.500107  1
  Er  Er17  1  0.008715  0.001008  0.000107  1
  Er  Er18  1  0.499605  0.499075  0.000388  1
  Er  Er19  1  0.499605  0.500925  0.500388  1
  Ir  Ir20  1  0.153298  0.153707  0.750226  1
  Ir  Ir21  1  0.153298  0.846293  0.250226  1
  Ir  Ir22  1  0.655364  0.345528  0.749044  1
  Ir  Ir23  1  0.655364  0.654472  0.249044  1
  Ir  Ir24  1  0.346690  0.345963  0.251128  1
  Ir  Ir25  1  0.346690  0.654037  0.751128  1
  Ir  Ir26  1  0.500585  0.999686  0.122368  1
  Ir  Ir27  1  0.500585  0.000314  0.622368  1
  Ir  Ir28  1  0.999576  0.500445  0.877657  1
  Ir  Ir29  1  0.999576  0.499555  0.377657  1
  Au  Au30  1  0.845379  0.154399  0.249878  1
  Au  Au31  1  0.845379  0.845601  0.749878  1
