# generated using pymatgen
data_Lu12TlFe2RuPb
_symmetry_space_group_name_H-M   'P 1'
_cell_length_a   8.22030066
_cell_length_b   8.22030522
_cell_length_c   8.22030123
_cell_angle_alpha   108.48471095
_cell_angle_beta   108.71848180
_cell_angle_gamma   111.22488878
_symmetry_Int_Tables_number   1
_chemical_formula_structural   Lu12TlFe2RuPb
_chemical_formula_sum   'Lu12 Tl1 Fe2 Ru1 Pb1'
_cell_volume   427.30065477
_cell_formula_units_Z   1
loop_
 _symmetry_equiv_pos_site_id
 _symmetry_equiv_pos_as_xyz
  1  'x, y, z'
loop_
 _atom_site_type_symbol
 _atom_site_label
 _atom_site_symmetry_multiplicity
 _atom_site_fract_x
 _atom_site_fract_y
 _atom_site_fract_z
 _atom_site_occupancy
  Lu  Lu0  1  0.309328  0.307194  0.616522  1
  Lu  Lu1  1  0.690672  0.692806  0.383478  1
  Lu  Lu2  1  0.690672  0.307194  0.997866  1
  Lu  Lu3  1  0.309328  0.692806  0.002134  1
  Lu  Lu4  1  0.194921  0.429771  0.234849  1
  Lu  Lu5  1  0.805079  0.570229  0.765151  1
  Lu  Lu6  1  0.194921  0.960071  0.765152  1
  Lu  Lu7  1  0.954894  0.192610  0.762283  1
  Lu  Lu8  1  0.805079  0.039929  0.234848  1
  Lu  Lu9  1  0.045106  0.807390  0.237717  1
  Lu  Lu10  1  0.430328  0.192610  0.237716  1
  Lu  Lu11  1  0.569672  0.807390  0.762284  1
  Tl  Tl12  1  0.500000  0.000000  0.500000  1
  Fe  Fe13  1  0.384764  0.384761  0.999997  1
  Fe  Fe14  1  0.615236  0.615239  0.000003  1
  Ru  Ru15  1  0.000000  0.000000  0.000000  1
  Pb  Pb16  1  0.000000  0.500000  0.500000  1
