# generated using pymatgen
data_Sr2Zn3H3Pd14
_symmetry_space_group_name_H-M   'P 1'
_cell_length_a   6.99505178
_cell_length_b   6.99505011
_cell_length_c   6.99505031
_cell_angle_alpha   83.29843703
_cell_angle_beta   83.29843508
_cell_angle_gamma   83.29844893
_symmetry_Int_Tables_number   1
_chemical_formula_structural   Sr2Zn3H3Pd14
_chemical_formula_sum   'Sr2 Zn3 H3 Pd14'
_cell_volume   335.76321852
_cell_formula_units_Z   1
loop_
 _symmetry_equiv_pos_site_id
 _symmetry_equiv_pos_as_xyz
  1  'x, y, z'
loop_
 _atom_site_type_symbol
 _atom_site_label
 _atom_site_symmetry_multiplicity
 _atom_site_fract_x
 _atom_site_fract_y
 _atom_site_fract_z
 _atom_site_occupancy
  Sr  Sr0  1  0.655232  0.655232  0.655232  1
  Sr  Sr1  1  0.344768  0.344768  0.344768  1
  Zn  Zn2  1  0.000000  0.000000  0.500000  1
  Zn  Zn3  1  0.500000  0.000000  0.000000  1
  Zn  Zn4  1  0.000000  0.500000  0.000000  1
  H  H5  1  0.500000  0.500000  0.000000  1
  H  H6  1  0.000000  0.500000  0.500000  1
  H  H7  1  0.500000  0.000000  0.500000  1
  Pd  Pd8  1  0.708072  0.291928  0.000000  1
  Pd  Pd9  1  0.000000  0.708072  0.291928  1
  Pd  Pd10  1  0.291928  0.000000  0.708072  1
  Pd  Pd11  1  0.000000  0.291928  0.708072  1
  Pd  Pd12  1  0.708072  0.000000  0.291928  1
  Pd  Pd13  1  0.291928  0.708072  0.000000  1
  Pd  Pd14  1  0.345842  0.345842  0.859794  1
  Pd  Pd15  1  0.859794  0.345842  0.345842  1
  Pd  Pd16  1  0.345842  0.859794  0.345842  1
  Pd  Pd17  1  0.654158  0.654158  0.140206  1
  Pd  Pd18  1  0.140206  0.654158  0.654158  1
  Pd  Pd19  1  0.654158  0.140206  0.654158  1
  Pd  Pd20  1  0.900626  0.900626  0.900626  1
  Pd  Pd21  1  0.099374  0.099374  0.099374  1
