# generated using pymatgen
data_Nd2Tm(P2Rh3)3
_symmetry_space_group_name_H-M   'P 1'
_cell_length_a   3.94872400
_cell_length_b   11.26510900
_cell_length_c   12.88105800
_cell_angle_alpha   90.00000000
_cell_angle_beta   90.00000000
_cell_angle_gamma   90.00000000
_symmetry_Int_Tables_number   1
_chemical_formula_structural   Nd2Tm(P2Rh3)3
_chemical_formula_sum   'Nd4 Tm2 P12 Rh18'
_cell_volume   572.98560758
_cell_formula_units_Z   2
loop_
 _symmetry_equiv_pos_site_id
 _symmetry_equiv_pos_as_xyz
  1  'x, y, z'
loop_
 _atom_site_type_symbol
 _atom_site_label
 _atom_site_symmetry_multiplicity
 _atom_site_fract_x
 _atom_site_fract_y
 _atom_site_fract_z
 _atom_site_occupancy
  Nd  Nd0  1  0.000000  0.500000  0.522060  1
  Nd  Nd1  1  0.500000  0.000000  0.480413  1
  Nd  Nd2  1  0.500000  0.814327  0.203776  1
  Nd  Nd3  1  0.500000  0.185673  0.203776  1
  Tm  Tm4  1  0.000000  0.685540  0.794822  1
  Tm  Tm5  1  0.000000  0.314460  0.794822  1
  P  P6  1  0.500000  0.500000  0.877392  1
  P  P7  1  0.000000  0.000000  0.117238  1
  P  P8  1  0.500000  0.500000  0.348126  1
  P  P9  1  0.000000  0.000000  0.652321  1
  P  P10  1  0.500000  0.313988  0.621513  1
  P  P11  1  0.500000  0.686012  0.621513  1
  P  P12  1  0.000000  0.187457  0.384053  1
  P  P13  1  0.000000  0.812543  0.384053  1
  P  P14  1  0.500000  0.843369  0.892508  1
  P  P15  1  0.500000  0.156631  0.892508  1
  P  P16  1  0.000000  0.649490  0.105327  1
  P  P17  1  0.000000  0.350510  0.105327  1
  Rh  Rh18  1  0.500000  0.500000  0.167810  1
  Rh  Rh19  1  0.000000  0.000000  0.830933  1
  Rh  Rh20  1  0.500000  0.500000  0.704436  1
  Rh  Rh21  1  0.000000  0.000000  0.297558  1
  Rh  Rh22  1  0.000000  0.500000  0.974847  1
  Rh  Rh23  1  0.500000  0.000000  0.015365  1
  Rh  Rh24  1  0.500000  0.335928  0.991915  1
  Rh  Rh25  1  0.500000  0.664072  0.991915  1
  Rh  Rh26  1  0.000000  0.167267  0.002681  1
  Rh  Rh27  1  0.000000  0.832733  0.002681  1
  Rh  Rh28  1  0.500000  0.292954  0.432357  1
  Rh  Rh29  1  0.500000  0.707046  0.432357  1
  Rh  Rh30  1  0.000000  0.207652  0.573026  1
  Rh  Rh31  1  0.000000  0.792348  0.573026  1
  Rh  Rh32  1  0.500000  0.871987  0.713912  1
  Rh  Rh33  1  0.500000  0.128013  0.713912  1
  Rh  Rh34  1  0.000000  0.624642  0.289860  1
  Rh  Rh35  1  0.000000  0.375358  0.289860  1
