# generated using pymatgen
data_Lu4Al5SiTc2
_symmetry_space_group_name_H-M   'P 1'
_cell_length_a   5.39855877
_cell_length_b   5.40286115
_cell_length_c   8.77918100
_cell_angle_alpha   90.00000000
_cell_angle_beta   90.00000000
_cell_angle_gamma   120.02637040
_symmetry_Int_Tables_number   1
_chemical_formula_structural   Lu4Al5SiTc2
_chemical_formula_sum   'Lu4 Al5 Si1 Tc2'
_cell_volume   221.70261232
_cell_formula_units_Z   1
loop_
 _symmetry_equiv_pos_site_id
 _symmetry_equiv_pos_as_xyz
  1  'x, y, z'
loop_
 _atom_site_type_symbol
 _atom_site_label
 _atom_site_symmetry_multiplicity
 _atom_site_fract_x
 _atom_site_fract_y
 _atom_site_fract_z
 _atom_site_occupancy
  Lu  Lu0  1  0.333611  0.666806  0.450180  1
  Lu  Lu1  1  0.667330  0.333665  0.554732  1
  Lu  Lu2  1  0.667330  0.333665  0.945268  1
  Lu  Lu3  1  0.333611  0.666806  0.049820  1
  Al  Al4  1  0.836143  0.163561  0.250000  1
  Al  Al5  1  0.836143  0.672583  0.250000  1
  Al  Al6  1  0.326237  0.163118  0.250000  1
  Al  Al7  1  0.167107  0.837493  0.750000  1
  Al  Al8  1  0.167107  0.329614  0.750000  1
  Si  Si9  1  0.675738  0.837869  0.750000  1
  Tc  Tc10  1  0.994822  0.997411  0.504285  1
  Tc  Tc11  1  0.994822  0.997411  0.995715  1
