# generated using pymatgen
data_BeV10Si2P3
_symmetry_space_group_name_H-M   'P 1'
_cell_length_a   9.23218374
_cell_length_b   6.94522031
_cell_length_c   6.91878052
_cell_angle_alpha   83.52706225
_cell_angle_beta   48.39331990
_cell_angle_gamma   48.11367264
_symmetry_Int_Tables_number   1
_chemical_formula_structural   BeV10Si2P3
_chemical_formula_sum   'Be1 V10 Si2 P3'
_cell_volume   198.68009295
_cell_formula_units_Z   1
loop_
 _symmetry_equiv_pos_site_id
 _symmetry_equiv_pos_as_xyz
  1  'x, y, z'
loop_
 _atom_site_type_symbol
 _atom_site_label
 _atom_site_symmetry_multiplicity
 _atom_site_fract_x
 _atom_site_fract_y
 _atom_site_fract_z
 _atom_site_occupancy
  Be  Be0  1  0.249752  0.249933  0.250365  1
  V  V1  1  0.783837  0.417750  0.570076  1
  V  V2  1  0.226914  0.572850  0.415727  1
  V  V3  1  0.716645  0.931398  0.081119  1
  V  V4  1  0.270130  0.077642  0.933792  1
  V  V5  1  0.931780  0.716319  0.270358  1
  V  V6  1  0.076919  0.271017  0.719290  1
  V  V7  1  0.418760  0.782340  0.227418  1
  V  V8  1  0.572186  0.227842  0.785339  1
  V  V9  1  0.752231  0.251430  0.247483  1
  V  V10  1  0.251201  0.752338  0.748833  1
  Si  Si11  1  0.750247  0.749804  0.749743  1
  Si  Si12  1  0.334689  0.334503  0.665241  1
  P  P13  1  0.665858  0.666076  0.334269  1
  P  P14  1  0.163438  0.835338  0.164749  1
  P  P15  1  0.835413  0.163421  0.836199  1
