# generated using pymatgen
data_La2As7Pd12
_symmetry_space_group_name_H-M   'P 1'
_cell_length_a   10.11063800
_cell_length_b   10.11063769
_cell_length_c   4.22044200
_cell_angle_alpha   90.00000000
_cell_angle_beta   90.00000000
_cell_angle_gamma   120.00000101
_symmetry_Int_Tables_number   1
_chemical_formula_structural   La2As7Pd12
_chemical_formula_sum   'La2 As7 Pd12'
_cell_volume   373.63338353
_cell_formula_units_Z   1
loop_
 _symmetry_equiv_pos_site_id
 _symmetry_equiv_pos_as_xyz
  1  'x, y, z'
loop_
 _atom_site_type_symbol
 _atom_site_label
 _atom_site_symmetry_multiplicity
 _atom_site_fract_x
 _atom_site_fract_y
 _atom_site_fract_z
 _atom_site_occupancy
  La  La0  1  0.666667  0.333333  0.246443  1
  La  La1  1  0.000000  0.000000  0.751440  1
  As  As2  1  0.333333  0.666667  0.480685  1
  As  As3  1  0.740111  0.780633  0.252140  1
  As  As4  1  0.040522  0.259889  0.252140  1
  As  As5  1  0.219367  0.959478  0.252140  1
  As  As6  1  0.926086  0.553475  0.744760  1
  As  As7  1  0.627389  0.073914  0.744760  1
  As  As8  1  0.446525  0.372611  0.744760  1
  Pd  Pd9  1  0.769002  0.045784  0.250110  1
  Pd  Pd10  1  0.276781  0.230998  0.250110  1
  Pd  Pd11  1  0.954216  0.723219  0.250110  1
  Pd  Pd12  1  0.899263  0.287596  0.746367  1
  Pd  Pd13  1  0.388332  0.100737  0.746367  1
  Pd  Pd14  1  0.712404  0.611668  0.746367  1
  Pd  Pd15  1  0.475658  0.553739  0.226803  1
  Pd  Pd16  1  0.078079  0.524342  0.226803  1
  Pd  Pd17  1  0.446261  0.921921  0.226803  1
  Pd  Pd18  1  0.194040  0.775764  0.770802  1
  Pd  Pd19  1  0.581724  0.805960  0.770802  1
  Pd  Pd20  1  0.224236  0.418276  0.770802  1
