# generated using pymatgen
data_Yb12Dy7YPb16
_symmetry_space_group_name_H-M   'P 1'
_cell_length_a   8.03625900
_cell_length_b   8.65315600
_cell_length_c   16.45744800
_cell_angle_alpha   90.00152292
_cell_angle_beta   90.00150436
_cell_angle_gamma   89.99925174
_symmetry_Int_Tables_number   1
_chemical_formula_structural   Yb12Dy7YPb16
_chemical_formula_sum   'Yb12 Dy7 Y1 Pb16'
_cell_volume   1144.43452228
_cell_formula_units_Z   1
loop_
 _symmetry_equiv_pos_site_id
 _symmetry_equiv_pos_as_xyz
  1  'x, y, z'
loop_
 _atom_site_type_symbol
 _atom_site_label
 _atom_site_symmetry_multiplicity
 _atom_site_fract_x
 _atom_site_fract_y
 _atom_site_fract_z
 _atom_site_occupancy
  Yb  Yb0  1  0.504295  0.689418  0.592380  1
  Yb  Yb1  1  0.004225  0.811017  0.907536  1
  Yb  Yb2  1  0.496037  0.310418  0.092230  1
  Yb  Yb3  1  0.995336  0.189741  0.407802  1
  Yb  Yb4  1  0.495759  0.310394  0.407636  1
  Yb  Yb5  1  0.995926  0.189192  0.092285  1
  Yb  Yb6  1  0.503989  0.689453  0.907427  1
  Yb  Yb7  1  0.003994  0.810599  0.592418  1
  Yb  Yb8  1  0.836350  0.510807  0.749951  1
  Yb  Yb9  1  0.336487  0.989589  0.749985  1
  Yb  Yb10  1  0.163703  0.489071  0.250095  1
  Yb  Yb11  1  0.663566  0.010560  0.249863  1
  Dy  Dy12  1  0.174126  0.336569  0.878439  1
  Dy  Dy13  1  0.325674  0.836038  0.121662  1
  Dy  Dy14  1  0.825785  0.663361  0.378335  1
  Dy  Dy15  1  0.325527  0.836499  0.378405  1
  Dy  Dy16  1  0.825789  0.663493  0.121713  1
  Dy  Dy17  1  0.674377  0.163691  0.878349  1
  Dy  Dy18  1  0.174547  0.336548  0.621643  1
  Y  Y19  1  0.674533  0.163577  0.621544  1
  Pb  Pb20  1  0.676548  0.964022  0.458007  1
  Pb  Pb21  1  0.176393  0.535356  0.041955  1
  Pb  Pb22  1  0.323437  0.035581  0.958131  1
  Pb  Pb23  1  0.823594  0.464750  0.541807  1
  Pb  Pb24  1  0.323306  0.035613  0.541815  1
  Pb  Pb25  1  0.823215  0.464573  0.958137  1
  Pb  Pb26  1  0.676581  0.964082  0.041741  1
  Pb  Pb27  1  0.176752  0.535761  0.458161  1
  Pb  Pb28  1  0.475050  0.371024  0.750338  1
  Pb  Pb29  1  0.975459  0.129553  0.750031  1
  Pb  Pb30  1  0.524793  0.629100  0.250129  1
  Pb  Pb31  1  0.024792  0.870652  0.250112  1
  Pb  Pb32  1  0.714340  0.868250  0.750027  1
  Pb  Pb33  1  0.213956  0.632017  0.749964  1
  Pb  Pb34  1  0.285808  0.131659  0.249981  1
  Pb  Pb35  1  0.785951  0.367971  0.249966  1
