# generated using pymatgen
data_NaMnFe2Sb12Os
_symmetry_space_group_name_H-M   'P 1'
_cell_length_a   8.04802579
_cell_length_b   8.04153529
_cell_length_c   8.09021969
_cell_angle_alpha   109.48505312
_cell_angle_beta   109.46705704
_cell_angle_gamma   109.24776951
_symmetry_Int_Tables_number   1
_chemical_formula_structural   NaMnFe2Sb12Os
_chemical_formula_sum   'Na1 Mn1 Fe2 Sb12 Os1'
_cell_volume   404.11556784
_cell_formula_units_Z   1
loop_
 _symmetry_equiv_pos_site_id
 _symmetry_equiv_pos_as_xyz
  1  'x, y, z'
loop_
 _atom_site_type_symbol
 _atom_site_label
 _atom_site_symmetry_multiplicity
 _atom_site_fract_x
 _atom_site_fract_y
 _atom_site_fract_z
 _atom_site_occupancy
  Na  Na0  1  0.000000  0.000000  0.000000  1
  Mn  Mn1  1  0.500000  0.000000  0.000000  1
  Fe  Fe2  1  0.000000  0.000000  0.500000  1
  Fe  Fe3  1  0.500000  0.500000  0.500000  1
  Sb  Sb4  1  0.670409  0.820743  0.165906  1
  Sb  Sb5  1  0.845509  0.342241  0.186558  1
  Sb  Sb6  1  0.504579  0.834877  0.654955  1
  Sb  Sb7  1  0.838796  0.667379  0.505854  1
  Sb  Sb8  1  0.495421  0.165123  0.345045  1
  Sb  Sb9  1  0.154491  0.657759  0.813442  1
  Sb  Sb10  1  0.824007  0.153281  0.658969  1
  Sb  Sb11  1  0.175993  0.846719  0.341031  1
  Sb  Sb12  1  0.161204  0.332621  0.494146  1
  Sb  Sb13  1  0.658791  0.505641  0.835702  1
  Sb  Sb14  1  0.341209  0.494359  0.164298  1
  Sb  Sb15  1  0.329591  0.179257  0.834094  1
  Os  Os16  1  0.000000  0.500000  0.000000  1
