# generated using pymatgen
data_HfTh2Np6Se17
_symmetry_space_group_name_H-M   'P 1'
_cell_length_a   8.29848972
_cell_length_b   8.29849195
_cell_length_c   10.97771900
_cell_angle_alpha   80.85830521
_cell_angle_beta   80.85830274
_cell_angle_gamma   65.47320597
_symmetry_Int_Tables_number   1
_chemical_formula_structural   HfTh2Np6Se17
_chemical_formula_sum   'Hf1 Th2 Np6 Se17'
_cell_volume   675.38667054
_cell_formula_units_Z   1
loop_
 _symmetry_equiv_pos_site_id
 _symmetry_equiv_pos_as_xyz
  1  'x, y, z'
loop_
 _atom_site_type_symbol
 _atom_site_label
 _atom_site_symmetry_multiplicity
 _atom_site_fract_x
 _atom_site_fract_y
 _atom_site_fract_z
 _atom_site_occupancy
  Hf  Hf0  1  0.000000  0.000000  0.000000  1
  Th  Th1  1  0.680777  0.680777  0.980695  1
  Th  Th2  1  0.319223  0.319223  0.019305  1
  Np  Np3  1  0.815637  0.299614  0.305015  1
  Np  Np4  1  0.299614  0.815637  0.305015  1
  Np  Np5  1  0.184363  0.700386  0.694985  1
  Np  Np6  1  0.700386  0.184363  0.694985  1
  Np  Np7  1  0.206405  0.206405  0.539465  1
  Np  Np8  1  0.793595  0.793595  0.460535  1
  Se  Se9  1  0.825584  0.431451  0.535320  1
  Se  Se10  1  0.431451  0.825584  0.535320  1
  Se  Se11  1  0.174416  0.568549  0.464680  1
  Se  Se12  1  0.568549  0.174416  0.464680  1
  Se  Se13  1  0.942069  0.326073  0.032688  1
  Se  Se14  1  0.326073  0.942069  0.032688  1
  Se  Se15  1  0.057931  0.673927  0.967312  1
  Se  Se16  1  0.673927  0.057931  0.967312  1
  Se  Se17  1  0.208379  0.208379  0.279146  1
  Se  Se18  1  0.791621  0.791621  0.720854  1
  Se  Se19  1  0.062884  0.062884  0.765008  1
  Se  Se20  1  0.937116  0.937116  0.234992  1
  Se  Se21  1  0.303994  0.303994  0.750037  1
  Se  Se22  1  0.696006  0.696006  0.249963  1
  Se  Se23  1  0.520468  0.520468  0.828600  1
  Se  Se24  1  0.479532  0.479532  0.171400  1
  Se  Se25  1  0.000000  0.000000  0.500000  1
