# generated using pymatgen
data_LiTm4(SiB4)2
_symmetry_space_group_name_H-M   'P 1'
_cell_length_a   7.08818500
_cell_length_b   7.08818500
_cell_length_c   7.70691200
_cell_angle_alpha   90.00000000
_cell_angle_beta   90.00000000
_cell_angle_gamma   90.00000000
_symmetry_Int_Tables_number   1
_chemical_formula_structural   LiTm4(SiB4)2
_chemical_formula_sum   'Li2 Tm8 Si4 B16'
_cell_volume   387.21349801
_cell_formula_units_Z   2
loop_
 _symmetry_equiv_pos_site_id
 _symmetry_equiv_pos_as_xyz
  1  'x, y, z'
loop_
 _atom_site_type_symbol
 _atom_site_label
 _atom_site_symmetry_multiplicity
 _atom_site_fract_x
 _atom_site_fract_y
 _atom_site_fract_z
 _atom_site_occupancy
  Li  Li0  1  0.000000  0.000000  0.500000  1
  Li  Li1  1  0.500000  0.500000  0.500000  1
  Tm  Tm2  1  0.683157  0.183157  0.234509  1
  Tm  Tm3  1  0.316843  0.816843  0.765491  1
  Tm  Tm4  1  0.316843  0.816843  0.234509  1
  Tm  Tm5  1  0.816843  0.683157  0.234509  1
  Tm  Tm6  1  0.816843  0.683157  0.765491  1
  Tm  Tm7  1  0.683157  0.183157  0.765491  1
  Tm  Tm8  1  0.183157  0.316843  0.765491  1
  Tm  Tm9  1  0.183157  0.316843  0.234509  1
  Si  Si10  1  0.115807  0.615807  0.500000  1
  Si  Si11  1  0.884193  0.384193  0.500000  1
  Si  Si12  1  0.384193  0.115807  0.500000  1
  Si  Si13  1  0.615807  0.884193  0.500000  1
  B  B14  1  0.174155  0.039758  0.000000  1
  B  B15  1  0.825845  0.960242  0.000000  1
  B  B16  1  0.960242  0.174155  0.000000  1
  B  B17  1  0.325845  0.539758  0.000000  1
  B  B18  1  0.039758  0.825845  0.000000  1
  B  B19  1  0.674155  0.460242  0.000000  1
  B  B20  1  0.539758  0.674155  0.000000  1
  B  B21  1  0.460242  0.325845  0.000000  1
  B  B22  1  0.088625  0.588625  0.000000  1
  B  B23  1  0.911375  0.411375  0.000000  1
  B  B24  1  0.411375  0.088625  0.000000  1
  B  B25  1  0.588625  0.911375  0.000000  1
  B  B26  1  0.000000  0.000000  0.165548  1
  B  B27  1  0.000000  0.000000  0.834452  1
  B  B28  1  0.500000  0.500000  0.834452  1
  B  B29  1  0.500000  0.500000  0.165548  1
