# generated using pymatgen
data_Sr2ZnNi(Pd3O8)2
_symmetry_space_group_name_H-M   'P 1'
_cell_length_a   6.17547300
_cell_length_b   6.91776756
_cell_length_c   10.69571602
_cell_angle_alpha   104.93631176
_cell_angle_beta   90.00049084
_cell_angle_gamma   63.48887021
_symmetry_Int_Tables_number   1
_chemical_formula_structural   Sr2ZnNi(Pd3O8)2
_chemical_formula_sum   'Sr2 Zn1 Ni1 Pd6 O16'
_cell_volume   391.55182240
_cell_formula_units_Z   1
loop_
 _symmetry_equiv_pos_site_id
 _symmetry_equiv_pos_as_xyz
  1  'x, y, z'
loop_
 _atom_site_type_symbol
 _atom_site_label
 _atom_site_symmetry_multiplicity
 _atom_site_fract_x
 _atom_site_fract_y
 _atom_site_fract_z
 _atom_site_occupancy
  Sr  Sr0  1  0.749815  0.500383  0.751051  1
  Sr  Sr1  1  0.250264  0.499485  0.248921  1
  Zn  Zn2  1  0.500085  0.999842  0.499969  1
  Ni  Ni3  1  0.999708  0.000308  0.000108  1
  Pd  Pd4  1  0.249588  0.000029  0.750590  1
  Pd  Pd5  1  0.750372  0.999984  0.249403  1
  Pd  Pd6  1  0.999997  0.000019  0.500022  1
  Pd  Pd7  1  0.499995  0.999996  0.000007  1
  Pd  Pd8  1  0.750400  0.000029  0.750584  1
  Pd  Pd9  1  0.249648  0.999989  0.249401  1
  O  O10  1  0.084506  0.831016  0.638730  1
  O  O11  1  0.584532  0.830967  0.138262  1
  O  O12  1  0.415486  0.169023  0.861737  1
  O  O13  1  0.915508  0.168978  0.361259  1
  O  O14  1  0.831025  0.822789  0.884869  1
  O  O15  1  0.328405  0.821364  0.382966  1
  O  O16  1  0.911339  0.177300  0.858157  1
  O  O17  1  0.410745  0.178501  0.355543  1
  O  O18  1  0.671569  0.178626  0.617012  1
  O  O19  1  0.168947  0.177202  0.115111  1
  O  O20  1  0.149877  0.178613  0.617000  1
  O  O21  1  0.653909  0.177191  0.115105  1
  O  O22  1  0.589275  0.821489  0.644472  1
  O  O23  1  0.088680  0.822683  0.141865  1
  O  O24  1  0.346148  0.822816  0.884882  1
  O  O25  1  0.850181  0.821379  0.382974  1
