# generated using pymatgen
data_LaPrOsO6
_symmetry_space_group_name_H-M   'P 1'
_cell_length_a   5.49276600
_cell_length_b   9.45504200
_cell_length_c   10.33827600
_cell_angle_alpha   90.00000000
_cell_angle_beta   90.00000000
_cell_angle_gamma   90.00000000
_symmetry_Int_Tables_number   1
_chemical_formula_structural   LaPrOsO6
_chemical_formula_sum   'La4 Pr4 Os4 O24'
_cell_volume   536.91147077
_cell_formula_units_Z   4
loop_
 _symmetry_equiv_pos_site_id
 _symmetry_equiv_pos_as_xyz
  1  'x, y, z'
loop_
 _atom_site_type_symbol
 _atom_site_label
 _atom_site_symmetry_multiplicity
 _atom_site_fract_x
 _atom_site_fract_y
 _atom_site_fract_z
 _atom_site_occupancy
  La  La0  1  0.031112  0.217923  0.135772  1
  La  La1  1  0.468888  0.782077  0.635772  1
  La  La2  1  0.968888  0.717923  0.364228  1
  La  La3  1  0.531112  0.282077  0.864228  1
  Pr  Pr4  1  0.022779  0.102531  0.539355  1
  Pr  Pr5  1  0.477221  0.897469  0.039355  1
  Pr  Pr6  1  0.977221  0.602531  0.960645  1
  Pr  Pr7  1  0.522779  0.397469  0.460645  1
  Os  Os8  1  0.540778  0.003415  0.356675  1
  Os  Os9  1  0.959222  0.996585  0.856675  1
  Os  Os10  1  0.459222  0.503415  0.143325  1
  Os  Os11  1  0.040778  0.496585  0.643325  1
  O  O12  1  0.427191  0.150485  0.475957  1
  O  O13  1  0.072809  0.849515  0.975957  1
  O  O14  1  0.572809  0.650485  0.024043  1
  O  O15  1  0.927191  0.349515  0.524043  1
  O  O16  1  0.721533  0.390304  0.066423  1
  O  O17  1  0.778467  0.609696  0.566423  1
  O  O18  1  0.278467  0.890304  0.433577  1
  O  O19  1  0.221533  0.109696  0.933577  1
  O  O20  1  0.249643  0.411955  0.006718  1
  O  O21  1  0.250357  0.588045  0.506718  1
  O  O22  1  0.750357  0.911955  0.493282  1
  O  O23  1  0.749643  0.088045  0.993282  1
  O  O24  1  0.196420  0.634765  0.175193  1
  O  O25  1  0.303580  0.365235  0.675193  1
  O  O26  1  0.803580  0.134765  0.324807  1
  O  O27  1  0.696420  0.865235  0.824807  1
  O  O28  1  0.333832  0.054672  0.215557  1
  O  O29  1  0.166168  0.945328  0.715557  1
  O  O30  1  0.666168  0.554672  0.284443  1
  O  O31  1  0.833832  0.445328  0.784443  1
  O  O32  1  0.321419  0.364833  0.256663  1
  O  O33  1  0.178581  0.635167  0.756663  1
  O  O34  1  0.678581  0.864833  0.243337  1
  O  O35  1  0.821419  0.135167  0.743337  1
