# generated using pymatgen
data_YMnAl10Co
_symmetry_space_group_name_H-M   'P 1'
_cell_length_a   6.77259101
_cell_length_b   6.79448262
_cell_length_c   8.98821700
_cell_angle_alpha   90.00000000
_cell_angle_beta   90.00000000
_cell_angle_gamma   97.32862992
_symmetry_Int_Tables_number   1
_chemical_formula_structural   YMnAl10Co
_chemical_formula_sum   'Y2 Mn2 Al20 Co2'
_cell_volume   410.22525427
_cell_formula_units_Z   2
loop_
 _symmetry_equiv_pos_site_id
 _symmetry_equiv_pos_as_xyz
  1  'x, y, z'
loop_
 _atom_site_type_symbol
 _atom_site_label
 _atom_site_symmetry_multiplicity
 _atom_site_fract_x
 _atom_site_fract_y
 _atom_site_fract_z
 _atom_site_occupancy
  Y  Y0  1  0.879720  0.132127  0.250000  1
  Y  Y1  1  0.120280  0.867873  0.750000  1
  Mn  Mn2  1  0.000000  0.500000  0.500000  1
  Mn  Mn3  1  0.000000  0.500000  0.000000  1
  Al  Al4  1  0.226882  0.227566  0.499481  1
  Al  Al5  1  0.773118  0.772434  0.999481  1
  Al  Al6  1  0.773118  0.772434  0.500519  1
  Al  Al7  1  0.226882  0.227566  0.000519  1
  Al  Al8  1  0.374272  0.623434  0.547272  1
  Al  Al9  1  0.625728  0.376566  0.047272  1
  Al  Al10  1  0.587329  0.865509  0.750000  1
  Al  Al11  1  0.412671  0.134491  0.250000  1
  Al  Al12  1  0.865666  0.587744  0.250000  1
  Al  Al13  1  0.134334  0.412256  0.750000  1
  Al  Al14  1  0.477976  0.219924  0.750000  1
  Al  Al15  1  0.522024  0.780076  0.250000  1
  Al  Al16  1  0.221250  0.480037  0.250000  1
  Al  Al17  1  0.778750  0.519963  0.750000  1
  Al  Al18  1  0.157675  0.843075  0.402320  1
  Al  Al19  1  0.842325  0.156925  0.902320  1
  Al  Al20  1  0.842325  0.156925  0.597680  1
  Al  Al21  1  0.157675  0.843075  0.097680  1
  Al  Al22  1  0.374272  0.623434  0.952728  1
  Al  Al23  1  0.625728  0.376566  0.452728  1
  Co  Co24  1  0.500000  0.000000  0.500000  1
  Co  Co25  1  0.500000  0.000000  0.000000  1
