# generated using pymatgen
data_Ti2Mn3Fe9P7
_symmetry_space_group_name_H-M   'P 1'
_cell_length_a   8.89451600
_cell_length_b   8.89451616
_cell_length_c   3.53159100
_cell_angle_alpha   90.00000000
_cell_angle_beta   90.00000000
_cell_angle_gamma   119.99999939
_symmetry_Int_Tables_number   1
_chemical_formula_structural   Ti2Mn3Fe9P7
_chemical_formula_sum   'Ti2 Mn3 Fe9 P7'
_cell_volume   241.96117517
_cell_formula_units_Z   1
loop_
 _symmetry_equiv_pos_site_id
 _symmetry_equiv_pos_as_xyz
  1  'x, y, z'
loop_
 _atom_site_type_symbol
 _atom_site_label
 _atom_site_symmetry_multiplicity
 _atom_site_fract_x
 _atom_site_fract_y
 _atom_site_fract_z
 _atom_site_occupancy
  Ti  Ti0  1  0.666667  0.333333  0.000000  1
  Ti  Ti1  1  0.000000  0.000000  0.500000  1
  Mn  Mn2  1  0.554895  0.768861  0.500000  1
  Mn  Mn3  1  0.231139  0.786035  0.500000  1
  Mn  Mn4  1  0.213965  0.445105  0.500000  1
  Fe  Fe5  1  0.764161  0.730080  0.000000  1
  Fe  Fe6  1  0.269920  0.034081  0.000000  1
  Fe  Fe7  1  0.965919  0.235839  0.000000  1
  Fe  Fe8  1  0.491433  0.945845  0.000000  1
  Fe  Fe9  1  0.054155  0.545586  0.000000  1
  Fe  Fe10  1  0.454414  0.508567  0.000000  1
  Fe  Fe11  1  0.720330  0.106877  0.500000  1
  Fe  Fe12  1  0.893123  0.613454  0.500000  1
  Fe  Fe13  1  0.386546  0.279670  0.500000  1
  P  P14  1  0.458410  0.081416  0.500000  1
  P  P15  1  0.918584  0.376995  0.500000  1
  P  P16  1  0.623005  0.541590  0.500000  1
  P  P17  1  0.753915  0.968448  0.000000  1
  P  P18  1  0.031552  0.785467  0.000000  1
  P  P19  1  0.214533  0.246085  0.000000  1
  P  P20  1  0.333333  0.666667  0.000000  1
