# generated using pymatgen
data_CeNdTh(RhPb)3
_symmetry_space_group_name_H-M   'P 1'
_cell_length_a   7.71216928
_cell_length_b   7.76453626
_cell_length_c   4.04623700
_cell_angle_alpha   90.00000000
_cell_angle_beta   90.00000000
_cell_angle_gamma   119.25869339
_symmetry_Int_Tables_number   1
_chemical_formula_structural   CeNdTh(RhPb)3
_chemical_formula_sum   'Ce1 Nd1 Th1 Rh3 Pb3'
_cell_volume   211.38293897
_cell_formula_units_Z   1
loop_
 _symmetry_equiv_pos_site_id
 _symmetry_equiv_pos_as_xyz
  1  'x, y, z'
loop_
 _atom_site_type_symbol
 _atom_site_label
 _atom_site_symmetry_multiplicity
 _atom_site_fract_x
 _atom_site_fract_y
 _atom_site_fract_z
 _atom_site_occupancy
  Ce  Ce0  1  0.000102  0.590673  0.500000  1
  Nd  Nd1  1  0.593032  0.999601  0.500000  1
  Th  Th2  1  0.410800  0.410655  0.500000  1
  Rh  Rh3  1  0.013032  0.007020  0.500000  1
  Rh  Rh4  1  0.660636  0.346689  0.000000  1
  Rh  Rh5  1  0.321684  0.644887  0.000000  1
  Pb  Pb6  1  0.748872  0.751958  0.000000  1
  Pb  Pb7  1  0.261504  0.993516  0.000000  1
  Pb  Pb8  1  0.990336  0.255000  0.000000  1
