# generated using pymatgen
data_CeLuTh2(ZnRh)4
_symmetry_space_group_name_H-M   'P 1'
_cell_length_a   3.97375500
_cell_length_b   7.12372770
_cell_length_c   8.36464193
_cell_angle_alpha   89.92777306
_cell_angle_beta   90.00000000
_cell_angle_gamma   90.00000000
_symmetry_Int_Tables_number   1
_chemical_formula_structural   CeLuTh2(ZnRh)4
_chemical_formula_sum   'Ce1 Lu1 Th2 Zn4 Rh4'
_cell_volume   236.78566544
_cell_formula_units_Z   1
loop_
 _symmetry_equiv_pos_site_id
 _symmetry_equiv_pos_as_xyz
  1  'x, y, z'
loop_
 _atom_site_type_symbol
 _atom_site_label
 _atom_site_symmetry_multiplicity
 _atom_site_fract_x
 _atom_site_fract_y
 _atom_site_fract_z
 _atom_site_occupancy
  Ce  Ce0  1  0.750000  0.451212  0.813784  1
  Lu  Lu1  1  0.250000  0.054429  0.309831  1
  Th  Th2  1  0.250000  0.552154  0.191180  1
  Th  Th3  1  0.750000  0.951944  0.680678  1
  Zn  Zn4  1  0.250000  0.621120  0.559787  1
  Zn  Zn5  1  0.750000  0.361366  0.439263  1
  Zn  Zn6  1  0.750000  0.884954  0.064567  1
  Zn  Zn7  1  0.250000  0.123975  0.944251  1
  Rh  Rh8  1  0.250000  0.739105  0.869053  1
  Rh  Rh9  1  0.750000  0.264023  0.124859  1
  Rh  Rh10  1  0.750000  0.757354  0.371789  1
  Rh  Rh11  1  0.250000  0.238365  0.630957  1
