# generated using pymatgen
data_Sc2Nb3Ni9P7
_symmetry_space_group_name_H-M   'P 1'
_cell_length_a   3.64629500
_cell_length_b   9.25229777
_cell_length_c   9.25229800
_cell_angle_alpha   119.99999272
_cell_angle_beta   90.00000000
_cell_angle_gamma   90.00000000
_symmetry_Int_Tables_number   1
_chemical_formula_structural   Sc2Nb3Ni9P7
_chemical_formula_sum   'Sc2 Nb3 Ni9 P7'
_cell_volume   270.32217869
_cell_formula_units_Z   1
loop_
 _symmetry_equiv_pos_site_id
 _symmetry_equiv_pos_as_xyz
  1  'x, y, z'
loop_
 _atom_site_type_symbol
 _atom_site_label
 _atom_site_symmetry_multiplicity
 _atom_site_fract_x
 _atom_site_fract_y
 _atom_site_fract_z
 _atom_site_occupancy
  Sc  Sc0  1  0.000000  0.666667  0.333333  1
  Sc  Sc1  1  0.500000  0.333333  0.666667  1
  Nb  Nb2  1  0.500000  0.772722  0.895501  1
  Nb  Nb3  1  0.500000  0.122780  0.227278  1
  Nb  Nb4  1  0.500000  0.104499  0.877220  1
  Ni  Ni5  1  0.000000  0.563344  0.934688  1
  Ni  Ni6  1  0.000000  0.371345  0.436656  1
  Ni  Ni7  1  0.000000  0.065312  0.628655  1
  Ni  Ni8  1  0.500000  0.939442  0.387030  1
  Ni  Ni9  1  0.500000  0.447587  0.060558  1
  Ni  Ni10  1  0.500000  0.612970  0.552413  1
  Ni  Ni11  1  0.000000  0.870448  0.161590  1
  Ni  Ni12  1  0.000000  0.291142  0.129552  1
  Ni  Ni13  1  0.000000  0.838410  0.708858  1
  P  P14  1  0.500000  0.710271  0.126975  1
  P  P15  1  0.500000  0.416704  0.289729  1
  P  P16  1  0.500000  0.873025  0.583296  1
  P  P17  1  0.000000  0.000000  0.000000  1
  P  P18  1  0.000000  0.578537  0.696604  1
  P  P19  1  0.000000  0.118068  0.421463  1
  P  P20  1  0.000000  0.303396  0.881932  1
