# generated using pymatgen
data_TbMgCo(PRh)3
_symmetry_space_group_name_H-M   'P 1'
_cell_length_a   3.85879300
_cell_length_b   10.84259400
_cell_length_c   12.66904000
_cell_angle_alpha   90.00000000
_cell_angle_beta   90.00000000
_cell_angle_gamma   90.00000000
_symmetry_Int_Tables_number   1
_chemical_formula_structural   TbMgCo(PRh)3
_chemical_formula_sum   'Tb4 Mg4 Co4 P12 Rh12'
_cell_volume   530.06409250
_cell_formula_units_Z   4
loop_
 _symmetry_equiv_pos_site_id
 _symmetry_equiv_pos_as_xyz
  1  'x, y, z'
loop_
 _atom_site_type_symbol
 _atom_site_label
 _atom_site_symmetry_multiplicity
 _atom_site_fract_x
 _atom_site_fract_y
 _atom_site_fract_z
 _atom_site_occupancy
  Tb  Tb0  1  0.250000  0.580425  0.710453  1
  Tb  Tb1  1  0.250000  0.919575  0.210453  1
  Tb  Tb2  1  0.750000  0.419575  0.289547  1
  Tb  Tb3  1  0.750000  0.080425  0.789547  1
  Mg  Mg4  1  0.250000  0.705373  0.987348  1
  Mg  Mg5  1  0.250000  0.794627  0.487348  1
  Mg  Mg6  1  0.750000  0.294627  0.012652  1
  Mg  Mg7  1  0.750000  0.205373  0.512652  1
  Co  Co8  1  0.250000  0.465476  0.936232  1
  Co  Co9  1  0.250000  0.034524  0.436232  1
  Co  Co10  1  0.750000  0.534524  0.063768  1
  Co  Co11  1  0.750000  0.965476  0.563768  1
  P  P12  1  0.250000  0.427164  0.110328  1
  P  P13  1  0.250000  0.072836  0.610328  1
  P  P14  1  0.750000  0.572836  0.889672  1
  P  P15  1  0.750000  0.927164  0.389672  1
  P  P16  1  0.250000  0.269284  0.861097  1
  P  P17  1  0.250000  0.230716  0.361097  1
  P  P18  1  0.750000  0.730716  0.138903  1
  P  P19  1  0.750000  0.769284  0.638903  1
  P  P20  1  0.250000  0.593320  0.385346  1
  P  P21  1  0.250000  0.906680  0.885346  1
  P  P22  1  0.750000  0.406680  0.614654  1
  P  P23  1  0.750000  0.093320  0.114654  1
  Rh  Rh24  1  0.250000  0.403354  0.476841  1
  Rh  Rh25  1  0.250000  0.096646  0.976841  1
  Rh  Rh26  1  0.750000  0.596646  0.523159  1
  Rh  Rh27  1  0.750000  0.903354  0.023159  1
  Rh  Rh28  1  0.250000  0.223709  0.173222  1
  Rh  Rh29  1  0.250000  0.276291  0.673222  1
  Rh  Rh30  1  0.750000  0.776291  0.826778  1
  Rh  Rh31  1  0.750000  0.723709  0.326778  1
  Rh  Rh32  1  0.250000  0.880875  0.693695  1
  Rh  Rh33  1  0.250000  0.619125  0.193695  1
  Rh  Rh34  1  0.750000  0.119125  0.306305  1
  Rh  Rh35  1  0.750000  0.380875  0.806305  1
