# generated using pymatgen
data_Li3Ca4MgAg4
_symmetry_space_group_name_H-M   'P 1'
_cell_length_a   4.46490100
_cell_length_b   7.54646494
_cell_length_c   8.77228321
_cell_angle_alpha   90.12539964
_cell_angle_beta   90.00000000
_cell_angle_gamma   90.00000000
_symmetry_Int_Tables_number   1
_chemical_formula_structural   Li3Ca4MgAg4
_chemical_formula_sum   'Li3 Ca4 Mg1 Ag4'
_cell_volume   295.57452250
_cell_formula_units_Z   1
loop_
 _symmetry_equiv_pos_site_id
 _symmetry_equiv_pos_as_xyz
  1  'x, y, z'
loop_
 _atom_site_type_symbol
 _atom_site_label
 _atom_site_symmetry_multiplicity
 _atom_site_fract_x
 _atom_site_fract_y
 _atom_site_fract_z
 _atom_site_occupancy
  Li  Li0  1  0.250000  0.633265  0.559104  1
  Li  Li1  1  0.750000  0.365238  0.439121  1
  Li  Li2  1  0.750000  0.865497  0.060133  1
  Ca  Ca3  1  0.250000  0.531166  0.180264  1
  Ca  Ca4  1  0.750000  0.469473  0.819009  1
  Ca  Ca5  1  0.750000  0.966316  0.676740  1
  Ca  Ca6  1  0.250000  0.031766  0.321598  1
  Mg  Mg7  1  0.250000  0.137688  0.938781  1
  Ag  Ag8  1  0.250000  0.769021  0.878414  1
  Ag  Ag9  1  0.750000  0.231746  0.124212  1
  Ag  Ag10  1  0.750000  0.730651  0.378286  1
  Ag  Ag11  1  0.250000  0.268173  0.624338  1
