# generated using pymatgen
data_Nd4Er2Al24Ru7Au
_symmetry_space_group_name_H-M   'P 1'
_cell_length_a   8.91980730
_cell_length_b   8.91980650
_cell_length_c   9.61808138
_cell_angle_alpha   89.75535504
_cell_angle_beta   90.24465204
_cell_angle_gamma   120.18354973
_symmetry_Int_Tables_number   1
_chemical_formula_structural   Nd4Er2Al24Ru7Au
_chemical_formula_sum   'Nd4 Er2 Al24 Ru7 Au1'
_cell_volume   661.48268814
_cell_formula_units_Z   1
loop_
 _symmetry_equiv_pos_site_id
 _symmetry_equiv_pos_as_xyz
  1  'x, y, z'
loop_
 _atom_site_type_symbol
 _atom_site_label
 _atom_site_symmetry_multiplicity
 _atom_site_fract_x
 _atom_site_fract_y
 _atom_site_fract_z
 _atom_site_occupancy
  Nd  Nd0  1  0.191987  0.382683  0.249502  1
  Nd  Nd1  1  0.808013  0.617317  0.750498  1
  Nd  Nd2  1  0.617317  0.808013  0.249502  1
  Nd  Nd3  1  0.382683  0.191987  0.750498  1
  Er  Er4  1  0.195643  0.804357  0.253290  1
  Er  Er5  1  0.804357  0.195643  0.746710  1
  Al  Al6  1  0.327733  0.672267  0.018383  1
  Al  Al7  1  0.672267  0.327733  0.981617  1
  Al  Al8  1  0.667000  0.333000  0.512824  1
  Al  Al9  1  0.333000  0.667000  0.487176  1
  Al  Al10  1  0.159760  0.324607  0.577758  1
  Al  Al11  1  0.840240  0.675393  0.422242  1
  Al  Al12  1  0.675393  0.840240  0.577758  1
  Al  Al13  1  0.851328  0.678436  0.080393  1
  Al  Al14  1  0.324607  0.159760  0.422242  1
  Al  Al15  1  0.148672  0.321564  0.919607  1
  Al  Al16  1  0.162698  0.837302  0.576225  1
  Al  Al17  1  0.321564  0.148672  0.080393  1
  Al  Al18  1  0.837302  0.162698  0.423775  1
  Al  Al19  1  0.678436  0.851328  0.919607  1
  Al  Al20  1  0.837119  0.162881  0.074837  1
  Al  Al21  1  0.162881  0.837119  0.925163  1
  Al  Al22  1  0.560398  0.120902  0.248368  1
  Al  Al23  1  0.439602  0.879098  0.751632  1
  Al  Al24  1  0.879098  0.439602  0.248368  1
  Al  Al25  1  0.120902  0.560398  0.751632  1
  Al  Al26  1  0.565491  0.434509  0.255716  1
  Al  Al27  1  0.434509  0.565491  0.744284  1
  Al  Al28  1  0.002788  0.997212  0.250114  1
  Al  Al29  1  0.997212  0.002788  0.749886  1
  Ru  Ru30  1  0.500000  0.000000  0.000000  1
  Ru  Ru31  1  0.000000  0.500000  0.000000  1
  Ru  Ru32  1  0.500000  0.000000  0.500000  1
  Ru  Ru33  1  0.000000  0.500000  0.500000  1
  Ru  Ru34  1  0.500000  0.500000  0.500000  1
  Ru  Ru35  1  0.000000  0.000000  0.000000  1
  Ru  Ru36  1  0.000000  0.000000  0.500000  1
  Au  Au37  1  0.500000  0.500000  0.000000  1
