# generated using pymatgen
data_KZnPdF5
_symmetry_space_group_name_H-M   'P 1'
_cell_length_a   6.27926300
_cell_length_b   7.39116200
_cell_length_c   10.66683600
_cell_angle_alpha   90.00000000
_cell_angle_beta   90.00000000
_cell_angle_gamma   90.00000000
_symmetry_Int_Tables_number   1
_chemical_formula_structural   KZnPdF5
_chemical_formula_sum   'K4 Zn4 Pd4 F20'
_cell_volume   495.05905972
_cell_formula_units_Z   4
loop_
 _symmetry_equiv_pos_site_id
 _symmetry_equiv_pos_as_xyz
  1  'x, y, z'
loop_
 _atom_site_type_symbol
 _atom_site_label
 _atom_site_symmetry_multiplicity
 _atom_site_fract_x
 _atom_site_fract_y
 _atom_site_fract_z
 _atom_site_occupancy
  K  K0  1  0.977905  0.250000  0.863542  1
  K  K1  1  0.522095  0.750000  0.363542  1
  K  K2  1  0.022095  0.750000  0.136458  1
  K  K3  1  0.477905  0.250000  0.636458  1
  Zn  Zn4  1  0.500000  0.000000  0.000000  1
  Zn  Zn5  1  0.000000  0.000000  0.500000  1
  Zn  Zn6  1  0.500000  0.500000  0.000000  1
  Zn  Zn7  1  0.000000  0.500000  0.500000  1
  Pd  Pd8  1  0.183768  0.750000  0.788873  1
  Pd  Pd9  1  0.683768  0.750000  0.711127  1
  Pd  Pd10  1  0.316232  0.250000  0.288873  1
  Pd  Pd11  1  0.816232  0.250000  0.211127  1
  F  F12  1  0.169644  0.547824  0.663425  1
  F  F13  1  0.699849  0.938521  0.576140  1
  F  F14  1  0.830356  0.452176  0.336575  1
  F  F15  1  0.199849  0.561479  0.923860  1
  F  F16  1  0.800151  0.061479  0.076140  1
  F  F17  1  0.041572  0.750000  0.428333  1
  F  F18  1  0.300151  0.438521  0.423860  1
  F  F19  1  0.669644  0.547824  0.836575  1
  F  F20  1  0.958428  0.250000  0.571667  1
  F  F21  1  0.169644  0.952176  0.663425  1
  F  F22  1  0.800151  0.438521  0.076140  1
  F  F23  1  0.830356  0.047824  0.336575  1
  F  F24  1  0.669644  0.952176  0.836575  1
  F  F25  1  0.330356  0.452176  0.163425  1
  F  F26  1  0.541572  0.750000  0.071667  1
  F  F27  1  0.300151  0.061479  0.423860  1
  F  F28  1  0.330356  0.047824  0.163425  1
  F  F29  1  0.199849  0.938521  0.923860  1
  F  F30  1  0.458428  0.250000  0.928333  1
  F  F31  1  0.699849  0.561479  0.576140  1
