# generated using pymatgen
data_Gd8YPt6
_symmetry_space_group_name_H-M   'P 1'
_cell_length_a   7.61133573
_cell_length_b   7.61133656
_cell_length_c   7.61133700
_cell_angle_alpha   71.79565898
_cell_angle_beta   71.79565694
_cell_angle_gamma   71.79565458
_symmetry_Int_Tables_number   1
_chemical_formula_structural   Gd8YPt6
_chemical_formula_sum   'Gd8 Y1 Pt6'
_cell_volume   386.47023856
_cell_formula_units_Z   1
loop_
 _symmetry_equiv_pos_site_id
 _symmetry_equiv_pos_as_xyz
  1  'x, y, z'
loop_
 _atom_site_type_symbol
 _atom_site_label
 _atom_site_symmetry_multiplicity
 _atom_site_fract_x
 _atom_site_fract_y
 _atom_site_fract_z
 _atom_site_occupancy
  Gd  Gd0  1  0.800114  0.800114  0.800114  1
  Gd  Gd1  1  0.199886  0.199886  0.199886  1
  Gd  Gd2  1  0.330818  0.605756  0.840986  1
  Gd  Gd3  1  0.840986  0.330818  0.605756  1
  Gd  Gd4  1  0.605756  0.840986  0.330818  1
  Gd  Gd5  1  0.669182  0.394244  0.159014  1
  Gd  Gd6  1  0.159014  0.669182  0.394244  1
  Gd  Gd7  1  0.394244  0.159014  0.669182  1
  Y  Y8  1  0.000000  0.000000  0.000000  1
  Pt  Pt9  1  0.167538  0.955837  0.590271  1
  Pt  Pt10  1  0.590271  0.167538  0.955837  1
  Pt  Pt11  1  0.955837  0.590271  0.167538  1
  Pt  Pt12  1  0.832462  0.044163  0.409729  1
  Pt  Pt13  1  0.409729  0.832462  0.044163  1
  Pt  Pt14  1  0.044163  0.409729  0.832462  1
