# generated using pymatgen
data_Nd4Ga4Pd3Ru
_symmetry_space_group_name_H-M   'P 1'
_cell_length_a   4.52614500
_cell_length_b   7.15012406
_cell_length_c   7.79496707
_cell_angle_alpha   90.01498650
_cell_angle_beta   90.00000000
_cell_angle_gamma   90.00000000
_symmetry_Int_Tables_number   1
_chemical_formula_structural   Nd4Ga4Pd3Ru
_chemical_formula_sum   'Nd4 Ga4 Pd3 Ru1'
_cell_volume   252.26459957
_cell_formula_units_Z   1
loop_
 _symmetry_equiv_pos_site_id
 _symmetry_equiv_pos_as_xyz
  1  'x, y, z'
loop_
 _atom_site_type_symbol
 _atom_site_label
 _atom_site_symmetry_multiplicity
 _atom_site_fract_x
 _atom_site_fract_y
 _atom_site_fract_z
 _atom_site_occupancy
  Nd  Nd0  1  0.250000  0.029351  0.687583  1
  Nd  Nd1  1  0.250000  0.525208  0.807431  1
  Nd  Nd2  1  0.750000  0.982664  0.304881  1
  Nd  Nd3  1  0.750000  0.475967  0.199893  1
  Ga  Ga4  1  0.250000  0.170579  0.078856  1
  Ga  Ga5  1  0.250000  0.660104  0.426482  1
  Ga  Ga6  1  0.750000  0.833463  0.925573  1
  Ga  Ga7  1  0.750000  0.328362  0.570912  1
  Pd  Pd8  1  0.250000  0.786948  0.100676  1
  Pd  Pd9  1  0.750000  0.713842  0.600764  1
  Pd  Pd10  1  0.750000  0.214134  0.898327  1
  Ru  Ru11  1  0.250000  0.279378  0.398622  1
