# generated using pymatgen
data_Nd3SmFe4(OsO6)4
_symmetry_space_group_name_H-M   'P 1'
_cell_length_a   5.37519113
_cell_length_b   7.54639710
_cell_length_c   11.11053700
_cell_angle_alpha   90.05670815
_cell_angle_beta   89.93817604
_cell_angle_gamma   89.98130021
_symmetry_Int_Tables_number   1
_chemical_formula_structural   Nd3SmFe4(OsO6)4
_chemical_formula_sum   'Nd3 Sm1 Fe4 Os4 O24'
_cell_volume   450.67983547
_cell_formula_units_Z   1
loop_
 _symmetry_equiv_pos_site_id
 _symmetry_equiv_pos_as_xyz
  1  'x, y, z'
loop_
 _atom_site_type_symbol
 _atom_site_label
 _atom_site_symmetry_multiplicity
 _atom_site_fract_x
 _atom_site_fract_y
 _atom_site_fract_z
 _atom_site_occupancy
  Nd  Nd0  1  0.541385  0.251767  0.045877  1
  Nd  Nd1  1  0.042133  0.751634  0.453721  1
  Nd  Nd2  1  0.957643  0.251675  0.546590  1
  Sm  Sm3  1  0.456224  0.751896  0.953457  1
  Fe  Fe4  1  0.048639  0.508377  0.141272  1
  Fe  Fe5  1  0.548362  0.007590  0.357751  1
  Fe  Fe6  1  0.451348  0.507988  0.642701  1
  Fe  Fe7  1  0.950767  0.006875  0.858392  1
  Os  Os8  1  0.052793  0.998911  0.139132  1
  Os  Os9  1  0.552805  0.499446  0.360139  1
  Os  Os10  1  0.446970  0.999412  0.640404  1
  Os  Os11  1  0.946850  0.500952  0.860495  1
  O  O12  1  0.765289  0.542141  0.019321  1
  O  O13  1  0.765787  0.958679  0.029046  1
  O  O14  1  0.161792  0.759705  0.119547  1
  O  O15  1  0.950095  0.242178  0.142329  1
  O  O16  1  0.362891  0.062585  0.211687  1
  O  O17  1  0.385153  0.445116  0.213763  1
  O  O18  1  0.885658  0.944919  0.285810  1
  O  O19  1  0.863939  0.562187  0.287990  1
  O  O20  1  0.450348  0.742567  0.356237  1
  O  O21  1  0.658356  0.259659  0.379000  1
  O  O22  1  0.266879  0.461045  0.470430  1
  O  O23  1  0.267806  0.039240  0.480814  1
  O  O24  1  0.732432  0.539131  0.519667  1
  O  O25  1  0.733306  0.961118  0.530007  1
  O  O26  1  0.341884  0.759985  0.620840  1
  O  O27  1  0.549766  0.242475  0.644730  1
  O  O28  1  0.135493  0.062260  0.711959  1
  O  O29  1  0.113727  0.446015  0.713600  1
  O  O30  1  0.612320  0.944211  0.787529  1
  O  O31  1  0.635252  0.564890  0.789368  1
  O  O32  1  0.054688  0.742925  0.856307  1
  O  O33  1  0.842767  0.260512  0.879672  1
  O  O34  1  0.234203  0.463069  0.970507  1
  O  O35  1  0.234255  0.037267  0.979909  1
