# generated using pymatgen
data_Tm3Lu2ZrMnSb2
_symmetry_space_group_name_H-M   'P 1'
_cell_length_a   7.96810000
_cell_length_b   7.98867171
_cell_length_c   4.12464500
_cell_angle_alpha   90.00000000
_cell_angle_beta   90.00000000
_cell_angle_gamma   119.91485253
_symmetry_Int_Tables_number   1
_chemical_formula_structural   Tm3Lu2ZrMnSb2
_chemical_formula_sum   'Tm3 Lu2 Zr1 Mn1 Sb2'
_cell_volume   227.57185225
_cell_formula_units_Z   1
loop_
 _symmetry_equiv_pos_site_id
 _symmetry_equiv_pos_as_xyz
  1  'x, y, z'
loop_
 _atom_site_type_symbol
 _atom_site_label
 _atom_site_symmetry_multiplicity
 _atom_site_fract_x
 _atom_site_fract_y
 _atom_site_fract_z
 _atom_site_occupancy
  Tm  Tm0  1  0.600078  0.000000  0.000000  1
  Tm  Tm1  1  0.003558  0.611192  0.000000  1
  Tm  Tm2  1  0.392367  0.388808  0.000000  1
  Lu  Lu3  1  0.002385  0.235418  0.500000  1
  Lu  Lu4  1  0.766968  0.764582  0.500000  1
  Zr  Zr5  1  0.227716  0.000000  0.500000  1
  Mn  Mn6  1  0.010422  0.000000  0.000000  1
  Sb  Sb7  1  0.332941  0.669379  0.500000  1
  Sb  Sb8  1  0.663564  0.330621  0.500000  1
