# generated using pymatgen
data_DyHo2In3Cu2Ir
_symmetry_space_group_name_H-M   'P 1'
_cell_length_a   7.72399600
_cell_length_b   7.72635560
_cell_length_c   3.73898600
_cell_angle_alpha   90.00000000
_cell_angle_beta   90.00000000
_cell_angle_gamma   120.02944511
_symmetry_Int_Tables_number   1
_chemical_formula_structural   DyHo2In3Cu2Ir
_chemical_formula_sum   'Dy1 Ho2 In3 Cu2 Ir1'
_cell_volume   193.18449534
_cell_formula_units_Z   1
loop_
 _symmetry_equiv_pos_site_id
 _symmetry_equiv_pos_as_xyz
  1  'x, y, z'
loop_
 _atom_site_type_symbol
 _atom_site_label
 _atom_site_symmetry_multiplicity
 _atom_site_fract_x
 _atom_site_fract_y
 _atom_site_fract_z
 _atom_site_occupancy
  Dy  Dy0  1  0.018095  0.417632  0.000000  1
  Ho  Ho1  1  0.582007  0.600936  0.000000  1
  Ho  Ho2  1  0.399459  0.981317  0.000000  1
  In  In3  1  0.990450  0.735611  0.500000  1
  In  In4  1  0.264728  0.254963  0.500000  1
  In  In5  1  0.744751  0.009210  0.500000  1
  Cu  Cu6  1  0.000286  0.999549  0.000000  1
  Cu  Cu7  1  0.665836  0.333377  0.500000  1
  Ir  Ir8  1  0.334386  0.667406  0.500000  1
