# generated using pymatgen
data_Tb2Dy10InCo5
_symmetry_space_group_name_H-M   'P 1'
_cell_length_a   8.30048629
_cell_length_b   8.30048531
_cell_length_c   8.30032900
_cell_angle_alpha   110.70127988
_cell_angle_beta   110.64965042
_cell_angle_gamma   107.08950584
_symmetry_Int_Tables_number   1
_chemical_formula_structural   Tb2Dy10InCo5
_chemical_formula_sum   'Tb2 Dy10 In1 Co5'
_cell_volume   439.65851737
_cell_formula_units_Z   1
loop_
 _symmetry_equiv_pos_site_id
 _symmetry_equiv_pos_as_xyz
  1  'x, y, z'
loop_
 _atom_site_type_symbol
 _atom_site_label
 _atom_site_symmetry_multiplicity
 _atom_site_fract_x
 _atom_site_fract_y
 _atom_site_fract_z
 _atom_site_occupancy
  Tb  Tb0  1  0.813962  0.706346  0.520308  1
  Tb  Tb1  1  0.186038  0.293654  0.479692  1
  Dy  Dy2  1  0.186046  0.706357  0.892401  1
  Dy  Dy3  1  0.813954  0.293643  0.107599  1
  Dy  Dy4  1  0.685292  0.379663  0.694396  1
  Dy  Dy5  1  0.314708  0.620337  0.305604  1
  Dy  Dy6  1  0.685268  0.990895  0.305604  1
  Dy  Dy7  1  0.314732  0.009105  0.694396  1
  Dy  Dy8  1  0.600615  0.792306  0.808340  1
  Dy  Dy9  1  0.399385  0.207694  0.191660  1
  Dy  Dy10  1  0.983966  0.792275  0.191660  1
  Dy  Dy11  1  0.016034  0.207725  0.808340  1
  In  In12  1  0.500000  0.500000  0.000000  1
  Co  Co13  1  0.620907  0.000006  0.620913  1
  Co  Co14  1  0.379093  0.999994  0.379087  1
  Co  Co15  1  0.112363  0.612363  0.500000  1
  Co  Co16  1  0.887637  0.387637  0.500000  1
  Co  Co17  1  0.000000  0.000000  0.000000  1
