# generated using pymatgen
data_Ac3Ge2S8Cl
_symmetry_space_group_name_H-M   'P 1'
_cell_length_a   8.32235700
_cell_length_b   9.39830886
_cell_length_c   11.49891300
_cell_angle_alpha   96.60780739
_cell_angle_beta   90.00000000
_cell_angle_gamma   116.27999588
_symmetry_Int_Tables_number   1
_chemical_formula_structural   Ac3Ge2S8Cl
_chemical_formula_sum   'Ac6 Ge4 S16 Cl2'
_cell_volume   799.77011625
_cell_formula_units_Z   2
loop_
 _symmetry_equiv_pos_site_id
 _symmetry_equiv_pos_as_xyz
  1  'x, y, z'
loop_
 _atom_site_type_symbol
 _atom_site_label
 _atom_site_symmetry_multiplicity
 _atom_site_fract_x
 _atom_site_fract_y
 _atom_site_fract_z
 _atom_site_occupancy
  Ac  Ac0  1  0.316460  0.389367  0.182558  1
  Ac  Ac1  1  0.617882  0.000000  0.250000  1
  Ac  Ac2  1  0.927092  0.610633  0.317442  1
  Ac  Ac3  1  0.072906  0.389367  0.682558  1
  Ac  Ac4  1  0.382118  0.000000  0.750000  1
  Ac  Ac5  1  0.683540  0.610633  0.817442  1
  Ge  Ge6  1  0.696966  0.319816  0.030189  1
  Ge  Ge7  1  0.377151  0.680185  0.469811  1
  Ge  Ge8  1  0.622850  0.319816  0.530189  1
  Ge  Ge9  1  0.303034  0.680183  0.969810  1
  S  S10  1  0.418228  0.135297  0.050815  1
  S  S11  1  0.707570  0.562036  0.086129  1
  S  S12  1  0.895933  0.300582  0.150152  1
  S  S13  1  0.262121  0.702055  0.161811  1
  S  S14  1  0.560065  0.297944  0.338189  1
  S  S15  1  0.595351  0.699418  0.349848  1
  S  S16  1  0.145533  0.437963  0.413870  1
  S  S17  1  0.282931  0.864702  0.449185  1
  S  S18  1  0.717068  0.135297  0.550814  1
  S  S19  1  0.854467  0.562036  0.586129  1
  S  S20  1  0.404649  0.300582  0.650151  1
  S  S21  1  0.439935  0.702055  0.661811  1
  S  S22  1  0.737878  0.297944  0.838189  1
  S  S23  1  0.104067  0.699418  0.849849  1
  S  S24  1  0.292430  0.437963  0.913871  1
  S  S25  1  0.581772  0.864702  0.949186  1
  Cl  Cl26  1  0.974250  0.000000  0.250000  1
  Cl  Cl27  1  0.025750  0.000000  0.750000  1
