# generated using pymatgen
data_PrZr7(Si4W3)4
_symmetry_space_group_name_H-M   'P 1'
_cell_length_a   6.66724455
_cell_length_b   6.80470918
_cell_length_c   12.76260910
_cell_angle_alpha   89.82917825
_cell_angle_beta   90.02503247
_cell_angle_gamma   90.00682310
_symmetry_Int_Tables_number   1
_chemical_formula_structural   PrZr7(Si4W3)4
_chemical_formula_sum   'Pr1 Zr7 Si16 W12'
_cell_volume   579.01984272
_cell_formula_units_Z   1
loop_
 _symmetry_equiv_pos_site_id
 _symmetry_equiv_pos_as_xyz
  1  'x, y, z'
loop_
 _atom_site_type_symbol
 _atom_site_label
 _atom_site_symmetry_multiplicity
 _atom_site_fract_x
 _atom_site_fract_y
 _atom_site_fract_z
 _atom_site_occupancy
  Pr  Pr0  1  0.998196  0.832542  0.590867  1
  Zr  Zr1  1  0.496974  0.670009  0.591510  1
  Zr  Zr2  1  0.995168  0.827832  0.907632  1
  Zr  Zr3  1  0.506042  0.327335  0.092440  1
  Zr  Zr4  1  0.005835  0.174707  0.402843  1
  Zr  Zr5  1  0.507684  0.329835  0.405446  1
  Zr  Zr6  1  0.006004  0.171475  0.092929  1
  Zr  Zr7  1  0.494118  0.670892  0.911031  1
  Si  Si8  1  0.663876  0.960505  0.453498  1
  Si  Si9  1  0.166885  0.541749  0.043913  1
  Si  Si10  1  0.331612  0.041730  0.958633  1
  Si  Si11  1  0.831222  0.451336  0.541244  1
  Si  Si12  1  0.341633  0.047132  0.540919  1
  Si  Si13  1  0.833102  0.458592  0.958225  1
  Si  Si14  1  0.667335  0.958145  0.043264  1
  Si  Si15  1  0.169026  0.536477  0.453417  1
  Si  Si16  1  0.465198  0.379841  0.751231  1
  Si  Si17  1  0.963386  0.127548  0.753611  1
  Si  Si18  1  0.532861  0.619128  0.248218  1
  Si  Si19  1  0.033874  0.877808  0.250394  1
  Si  Si20  1  0.693077  0.857977  0.753223  1
  Si  Si21  1  0.204228  0.638106  0.753641  1
  Si  Si22  1  0.301417  0.139549  0.248971  1
  Si  Si23  1  0.799068  0.359669  0.248112  1
  W  W24  1  0.662464  0.166082  0.626237  1
  W  W25  1  0.169343  0.338255  0.877874  1
  W  W26  1  0.331235  0.836446  0.124262  1
  W  W27  1  0.828682  0.660113  0.372664  1
  W  W28  1  0.335884  0.835298  0.374106  1
  W  W29  1  0.832269  0.663639  0.124002  1
  W  W30  1  0.663950  0.165131  0.877695  1
  W  W31  1  0.167786  0.337026  0.625159  1
  W  W32  1  0.833646  0.504047  0.752869  1
  W  W33  1  0.334668  0.996564  0.753317  1
  W  W34  1  0.165764  0.489966  0.248984  1
  W  W35  1  0.666486  0.007510  0.247616  1
