# generated using pymatgen
data_Pa4Co9Ni3Sn4
_symmetry_space_group_name_H-M   'P 1'
_cell_length_a   5.27083987
_cell_length_b   7.22749643
_cell_length_c   8.25705573
_cell_angle_alpha   90.16620564
_cell_angle_beta   90.89001123
_cell_angle_gamma   89.57099848
_symmetry_Int_Tables_number   1
_chemical_formula_structural   Pa4Co9Ni3Sn4
_chemical_formula_sum   'Pa4 Co9 Ni3 Sn4'
_cell_volume   314.50435751
_cell_formula_units_Z   1
loop_
 _symmetry_equiv_pos_site_id
 _symmetry_equiv_pos_as_xyz
  1  'x, y, z'
loop_
 _atom_site_type_symbol
 _atom_site_label
 _atom_site_symmetry_multiplicity
 _atom_site_fract_x
 _atom_site_fract_y
 _atom_site_fract_z
 _atom_site_occupancy
  Pa  Pa0  1  0.773382  0.899746  0.844869  1
  Pa  Pa1  1  0.739835  0.388710  0.659000  1
  Pa  Pa2  1  0.267992  0.112467  0.148921  1
  Pa  Pa3  1  0.229476  0.610203  0.345822  1
  Co  Co4  1  0.723329  0.570777  0.394752  1
  Co  Co5  1  0.771856  0.074362  0.111894  1
  Co  Co6  1  0.233459  0.428899  0.604490  1
  Co  Co7  1  0.273142  0.922153  0.889044  1
  Co  Co8  1  0.012290  0.234707  0.878931  1
  Co  Co9  1  0.981672  0.743501  0.625047  1
  Co  Co10  1  0.510431  0.240610  0.876820  1
  Co  Co11  1  0.478541  0.254807  0.375105  1
  Co  Co12  1  0.025081  0.757127  0.125101  1
  Ni  Ni13  1  0.974652  0.264935  0.380020  1
  Ni  Ni14  1  0.529082  0.764366  0.118407  1
  Ni  Ni15  1  0.478207  0.734334  0.620815  1
  Sn  Sn16  1  0.745930  0.932075  0.395626  1
  Sn  Sn17  1  0.753813  0.433359  0.104216  1
  Sn  Sn18  1  0.247894  0.069341  0.606524  1
  Sn  Sn19  1  0.249935  0.563520  0.894595  1
