# generated using pymatgen
data_Ho4HgRh
_symmetry_space_group_name_H-M   'P 1'
_cell_length_a   9.53772959
_cell_length_b   9.53773020
_cell_length_c   9.53773000
_cell_angle_alpha   60.00000069
_cell_angle_beta   59.99999857
_cell_angle_gamma   59.99999716
_symmetry_Int_Tables_number   1
_chemical_formula_structural   Ho4HgRh
_chemical_formula_sum   'Ho16 Hg4 Rh4'
_cell_volume   613.50774945
_cell_formula_units_Z   4
loop_
 _symmetry_equiv_pos_site_id
 _symmetry_equiv_pos_as_xyz
  1  'x, y, z'
loop_
 _atom_site_type_symbol
 _atom_site_label
 _atom_site_symmetry_multiplicity
 _atom_site_fract_x
 _atom_site_fract_y
 _atom_site_fract_z
 _atom_site_occupancy
  Ho  Ho0  1  0.187004  0.187004  0.812996  1
  Ho  Ho1  1  0.601098  0.601098  0.196705  1
  Ho  Ho2  1  0.439687  0.060313  0.439687  1
  Ho  Ho3  1  0.439687  0.439687  0.060313  1
  Ho  Ho4  1  0.812996  0.187004  0.812996  1
  Ho  Ho5  1  0.187004  0.812996  0.187004  1
  Ho  Ho6  1  0.439687  0.060313  0.060313  1
  Ho  Ho7  1  0.187004  0.812996  0.812996  1
  Ho  Ho8  1  0.060313  0.439687  0.060313  1
  Ho  Ho9  1  0.812996  0.812996  0.187004  1
  Ho  Ho10  1  0.196705  0.601098  0.601098  1
  Ho  Ho11  1  0.060313  0.439687  0.439687  1
  Ho  Ho12  1  0.060313  0.060313  0.439687  1
  Ho  Ho13  1  0.812996  0.187004  0.187004  1
  Ho  Ho14  1  0.601098  0.196705  0.601098  1
  Ho  Ho15  1  0.601098  0.601098  0.601098  1
  Hg  Hg16  1  0.834039  0.834039  0.834039  1
  Hg  Hg17  1  0.834039  0.834039  0.497885  1
  Hg  Hg18  1  0.497885  0.834039  0.834039  1
  Hg  Hg19  1  0.834039  0.497885  0.834039  1
  Rh  Rh20  1  0.392786  0.821642  0.392786  1
  Rh  Rh21  1  0.392786  0.392786  0.392786  1
  Rh  Rh22  1  0.821642  0.392786  0.392786  1
  Rh  Rh23  1  0.392786  0.392786  0.821642  1
