# generated using pymatgen
data_CaVTeO6
_symmetry_space_group_name_H-M   'P 1'
_cell_length_a   5.20219673
_cell_length_b   5.20014194
_cell_length_c   5.09206625
_cell_angle_alpha   89.97131996
_cell_angle_beta   89.94803319
_cell_angle_gamma   120.11784828
_symmetry_Int_Tables_number   1
_chemical_formula_structural   CaVTeO6
_chemical_formula_sum   'Ca1 V1 Te1 O6'
_cell_volume   119.15416976
_cell_formula_units_Z   1
loop_
 _symmetry_equiv_pos_site_id
 _symmetry_equiv_pos_as_xyz
  1  'x, y, z'
loop_
 _atom_site_type_symbol
 _atom_site_label
 _atom_site_symmetry_multiplicity
 _atom_site_fract_x
 _atom_site_fract_y
 _atom_site_fract_z
 _atom_site_occupancy
  Ca  Ca0  1  0.000161  0.999661  0.000001  1
  V  V1  1  0.333905  0.665571  0.499990  1
  Te  Te2  1  0.666433  0.333855  0.500004  1
  O  O3  1  0.625032  0.001785  0.287871  1
  O  O4  1  0.376902  0.375236  0.286908  1
  O  O5  1  0.997193  0.622895  0.286300  1
  O  O6  1  0.377061  0.002835  0.713396  1
  O  O7  1  0.998433  0.375150  0.712068  1
  O  O8  1  0.624879  0.623008  0.713460  1
