# generated using pymatgen
data_Nb4ReSiB2
_symmetry_space_group_name_H-M   'P 1'
_cell_length_a   7.27608934
_cell_length_b   7.27608925
_cell_length_c   7.27609059
_cell_angle_alpha   129.79468934
_cell_angle_beta   129.79468989
_cell_angle_gamma   73.73520042
_symmetry_Int_Tables_number   1
_chemical_formula_structural   Nb4ReSiB2
_chemical_formula_sum   'Nb8 Re2 Si2 B4'
_cell_volume   221.86216482
_cell_formula_units_Z   2
loop_
 _symmetry_equiv_pos_site_id
 _symmetry_equiv_pos_as_xyz
  1  'x, y, z'
loop_
 _atom_site_type_symbol
 _atom_site_label
 _atom_site_symmetry_multiplicity
 _atom_site_fract_x
 _atom_site_fract_y
 _atom_site_fract_z
 _atom_site_occupancy
  Nb  Nb0  1  0.806815  0.306815  0.836036  1
  Nb  Nb1  1  0.193185  0.693185  0.163964  1
  Nb  Nb2  1  0.470779  0.970779  0.163964  1
  Nb  Nb3  1  0.306815  0.470779  0.500000  1
  Nb  Nb4  1  0.029221  0.193185  0.500000  1
  Nb  Nb5  1  0.529221  0.029221  0.836036  1
  Nb  Nb6  1  0.693185  0.529221  0.500000  1
  Nb  Nb7  1  0.970779  0.806815  0.500000  1
  Re  Re8  1  0.000000  0.000000  0.000000  1
  Re  Re9  1  0.500000  0.500000  0.000000  1
  Si  Si10  1  0.250000  0.250000  0.000000  1
  Si  Si11  1  0.750000  0.750000  0.000000  1
  B  B12  1  0.120736  0.620736  0.741472  1
  B  B13  1  0.879264  0.379264  0.258528  1
  B  B14  1  0.620736  0.879264  0.500000  1
  B  B15  1  0.379264  0.120736  0.500000  1
