# generated using pymatgen
data_Lu8SiPd24
_symmetry_space_group_name_H-M   'P 1'
_cell_length_a   8.25384300
_cell_length_b   8.25384300
_cell_length_c   8.25384300
_cell_angle_alpha   90.00000000
_cell_angle_beta   90.00000000
_cell_angle_gamma   90.00000000
_symmetry_Int_Tables_number   1
_chemical_formula_structural   Lu8SiPd24
_chemical_formula_sum   'Lu8 Si1 Pd24'
_cell_volume   562.30068314
_cell_formula_units_Z   1
loop_
 _symmetry_equiv_pos_site_id
 _symmetry_equiv_pos_as_xyz
  1  'x, y, z'
loop_
 _atom_site_type_symbol
 _atom_site_label
 _atom_site_symmetry_multiplicity
 _atom_site_fract_x
 _atom_site_fract_y
 _atom_site_fract_z
 _atom_site_occupancy
  Lu  Lu0  1  0.253824  0.253824  0.253824  1
  Lu  Lu1  1  0.746176  0.746176  0.746176  1
  Lu  Lu2  1  0.746176  0.746176  0.253824  1
  Lu  Lu3  1  0.746176  0.253824  0.746176  1
  Lu  Lu4  1  0.253824  0.253824  0.746176  1
  Lu  Lu5  1  0.253824  0.746176  0.253824  1
  Lu  Lu6  1  0.253824  0.746176  0.746176  1
  Lu  Lu7  1  0.746176  0.253824  0.253824  1
  Si  Si8  1  0.000000  0.000000  0.000000  1
  Pd  Pd9  1  0.256876  0.500000  0.000000  1
  Pd  Pd10  1  0.743124  0.500000  0.000000  1
  Pd  Pd11  1  0.000000  0.256876  0.500000  1
  Pd  Pd12  1  0.500000  0.256876  0.000000  1
  Pd  Pd13  1  0.000000  0.743124  0.500000  1
  Pd  Pd14  1  0.500000  0.743124  0.000000  1
  Pd  Pd15  1  0.500000  0.000000  0.256876  1
  Pd  Pd16  1  0.256876  0.000000  0.500000  1
  Pd  Pd17  1  0.500000  0.000000  0.743124  1
  Pd  Pd18  1  0.743124  0.000000  0.500000  1
  Pd  Pd19  1  0.000000  0.500000  0.256876  1
  Pd  Pd20  1  0.000000  0.500000  0.743124  1
  Pd  Pd21  1  0.251953  0.500000  0.500000  1
  Pd  Pd22  1  0.748047  0.500000  0.500000  1
  Pd  Pd23  1  0.500000  0.251953  0.500000  1
  Pd  Pd24  1  0.500000  0.748047  0.500000  1
  Pd  Pd25  1  0.500000  0.500000  0.251953  1
  Pd  Pd26  1  0.500000  0.500000  0.748047  1
  Pd  Pd27  1  0.279478  0.000000  0.000000  1
  Pd  Pd28  1  0.720522  0.000000  0.000000  1
  Pd  Pd29  1  0.000000  0.279478  0.000000  1
  Pd  Pd30  1  0.000000  0.720522  0.000000  1
  Pd  Pd31  1  0.000000  0.000000  0.279478  1
  Pd  Pd32  1  0.000000  0.000000  0.720522  1
