# generated using pymatgen
data_DyTm3Al18Ir5Au
_symmetry_space_group_name_H-M   'P 1'
_cell_length_a   7.57512016
_cell_length_b   7.57634051
_cell_length_c   9.43727252
_cell_angle_alpha   89.96607472
_cell_angle_beta   89.99164623
_cell_angle_gamma   119.56414576
_symmetry_Int_Tables_number   1
_chemical_formula_structural   DyTm3Al18Ir5Au
_chemical_formula_sum   'Dy1 Tm3 Al18 Ir5 Au1'
_cell_volume   471.10390626
_cell_formula_units_Z   1
loop_
 _symmetry_equiv_pos_site_id
 _symmetry_equiv_pos_as_xyz
  1  'x, y, z'
loop_
 _atom_site_type_symbol
 _atom_site_label
 _atom_site_symmetry_multiplicity
 _atom_site_fract_x
 _atom_site_fract_y
 _atom_site_fract_z
 _atom_site_occupancy
  Dy  Dy0  1  0.995916  0.673710  0.251130  1
  Tm  Tm1  1  0.003986  0.326148  0.748450  1
  Tm  Tm2  1  0.673680  0.996125  0.251542  1
  Tm  Tm3  1  0.326355  0.004057  0.748466  1
  Al  Al4  1  0.135125  0.135525  0.256013  1
  Al  Al5  1  0.864930  0.865067  0.744136  1
  Al  Al6  1  0.001162  0.343433  0.079214  1
  Al  Al7  1  0.998914  0.655854  0.919645  1
  Al  Al8  1  0.000454  0.664451  0.575335  1
  Al  Al9  1  0.336179  0.000200  0.425834  1
  Al  Al10  1  0.999558  0.334983  0.425794  1
  Al  Al11  1  0.664436  0.000402  0.574733  1
  Al  Al12  1  0.655981  0.998880  0.920197  1
  Al  Al13  1  0.344743  0.001689  0.079293  1
  Al  Al14  1  0.332892  0.332905  0.553814  1
  Al  Al15  1  0.666575  0.667127  0.446923  1
  Al  Al16  1  0.657917  0.658462  0.059596  1
  Al  Al17  1  0.341444  0.341441  0.939682  1
  Al  Al18  1  0.339700  0.550692  0.251240  1
  Al  Al19  1  0.660650  0.449157  0.748791  1
  Al  Al20  1  0.550070  0.338656  0.251213  1
  Al  Al21  1  0.449263  0.660779  0.748811  1
  Ir  Ir22  1  0.671998  0.327661  0.999717  1
  Ir  Ir23  1  0.327964  0.672134  0.999716  1
  Ir  Ir24  1  0.327932  0.672076  0.500242  1
  Ir  Ir25  1  0.671973  0.327687  0.500339  1
  Ir  Ir26  1  0.000154  0.000464  0.500357  1
  Au  Au27  1  0.000048  0.000233  0.999776  1
