# generated using pymatgen
data_Tb3Th5(Si3Ir)4
_symmetry_space_group_name_H-M   'P 1'
_cell_length_a   8.21775300
_cell_length_b   8.25840536
_cell_length_c   8.46297200
_cell_angle_alpha   90.00000000
_cell_angle_beta   90.00000000
_cell_angle_gamma   119.83729273
_symmetry_Int_Tables_number   1
_chemical_formula_structural   Tb3Th5(Si3Ir)4
_chemical_formula_sum   'Tb3 Th5 Si12 Ir4'
_cell_volume   498.21010178
_cell_formula_units_Z   1
loop_
 _symmetry_equiv_pos_site_id
 _symmetry_equiv_pos_as_xyz
  1  'x, y, z'
loop_
 _atom_site_type_symbol
 _atom_site_label
 _atom_site_symmetry_multiplicity
 _atom_site_fract_x
 _atom_site_fract_y
 _atom_site_fract_z
 _atom_site_occupancy
  Tb  Tb0  1  0.500052  0.000105  0.250000  1
  Tb  Tb1  1  0.999995  0.999990  0.750000  1
  Tb  Tb2  1  0.000007  0.000013  0.250000  1
  Th  Th3  1  0.499945  0.500074  0.750000  1
  Th  Th4  1  0.500064  0.499920  0.250000  1
  Th  Th5  1  0.000130  0.500072  0.750000  1
  Th  Th6  1  0.999853  0.499917  0.250000  1
  Th  Th7  1  0.499957  0.999916  0.750000  1
  Si  Si8  1  0.832052  0.164868  0.001496  1
  Si  Si9  1  0.167960  0.835117  0.001573  1
  Si  Si10  1  0.332816  0.164869  0.001496  1
  Si  Si11  1  0.167960  0.835117  0.498427  1
  Si  Si12  1  0.667156  0.835116  0.001573  1
  Si  Si13  1  0.832052  0.164868  0.498504  1
  Si  Si14  1  0.835919  0.671838  0.998613  1
  Si  Si15  1  0.667156  0.835116  0.498427  1
  Si  Si16  1  0.164083  0.328166  0.998731  1
  Si  Si17  1  0.332816  0.164869  0.498504  1
  Si  Si18  1  0.164083  0.328166  0.501269  1
  Si  Si19  1  0.835919  0.671838  0.501387  1
  Ir  Ir20  1  0.668742  0.337486  0.003308  1
  Ir  Ir21  1  0.331268  0.662536  0.003432  1
  Ir  Ir22  1  0.331268  0.662536  0.496568  1
  Ir  Ir23  1  0.668742  0.337486  0.496692  1
