# generated using pymatgen
data_Ca3HoEr2(Si3Ru)8
_symmetry_space_group_name_H-M   'P 1'
_cell_length_a   10.17164812
_cell_length_b   10.17154638
_cell_length_c   8.15159929
_cell_angle_alpha   89.99747730
_cell_angle_beta   90.01296080
_cell_angle_gamma   132.76092430
_symmetry_Int_Tables_number   1
_chemical_formula_structural   Ca3HoEr2(Si3Ru)8
_chemical_formula_sum   'Ca3 Ho1 Er2 Si24 Ru8'
_cell_volume   619.20064568
_cell_formula_units_Z   1
loop_
 _symmetry_equiv_pos_site_id
 _symmetry_equiv_pos_as_xyz
  1  'x, y, z'
loop_
 _atom_site_type_symbol
 _atom_site_label
 _atom_site_symmetry_multiplicity
 _atom_site_fract_x
 _atom_site_fract_y
 _atom_site_fract_z
 _atom_site_occupancy
  Ca  Ca0  1  0.500024  0.499985  0.499983  1
  Ca  Ca1  1  0.500836  0.000712  0.749775  1
  Ca  Ca2  1  0.999293  0.499176  0.250204  1
  Ho  Ho3  1  0.001639  0.501639  0.749697  1
  Er  Er4  1  0.000076  0.999990  0.000018  1
  Er  Er5  1  0.498404  0.998427  0.250295  1
  Si  Si6  1  0.794914  0.204721  0.499831  1
  Si  Si7  1  0.294373  0.705999  0.000209  1
  Si  Si8  1  0.205613  0.794766  0.499800  1
  Si  Si9  1  0.705172  0.294484  0.000169  1
  Si  Si10  1  0.332453  0.336956  0.831503  1
  Si  Si11  1  0.662999  0.667558  0.168499  1
  Si  Si12  1  0.169434  0.165047  0.333588  1
  Si  Si13  1  0.834914  0.830575  0.666417  1
  Si  Si14  1  0.122283  0.888912  0.728190  1
  Si  Si15  1  0.111167  0.877811  0.271881  1
  Si  Si16  1  0.608508  0.375420  0.229474  1
  Si  Si17  1  0.624466  0.391394  0.770463  1
  Si  Si18  1  0.874994  0.108188  0.271521  1
  Si  Si19  1  0.891715  0.124894  0.728548  1
  Si  Si20  1  0.388794  0.622202  0.770634  1
  Si  Si21  1  0.377884  0.611286  0.229292  1
  Si  Si22  1  0.346100  0.112481  0.504842  1
  Si  Si23  1  0.887470  0.653836  0.495046  1
  Si  Si24  1  0.388506  0.155076  0.007516  1
  Si  Si25  1  0.844980  0.611567  0.992601  1
  Si  Si26  1  0.653621  0.886665  0.491928  1
  Si  Si27  1  0.113410  0.346429  0.507962  1
  Si  Si28  1  0.610683  0.844610  0.996171  1
  Si  Si29  1  0.155317  0.389258  0.003947  1
  Ru  Ru30  1  0.670756  0.328961  0.499871  1
  Ru  Ru31  1  0.168982  0.831305  0.000167  1
  Ru  Ru32  1  0.329959  0.670312  0.499803  1
  Ru  Ru33  1  0.830212  0.169471  0.000145  1
  Ru  Ru34  1  0.125226  0.125718  0.627266  1
  Ru  Ru35  1  0.874278  0.874748  0.372775  1
  Ru  Ru36  1  0.371635  0.371077  0.124048  1
  Ru  Ru37  1  0.628905  0.628345  0.875918  1
