# generated using pymatgen
data_Dy2Ga10Os2Ru
_symmetry_space_group_name_H-M   'P 1'
_cell_length_a   8.92339909
_cell_length_b   8.92339909
_cell_length_c   6.43246400
_cell_angle_alpha   90.00000000
_cell_angle_beta   90.00000000
_cell_angle_gamma   89.98334432
_symmetry_Int_Tables_number   1
_chemical_formula_structural   Dy2Ga10Os2Ru
_chemical_formula_sum   'Dy4 Ga20 Os4 Ru2'
_cell_volume   512.19811989
_cell_formula_units_Z   2
loop_
 _symmetry_equiv_pos_site_id
 _symmetry_equiv_pos_as_xyz
  1  'x, y, z'
loop_
 _atom_site_type_symbol
 _atom_site_label
 _atom_site_symmetry_multiplicity
 _atom_site_fract_x
 _atom_site_fract_y
 _atom_site_fract_z
 _atom_site_occupancy
  Dy  Dy0  1  0.183183  0.683183  0.000000  1
  Dy  Dy1  1  0.816817  0.316817  0.000000  1
  Dy  Dy2  1  0.683058  0.816942  0.000000  1
  Dy  Dy3  1  0.316942  0.183058  0.000000  1
  Ga  Ga4  1  0.061261  0.206240  0.706246  1
  Ga  Ga5  1  0.938739  0.793760  0.706246  1
  Ga  Ga6  1  0.560639  0.293318  0.706358  1
  Ga  Ga7  1  0.439361  0.706682  0.706358  1
  Ga  Ga8  1  0.793318  0.060639  0.706358  1
  Ga  Ga9  1  0.206682  0.939361  0.706358  1
  Ga  Ga10  1  0.706240  0.561261  0.706246  1
  Ga  Ga11  1  0.293760  0.438739  0.706246  1
  Ga  Ga12  1  0.938739  0.793760  0.293754  1
  Ga  Ga13  1  0.061261  0.206240  0.293754  1
  Ga  Ga14  1  0.439361  0.706682  0.293642  1
  Ga  Ga15  1  0.560639  0.293318  0.293642  1
  Ga  Ga16  1  0.206682  0.939361  0.293642  1
  Ga  Ga17  1  0.793318  0.060639  0.293642  1
  Ga  Ga18  1  0.293760  0.438739  0.293754  1
  Ga  Ga19  1  0.706240  0.561261  0.293754  1
  Ga  Ga20  1  0.000000  0.500000  0.712087  1
  Ga  Ga21  1  0.500000  0.000000  0.711661  1
  Ga  Ga22  1  0.000000  0.500000  0.287913  1
  Ga  Ga23  1  0.500000  0.000000  0.288339  1
  Os  Os24  1  0.178614  0.678614  0.500000  1
  Os  Os25  1  0.821386  0.321386  0.500000  1
  Os  Os26  1  0.000000  0.000000  0.000000  1
  Os  Os27  1  0.500000  0.500000  0.000000  1
  Ru  Ru28  1  0.678706  0.821294  0.500000  1
  Ru  Ru29  1  0.321294  0.178706  0.500000  1
