# generated using pymatgen
data_Li2Dy3CdSn3
_symmetry_space_group_name_H-M   'P 1'
_cell_length_a   7.38642000
_cell_length_b   7.32056914
_cell_length_c   4.64757500
_cell_angle_alpha   90.00000000
_cell_angle_beta   90.00000000
_cell_angle_gamma   120.29801157
_symmetry_Int_Tables_number   1
_chemical_formula_structural   Li2Dy3CdSn3
_chemical_formula_sum   'Li2 Dy3 Cd1 Sn3'
_cell_volume   216.98207872
_cell_formula_units_Z   1
loop_
 _symmetry_equiv_pos_site_id
 _symmetry_equiv_pos_as_xyz
  1  'x, y, z'
loop_
 _atom_site_type_symbol
 _atom_site_label
 _atom_site_symmetry_multiplicity
 _atom_site_fract_x
 _atom_site_fract_y
 _atom_site_fract_z
 _atom_site_occupancy
  Li  Li0  1  0.232806  0.233673  0.500001  1
  Li  Li1  1  0.999133  0.766327  0.500001  1
  Dy  Dy2  1  0.440701  0.000000  0.000000  1
  Dy  Dy3  1  0.000188  0.441643  0.000000  1
  Dy  Dy4  1  0.558544  0.558357  0.000000  1
  Cd  Cd5  1  0.767256  0.000000  0.500001  1
  Sn  Sn6  1  0.012433  0.000000  0.000000  1
  Sn  Sn7  1  0.665083  0.341228  0.500001  1
  Sn  Sn8  1  0.323854  0.658772  0.500001  1
