# generated using pymatgen
data_Nd4Gd2CoI10
_symmetry_space_group_name_H-M   'P 1'
_cell_length_a   8.01807784
_cell_length_b   10.02407723
_cell_length_c   10.19622200
_cell_angle_alpha   108.27597091
_cell_angle_beta   95.78222152
_cell_angle_gamma   104.94940479
_symmetry_Int_Tables_number   1
_chemical_formula_structural   Nd4Gd2CoI10
_chemical_formula_sum   'Nd4 Gd2 Co1 I10'
_cell_volume   736.94899119
_cell_formula_units_Z   1
loop_
 _symmetry_equiv_pos_site_id
 _symmetry_equiv_pos_as_xyz
  1  'x, y, z'
loop_
 _atom_site_type_symbol
 _atom_site_label
 _atom_site_symmetry_multiplicity
 _atom_site_fract_x
 _atom_site_fract_y
 _atom_site_fract_z
 _atom_site_occupancy
  Nd  Nd0  1  0.466479  0.770809  0.583578  1
  Nd  Nd1  1  0.533521  0.229191  0.416422  1
  Nd  Nd2  1  0.378135  0.454545  0.734513  1
  Nd  Nd3  1  0.621865  0.545455  0.265487  1
  Gd  Gd4  1  0.838154  0.621594  0.663224  1
  Gd  Gd5  1  0.161846  0.378406  0.336776  1
  Co  Co6  1  0.500000  0.500000  0.500000  1
  I  I7  1  0.412839  0.130320  0.670930  1
  I  I8  1  0.587161  0.869680  0.329070  1
  I  I9  1  0.048369  0.680127  0.417598  1
  I  I10  1  0.951631  0.319873  0.582402  1
  I  I11  1  0.264665  0.748665  0.838110  1
  I  I12  1  0.735335  0.251335  0.161890  1
  I  I13  1  0.252341  0.417745  0.052194  1
  I  I14  1  0.747659  0.582255  0.947806  1
  I  I15  1  0.846132  0.943435  0.768417  1
  I  I16  1  0.153868  0.056565  0.231583  1
