# generated using pymatgen
data_Ba2CeY(Ge4N7)2
_symmetry_space_group_name_H-M   'P 1'
_cell_length_a   6.39598900
_cell_length_b   6.39598879
_cell_length_c   10.42268600
_cell_angle_alpha   90.00000000
_cell_angle_beta   90.00000000
_cell_angle_gamma   119.99999593
_symmetry_Int_Tables_number   1
_chemical_formula_structural   Ba2CeY(Ge4N7)2
_chemical_formula_sum   'Ba2 Ce1 Y1 Ge8 N14'
_cell_volume   369.25442259
_cell_formula_units_Z   1
loop_
 _symmetry_equiv_pos_site_id
 _symmetry_equiv_pos_as_xyz
  1  'x, y, z'
loop_
 _atom_site_type_symbol
 _atom_site_label
 _atom_site_symmetry_multiplicity
 _atom_site_fract_x
 _atom_site_fract_y
 _atom_site_fract_z
 _atom_site_occupancy
  Ba  Ba0  1  0.333333  0.666667  0.360953  1
  Ba  Ba1  1  0.666667  0.333333  0.867586  1
  Ce  Ce2  1  0.333333  0.666667  0.734818  1
  Y  Y3  1  0.666667  0.333333  0.236830  1
  Ge  Ge4  1  0.826919  0.653837  0.544782  1
  Ge  Ge5  1  0.173316  0.826684  0.049487  1
  Ge  Ge6  1  0.653365  0.826684  0.049487  1
  Ge  Ge7  1  0.346163  0.173081  0.544782  1
  Ge  Ge8  1  0.826919  0.173081  0.544782  1
  Ge  Ge9  1  0.173316  0.346635  0.049487  1
  Ge  Ge10  1  0.000000  0.000000  0.813402  1
  Ge  Ge11  1  0.000000  0.000000  0.312207  1
  N  N12  1  0.000000  0.000000  0.620987  1
  N  N13  1  0.000000  0.000000  0.122077  1
  N  N14  1  0.157201  0.314403  0.871441  1
  N  N15  1  0.842014  0.157986  0.367726  1
  N  N16  1  0.315971  0.157986  0.367726  1
  N  N17  1  0.685597  0.842799  0.871441  1
  N  N18  1  0.157201  0.842799  0.871441  1
  N  N19  1  0.842014  0.684029  0.367726  1
  N  N20  1  0.983432  0.491717  0.601490  1
  N  N21  1  0.493392  0.986781  0.104718  1
  N  N22  1  0.493392  0.506608  0.104718  1
  N  N23  1  0.508283  0.491717  0.601490  1
  N  N24  1  0.013219  0.506608  0.104718  1
  N  N25  1  0.508283  0.016568  0.601490  1
