# generated using pymatgen
data_CeTm3CdRu
_symmetry_space_group_name_H-M   'P 1'
_cell_length_a   9.53500700
_cell_length_b   9.53500691
_cell_length_c   9.53500700
_cell_angle_alpha   59.99999623
_cell_angle_beta   59.99999653
_cell_angle_gamma   59.99999338
_symmetry_Int_Tables_number   1
_chemical_formula_structural   CeTm3CdRu
_chemical_formula_sum   'Ce4 Tm12 Cd4 Ru4'
_cell_volume   612.98239466
_cell_formula_units_Z   4
loop_
 _symmetry_equiv_pos_site_id
 _symmetry_equiv_pos_as_xyz
  1  'x, y, z'
loop_
 _atom_site_type_symbol
 _atom_site_label
 _atom_site_symmetry_multiplicity
 _atom_site_fract_x
 _atom_site_fract_y
 _atom_site_fract_z
 _atom_site_occupancy
  Ce  Ce0  1  0.346922  0.346922  0.959235  1
  Ce  Ce1  1  0.346922  0.959235  0.346922  1
  Ce  Ce2  1  0.959235  0.346922  0.346922  1
  Ce  Ce3  1  0.346922  0.346922  0.346922  1
  Tm  Tm4  1  0.563344  0.563344  0.936656  1
  Tm  Tm5  1  0.936656  0.563344  0.936656  1
  Tm  Tm6  1  0.563344  0.936656  0.936656  1
  Tm  Tm7  1  0.936656  0.936656  0.563344  1
  Tm  Tm8  1  0.563344  0.936656  0.563344  1
  Tm  Tm9  1  0.936656  0.563344  0.563344  1
  Tm  Tm10  1  0.187876  0.187876  0.812124  1
  Tm  Tm11  1  0.812124  0.187876  0.812124  1
  Tm  Tm12  1  0.187875  0.812125  0.812124  1
  Tm  Tm13  1  0.812124  0.812125  0.187876  1
  Tm  Tm14  1  0.187875  0.812124  0.187875  1
  Tm  Tm15  1  0.812124  0.187876  0.187876  1
  Cd  Cd16  1  0.581418  0.581418  0.255744  1
  Cd  Cd17  1  0.581418  0.255744  0.581418  1
  Cd  Cd18  1  0.255744  0.581418  0.581418  1
  Cd  Cd19  1  0.581418  0.581418  0.581418  1
  Ru  Ru20  1  0.144123  0.144123  0.567632  1
  Ru  Ru21  1  0.144123  0.567632  0.144123  1
  Ru  Ru22  1  0.567632  0.144123  0.144123  1
  Ru  Ru23  1  0.144123  0.144123  0.144123  1
