# generated using pymatgen
data_As(O2F7)2
_symmetry_space_group_name_H-M   'P 1'
_cell_length_a   11.96878700
_cell_length_b   6.48492930
_cell_length_c   8.50152533
_cell_angle_alpha   71.08786989
_cell_angle_beta   90.00000000
_cell_angle_gamma   90.00000000
_symmetry_Int_Tables_number   1
_chemical_formula_structural   As(O2F7)2
_chemical_formula_sum   'As2 O8 F28'
_cell_volume   624.23924468
_cell_formula_units_Z   2
loop_
 _symmetry_equiv_pos_site_id
 _symmetry_equiv_pos_as_xyz
  1  'x, y, z'
loop_
 _atom_site_type_symbol
 _atom_site_label
 _atom_site_symmetry_multiplicity
 _atom_site_fract_x
 _atom_site_fract_y
 _atom_site_fract_z
 _atom_site_occupancy
  As  As0  1  0.500000  0.500000  0.500000  1
  As  As1  1  0.000000  0.500000  0.000000  1
  O  O2  1  0.362993  0.744440  0.900305  1
  O  O3  1  0.637007  0.255560  0.099695  1
  O  O4  1  0.862993  0.255560  0.599695  1
  O  O5  1  0.137007  0.744440  0.400305  1
  O  O6  1  0.734768  0.776158  0.868525  1
  O  O7  1  0.265232  0.223842  0.131475  1
  O  O8  1  0.234768  0.223842  0.631475  1
  O  O9  1  0.765232  0.776158  0.368525  1
  F  F10  1  0.422923  0.890318  0.768329  1
  F  F11  1  0.577077  0.109682  0.231671  1
  F  F12  1  0.922923  0.109682  0.731671  1
  F  F13  1  0.077077  0.890318  0.268329  1
  F  F14  1  0.441611  0.759992  0.474454  1
  F  F15  1  0.558389  0.240008  0.525546  1
  F  F16  1  0.941611  0.240008  0.025546  1
  F  F17  1  0.058389  0.759992  0.974454  1
  F  F18  1  0.431030  0.392282  0.695189  1
  F  F19  1  0.568970  0.607718  0.304811  1
  F  F20  1  0.931030  0.607718  0.804811  1
  F  F21  1  0.068970  0.392282  0.195189  1
  F  F22  1  0.103747  0.793395  0.544025  1
  F  F23  1  0.896253  0.206605  0.455975  1
  F  F24  1  0.603747  0.206605  0.955975  1
  F  F25  1  0.396253  0.793395  0.044025  1
  F  F26  1  0.346112  0.271968  0.003062  1
  F  F27  1  0.653888  0.728032  0.996938  1
  F  F28  1  0.846112  0.728032  0.496938  1
  F  F29  1  0.153888  0.271968  0.503062  1
  F  F30  1  0.117876  0.433899  0.898299  1
  F  F31  1  0.882124  0.566101  0.101701  1
  F  F32  1  0.617876  0.566101  0.601701  1
  F  F33  1  0.382124  0.433899  0.398299  1
  F  F34  1  0.182713  0.069716  0.769359  1
  F  F35  1  0.817287  0.930284  0.230641  1
  F  F36  1  0.682713  0.930284  0.730641  1
  F  F37  1  0.317287  0.069716  0.269359  1
