# generated using pymatgen
data_Th8Ni3Ir5
_symmetry_space_group_name_H-M   'P 1'
_cell_length_a   4.28566200
_cell_length_b   5.89391041
_cell_length_c   14.56903676
_cell_angle_alpha   89.91918155
_cell_angle_beta   90.00000000
_cell_angle_gamma   90.00000000
_symmetry_Int_Tables_number   1
_chemical_formula_structural   Th8Ni3Ir5
_chemical_formula_sum   'Th8 Ni3 Ir5'
_cell_volume   368.00341897
_cell_formula_units_Z   1
loop_
 _symmetry_equiv_pos_site_id
 _symmetry_equiv_pos_as_xyz
  1  'x, y, z'
loop_
 _atom_site_type_symbol
 _atom_site_label
 _atom_site_symmetry_multiplicity
 _atom_site_fract_x
 _atom_site_fract_y
 _atom_site_fract_z
 _atom_site_occupancy
  Th  Th0  1  0.250000  0.544359  0.284548  1
  Th  Th1  1  0.750000  0.457168  0.715677  1
  Th  Th2  1  0.250000  0.956682  0.786477  1
  Th  Th3  1  0.250000  0.757781  0.535749  1
  Th  Th4  1  0.250000  0.743733  0.032852  1
  Th  Th5  1  0.750000  0.258668  0.966275  1
  Th  Th6  1  0.750000  0.042867  0.213080  1
  Th  Th7  1  0.750000  0.242795  0.465731  1
  Ni  Ni8  1  0.750000  0.769194  0.901134  1
  Ni  Ni9  1  0.250000  0.227704  0.097891  1
  Ni  Ni10  1  0.250000  0.268100  0.602085  1
  Ir  Ir11  1  0.250000  0.069080  0.347981  1
  Ir  Ir12  1  0.750000  0.555087  0.142261  1
  Ir  Ir13  1  0.750000  0.718770  0.403040  1
  Ir  Ir14  1  0.250000  0.442376  0.852715  1
  Ir  Ir15  1  0.750000  0.945637  0.652503  1
