# generated using pymatgen
data_Nb6ZnGa5Rh12
_symmetry_space_group_name_H-M   'P 1'
_cell_length_a   4.04838300
_cell_length_b   7.39869200
_cell_length_c   12.13989200
_cell_angle_alpha   90.00000000
_cell_angle_beta   90.00000000
_cell_angle_gamma   90.00000000
_symmetry_Int_Tables_number   1
_chemical_formula_structural   Nb6ZnGa5Rh12
_chemical_formula_sum   'Nb6 Zn1 Ga5 Rh12'
_cell_volume   363.62301553
_cell_formula_units_Z   1
loop_
 _symmetry_equiv_pos_site_id
 _symmetry_equiv_pos_as_xyz
  1  'x, y, z'
loop_
 _atom_site_type_symbol
 _atom_site_label
 _atom_site_symmetry_multiplicity
 _atom_site_fract_x
 _atom_site_fract_y
 _atom_site_fract_z
 _atom_site_occupancy
  Nb  Nb0  1  0.000000  0.499999  0.997277  1
  Nb  Nb1  1  0.500007  0.000000  0.166281  1
  Nb  Nb2  1  0.000000  0.499999  0.333315  1
  Nb  Nb3  1  0.499999  0.000000  0.500394  1
  Nb  Nb4  1  0.000000  0.499999  0.669405  1
  Nb  Nb5  1  0.499992  0.000000  0.833323  1
  Zn  Zn6  1  0.499994  0.499999  0.833355  1
  Ga  Ga7  1  0.000000  0.000000  0.999953  1
  Ga  Ga8  1  0.500004  0.499999  0.165963  1
  Ga  Ga9  1  0.000000  0.000000  0.333353  1
  Ga  Ga10  1  0.499999  0.499999  0.500683  1
  Ga  Ga11  1  0.000000  0.000000  0.666689  1
  Rh  Rh12  1  0.499999  0.250081  0.000401  1
  Rh  Rh13  1  0.499999  0.749919  0.000401  1
  Rh  Rh14  1  0.000000  0.250245  0.167104  1
  Rh  Rh15  1  0.000000  0.749756  0.167104  1
  Rh  Rh16  1  0.500009  0.249554  0.333325  1
  Rh  Rh17  1  0.500009  0.750446  0.333325  1
  Rh  Rh18  1  0.000000  0.250287  0.499560  1
  Rh  Rh19  1  0.000000  0.749713  0.499560  1
  Rh  Rh20  1  0.499992  0.250125  0.666275  1
  Rh  Rh21  1  0.499992  0.749875  0.666275  1
  Rh  Rh22  1  0.000000  0.249158  0.833337  1
  Rh  Rh23  1  0.000000  0.750843  0.833337  1
