# generated using pymatgen
data_NdY2V(Co4P3)2
_symmetry_space_group_name_H-M   'P 1'
_cell_length_a   3.71644600
_cell_length_b   10.60245000
_cell_length_c   12.29297900
_cell_angle_alpha   90.00000000
_cell_angle_beta   90.00000000
_cell_angle_gamma   90.00000000
_symmetry_Int_Tables_number   1
_chemical_formula_structural   NdY2V(Co4P3)2
_chemical_formula_sum   'Nd2 Y4 V2 Co16 P12'
_cell_volume   484.38557308
_cell_formula_units_Z   2
loop_
 _symmetry_equiv_pos_site_id
 _symmetry_equiv_pos_as_xyz
  1  'x, y, z'
loop_
 _atom_site_type_symbol
 _atom_site_label
 _atom_site_symmetry_multiplicity
 _atom_site_fract_x
 _atom_site_fract_y
 _atom_site_fract_z
 _atom_site_occupancy
  Nd  Nd0  1  0.000000  0.500000  0.524115  1
  Nd  Nd1  1  0.500000  0.000000  0.475885  1
  Y  Y2  1  0.500000  0.818196  0.203590  1
  Y  Y3  1  0.500000  0.181804  0.203590  1
  Y  Y4  1  0.000000  0.681804  0.796410  1
  Y  Y5  1  0.000000  0.318196  0.796410  1
  V  V6  1  0.500000  0.500000  0.152404  1
  V  V7  1  0.000000  0.000000  0.847596  1
  Co  Co8  1  0.500000  0.500000  0.704811  1
  Co  Co9  1  0.000000  0.000000  0.295189  1
  Co  Co10  1  0.000000  0.500000  0.987073  1
  Co  Co11  1  0.500000  0.000000  0.012927  1
  Co  Co12  1  0.500000  0.332353  0.993062  1
  Co  Co13  1  0.500000  0.667647  0.993062  1
  Co  Co14  1  0.000000  0.167647  0.006938  1
  Co  Co15  1  0.000000  0.832353  0.006938  1
  Co  Co16  1  0.500000  0.295292  0.430082  1
  Co  Co17  1  0.500000  0.704708  0.430082  1
  Co  Co18  1  0.000000  0.204708  0.569918  1
  Co  Co19  1  0.000000  0.795292  0.569918  1
  Co  Co20  1  0.500000  0.879403  0.709711  1
  Co  Co21  1  0.500000  0.120597  0.709711  1
  Co  Co22  1  0.000000  0.620597  0.290289  1
  Co  Co23  1  0.000000  0.379403  0.290289  1
  P  P24  1  0.500000  0.500000  0.883380  1
  P  P25  1  0.000000  0.000000  0.116620  1
  P  P26  1  0.500000  0.500000  0.342942  1
  P  P27  1  0.000000  0.000000  0.657058  1
  P  P28  1  0.500000  0.307794  0.617118  1
  P  P29  1  0.500000  0.692206  0.617118  1
  P  P30  1  0.000000  0.192206  0.382882  1
  P  P31  1  0.000000  0.807794  0.382882  1
  P  P32  1  0.500000  0.846264  0.892889  1
  P  P33  1  0.500000  0.153736  0.892889  1
  P  P34  1  0.000000  0.653736  0.107111  1
  P  P35  1  0.000000  0.346264  0.107111  1
