# generated using pymatgen
data_YHoFeB6
_symmetry_space_group_name_H-M   'P 1'
_cell_length_a   3.55718800
_cell_length_b   9.08810100
_cell_length_c   11.45785500
_cell_angle_alpha   90.00000000
_cell_angle_beta   90.00000000
_cell_angle_gamma   90.00000000
_symmetry_Int_Tables_number   1
_chemical_formula_structural   YHoFeB6
_chemical_formula_sum   'Y4 Ho4 Fe4 B24'
_cell_volume   370.41049684
_cell_formula_units_Z   4
loop_
 _symmetry_equiv_pos_site_id
 _symmetry_equiv_pos_as_xyz
  1  'x, y, z'
loop_
 _atom_site_type_symbol
 _atom_site_label
 _atom_site_symmetry_multiplicity
 _atom_site_fract_x
 _atom_site_fract_y
 _atom_site_fract_z
 _atom_site_occupancy
  Y  Y0  1  0.000000  0.823883  0.085402  1
  Y  Y1  1  0.000000  0.176117  0.914598  1
  Y  Y2  1  0.000000  0.323883  0.414598  1
  Y  Y3  1  0.000000  0.676117  0.585402  1
  Ho  Ho4  1  0.000000  0.443013  0.129795  1
  Ho  Ho5  1  0.000000  0.556987  0.870205  1
  Ho  Ho6  1  0.000000  0.943013  0.370205  1
  Ho  Ho7  1  0.000000  0.056987  0.629795  1
  Fe  Fe8  1  0.000000  0.138797  0.179762  1
  Fe  Fe9  1  0.000000  0.861203  0.820238  1
  Fe  Fe10  1  0.000000  0.638797  0.320238  1
  Fe  Fe11  1  0.000000  0.361203  0.679762  1
  B  B12  1  0.500000  0.054752  0.068409  1
  B  B13  1  0.500000  0.945248  0.931591  1
  B  B14  1  0.500000  0.554752  0.431591  1
  B  B15  1  0.500000  0.445248  0.568409  1
  B  B16  1  0.500000  0.246782  0.082031  1
  B  B17  1  0.500000  0.753218  0.917969  1
  B  B18  1  0.500000  0.746782  0.417969  1
  B  B19  1  0.500000  0.253218  0.582031  1
  B  B20  1  0.500000  0.288995  0.233740  1
  B  B21  1  0.500000  0.711005  0.766260  1
  B  B22  1  0.500000  0.788995  0.266260  1
  B  B23  1  0.500000  0.211005  0.733740  1
  B  B24  1  0.500000  0.131997  0.314200  1
  B  B25  1  0.500000  0.868003  0.685800  1
  B  B26  1  0.500000  0.631997  0.185800  1
  B  B27  1  0.500000  0.368003  0.814200  1
  B  B28  1  0.500000  0.486508  0.288251  1
  B  B29  1  0.500000  0.513492  0.711749  1
  B  B30  1  0.500000  0.986508  0.211749  1
  B  B31  1  0.500000  0.013492  0.788251  1
  B  B32  1  0.500000  0.108040  0.470456  1
  B  B33  1  0.500000  0.891960  0.529544  1
  B  B34  1  0.500000  0.608040  0.029544  1
  B  B35  1  0.500000  0.391960  0.970456  1
