# generated using pymatgen
data_DyLuBi2(Rh2O7)2
_symmetry_space_group_name_H-M   'P 1'
_cell_length_a   7.27296826
_cell_length_b   7.27296762
_cell_length_c   7.21632769
_cell_angle_alpha   60.11284620
_cell_angle_beta   60.11284636
_cell_angle_gamma   60.43317326
_symmetry_Int_Tables_number   1
_chemical_formula_structural   DyLuBi2(Rh2O7)2
_chemical_formula_sum   'Dy1 Lu1 Bi2 Rh4 O14'
_cell_volume   271.24999349
_cell_formula_units_Z   1
loop_
 _symmetry_equiv_pos_site_id
 _symmetry_equiv_pos_as_xyz
  1  'x, y, z'
loop_
 _atom_site_type_symbol
 _atom_site_label
 _atom_site_symmetry_multiplicity
 _atom_site_fract_x
 _atom_site_fract_y
 _atom_site_fract_z
 _atom_site_occupancy
  Dy  Dy0  1  0.125000  0.125000  0.125000  1
  Lu  Lu1  1  0.125000  0.125000  0.625000  1
  Bi  Bi2  1  0.125000  0.625000  0.125000  1
  Bi  Bi3  1  0.625000  0.125000  0.125000  1
  Rh  Rh4  1  0.625000  0.625000  0.625000  1
  Rh  Rh5  1  0.625000  0.625000  0.125000  1
  Rh  Rh6  1  0.125000  0.625000  0.625000  1
  Rh  Rh7  1  0.625000  0.125000  0.625000  1
  O  O8  1  0.243710  0.243710  0.261315  1
  O  O9  1  0.287918  0.716409  0.288139  1
  O  O10  1  0.962528  0.962528  0.541779  1
  O  O11  1  0.530657  0.961940  0.544824  1
  O  O12  1  0.708229  0.708229  0.291986  1
  O  O13  1  0.961940  0.530657  0.544824  1
  O  O14  1  0.719343  0.288060  0.705176  1
  O  O15  1  0.287472  0.287472  0.708221  1
  O  O16  1  0.716409  0.287918  0.288139  1
  O  O17  1  0.288060  0.719343  0.705176  1
  O  O18  1  0.962082  0.533591  0.961861  1
  O  O19  1  0.541771  0.541771  0.958014  1
  O  O20  1  0.006290  0.006290  0.988685  1
  O  O21  1  0.533591  0.962082  0.961861  1
