# generated using pymatgen
data_Tb10TmLuRu4
_symmetry_space_group_name_H-M   'P 1'
_cell_length_a   6.32195371
_cell_length_b   7.29999474
_cell_length_c   9.20234239
_cell_angle_alpha   89.94425910
_cell_angle_beta   90.49987665
_cell_angle_gamma   89.82319324
_symmetry_Int_Tables_number   1
_chemical_formula_structural   Tb10TmLuRu4
_chemical_formula_sum   'Tb10 Tm1 Lu1 Ru4'
_cell_volume   424.67181002
_cell_formula_units_Z   1
loop_
 _symmetry_equiv_pos_site_id
 _symmetry_equiv_pos_as_xyz
  1  'x, y, z'
loop_
 _atom_site_type_symbol
 _atom_site_label
 _atom_site_symmetry_multiplicity
 _atom_site_fract_x
 _atom_site_fract_y
 _atom_site_fract_z
 _atom_site_occupancy
  Tb  Tb0  1  0.634181  0.040051  0.251602  1
  Tb  Tb1  1  0.365490  0.959667  0.748383  1
  Tb  Tb2  1  0.133968  0.459725  0.747871  1
  Tb  Tb3  1  0.866481  0.540688  0.252172  1
  Tb  Tb4  1  0.170698  0.177193  0.065156  1
  Tb  Tb5  1  0.829348  0.822618  0.934906  1
  Tb  Tb6  1  0.669637  0.322387  0.933674  1
  Tb  Tb7  1  0.829226  0.822195  0.564058  1
  Tb  Tb8  1  0.330365  0.677658  0.066733  1
  Tb  Tb9  1  0.170892  0.177722  0.435776  1
  Tm  Tm10  1  0.668291  0.324720  0.564310  1
  Lu  Lu11  1  0.331594  0.675378  0.435195  1
  Ru  Ru12  1  0.460789  0.386785  0.253812  1
  Ru  Ru13  1  0.538779  0.613577  0.746040  1
  Ru  Ru14  1  0.958032  0.114424  0.749332  1
  Ru  Ru15  1  0.042229  0.885212  0.250979  1
