# generated using pymatgen
data_K6ReP4
_symmetry_space_group_name_H-M   'P 1'
_cell_length_a   10.08838000
_cell_length_b   10.08838005
_cell_length_c   7.90758100
_cell_angle_alpha   90.00000000
_cell_angle_beta   90.00000000
_cell_angle_gamma   119.99999327
_symmetry_Int_Tables_number   1
_chemical_formula_structural   K6ReP4
_chemical_formula_sum   'K12 Re2 P8'
_cell_volume   696.97496313
_cell_formula_units_Z   2
loop_
 _symmetry_equiv_pos_site_id
 _symmetry_equiv_pos_as_xyz
  1  'x, y, z'
loop_
 _atom_site_type_symbol
 _atom_site_label
 _atom_site_symmetry_multiplicity
 _atom_site_fract_x
 _atom_site_fract_y
 _atom_site_fract_z
 _atom_site_occupancy
  K  K0  1  0.142463  0.284929  0.287232  1
  K  K1  1  0.857537  0.142463  0.787232  1
  K  K2  1  0.532421  0.467579  0.105022  1
  K  K3  1  0.064841  0.532421  0.605022  1
  K  K4  1  0.467579  0.935159  0.605022  1
  K  K5  1  0.532421  0.064841  0.105022  1
  K  K6  1  0.935159  0.467579  0.105022  1
  K  K7  1  0.467579  0.532421  0.605022  1
  K  K8  1  0.142463  0.857537  0.287232  1
  K  K9  1  0.715071  0.857537  0.287232  1
  K  K10  1  0.857537  0.715071  0.787232  1
  K  K11  1  0.284929  0.142463  0.787232  1
  Re  Re12  1  0.666667  0.333333  0.498146  1
  Re  Re13  1  0.333333  0.666667  0.998146  1
  P  P14  1  0.790244  0.580488  0.403998  1
  P  P15  1  0.419512  0.209756  0.403998  1
  P  P16  1  0.333333  0.666667  0.287994  1
  P  P17  1  0.666667  0.333333  0.787994  1
  P  P18  1  0.790244  0.209756  0.403998  1
  P  P19  1  0.209756  0.790244  0.903998  1
  P  P20  1  0.209756  0.419512  0.903998  1
  P  P21  1  0.580488  0.790244  0.903998  1
