# generated using pymatgen
data_Cs4Na2LaAlBi4
_symmetry_space_group_name_H-M   'P 1'
_cell_length_a   10.51527981
_cell_length_b   10.51527947
_cell_length_c   10.51528027
_cell_angle_alpha   136.58298996
_cell_angle_beta   62.18627617
_cell_angle_gamma   137.75082649
_symmetry_Int_Tables_number   1
_chemical_formula_structural   Cs4Na2LaAlBi4
_chemical_formula_sum   'Cs4 Na2 La1 Al1 Bi4'
_cell_volume   530.89761302
_cell_formula_units_Z   1
loop_
 _symmetry_equiv_pos_site_id
 _symmetry_equiv_pos_as_xyz
  1  'x, y, z'
loop_
 _atom_site_type_symbol
 _atom_site_label
 _atom_site_symmetry_multiplicity
 _atom_site_fract_x
 _atom_site_fract_y
 _atom_site_fract_z
 _atom_site_occupancy
  Cs  Cs0  1  0.327437  0.773450  0.098865  1
  Cs  Cs1  1  0.172564  0.271426  0.446013  1
  Cs  Cs2  1  0.825413  0.726550  0.553987  1
  Cs  Cs3  1  0.674587  0.228574  0.901136  1
  Na  Na4  1  0.749999  0.249999  0.500000  1
  Na  Na5  1  0.249999  0.749999  0.500000  1
  La  La6  1  0.249999  0.249999  0.000000  1
  Al  Al7  1  0.750000  0.750000  0.000000  1
  Bi  Bi8  1  0.879225  0.194220  0.125081  1
  Bi  Bi9  1  0.620775  0.745855  0.314994  1
  Bi  Bi10  1  0.430862  0.305780  0.685006  1
  Bi  Bi11  1  0.069138  0.754145  0.874918  1
