# generated using pymatgen
data_Dy4Sc(SiHg)2
_symmetry_space_group_name_H-M   'P 1'
_cell_length_a   8.78257912
_cell_length_b   8.78257899
_cell_length_c   7.39944600
_cell_angle_alpha   90.00000000
_cell_angle_beta   90.00000000
_cell_angle_gamma   130.27648839
_symmetry_Int_Tables_number   1
_chemical_formula_structural   Dy4Sc(SiHg)2
_chemical_formula_sum   'Dy8 Sc2 Si4 Hg4'
_cell_volume   435.44181079
_cell_formula_units_Z   2
loop_
 _symmetry_equiv_pos_site_id
 _symmetry_equiv_pos_as_xyz
  1  'x, y, z'
loop_
 _atom_site_type_symbol
 _atom_site_label
 _atom_site_symmetry_multiplicity
 _atom_site_fract_x
 _atom_site_fract_y
 _atom_site_fract_z
 _atom_site_occupancy
  Dy  Dy0  1  0.056325  0.310326  0.322942  1
  Dy  Dy1  1  0.943675  0.689674  0.677058  1
  Dy  Dy2  1  0.443675  0.189674  0.822942  1
  Dy  Dy3  1  0.810326  0.556325  0.177058  1
  Dy  Dy4  1  0.556325  0.810326  0.177058  1
  Dy  Dy5  1  0.189674  0.443675  0.822942  1
  Dy  Dy6  1  0.689674  0.943675  0.677058  1
  Dy  Dy7  1  0.310326  0.056325  0.322942  1
  Sc  Sc8  1  0.000000  0.000000  0.000000  1
  Sc  Sc9  1  0.500000  0.500000  0.500000  1
  Si  Si10  1  0.379776  0.379776  0.123350  1
  Si  Si11  1  0.620224  0.620224  0.876650  1
  Si  Si12  1  0.120224  0.120224  0.623350  1
  Si  Si13  1  0.879776  0.879776  0.376650  1
  Hg  Hg14  1  0.781435  0.218565  0.000000  1
  Hg  Hg15  1  0.218565  0.781435  0.000000  1
  Hg  Hg16  1  0.718565  0.281435  0.500000  1
  Hg  Hg17  1  0.281435  0.718565  0.500000  1
