# generated using pymatgen
data_Dy3Ho3(Sb4Au3)2
_symmetry_space_group_name_H-M   'P 1'
_cell_length_a   8.60094547
_cell_length_b   8.60082914
_cell_length_c   8.60094621
_cell_angle_alpha   109.55744604
_cell_angle_beta   109.47081374
_cell_angle_gamma   109.38600159
_symmetry_Int_Tables_number   1
_chemical_formula_structural   Dy3Ho3(Sb4Au3)2
_chemical_formula_sum   'Dy3 Ho3 Sb8 Au6'
_cell_volume   489.78661570
_cell_formula_units_Z   1
loop_
 _symmetry_equiv_pos_site_id
 _symmetry_equiv_pos_as_xyz
  1  'x, y, z'
loop_
 _atom_site_type_symbol
 _atom_site_label
 _atom_site_symmetry_multiplicity
 _atom_site_fract_x
 _atom_site_fract_y
 _atom_site_fract_z
 _atom_site_occupancy
  Dy  Dy0  1  0.249974  0.124972  0.874925  1
  Dy  Dy1  1  0.749953  0.375028  0.625002  1
  Dy  Dy2  1  0.875078  0.250000  0.125078  1
  Ho  Ho3  1  0.124991  0.874973  0.250016  1
  Ho  Ho4  1  0.624951  0.750000  0.374951  1
  Ho  Ho5  1  0.375043  0.625027  0.750018  1
  Sb  Sb6  1  0.321377  0.321512  0.321549  1
  Sb  Sb7  1  0.500001  0.999886  0.178721  1
  Sb  Sb8  1  0.178835  0.500114  0.000114  1
  Sb  Sb9  1  0.000037  0.178488  0.499865  1
  Sb  Sb10  1  0.821174  0.821211  0.821346  1
  Sb  Sb11  1  0.499895  0.999903  0.678452  1
  Sb  Sb12  1  0.000136  0.678789  0.499963  1
  Sb  Sb13  1  0.678550  0.500097  0.999992  1
  Au  Au14  1  0.374849  0.250000  0.624849  1
  Au  Au15  1  0.749796  0.874500  0.125108  1
  Au  Au16  1  0.250608  0.625500  0.375296  1
  Au  Au17  1  0.624898  0.375512  0.250213  1
  Au  Au18  1  0.125155  0.750000  0.875155  1
  Au  Au19  1  0.874700  0.124488  0.749386  1
