# generated using pymatgen
data_Ho2Cr3Fe2(NiP)7
_symmetry_space_group_name_H-M   'P 1'
_cell_length_a   9.07760890
_cell_length_b   9.09138279
_cell_length_c   3.65161300
_cell_angle_alpha   90.00000000
_cell_angle_beta   90.00000000
_cell_angle_gamma   119.99451978
_symmetry_Int_Tables_number   1
_chemical_formula_structural   Ho2Cr3Fe2(NiP)7
_chemical_formula_sum   'Ho2 Cr3 Fe2 Ni7 P7'
_cell_volume   261.00015654
_cell_formula_units_Z   1
loop_
 _symmetry_equiv_pos_site_id
 _symmetry_equiv_pos_as_xyz
  1  'x, y, z'
loop_
 _atom_site_type_symbol
 _atom_site_label
 _atom_site_symmetry_multiplicity
 _atom_site_fract_x
 _atom_site_fract_y
 _atom_site_fract_z
 _atom_site_occupancy
  Ho  Ho0  1  0.666335  0.333312  0.500000  1
  Ho  Ho1  1  0.333022  0.667756  0.000000  1
  Cr  Cr2  1  0.120346  0.215769  0.000000  1
  Cr  Cr3  1  0.095422  0.876466  0.000000  1
  Cr  Cr4  1  0.784835  0.904831  0.000000  1
  Fe  Fe5  1  0.616485  0.569263  0.000000  1
  Fe  Fe6  1  0.951788  0.383645  0.000000  1
  Ni  Ni7  1  0.842690  0.720793  0.500000  1
  Ni  Ni8  1  0.281323  0.123849  0.500000  1
  Ni  Ni9  1  0.369123  0.432791  0.500000  1
  Ni  Ni10  1  0.567112  0.936122  0.500000  1
  Ni  Ni11  1  0.059280  0.626429  0.500000  1
  Ni  Ni12  1  0.878041  0.157751  0.500000  1
  Ni  Ni13  1  0.437287  0.051577  0.000000  1
  P  P14  1  0.001594  0.000567  0.500000  1
  P  P15  1  0.712323  0.118012  0.000000  1
  P  P16  1  0.110063  0.409595  0.500000  1
  P  P17  1  0.590678  0.700845  0.500000  1
  P  P18  1  0.293242  0.885556  0.500000  1
  P  P19  1  0.880796  0.588961  0.000000  1
  P  P20  1  0.408215  0.296108  0.000000  1
