# generated using pymatgen
data_Tm6NbFe2(Co5P4)3
_symmetry_space_group_name_H-M   'P 1'
_cell_length_a   3.67132400
_cell_length_b   10.52104200
_cell_length_c   12.14250500
_cell_angle_alpha   90.00000000
_cell_angle_beta   90.00000000
_cell_angle_gamma   90.00000000
_symmetry_Int_Tables_number   1
_chemical_formula_structural   Tm6NbFe2(Co5P4)3
_chemical_formula_sum   'Tm6 Nb1 Fe2 Co15 P12'
_cell_volume   469.01826807
_cell_formula_units_Z   1
loop_
 _symmetry_equiv_pos_site_id
 _symmetry_equiv_pos_as_xyz
  1  'x, y, z'
loop_
 _atom_site_type_symbol
 _atom_site_label
 _atom_site_symmetry_multiplicity
 _atom_site_fract_x
 _atom_site_fract_y
 _atom_site_fract_z
 _atom_site_occupancy
  Tm  Tm0  1  0.000000  0.500000  0.527869  1
  Tm  Tm1  1  0.500000  0.000000  0.477272  1
  Tm  Tm2  1  0.500000  0.821220  0.205186  1
  Tm  Tm3  1  0.500000  0.178780  0.205186  1
  Tm  Tm4  1  0.000000  0.682081  0.796034  1
  Tm  Tm5  1  0.000000  0.317919  0.796034  1
  Nb  Nb6  1  0.500000  0.500000  0.155465  1
  Fe  Fe7  1  0.000000  0.000000  0.842292  1
  Fe  Fe8  1  0.500000  0.000000  0.011695  1
  Co  Co9  1  0.500000  0.500000  0.700311  1
  Co  Co10  1  0.000000  0.000000  0.298470  1
  Co  Co11  1  0.000000  0.500000  0.983594  1
  Co  Co12  1  0.500000  0.330626  0.988903  1
  Co  Co13  1  0.500000  0.669374  0.988903  1
  Co  Co14  1  0.000000  0.166410  0.003892  1
  Co  Co15  1  0.000000  0.833590  0.003892  1
  Co  Co16  1  0.500000  0.294986  0.432873  1
  Co  Co17  1  0.500000  0.705014  0.432873  1
  Co  Co18  1  0.000000  0.202185  0.569400  1
  Co  Co19  1  0.000000  0.797815  0.569400  1
  Co  Co20  1  0.500000  0.878788  0.707843  1
  Co  Co21  1  0.500000  0.121212  0.707843  1
  Co  Co22  1  0.000000  0.623533  0.295427  1
  Co  Co23  1  0.000000  0.376467  0.295427  1
  P  P24  1  0.500000  0.500000  0.879571  1
  P  P25  1  0.000000  0.000000  0.116193  1
  P  P26  1  0.500000  0.500000  0.357880  1
  P  P27  1  0.000000  0.000000  0.656153  1
  P  P28  1  0.500000  0.310055  0.617880  1
  P  P29  1  0.500000  0.689945  0.617880  1
  P  P30  1  0.000000  0.187120  0.384859  1
  P  P31  1  0.000000  0.812880  0.384859  1
  P  P32  1  0.500000  0.849874  0.889910  1
  P  P33  1  0.500000  0.150126  0.889910  1
  P  P34  1  0.000000  0.661087  0.104410  1
  P  P35  1  0.000000  0.338913  0.104410  1
