# generated using pymatgen
data_Np8Ta9Nb3Si16
_symmetry_space_group_name_H-M   'P 1'
_cell_length_a   7.03110436
_cell_length_b   7.03228904
_cell_length_c   12.96417518
_cell_angle_alpha   89.99938026
_cell_angle_beta   89.98968265
_cell_angle_gamma   89.99990887
_symmetry_Int_Tables_number   1
_chemical_formula_structural   Np8Ta9Nb3Si16
_chemical_formula_sum   'Np8 Ta9 Nb3 Si16'
_cell_volume   641.01049605
_cell_formula_units_Z   1
loop_
 _symmetry_equiv_pos_site_id
 _symmetry_equiv_pos_as_xyz
  1  'x, y, z'
loop_
 _atom_site_type_symbol
 _atom_site_label
 _atom_site_symmetry_multiplicity
 _atom_site_fract_x
 _atom_site_fract_y
 _atom_site_fract_z
 _atom_site_occupancy
  Np  Np0  1  0.991312  0.332035  0.219134  1
  Np  Np1  1  0.008695  0.668033  0.719429  1
  Np  Np2  1  0.168153  0.491117  0.469335  1
  Np  Np3  1  0.508094  0.831651  0.030565  1
  Np  Np4  1  0.831519  0.508612  0.969054  1
  Np  Np5  1  0.491747  0.168283  0.530831  1
  Np  Np6  1  0.331986  0.991867  0.780830  1
  Np  Np7  1  0.668121  0.008011  0.280689  1
  Ta  Ta8  1  0.168931  0.169233  0.999833  1
  Ta  Ta9  1  0.831204  0.830944  0.500143  1
  Ta  Ta10  1  0.330976  0.668614  0.249925  1
  Ta  Ta11  1  0.668741  0.331536  0.750253  1
  Ta  Ta12  1  0.155032  0.996160  0.374512  1
  Ta  Ta13  1  0.844984  0.003762  0.874493  1
  Ta  Ta14  1  0.503715  0.655306  0.624747  1
  Ta  Ta15  1  0.345329  0.496730  0.875680  1
  Ta  Ta16  1  0.496153  0.345131  0.124255  1
  Nb  Nb17  1  0.655013  0.503281  0.375513  1
  Nb  Nb18  1  0.996786  0.155216  0.625649  1
  Nb  Nb19  1  0.003401  0.844779  0.125230  1
  Si  Si20  1  0.297796  0.040296  0.184292  1
  Si  Si21  1  0.701995  0.959972  0.684352  1
  Si  Si22  1  0.459712  0.797978  0.434414  1
  Si  Si23  1  0.201363  0.539763  0.065627  1
  Si  Si24  1  0.540253  0.201659  0.934258  1
  Si  Si25  1  0.798442  0.460257  0.565909  1
  Si  Si26  1  0.040173  0.298772  0.815993  1
  Si  Si27  1  0.960262  0.701415  0.315863  1
  Si  Si28  1  0.368518  0.294131  0.315160  1
  Si  Si29  1  0.631395  0.705875  0.815514  1
  Si  Si30  1  0.205864  0.868598  0.565356  1
  Si  Si31  1  0.131324  0.794445  0.934182  1
  Si  Si32  1  0.794184  0.131467  0.065245  1
  Si  Si33  1  0.868666  0.204841  0.434574  1
  Si  Si34  1  0.295077  0.369098  0.684765  1
  Si  Si35  1  0.705085  0.631130  0.184396  1
