# generated using pymatgen
data_H8SF6
_symmetry_space_group_name_H-M   'P 1'
_cell_length_a   4.88453100
_cell_length_b   6.81507621
_cell_length_c   6.58569558
_cell_angle_alpha   82.05052098
_cell_angle_beta   74.59436011
_cell_angle_gamma   57.55967652
_symmetry_Int_Tables_number   1
_chemical_formula_structural   H8SF6
_chemical_formula_sum   'H8 S1 F6'
_cell_volume   178.36708633
_cell_formula_units_Z   1
loop_
 _symmetry_equiv_pos_site_id
 _symmetry_equiv_pos_as_xyz
  1  'x, y, z'
loop_
 _atom_site_type_symbol
 _atom_site_label
 _atom_site_symmetry_multiplicity
 _atom_site_fract_x
 _atom_site_fract_y
 _atom_site_fract_z
 _atom_site_occupancy
  H  H0  1  0.037916  0.379002  0.966118  1
  H  H1  1  0.319924  0.637736  0.391016  1
  H  H2  1  0.969616  0.125866  0.097353  1
  H  H3  1  0.453260  0.461910  0.745397  1
  H  H4  1  0.093922  0.477167  0.552907  1
  H  H5  1  0.021991  0.948237  0.865035  1
  H  H6  1  0.820682  0.787084  0.423640  1
  H  H7  1  0.243761  0.001198  0.570081  1
  S  S8  1  0.113070  0.576498  0.358027  1
  F  F9  1  0.052138  0.941698  0.060387  1
  F  F10  1  0.164946  0.427509  0.831958  1
  F  F11  1  0.416278  0.020095  0.463510  1
  F  F12  1  0.608923  0.502228  0.654822  1
  F  F13  1  0.883737  0.318768  0.122727  1
  F  F14  1  0.995442  0.967005  0.711772  1
