# generated using pymatgen
data_ErLu3Zr4F28
_symmetry_space_group_name_H-M   'P 1'
_cell_length_a   5.67736425
_cell_length_b   8.97677486
_cell_length_c   12.08557397
_cell_angle_alpha   62.56577402
_cell_angle_beta   89.98329728
_cell_angle_gamma   90.02167142
_symmetry_Int_Tables_number   1
_chemical_formula_structural   ErLu3Zr4F28
_chemical_formula_sum   'Er1 Lu3 Zr4 F28'
_cell_volume   546.66639197
_cell_formula_units_Z   1
loop_
 _symmetry_equiv_pos_site_id
 _symmetry_equiv_pos_as_xyz
  1  'x, y, z'
loop_
 _atom_site_type_symbol
 _atom_site_label
 _atom_site_symmetry_multiplicity
 _atom_site_fract_x
 _atom_site_fract_y
 _atom_site_fract_z
 _atom_site_occupancy
  Er  Er0  1  0.756665  0.817933  0.765882  1
  Lu  Lu1  1  0.743680  0.818473  0.265745  1
  Lu  Lu2  1  0.243734  0.182493  0.234306  1
  Lu  Lu3  1  0.257430  0.183528  0.734110  1
  Zr  Zr4  1  0.744035  0.275841  0.453912  1
  Zr  Zr5  1  0.244081  0.725404  0.046930  1
  Zr  Zr6  1  0.255010  0.725529  0.543472  1
  Zr  Zr7  1  0.755603  0.272897  0.955556  1
  F  F8  1  0.468312  0.710814  0.920995  1
  F  F9  1  0.969990  0.289079  0.579741  1
  F  F10  1  0.529190  0.287861  0.080502  1
  F  F11  1  0.029732  0.710573  0.418307  1
  F  F12  1  0.449406  0.279791  0.551637  1
  F  F13  1  0.949246  0.719487  0.950774  1
  F  F14  1  0.550900  0.720806  0.447004  1
  F  F15  1  0.049904  0.278258  0.053002  1
  F  F16  1  0.769429  0.527043  0.857435  1
  F  F17  1  0.268217  0.470798  0.642152  1
  F  F18  1  0.233431  0.470747  0.144550  1
  F  F19  1  0.732152  0.529709  0.355681  1
  F  F20  1  0.759475  0.019153  0.059959  1
  F  F21  1  0.259069  0.979486  0.439528  1
  F  F22  1  0.240276  0.979078  0.940888  1
  F  F23  1  0.739785  0.021748  0.558168  1
  F  F24  1  0.980610  0.733567  0.649453  1
  F  F25  1  0.481378  0.265641  0.848581  1
  F  F26  1  0.015715  0.265105  0.346940  1
  F  F27  1  0.516577  0.734988  0.153774  1
  F  F28  1  0.030099  0.747324  0.176304  1
  F  F29  1  0.528399  0.253236  0.325107  1
  F  F30  1  0.971024  0.251375  0.826127  1
  F  F31  1  0.467483  0.746070  0.673671  1
  F  F32  1  0.433251  0.975699  0.235819  1
  F  F33  1  0.933030  0.024843  0.264376  1
  F  F34  1  0.569576  0.029631  0.764950  1
  F  F35  1  0.074104  0.975991  0.734660  1
