# generated using pymatgen
data_Ho4FeRe2Ru5
_symmetry_space_group_name_H-M   'P 1'
_cell_length_a   5.37579701
_cell_length_b   5.13301013
_cell_length_c   8.96596000
_cell_angle_alpha   90.00000000
_cell_angle_beta   90.00000000
_cell_angle_gamma   119.81024932
_symmetry_Int_Tables_number   1
_chemical_formula_structural   Ho4FeRe2Ru5
_chemical_formula_sum   'Ho4 Fe1 Re2 Ru5'
_cell_volume   214.66914884
_cell_formula_units_Z   1
loop_
 _symmetry_equiv_pos_site_id
 _symmetry_equiv_pos_as_xyz
  1  'x, y, z'
loop_
 _atom_site_type_symbol
 _atom_site_label
 _atom_site_symmetry_multiplicity
 _atom_site_fract_x
 _atom_site_fract_y
 _atom_site_fract_z
 _atom_site_occupancy
  Ho  Ho0  1  0.669701  0.337131  0.567904  1
  Ho  Ho1  1  0.327585  0.661511  0.437871  1
  Ho  Ho2  1  0.327585  0.661511  0.062129  1
  Ho  Ho3  1  0.669701  0.337131  0.932096  1
  Fe  Fe4  1  0.164906  0.326877  0.750000  1
  Re  Re5  1  0.841965  0.672609  0.250000  1
  Re  Re6  1  0.835717  0.175283  0.250000  1
  Ru  Ru7  1  0.988096  0.996460  0.503352  1
  Ru  Ru8  1  0.988096  0.996460  0.996648  1
  Ru  Ru9  1  0.176283  0.826778  0.750000  1
  Ru  Ru10  1  0.655378  0.829991  0.750000  1
  Ru  Ru11  1  0.354986  0.178257  0.250000  1
