# generated using pymatgen
data_Mg12Ge8Pt7Rh
_symmetry_space_group_name_H-M   'P 1'
_cell_length_a   5.25771238
_cell_length_b   7.51740565
_cell_length_c   12.93998352
_cell_angle_alpha   90.20529007
_cell_angle_beta   89.93004252
_cell_angle_gamma   89.87339479
_symmetry_Int_Tables_number   1
_chemical_formula_structural   Mg12Ge8Pt7Rh
_chemical_formula_sum   'Mg12 Ge8 Pt7 Rh1'
_cell_volume   511.43960774
_cell_formula_units_Z   1
loop_
 _symmetry_equiv_pos_site_id
 _symmetry_equiv_pos_as_xyz
  1  'x, y, z'
loop_
 _atom_site_type_symbol
 _atom_site_label
 _atom_site_symmetry_multiplicity
 _atom_site_fract_x
 _atom_site_fract_y
 _atom_site_fract_z
 _atom_site_occupancy
  Mg  Mg0  1  0.613046  0.256258  0.248646  1
  Mg  Mg1  1  0.386764  0.747358  0.750994  1
  Mg  Mg2  1  0.383990  0.748086  0.249513  1
  Mg  Mg3  1  0.611507  0.246041  0.749809  1
  Mg  Mg4  1  0.143977  0.392646  0.098892  1
  Mg  Mg5  1  0.859507  0.611452  0.902660  1
  Mg  Mg6  1  0.857223  0.610601  0.598905  1
  Mg  Mg7  1  0.859827  0.887584  0.400685  1
  Mg  Mg8  1  0.142321  0.392325  0.400116  1
  Mg  Mg9  1  0.140541  0.110761  0.598989  1
  Mg  Mg10  1  0.142938  0.109567  0.901037  1
  Mg  Mg11  1  0.858648  0.886093  0.099399  1
  Ge  Ge12  1  0.095210  0.101710  0.250838  1
  Ge  Ge13  1  0.904431  0.896917  0.749947  1
  Ge  Ge14  1  0.897725  0.601073  0.247591  1
  Ge  Ge15  1  0.091404  0.396724  0.749461  1
  Ge  Ge16  1  0.655873  0.254359  0.002404  1
  Ge  Ge17  1  0.354025  0.746528  0.002009  1
  Ge  Ge18  1  0.335828  0.751153  0.500891  1
  Ge  Ge19  1  0.665159  0.250094  0.499505  1
  Pt  Pt20  1  0.355284  0.041116  0.095016  1
  Pt  Pt21  1  0.645341  0.962607  0.906217  1
  Pt  Pt22  1  0.639571  0.957524  0.595277  1
  Pt  Pt23  1  0.640822  0.543732  0.405224  1
  Pt  Pt24  1  0.361501  0.043679  0.404987  1
  Pt  Pt25  1  0.358143  0.456697  0.595003  1
  Pt  Pt26  1  0.356180  0.457407  0.903422  1
  Rh  Rh27  1  0.643216  0.539909  0.092561  1
