# generated using pymatgen
data_Cs8Zr6BBr20
_symmetry_space_group_name_H-M   'P 1'
_cell_length_a   12.53801481
_cell_length_b   12.53801571
_cell_length_c   12.53801500
_cell_angle_alpha   59.99999923
_cell_angle_beta   59.99999687
_cell_angle_gamma   60.00000027
_symmetry_Int_Tables_number   1
_chemical_formula_structural   Cs8Zr6BBr20
_chemical_formula_sum   'Cs8 Zr6 B1 Br20'
_cell_volume   1393.70662226
_cell_formula_units_Z   1
loop_
 _symmetry_equiv_pos_site_id
 _symmetry_equiv_pos_as_xyz
  1  'x, y, z'
loop_
 _atom_site_type_symbol
 _atom_site_label
 _atom_site_symmetry_multiplicity
 _atom_site_fract_x
 _atom_site_fract_y
 _atom_site_fract_z
 _atom_site_occupancy
  Cs  Cs0  1  0.360655  0.360655  0.360655  1
  Cs  Cs1  1  0.639345  0.639345  0.639345  1
  Cs  Cs2  1  0.360655  0.360655  0.918035  1
  Cs  Cs3  1  0.360655  0.918035  0.360655  1
  Cs  Cs4  1  0.639345  0.639345  0.081965  1
  Cs  Cs5  1  0.639345  0.081965  0.639345  1
  Cs  Cs6  1  0.918035  0.360655  0.360655  1
  Cs  Cs7  1  0.081965  0.639345  0.639345  1
  Zr  Zr8  1  0.868029  0.131971  0.131971  1
  Zr  Zr9  1  0.131971  0.868029  0.868029  1
  Zr  Zr10  1  0.131971  0.868029  0.131971  1
  Zr  Zr11  1  0.868029  0.131971  0.868029  1
  Zr  Zr12  1  0.131971  0.131971  0.868029  1
  Zr  Zr13  1  0.868029  0.868029  0.131971  1
  B  B14  1  0.000000  0.000000  0.000000  1
  Br  Br15  1  0.307420  0.000000  0.000000  1
  Br  Br16  1  0.692580  0.000000  0.000000  1
  Br  Br17  1  0.000000  0.307420  0.692580  1
  Br  Br18  1  0.000000  0.692580  0.307420  1
  Br  Br19  1  0.000000  0.307420  0.000000  1
  Br  Br20  1  0.692580  0.000000  0.307420  1
  Br  Br21  1  0.000000  0.692580  0.000000  1
  Br  Br22  1  0.307420  0.000000  0.692580  1
  Br  Br23  1  0.000000  0.000000  0.307420  1
  Br  Br24  1  0.000000  0.000000  0.692580  1
  Br  Br25  1  0.692580  0.307420  0.000000  1
  Br  Br26  1  0.307420  0.692580  0.000000  1
  Br  Br27  1  0.700831  0.299169  0.299169  1
  Br  Br28  1  0.299169  0.700831  0.700831  1
  Br  Br29  1  0.299169  0.700831  0.299169  1
  Br  Br30  1  0.700831  0.299169  0.700831  1
  Br  Br31  1  0.299169  0.299169  0.700831  1
  Br  Br32  1  0.700831  0.700831  0.299169  1
  Br  Br33  1  0.250000  0.250000  0.250000  1
  Br  Br34  1  0.750000  0.750000  0.750000  1
