# generated using pymatgen
data_Tb8Zn3Si12Ir
_symmetry_space_group_name_H-M   'P 1'
_cell_length_a   8.12321500
_cell_length_b   8.12321477
_cell_length_c   8.15434100
_cell_angle_alpha   90.00000000
_cell_angle_beta   90.00000000
_cell_angle_gamma   120.00000500
_symmetry_Int_Tables_number   1
_chemical_formula_structural   Tb8Zn3Si12Ir
_chemical_formula_sum   'Tb8 Zn3 Si12 Ir1'
_cell_volume   465.98867561
_cell_formula_units_Z   1
loop_
 _symmetry_equiv_pos_site_id
 _symmetry_equiv_pos_as_xyz
  1  'x, y, z'
loop_
 _atom_site_type_symbol
 _atom_site_label
 _atom_site_symmetry_multiplicity
 _atom_site_fract_x
 _atom_site_fract_y
 _atom_site_fract_z
 _atom_site_occupancy
  Tb  Tb0  1  0.499363  0.998724  0.250088  1
  Tb  Tb1  1  0.497943  0.995886  0.749674  1
  Tb  Tb2  1  0.001276  0.500637  0.250088  1
  Tb  Tb3  1  0.004114  0.502057  0.749674  1
  Tb  Tb4  1  0.499363  0.500637  0.250088  1
  Tb  Tb5  1  0.497943  0.502057  0.749674  1
  Tb  Tb6  1  0.000000  0.000000  0.248660  1
  Tb  Tb7  1  0.000000  0.000000  0.751750  1
  Zn  Zn8  1  0.333333  0.666667  0.005619  1
  Zn  Zn9  1  0.666667  0.333333  0.994834  1
  Zn  Zn10  1  0.666667  0.333333  0.500211  1
  Si  Si11  1  0.166838  0.333676  0.997734  1
  Si  Si12  1  0.833421  0.666841  0.002273  1
  Si  Si13  1  0.666324  0.833162  0.997734  1
  Si  Si14  1  0.836487  0.672973  0.501974  1
  Si  Si15  1  0.333159  0.166579  0.002273  1
  Si  Si16  1  0.169165  0.338329  0.498092  1
  Si  Si17  1  0.166838  0.833162  0.997734  1
  Si  Si18  1  0.327027  0.163513  0.501974  1
  Si  Si19  1  0.833421  0.166579  0.002273  1
  Si  Si20  1  0.661671  0.830835  0.498092  1
  Si  Si21  1  0.836487  0.163513  0.501974  1
  Si  Si22  1  0.169165  0.830835  0.498092  1
  Ir  Ir23  1  0.333333  0.666667  0.499417  1
