# generated using pymatgen
data_Li4La2ErSn4
_symmetry_space_group_name_H-M   'P 1'
_cell_length_a   4.78005825
_cell_length_b   7.03713848
_cell_length_c   8.85274395
_cell_angle_alpha   113.41919037
_cell_angle_beta   105.66286797
_cell_angle_gamma   89.99998330
_symmetry_Int_Tables_number   1
_chemical_formula_structural   Li4La2ErSn4
_chemical_formula_sum   'Li4 La2 Er1 Sn4'
_cell_volume   261.16229374
_cell_formula_units_Z   1
loop_
 _symmetry_equiv_pos_site_id
 _symmetry_equiv_pos_as_xyz
  1  'x, y, z'
loop_
 _atom_site_type_symbol
 _atom_site_label
 _atom_site_symmetry_multiplicity
 _atom_site_fract_x
 _atom_site_fract_y
 _atom_site_fract_z
 _atom_site_occupancy
  Li  Li0  1  0.671199  0.981486  0.342396  1
  Li  Li1  1  0.328801  0.018514  0.657604  1
  Li  Li2  1  0.328801  0.639090  0.657604  1
  Li  Li3  1  0.671199  0.360910  0.342396  1
  La  La4  1  0.131324  0.631324  0.262648  1
  La  La5  1  0.868676  0.368676  0.737352  1
  Er  Er6  1  0.000000  0.000000  0.000000  1
  Sn  Sn7  1  0.500000  0.706621  0.000000  1
  Sn  Sn8  1  0.500000  0.293379  0.000000  1
  Sn  Sn9  1  0.790703  0.790703  0.581405  1
  Sn  Sn10  1  0.209297  0.209297  0.418595  1
