# generated using pymatgen
data_DyHo2CoSn3Pt2
_symmetry_space_group_name_H-M   'P 1'
_cell_length_a   7.60056245
_cell_length_b   7.60056269
_cell_length_c   3.79259900
_cell_angle_alpha   90.00000000
_cell_angle_beta   90.00000000
_cell_angle_gamma   120.03962133
_symmetry_Int_Tables_number   1
_chemical_formula_structural   DyHo2CoSn3Pt2
_chemical_formula_sum   'Dy1 Ho2 Co1 Sn3 Pt2'
_cell_volume   189.66426158
_cell_formula_units_Z   1
loop_
 _symmetry_equiv_pos_site_id
 _symmetry_equiv_pos_as_xyz
  1  'x, y, z'
loop_
 _atom_site_type_symbol
 _atom_site_label
 _atom_site_symmetry_multiplicity
 _atom_site_fract_x
 _atom_site_fract_y
 _atom_site_fract_z
 _atom_site_occupancy
  Dy  Dy0  1  0.403115  0.403115  0.500000  1
  Ho  Ho1  1  0.597027  0.000116  0.500000  1
  Ho  Ho2  1  0.000116  0.597027  0.500000  1
  Co  Co3  1  0.999611  0.999611  0.500000  1
  Sn  Sn4  1  0.999666  0.249624  0.000000  1
  Sn  Sn5  1  0.750568  0.750568  0.000000  1
  Sn  Sn6  1  0.249624  0.999666  0.000000  1
  Pt  Pt7  1  0.667247  0.333027  0.000000  1
  Pt  Pt8  1  0.333027  0.667247  0.000000  1
