# generated using pymatgen
data_TbYb7Si13Sn
_symmetry_space_group_name_H-M   'P 1'
_cell_length_a   7.99763713
_cell_length_b   7.86740225
_cell_length_c   8.65441100
_cell_angle_alpha   89.88843654
_cell_angle_beta   90.10771930
_cell_angle_gamma   120.96775326
_symmetry_Int_Tables_number   1
_chemical_formula_structural   TbYb7Si13Sn
_chemical_formula_sum   'Tb1 Yb7 Si13 Sn1'
_cell_volume   466.91936261
_cell_formula_units_Z   1
loop_
 _symmetry_equiv_pos_site_id
 _symmetry_equiv_pos_as_xyz
  1  'x, y, z'
loop_
 _atom_site_type_symbol
 _atom_site_label
 _atom_site_symmetry_multiplicity
 _atom_site_fract_x
 _atom_site_fract_y
 _atom_site_fract_z
 _atom_site_occupancy
  Tb  Tb0  1  0.267254  0.256491  0.991952  1
  Yb  Yb1  1  0.750152  0.753338  0.001840  1
  Yb  Yb2  1  0.750573  0.754040  0.497740  1
  Yb  Yb3  1  0.262829  0.251622  0.508176  1
  Yb  Yb4  1  0.251391  0.747281  0.492364  1
  Yb  Yb5  1  0.737524  0.253474  0.513621  1
  Yb  Yb6  1  0.739457  0.255390  0.986698  1
  Yb  Yb7  1  0.252189  0.747783  0.007443  1
  Si  Si8  1  0.944749  0.633223  0.750319  1
  Si  Si9  1  0.586682  0.421739  0.248976  1
  Si  Si10  1  0.414014  0.584603  0.750500  1
  Si  Si11  1  0.415118  0.589418  0.247947  1
  Si  Si12  1  0.591618  0.418573  0.750665  1
  Si  Si13  1  0.071640  0.942148  0.246325  1
  Si  Si14  1  0.937815  0.067536  0.752858  1
  Si  Si15  1  0.621511  0.943849  0.249655  1
  Si  Si16  1  0.378493  0.059079  0.752226  1
  Si  Si17  1  0.925717  0.589264  0.248612  1
  Si  Si18  1  0.071082  0.415921  0.752007  1
  Si  Si19  1  0.412833  0.075286  0.247150  1
  Si  Si20  1  0.591961  0.931120  0.751746  1
  Sn  Sn21  1  0.025399  0.308824  0.251177  1
