# generated using pymatgen
data_Nd4Be4Si3Ge
_symmetry_space_group_name_H-M   'P 1'
_cell_length_a   3.95047500
_cell_length_b   3.95047464
_cell_length_c   17.04437100
_cell_angle_alpha   90.00000000
_cell_angle_beta   90.00000000
_cell_angle_gamma   120.00001141
_symmetry_Int_Tables_number   1
_chemical_formula_structural   Nd4Be4Si3Ge
_chemical_formula_sum   'Nd4 Be4 Si3 Ge1'
_cell_volume   230.36163712
_cell_formula_units_Z   1
loop_
 _symmetry_equiv_pos_site_id
 _symmetry_equiv_pos_as_xyz
  1  'x, y, z'
loop_
 _atom_site_type_symbol
 _atom_site_label
 _atom_site_symmetry_multiplicity
 _atom_site_fract_x
 _atom_site_fract_y
 _atom_site_fract_z
 _atom_site_occupancy
  Nd  Nd0  1  0.000000  0.000000  0.250430  1
  Nd  Nd1  1  0.000000  0.000000  0.748285  1
  Nd  Nd2  1  0.000000  0.000000  0.001523  1
  Nd  Nd3  1  0.000000  0.000000  0.499801  1
  Be  Be4  1  0.333333  0.666667  0.125382  1
  Be  Be5  1  0.666667  0.333333  0.874804  1
  Be  Be6  1  0.666667  0.333333  0.624309  1
  Be  Be7  1  0.333333  0.666667  0.375422  1
  Si  Si8  1  0.333333  0.666667  0.624238  1
  Si  Si9  1  0.666667  0.333333  0.375254  1
  Si  Si10  1  0.666667  0.333333  0.125631  1
  Ge  Ge11  1  0.333333  0.666667  0.874920  1
