# generated using pymatgen
data_Nb3Si4MoOs4
_symmetry_space_group_name_H-M   'P 1'
_cell_length_a   3.92296300
_cell_length_b   6.30241715
_cell_length_c   7.28252469
_cell_angle_alpha   90.02063076
_cell_angle_beta   90.00000000
_cell_angle_gamma   90.00000000
_symmetry_Int_Tables_number   1
_chemical_formula_structural   Nb3Si4MoOs4
_chemical_formula_sum   'Nb3 Si4 Mo1 Os4'
_cell_volume   180.05421607
_cell_formula_units_Z   1
loop_
 _symmetry_equiv_pos_site_id
 _symmetry_equiv_pos_as_xyz
  1  'x, y, z'
loop_
 _atom_site_type_symbol
 _atom_site_label
 _atom_site_symmetry_multiplicity
 _atom_site_fract_x
 _atom_site_fract_y
 _atom_site_fract_z
 _atom_site_occupancy
  Nb  Nb0  1  0.250000  0.022947  0.817896  1
  Nb  Nb1  1  0.250000  0.521279  0.675694  1
  Nb  Nb2  1  0.750000  0.980902  0.183296  1
  Si  Si3  1  0.250000  0.765726  0.374493  1
  Si  Si4  1  0.250000  0.281375  0.130430  1
  Si  Si5  1  0.750000  0.230989  0.618014  1
  Si  Si6  1  0.750000  0.723728  0.875481  1
  Mo  Mo7  1  0.750000  0.481414  0.324786  1
  Os  Os8  1  0.250000  0.148298  0.438388  1
  Os  Os9  1  0.250000  0.654725  0.057939  1
  Os  Os10  1  0.750000  0.845969  0.560565  1
  Os  Os11  1  0.750000  0.342646  0.943018  1
