# generated using pymatgen
data_CaPrAl20(IrRu)2
_symmetry_space_group_name_H-M   'P 1'
_cell_length_a   6.88461682
_cell_length_b   6.88461720
_cell_length_c   9.19244500
_cell_angle_alpha   90.00266140
_cell_angle_beta   89.99733399
_cell_angle_gamma   96.76467227
_symmetry_Int_Tables_number   1
_chemical_formula_structural   CaPrAl20(IrRu)2
_chemical_formula_sum   'Ca1 Pr1 Al20 Ir2 Ru2'
_cell_volume   432.66983775
_cell_formula_units_Z   1
loop_
 _symmetry_equiv_pos_site_id
 _symmetry_equiv_pos_as_xyz
  1  'x, y, z'
loop_
 _atom_site_type_symbol
 _atom_site_label
 _atom_site_symmetry_multiplicity
 _atom_site_fract_x
 _atom_site_fract_y
 _atom_site_fract_z
 _atom_site_occupancy
  Ca  Ca0  1  0.874176  0.125824  0.749663  1
  Pr  Pr1  1  0.124692  0.875308  0.250017  1
  Al  Al2  1  0.414047  0.143639  0.748165  1
  Al  Al3  1  0.140431  0.409696  0.251780  1
  Al  Al4  1  0.590304  0.859569  0.251780  1
  Al  Al5  1  0.856361  0.585953  0.748165  1
  Al  Al6  1  0.520363  0.778297  0.748128  1
  Al  Al7  1  0.776265  0.517242  0.251996  1
  Al  Al8  1  0.482758  0.223735  0.251996  1
  Al  Al9  1  0.221703  0.479637  0.748128  1
  Al  Al10  1  0.841391  0.158609  0.400386  1
  Al  Al11  1  0.160733  0.839267  0.601334  1
  Al  Al12  1  0.841491  0.158509  0.102844  1
  Al  Al13  1  0.159516  0.840484  0.895612  1
  Al  Al14  1  0.623384  0.376616  0.549029  1
  Al  Al15  1  0.378296  0.621704  0.448057  1
  Al  Al16  1  0.621381  0.378619  0.949824  1
  Al  Al17  1  0.379417  0.620583  0.053733  1
  Al  Al18  1  0.773961  0.775824  0.998395  1
  Al  Al19  1  0.773312  0.775148  0.501416  1
  Al  Al20  1  0.224176  0.226039  0.998395  1
  Al  Al21  1  0.224852  0.226688  0.501416  1
  Ir  Ir22  1  0.499047  0.000557  0.999706  1
  Ir  Ir23  1  0.999443  0.500953  0.999706  1
  Ru  Ru24  1  0.498546  0.000044  0.500164  1
  Ru  Ru25  1  0.999956  0.501454  0.500164  1
