# generated using pymatgen
data_DyMgB6Rh
_symmetry_space_group_name_H-M   'P 1'
_cell_length_a   3.56287400
_cell_length_b   8.92738300
_cell_length_c   11.33621900
_cell_angle_alpha   90.00000000
_cell_angle_beta   90.00000000
_cell_angle_gamma   90.00000000
_symmetry_Int_Tables_number   1
_chemical_formula_structural   DyMgB6Rh
_chemical_formula_sum   'Dy4 Mg4 B24 Rh4'
_cell_volume   360.57271363
_cell_formula_units_Z   4
loop_
 _symmetry_equiv_pos_site_id
 _symmetry_equiv_pos_as_xyz
  1  'x, y, z'
loop_
 _atom_site_type_symbol
 _atom_site_label
 _atom_site_symmetry_multiplicity
 _atom_site_fract_x
 _atom_site_fract_y
 _atom_site_fract_z
 _atom_site_occupancy
  Dy  Dy0  1  0.500000  0.320241  0.413871  1
  Dy  Dy1  1  0.500000  0.679759  0.586129  1
  Dy  Dy2  1  0.500000  0.179759  0.913871  1
  Dy  Dy3  1  0.500000  0.820241  0.086129  1
  Mg  Mg4  1  0.500000  0.447334  0.121036  1
  Mg  Mg5  1  0.500000  0.552666  0.878964  1
  Mg  Mg6  1  0.500000  0.052666  0.621036  1
  Mg  Mg7  1  0.500000  0.947334  0.378964  1
  B  B8  1  0.000000  0.099163  0.473284  1
  B  B9  1  0.000000  0.900837  0.526716  1
  B  B10  1  0.000000  0.400837  0.973284  1
  B  B11  1  0.000000  0.599163  0.026716  1
  B  B12  1  0.000000  0.128221  0.318943  1
  B  B13  1  0.000000  0.871779  0.681057  1
  B  B14  1  0.000000  0.371779  0.818943  1
  B  B15  1  0.000000  0.628221  0.181057  1
  B  B16  1  0.000000  0.055773  0.067002  1
  B  B17  1  0.000000  0.944227  0.932998  1
  B  B18  1  0.000000  0.444227  0.567002  1
  B  B19  1  0.000000  0.555773  0.432998  1
  B  B20  1  0.000000  0.482257  0.284932  1
  B  B21  1  0.000000  0.517743  0.715068  1
  B  B22  1  0.000000  0.017743  0.784932  1
  B  B23  1  0.000000  0.982257  0.215068  1
  B  B24  1  0.000000  0.255650  0.080018  1
  B  B25  1  0.000000  0.744350  0.919982  1
  B  B26  1  0.000000  0.244350  0.580018  1
  B  B27  1  0.000000  0.755650  0.419982  1
  B  B28  1  0.000000  0.294412  0.234750  1
  B  B29  1  0.000000  0.705588  0.765250  1
  B  B30  1  0.000000  0.205588  0.734750  1
  B  B31  1  0.000000  0.794412  0.265250  1
  Rh  Rh32  1  0.500000  0.141552  0.182184  1
  Rh  Rh33  1  0.500000  0.858448  0.817816  1
  Rh  Rh34  1  0.500000  0.358448  0.682184  1
  Rh  Rh35  1  0.500000  0.641552  0.317816  1
