# generated using pymatgen
data_Yb3DyY4(ReC2)4
_symmetry_space_group_name_H-M   'P 1'
_cell_length_a   5.13773800
_cell_length_b   6.55313583
_cell_length_c   10.04667900
_cell_angle_alpha   89.39288462
_cell_angle_beta   90.00000000
_cell_angle_gamma   90.00000000
_symmetry_Int_Tables_number   1
_chemical_formula_structural   Yb3DyY4(ReC2)4
_chemical_formula_sum   'Yb3 Dy1 Y4 Re4 C8'
_cell_volume   338.23556283
_cell_formula_units_Z   1
loop_
 _symmetry_equiv_pos_site_id
 _symmetry_equiv_pos_as_xyz
  1  'x, y, z'
loop_
 _atom_site_type_symbol
 _atom_site_label
 _atom_site_symmetry_multiplicity
 _atom_site_fract_x
 _atom_site_fract_y
 _atom_site_fract_z
 _atom_site_occupancy
  Yb  Yb0  1  0.750000  0.461787  0.777015  1
  Yb  Yb1  1  0.750000  0.961360  0.723508  1
  Yb  Yb2  1  0.250000  0.037694  0.277921  1
  Dy  Dy3  1  0.750000  0.818162  0.053723  1
  Y  Y4  1  0.250000  0.688174  0.554477  1
  Y  Y5  1  0.750000  0.314224  0.446576  1
  Y  Y6  1  0.250000  0.183111  0.945161  1
  Y  Y7  1  0.250000  0.536756  0.222083  1
  Re  Re8  1  0.250000  0.721041  0.861210  1
  Re  Re9  1  0.750000  0.277541  0.139252  1
  Re  Re10  1  0.750000  0.776319  0.360544  1
  Re  Re11  1  0.250000  0.225289  0.637625  1
  C  C12  1  0.250000  0.455327  0.758960  1
  C  C13  1  0.750000  0.544979  0.239274  1
  C  C14  1  0.750000  0.044502  0.260436  1
  C  C15  1  0.250000  0.955991  0.740391  1
  C  C16  1  0.250000  0.809378  0.042222  1
  C  C17  1  0.750000  0.178902  0.961509  1
  C  C18  1  0.750000  0.685440  0.540446  1
  C  C19  1  0.250000  0.324024  0.457667  1
