# generated using pymatgen
data_Y4Al15(GaRh2)3
_symmetry_space_group_name_H-M   'P 1'
_cell_length_a   7.53838527
_cell_length_b   7.53988987
_cell_length_c   9.55781200
_cell_angle_alpha   90.00000000
_cell_angle_beta   90.00000000
_cell_angle_gamma   119.39188758
_symmetry_Int_Tables_number   1
_chemical_formula_structural   Y4Al15(GaRh2)3
_chemical_formula_sum   'Y4 Al15 Ga3 Rh6'
_cell_volume   473.32692505
_cell_formula_units_Z   1
loop_
 _symmetry_equiv_pos_site_id
 _symmetry_equiv_pos_as_xyz
  1  'x, y, z'
loop_
 _atom_site_type_symbol
 _atom_site_label
 _atom_site_symmetry_multiplicity
 _atom_site_fract_x
 _atom_site_fract_y
 _atom_site_fract_z
 _atom_site_occupancy
  Y  Y0  1  0.996877  0.672875  0.250000  1
  Y  Y1  1  0.005487  0.327141  0.750000  1
  Y  Y2  1  0.669879  0.991903  0.250000  1
  Y  Y3  1  0.327188  0.004666  0.750000  1
  Al  Al4  1  0.001430  0.334815  0.072660  1
  Al  Al5  1  0.998570  0.664633  0.926773  1
  Al  Al6  1  0.998570  0.664633  0.573227  1
  Al  Al7  1  0.335533  0.002535  0.427192  1
  Al  Al8  1  0.001430  0.334815  0.427340  1
  Al  Al9  1  0.664692  0.998738  0.573042  1
  Al  Al10  1  0.664692  0.998738  0.926958  1
  Al  Al11  1  0.335533  0.002535  0.072808  1
  Al  Al12  1  0.334349  0.334242  0.553553  1
  Al  Al13  1  0.666025  0.665560  0.449066  1
  Al  Al14  1  0.666025  0.665560  0.050934  1
  Al  Al15  1  0.334349  0.334242  0.946447  1
  Al  Al16  1  0.662787  0.451370  0.750000  1
  Al  Al17  1  0.549043  0.338814  0.250000  1
  Al  Al18  1  0.451348  0.662532  0.750000  1
  Ga  Ga19  1  0.128443  0.129003  0.250000  1
  Ga  Ga20  1  0.869451  0.869267  0.750000  1
  Ga  Ga21  1  0.338316  0.547514  0.250000  1
  Rh  Rh22  1  0.671444  0.328947  0.000334  1
  Rh  Rh23  1  0.328389  0.672565  0.997910  1
  Rh  Rh24  1  0.328389  0.672565  0.502090  1
  Rh  Rh25  1  0.671444  0.328947  0.499666  1
  Rh  Rh26  1  0.000158  0.000421  0.000085  1
  Rh  Rh27  1  0.000158  0.000421  0.499915  1
