# generated using pymatgen
data_TbEu4YTa2O12
_symmetry_space_group_name_H-M   'P 1'
_cell_length_a   5.96399602
_cell_length_b   5.80710507
_cell_length_c   10.10200104
_cell_angle_alpha   55.21450765
_cell_angle_beta   90.00847337
_cell_angle_gamma   90.00702639
_symmetry_Int_Tables_number   1
_chemical_formula_structural   TbEu4YTa2O12
_chemical_formula_sum   'Tb1 Eu4 Y1 Ta2 O12'
_cell_volume   287.34452022
_cell_formula_units_Z   1
loop_
 _symmetry_equiv_pos_site_id
 _symmetry_equiv_pos_as_xyz
  1  'x, y, z'
loop_
 _atom_site_type_symbol
 _atom_site_label
 _atom_site_symmetry_multiplicity
 _atom_site_fract_x
 _atom_site_fract_y
 _atom_site_fract_z
 _atom_site_occupancy
  Tb  Tb0  1  0.000000  0.000000  0.000000  1
  Eu  Eu1  1  0.451423  0.263416  0.750558  1
  Eu  Eu2  1  0.951397  0.736743  0.749310  1
  Eu  Eu3  1  0.048603  0.263257  0.250690  1
  Eu  Eu4  1  0.548577  0.736584  0.249442  1
  Y  Y5  1  0.500000  0.000000  0.500000  1
  Ta  Ta6  1  0.500000  0.500000  0.000000  1
  Ta  Ta7  1  0.000000  0.500000  0.500000  1
  O  O8  1  0.721951  0.633900  0.554787  1
  O  O9  1  0.222257  0.366667  0.945144  1
  O  O10  1  0.278049  0.366100  0.445213  1
  O  O11  1  0.777743  0.633333  0.054856  1
  O  O12  1  0.192939  0.730179  0.548902  1
  O  O13  1  0.692394  0.270246  0.951005  1
  O  O14  1  0.807061  0.269821  0.451098  1
  O  O15  1  0.307606  0.729754  0.048995  1
  O  O16  1  0.032351  0.169477  0.733437  1
  O  O17  1  0.532326  0.830795  0.766146  1
  O  O18  1  0.967649  0.830523  0.266563  1
  O  O19  1  0.467674  0.169205  0.233854  1
