# generated using pymatgen
data_Lu4Mn2BiO12
_symmetry_space_group_name_H-M   'P 1'
_cell_length_a   6.69875624
_cell_length_b   6.69875562
_cell_length_c   7.08997600
_cell_angle_alpha   74.60260415
_cell_angle_beta   74.60260561
_cell_angle_gamma   50.07363319
_symmetry_Int_Tables_number   1
_chemical_formula_structural   Lu4Mn2BiO12
_chemical_formula_sum   'Lu4 Mn2 Bi1 O12'
_cell_volume   233.26898928
_cell_formula_units_Z   1
loop_
 _symmetry_equiv_pos_site_id
 _symmetry_equiv_pos_as_xyz
  1  'x, y, z'
loop_
 _atom_site_type_symbol
 _atom_site_label
 _atom_site_symmetry_multiplicity
 _atom_site_fract_x
 _atom_site_fract_y
 _atom_site_fract_z
 _atom_site_occupancy
  Lu  Lu0  1  0.306243  0.306243  0.349860  1
  Lu  Lu1  1  0.693757  0.693757  0.650140  1
  Lu  Lu2  1  0.305049  0.305049  0.844142  1
  Lu  Lu3  1  0.694951  0.694951  0.155858  1
  Mn  Mn4  1  0.752545  0.247455  0.000000  1
  Mn  Mn5  1  0.247455  0.752545  0.000000  1
  Bi  Bi6  1  0.000000  0.000000  0.500000  1
  O  O7  1  0.903027  0.426345  0.915173  1
  O  O8  1  0.426345  0.903027  0.915173  1
  O  O9  1  0.096973  0.573655  0.084827  1
  O  O10  1  0.573655  0.096973  0.084827  1
  O  O11  1  0.097883  0.594021  0.574100  1
  O  O12  1  0.594021  0.097883  0.574100  1
  O  O13  1  0.902117  0.405979  0.425900  1
  O  O14  1  0.405979  0.902117  0.425900  1
  O  O15  1  0.999215  0.999215  0.819338  1
  O  O16  1  0.000785  0.000785  0.180662  1
  O  O17  1  0.499426  0.499426  0.813451  1
  O  O18  1  0.500574  0.500574  0.186549  1
