# generated using pymatgen
data_Er2Al2IrPt
_symmetry_space_group_name_H-M   'P 1'
_cell_length_a   4.34589100
_cell_length_b   6.76695511
_cell_length_c   7.83128314
_cell_angle_alpha   89.97854806
_cell_angle_beta   90.00000000
_cell_angle_gamma   90.00000000
_symmetry_Int_Tables_number   1
_chemical_formula_structural   Er2Al2IrPt
_chemical_formula_sum   'Er4 Al4 Ir2 Pt2'
_cell_volume   230.30587733
_cell_formula_units_Z   2
loop_
 _symmetry_equiv_pos_site_id
 _symmetry_equiv_pos_as_xyz
  1  'x, y, z'
loop_
 _atom_site_type_symbol
 _atom_site_label
 _atom_site_symmetry_multiplicity
 _atom_site_fract_x
 _atom_site_fract_y
 _atom_site_fract_z
 _atom_site_occupancy
  Er  Er0  1  0.250000  0.468480  0.184077  1
  Er  Er1  1  0.750000  0.531520  0.815923  1
  Er  Er2  1  0.750000  0.026832  0.677760  1
  Er  Er3  1  0.250000  0.973168  0.322240  1
  Al  Al4  1  0.250000  0.855624  0.936605  1
  Al  Al5  1  0.750000  0.144376  0.063395  1
  Al  Al6  1  0.750000  0.641328  0.438613  1
  Al  Al7  1  0.250000  0.358672  0.561387  1
  Ir  Ir8  1  0.250000  0.733986  0.619266  1
  Ir  Ir9  1  0.750000  0.266014  0.380734  1
  Pt  Pt10  1  0.750000  0.768017  0.117702  1
  Pt  Pt11  1  0.250000  0.231983  0.882298  1
