# generated using pymatgen
data_Sc4MnCr(FeOs)3
_symmetry_space_group_name_H-M   'P 1'
_cell_length_a   5.05120349
_cell_length_b   4.96034295
_cell_length_c   8.44396000
_cell_angle_alpha   90.00000000
_cell_angle_beta   90.00000000
_cell_angle_gamma   120.31267699
_symmetry_Int_Tables_number   1
_chemical_formula_structural   Sc4MnCr(FeOs)3
_chemical_formula_sum   'Sc4 Mn1 Cr1 Fe3 Os3'
_cell_volume   182.64440701
_cell_formula_units_Z   1
loop_
 _symmetry_equiv_pos_site_id
 _symmetry_equiv_pos_as_xyz
  1  'x, y, z'
loop_
 _atom_site_type_symbol
 _atom_site_label
 _atom_site_symmetry_multiplicity
 _atom_site_fract_x
 _atom_site_fract_y
 _atom_site_fract_z
 _atom_site_occupancy
  Sc  Sc0  1  0.667702  0.335978  0.688741  1
  Sc  Sc1  1  0.332122  0.666797  0.815410  1
  Sc  Sc2  1  0.332122  0.666797  0.184590  1
  Sc  Sc3  1  0.667702  0.335978  0.311259  1
  Mn  Mn4  1  0.170469  0.826899  0.500000  1
  Cr  Cr5  1  0.169509  0.332395  0.500000  1
  Fe  Fe6  1  0.346353  0.173142  0.000000  1
  Fe  Fe7  1  0.828658  0.656674  0.000000  1
  Fe  Fe8  1  0.829209  0.171122  0.000000  1
  Os  Os9  1  0.004326  0.006634  0.244690  1
  Os  Os10  1  0.004326  0.006634  0.755310  1
  Os  Os11  1  0.648059  0.820394  0.500000  1
