# generated using pymatgen
data_Nd2Ga12Rh
_symmetry_space_group_name_H-M   'P 1'
_cell_length_a   6.11467500
_cell_length_b   6.11467500
_cell_length_c   15.71549100
_cell_angle_alpha   90.00000000
_cell_angle_beta   90.00000000
_cell_angle_gamma   90.00000000
_symmetry_Int_Tables_number   1
_chemical_formula_structural   Nd2Ga12Rh
_chemical_formula_sum   'Nd4 Ga24 Rh2'
_cell_volume   587.59042746
_cell_formula_units_Z   2
loop_
 _symmetry_equiv_pos_site_id
 _symmetry_equiv_pos_as_xyz
  1  'x, y, z'
loop_
 _atom_site_type_symbol
 _atom_site_label
 _atom_site_symmetry_multiplicity
 _atom_site_fract_x
 _atom_site_fract_y
 _atom_site_fract_z
 _atom_site_occupancy
  Nd  Nd0  1  0.500000  0.000000  0.243273  1
  Nd  Nd1  1  0.500000  0.000000  0.756727  1
  Nd  Nd2  1  0.000000  0.500000  0.756727  1
  Nd  Nd3  1  0.000000  0.500000  0.243273  1
  Ga  Ga4  1  0.330477  0.830477  0.431237  1
  Ga  Ga5  1  0.669523  0.169523  0.431237  1
  Ga  Ga6  1  0.330477  0.169523  0.568763  1
  Ga  Ga7  1  0.669523  0.830477  0.568763  1
  Ga  Ga8  1  0.169523  0.669523  0.568763  1
  Ga  Ga9  1  0.830477  0.330477  0.568763  1
  Ga  Ga10  1  0.830477  0.669523  0.431237  1
  Ga  Ga11  1  0.169523  0.330477  0.431237  1
  Ga  Ga12  1  0.250093  0.750093  0.913749  1
  Ga  Ga13  1  0.749907  0.249907  0.913749  1
  Ga  Ga14  1  0.250093  0.249907  0.086251  1
  Ga  Ga15  1  0.749907  0.750093  0.086251  1
  Ga  Ga16  1  0.249907  0.749907  0.086251  1
  Ga  Ga17  1  0.750093  0.250093  0.086251  1
  Ga  Ga18  1  0.750093  0.749907  0.913749  1
  Ga  Ga19  1  0.249907  0.250093  0.913749  1
  Ga  Ga20  1  0.500000  0.500000  0.344271  1
  Ga  Ga21  1  0.500000  0.500000  0.655729  1
  Ga  Ga22  1  0.000000  0.000000  0.655729  1
  Ga  Ga23  1  0.000000  0.000000  0.344271  1
  Ga  Ga24  1  0.500000  0.500000  0.187624  1
  Ga  Ga25  1  0.500000  0.500000  0.812376  1
  Ga  Ga26  1  0.000000  0.000000  0.812376  1
  Ga  Ga27  1  0.000000  0.000000  0.187624  1
  Rh  Rh28  1  0.500000  0.000000  0.000000  1
  Rh  Rh29  1  0.000000  0.500000  0.000000  1
