# generated using pymatgen
data_Cr20(PtC2)3
_symmetry_space_group_name_H-M   'P 1'
_cell_length_a   7.55462684
_cell_length_b   7.55462667
_cell_length_c   7.55462600
_cell_angle_alpha   60.00000291
_cell_angle_beta   60.00000367
_cell_angle_gamma   60.00000169
_symmetry_Int_Tables_number   1
_chemical_formula_structural   Cr20(PtC2)3
_chemical_formula_sum   'Cr20 Pt3 C6'
_cell_volume   304.87655100
_cell_formula_units_Z   1
loop_
 _symmetry_equiv_pos_site_id
 _symmetry_equiv_pos_as_xyz
  1  'x, y, z'
loop_
 _atom_site_type_symbol
 _atom_site_label
 _atom_site_symmetry_multiplicity
 _atom_site_fract_x
 _atom_site_fract_y
 _atom_site_fract_z
 _atom_site_occupancy
  Cr  Cr0  1  0.613947  0.613947  0.158160  1
  Cr  Cr1  1  0.613947  0.158160  0.613947  1
  Cr  Cr2  1  0.158160  0.613947  0.613947  1
  Cr  Cr3  1  0.613947  0.613947  0.613947  1
  Cr  Cr4  1  0.386053  0.386053  0.841840  1
  Cr  Cr5  1  0.386053  0.841840  0.386053  1
  Cr  Cr6  1  0.841840  0.386053  0.386053  1
  Cr  Cr7  1  0.386053  0.386053  0.386053  1
  Cr  Cr8  1  0.000000  0.000000  0.339275  1
  Cr  Cr9  1  0.660725  0.000000  0.339275  1
  Cr  Cr10  1  0.000000  0.660725  0.339275  1
  Cr  Cr11  1  0.660725  0.339275  0.000000  1
  Cr  Cr12  1  0.000000  0.339275  0.000000  1
  Cr  Cr13  1  0.000000  0.339275  0.660725  1
  Cr  Cr14  1  0.339275  0.660725  0.000000  1
  Cr  Cr15  1  0.339275  0.000000  0.660725  1
  Cr  Cr16  1  0.339275  0.000000  0.000000  1
  Cr  Cr17  1  0.000000  0.000000  0.660725  1
  Cr  Cr18  1  0.000000  0.660725  0.000000  1
  Cr  Cr19  1  0.660725  0.000000  0.000000  1
  Pt  Pt20  1  0.000000  0.000000  0.000000  1
  Pt  Pt21  1  0.750000  0.750000  0.750000  1
  Pt  Pt22  1  0.250000  0.250000  0.250000  1
  C  C23  1  0.721467  0.721467  0.278533  1
  C  C24  1  0.278533  0.721467  0.278533  1
  C  C25  1  0.721467  0.278533  0.278533  1
  C  C26  1  0.278533  0.278533  0.721467  1
  C  C27  1  0.721467  0.278533  0.721467  1
  C  C28  1  0.278533  0.721467  0.721467  1
