# generated using pymatgen
data_Y12Ga8IrRh7
_symmetry_space_group_name_H-M   'P 1'
_cell_length_a   5.60025706
_cell_length_b   7.83829610
_cell_length_c   13.61902645
_cell_angle_alpha   90.06445665
_cell_angle_beta   90.03632279
_cell_angle_gamma   90.10775811
_symmetry_Int_Tables_number   1
_chemical_formula_structural   Y12Ga8IrRh7
_chemical_formula_sum   'Y12 Ga8 Ir1 Rh7'
_cell_volume   597.82567200
_cell_formula_units_Z   1
loop_
 _symmetry_equiv_pos_site_id
 _symmetry_equiv_pos_as_xyz
  1  'x, y, z'
loop_
 _atom_site_type_symbol
 _atom_site_label
 _atom_site_symmetry_multiplicity
 _atom_site_fract_x
 _atom_site_fract_y
 _atom_site_fract_z
 _atom_site_occupancy
  Y  Y0  1  0.625348  0.263447  0.249206  1
  Y  Y1  1  0.372204  0.734393  0.749779  1
  Y  Y2  1  0.372607  0.767568  0.248393  1
  Y  Y3  1  0.628399  0.234033  0.750023  1
  Y  Y4  1  0.151559  0.398565  0.097230  1
  Y  Y5  1  0.849346  0.598823  0.902272  1
  Y  Y6  1  0.849697  0.599451  0.597562  1
  Y  Y7  1  0.849162  0.900038  0.402685  1
  Y  Y8  1  0.150249  0.401760  0.402291  1
  Y  Y9  1  0.150195  0.099226  0.597637  1
  Y  Y10  1  0.150611  0.099935  0.902207  1
  Y  Y11  1  0.851286  0.902010  0.097737  1
  Ga  Ga12  1  0.121605  0.111662  0.251171  1
  Ga  Ga13  1  0.875287  0.887831  0.750309  1
  Ga  Ga14  1  0.875275  0.610432  0.249807  1
  Ga  Ga15  1  0.125388  0.388031  0.749885  1
  Ga  Ga16  1  0.640495  0.250917  0.999295  1
  Ga  Ga17  1  0.359921  0.749866  0.000755  1
  Ga  Ga18  1  0.358644  0.749530  0.499856  1
  Ga  Ga19  1  0.641966  0.249972  0.500152  1
  Ir  Ir20  1  0.355674  0.038077  0.094053  1
  Rh  Rh21  1  0.642597  0.962170  0.907284  1
  Rh  Rh22  1  0.643239  0.962652  0.593254  1
  Rh  Rh23  1  0.643428  0.536690  0.407270  1
  Rh  Rh24  1  0.356992  0.037537  0.407704  1
  Rh  Rh25  1  0.356728  0.462808  0.592980  1
  Rh  Rh26  1  0.357311  0.465573  0.906423  1
  Rh  Rh27  1  0.644786  0.537002  0.092780  1
