# generated using pymatgen
data_Mn2V10Si3As
_symmetry_space_group_name_H-M   'P 1'
_cell_length_a   4.66002700
_cell_length_b   4.66550000
_cell_length_c   9.32899300
_cell_angle_alpha   90.00000000
_cell_angle_beta   90.00000000
_cell_angle_gamma   90.00000000
_symmetry_Int_Tables_number   1
_chemical_formula_structural   Mn2V10Si3As
_chemical_formula_sum   'Mn2 V10 Si3 As1'
_cell_volume   202.82495764
_cell_formula_units_Z   1
loop_
 _symmetry_equiv_pos_site_id
 _symmetry_equiv_pos_as_xyz
  1  'x, y, z'
loop_
 _atom_site_type_symbol
 _atom_site_label
 _atom_site_symmetry_multiplicity
 _atom_site_fract_x
 _atom_site_fract_y
 _atom_site_fract_z
 _atom_site_occupancy
  Mn  Mn0  1  0.500000  0.247560  0.746564  1
  Mn  Mn1  1  0.500000  0.247560  0.253436  1
  V  V2  1  0.000000  0.500145  0.126483  1
  V  V3  1  0.000000  0.500408  0.623828  1
  V  V4  1  0.752824  0.000106  0.000000  1
  V  V5  1  0.750567  0.999816  0.500000  1
  V  V6  1  0.000000  0.500145  0.873517  1
  V  V7  1  0.000000  0.500408  0.376172  1
  V  V8  1  0.500000  0.751075  0.747695  1
  V  V9  1  0.500000  0.751075  0.252305  1
  V  V10  1  0.247176  0.000106  0.000000  1
  V  V11  1  0.249433  0.999816  0.500000  1
  Si  Si12  1  0.500000  0.501683  0.500000  1
  Si  Si13  1  0.000000  0.999361  0.749491  1
  Si  Si14  1  0.000000  0.999361  0.250509  1
  As  As15  1  0.500000  0.501376  0.000000  1
