# generated using pymatgen
data_LaTbYAl7Ag2
_symmetry_space_group_name_H-M   'P 1'
_cell_length_a   9.45546206
_cell_length_b   9.45542017
_cell_length_c   9.45525403
_cell_angle_alpha   34.58171589
_cell_angle_beta   34.58229829
_cell_angle_gamma   34.58166922
_symmetry_Int_Tables_number   1
_chemical_formula_structural   LaTbYAl7Ag2
_chemical_formula_sum   'La1 Tb1 Y1 Al7 Ag2'
_cell_volume   242.98604224
_cell_formula_units_Z   1
loop_
 _symmetry_equiv_pos_site_id
 _symmetry_equiv_pos_as_xyz
  1  'x, y, z'
loop_
 _atom_site_type_symbol
 _atom_site_label
 _atom_site_symmetry_multiplicity
 _atom_site_fract_x
 _atom_site_fract_y
 _atom_site_fract_z
 _atom_site_occupancy
  La  La0  1  0.999784  0.999780  0.999783  1
  Tb  Tb1  1  0.857947  0.857948  0.857949  1
  Y  Y2  1  0.141988  0.141987  0.141986  1
  Al  Al3  1  0.411760  0.411760  0.923169  1
  Al  Al4  1  0.923169  0.411761  0.411760  1
  Al  Al5  1  0.411760  0.923170  0.411760  1
  Al  Al6  1  0.500000  0.500000  0.500000  1
  Al  Al7  1  0.588327  0.076717  0.588327  1
  Al  Al8  1  0.076716  0.588327  0.588327  1
  Al  Al9  1  0.588327  0.588327  0.076716  1
  Ag  Ag10  1  0.664314  0.664315  0.664315  1
  Ag  Ag11  1  0.335908  0.335908  0.335907  1
