# generated using pymatgen
data_SmDyMgNi7B2
_symmetry_space_group_name_H-M   'P 1'
_cell_length_a   5.02133439
_cell_length_b   5.02217524
_cell_length_c   14.24010200
_cell_angle_alpha   90.00000000
_cell_angle_beta   90.00000000
_cell_angle_gamma   119.96686850
_symmetry_Int_Tables_number   1
_chemical_formula_structural   SmDyMgNi7B2
_chemical_formula_sum   'Sm2 Dy2 Mg2 Ni14 B4'
_cell_volume   311.09972908
_cell_formula_units_Z   2
loop_
 _symmetry_equiv_pos_site_id
 _symmetry_equiv_pos_as_xyz
  1  'x, y, z'
loop_
 _atom_site_type_symbol
 _atom_site_label
 _atom_site_symmetry_multiplicity
 _atom_site_fract_x
 _atom_site_fract_y
 _atom_site_fract_z
 _atom_site_occupancy
  Sm  Sm0  1  0.666688  0.333333  0.529613  1
  Sm  Sm1  1  0.333312  0.666667  0.029613  1
  Dy  Dy2  1  0.666668  0.333327  0.755846  1
  Dy  Dy3  1  0.333332  0.666673  0.255846  1
  Mg  Mg4  1  0.333358  0.666651  0.466835  1
  Mg  Mg5  1  0.666642  0.333349  0.966835  1
  Ni  Ni6  1  0.835166  0.670323  0.351580  1
  Ni  Ni7  1  0.329690  0.164850  0.351561  1
  Ni  Ni8  1  0.999963  0.999977  0.998911  1
  Ni  Ni9  1  0.000037  0.000023  0.498911  1
  Ni  Ni10  1  0.833834  0.166149  0.148665  1
  Ni  Ni11  1  0.667693  0.833852  0.648642  1
  Ni  Ni12  1  0.166153  0.332304  0.648669  1
  Ni  Ni13  1  0.833847  0.667696  0.148669  1
  Ni  Ni14  1  0.332307  0.166148  0.148642  1
  Ni  Ni15  1  0.670310  0.835150  0.851561  1
  Ni  Ni16  1  0.164834  0.329677  0.851580  1
  Ni  Ni17  1  0.166166  0.833851  0.648665  1
  Ni  Ni18  1  0.164836  0.835149  0.851584  1
  Ni  Ni19  1  0.835164  0.164851  0.351584  1
  B  B20  1  0.666663  0.333335  0.250426  1
  B  B21  1  0.333337  0.666665  0.750426  1
  B  B22  1  0.999985  0.000012  0.747667  1
  B  B23  1  0.000015  0.999988  0.247667  1
