# generated using pymatgen
data_PrY2Ir2Rh7
_symmetry_space_group_name_H-M   'P 1'
_cell_length_a   5.32326711
_cell_length_b   5.32489172
_cell_length_c   17.52973414
_cell_angle_alpha   89.99999967
_cell_angle_beta   89.98772271
_cell_angle_gamma   120.01008507
_symmetry_Int_Tables_number   1
_chemical_formula_structural   PrY2Ir2Rh7
_chemical_formula_sum   'Pr2 Y4 Ir4 Rh14'
_cell_volume   430.27968712
_cell_formula_units_Z   2
loop_
 _symmetry_equiv_pos_site_id
 _symmetry_equiv_pos_as_xyz
  1  'x, y, z'
loop_
 _atom_site_type_symbol
 _atom_site_label
 _atom_site_symmetry_multiplicity
 _atom_site_fract_x
 _atom_site_fract_y
 _atom_site_fract_z
 _atom_site_occupancy
  Pr  Pr0  1  0.332733  0.666367  0.749776  1
  Pr  Pr1  1  0.667148  0.333573  0.250533  1
  Y  Y2  1  0.332903  0.666452  0.959234  1
  Y  Y3  1  0.666919  0.333459  0.040997  1
  Y  Y4  1  0.667961  0.333980  0.459271  1
  Y  Y5  1  0.333951  0.666976  0.540267  1
  Ir  Ir6  1  0.165021  0.830829  0.375128  1
  Ir  Ir7  1  0.165021  0.334191  0.375128  1
  Ir  Ir8  1  0.003359  0.001679  0.500293  1
  Ir  Ir9  1  0.998882  0.999441  0.000154  1
  Rh  Rh10  1  0.663935  0.831967  0.374217  1
  Rh  Rh11  1  0.832808  0.167265  0.624821  1
  Rh  Rh12  1  0.832808  0.665544  0.624821  1
  Rh  Rh13  1  0.334354  0.167178  0.625382  1
  Rh  Rh14  1  0.832512  0.166924  0.875592  1
  Rh  Rh15  1  0.832512  0.665589  0.875592  1
  Rh  Rh16  1  0.333734  0.166868  0.875009  1
  Rh  Rh17  1  0.167857  0.832908  0.123938  1
  Rh  Rh18  1  0.167857  0.334948  0.123938  1
  Rh  Rh19  1  0.666431  0.833215  0.125648  1
  Rh  Rh20  1  0.327352  0.663676  0.249764  1
  Rh  Rh21  1  0.668469  0.334234  0.750333  1
  Rh  Rh22  1  0.008659  0.004329  0.250172  1
  Rh  Rh23  1  0.996814  0.998407  0.749992  1
