# generated using pymatgen
data_Tb2Hf2TaSi4
_symmetry_space_group_name_H-M   'P 1'
_cell_length_a   7.22057500
_cell_length_b   7.22057500
_cell_length_c   13.22780000
_cell_angle_alpha   90.00000000
_cell_angle_beta   90.00000000
_cell_angle_gamma   90.00000000
_symmetry_Int_Tables_number   1
_chemical_formula_structural   Tb2Hf2TaSi4
_chemical_formula_sum   'Tb8 Hf8 Ta4 Si16'
_cell_volume   689.65388432
_cell_formula_units_Z   4
loop_
 _symmetry_equiv_pos_site_id
 _symmetry_equiv_pos_as_xyz
  1  'x, y, z'
loop_
 _atom_site_type_symbol
 _atom_site_label
 _atom_site_symmetry_multiplicity
 _atom_site_fract_x
 _atom_site_fract_y
 _atom_site_fract_z
 _atom_site_occupancy
  Tb  Tb0  1  0.997749  0.343961  0.214947  1
  Tb  Tb1  1  0.002251  0.656039  0.714947  1
  Tb  Tb2  1  0.156039  0.497749  0.464947  1
  Tb  Tb3  1  0.502251  0.843961  0.035053  1
  Tb  Tb4  1  0.843961  0.502251  0.964947  1
  Tb  Tb5  1  0.497749  0.156039  0.535053  1
  Tb  Tb6  1  0.343961  0.997749  0.785053  1
  Tb  Tb7  1  0.656039  0.002251  0.285053  1
  Hf  Hf8  1  0.148533  0.993422  0.374847  1
  Hf  Hf9  1  0.851467  0.006578  0.874847  1
  Hf  Hf10  1  0.506578  0.648533  0.624847  1
  Hf  Hf11  1  0.351467  0.493422  0.875153  1
  Hf  Hf12  1  0.493422  0.351467  0.124847  1
  Hf  Hf13  1  0.648533  0.506578  0.375153  1
  Hf  Hf14  1  0.993422  0.148533  0.625153  1
  Hf  Hf15  1  0.006578  0.851467  0.125153  1
  Ta  Ta16  1  0.175658  0.175658  0.000000  1
  Ta  Ta17  1  0.824342  0.824342  0.500000  1
  Ta  Ta18  1  0.324342  0.675658  0.250000  1
  Ta  Ta19  1  0.675658  0.324342  0.750000  1
  Si  Si20  1  0.362652  0.296517  0.316731  1
  Si  Si21  1  0.637348  0.703483  0.816731  1
  Si  Si22  1  0.203483  0.862652  0.566731  1
  Si  Si23  1  0.137348  0.796517  0.933269  1
  Si  Si24  1  0.796517  0.137348  0.066731  1
  Si  Si25  1  0.862652  0.203483  0.433269  1
  Si  Si26  1  0.296517  0.362652  0.683269  1
  Si  Si27  1  0.703483  0.637348  0.183269  1
  Si  Si28  1  0.295768  0.048359  0.184646  1
  Si  Si29  1  0.704232  0.951641  0.684646  1
  Si  Si30  1  0.451641  0.795768  0.434646  1
  Si  Si31  1  0.204232  0.548359  0.065354  1
  Si  Si32  1  0.548359  0.204232  0.934646  1
  Si  Si33  1  0.795768  0.451641  0.565354  1
  Si  Si34  1  0.048359  0.295768  0.815354  1
  Si  Si35  1  0.951641  0.704232  0.315354  1
