# generated using pymatgen
data_Sr6RuRh4O15
_symmetry_space_group_name_H-M   'P 1'
_cell_length_a   7.19945655
_cell_length_b   7.19945682
_cell_length_c   7.19945742
_cell_angle_alpha   85.78060236
_cell_angle_beta   85.78060268
_cell_angle_gamma   85.78061702
_symmetry_Int_Tables_number   1
_chemical_formula_structural   Sr6RuRh4O15
_chemical_formula_sum   'Sr6 Ru1 Rh4 O15'
_cell_volume   370.27084485
_cell_formula_units_Z   1
loop_
 _symmetry_equiv_pos_site_id
 _symmetry_equiv_pos_as_xyz
  1  'x, y, z'
loop_
 _atom_site_type_symbol
 _atom_site_label
 _atom_site_symmetry_multiplicity
 _atom_site_fract_x
 _atom_site_fract_y
 _atom_site_fract_z
 _atom_site_occupancy
  Sr  Sr0  1  0.315793  0.684207  0.000000  1
  Sr  Sr1  1  0.684207  0.000000  0.315793  1
  Sr  Sr2  1  0.000000  0.315793  0.684207  1
  Sr  Sr3  1  0.139444  0.860556  0.500000  1
  Sr  Sr4  1  0.860556  0.500000  0.139444  1
  Sr  Sr5  1  0.500000  0.139444  0.860556  1
  Ru  Ru6  1  0.500000  0.500000  0.500000  1
  Rh  Rh7  1  0.901531  0.901531  0.901531  1
  Rh  Rh8  1  0.098469  0.098469  0.098469  1
  Rh  Rh9  1  0.701326  0.701326  0.701326  1
  Rh  Rh10  1  0.298674  0.298674  0.298674  1
  O  O11  1  0.274848  0.575447  0.350916  1
  O  O12  1  0.350916  0.274848  0.575447  1
  O  O13  1  0.575447  0.350916  0.274848  1
  O  O14  1  0.725152  0.649084  0.424553  1
  O  O15  1  0.424553  0.725152  0.649084  1
  O  O16  1  0.649084  0.424553  0.725152  1
  O  O17  1  0.000000  0.836822  0.163178  1
  O  O18  1  0.163178  0.000000  0.836822  1
  O  O19  1  0.836822  0.163178  0.000000  1
  O  O20  1  0.350080  0.025197  0.215479  1
  O  O21  1  0.215479  0.350080  0.025197  1
  O  O22  1  0.784521  0.974803  0.649920  1
  O  O23  1  0.974803  0.649920  0.784521  1
  O  O24  1  0.649920  0.784521  0.974803  1
  O  O25  1  0.025197  0.215479  0.350080  1
