# generated using pymatgen
data_ErTm3Ga18PtRh5
_symmetry_space_group_name_H-M   'P 1'
_cell_length_a   7.56470578
_cell_length_b   7.56327962
_cell_length_c   9.48579804
_cell_angle_alpha   89.99179933
_cell_angle_beta   89.98307854
_cell_angle_gamma   119.68181335
_symmetry_Int_Tables_number   1
_chemical_formula_structural   ErTm3Ga18PtRh5
_chemical_formula_sum   'Er1 Tm3 Ga18 Pt1 Rh5'
_cell_volume   471.50924417
_cell_formula_units_Z   1
loop_
 _symmetry_equiv_pos_site_id
 _symmetry_equiv_pos_as_xyz
  1  'x, y, z'
loop_
 _atom_site_type_symbol
 _atom_site_label
 _atom_site_symmetry_multiplicity
 _atom_site_fract_x
 _atom_site_fract_y
 _atom_site_fract_z
 _atom_site_occupancy
  Er  Er0  1  0.995180  0.668307  0.250254  1
  Tm  Tm1  1  0.001352  0.328848  0.749956  1
  Tm  Tm2  1  0.671080  0.998671  0.250147  1
  Tm  Tm3  1  0.331543  0.004638  0.749674  1
  Ga  Ga4  1  0.127773  0.126364  0.250443  1
  Ga  Ga5  1  0.873511  0.872120  0.749658  1
  Ga  Ga6  1  0.004456  0.335117  0.080905  1
  Ga  Ga7  1  0.004537  0.668407  0.918289  1
  Ga  Ga8  1  0.001445  0.664558  0.579695  1
  Ga  Ga9  1  0.335525  0.998730  0.420912  1
  Ga  Ga10  1  0.000050  0.334741  0.420591  1
  Ga  Ga11  1  0.665066  0.000188  0.579837  1
  Ga  Ga12  1  0.664516  0.995669  0.918782  1
  Ga  Ga13  1  0.331905  0.995998  0.081086  1
  Ga  Ga14  1  0.330965  0.330996  0.567305  1
  Ga  Ga15  1  0.668949  0.669207  0.433336  1
  Ga  Ga16  1  0.667940  0.671738  0.070250  1
  Ga  Ga17  1  0.328155  0.331655  0.929289  1
  Ga  Ga18  1  0.339501  0.550114  0.250486  1
  Ga  Ga19  1  0.661443  0.456344  0.746539  1
  Ga  Ga20  1  0.543232  0.338367  0.253023  1
  Ga  Ga21  1  0.449942  0.660650  0.749607  1
  Pt  Pt22  1  0.671586  0.328801  0.999740  1
  Rh  Rh23  1  0.329047  0.670809  0.999942  1
  Rh  Rh24  1  0.328854  0.670971  0.500158  1
  Rh  Rh25  1  0.671695  0.328236  0.500083  1
  Rh  Rh26  1  0.000404  0.999963  0.999874  1
  Rh  Rh27  1  0.000347  0.999794  0.500138  1
