# generated using pymatgen
data_Fe7Si16Ir
_symmetry_space_group_name_H-M   'P 1'
_cell_length_a   6.35556888
_cell_length_b   6.35556866
_cell_length_c   7.89537051
_cell_angle_alpha   89.67899545
_cell_angle_beta   89.67899746
_cell_angle_gamma   103.84180898
_symmetry_Int_Tables_number   1
_chemical_formula_structural   Fe7Si16Ir
_chemical_formula_sum   'Fe7 Si16 Ir1'
_cell_volume   309.64549271
_cell_formula_units_Z   1
loop_
 _symmetry_equiv_pos_site_id
 _symmetry_equiv_pos_as_xyz
  1  'x, y, z'
loop_
 _atom_site_type_symbol
 _atom_site_label
 _atom_site_symmetry_multiplicity
 _atom_site_fract_x
 _atom_site_fract_y
 _atom_site_fract_z
 _atom_site_occupancy
  Fe  Fe0  1  0.305974  0.305974  0.310063  1
  Fe  Fe1  1  0.696542  0.696542  0.689194  1
  Fe  Fe2  1  0.804798  0.804798  0.189060  1
  Fe  Fe3  1  0.279330  0.717238  0.498383  1
  Fe  Fe4  1  0.218645  0.784479  0.000189  1
  Fe  Fe5  1  0.717238  0.279330  0.498383  1
  Fe  Fe6  1  0.784479  0.218645  0.000189  1
  Si  Si7  1  0.417836  0.671406  0.228644  1
  Si  Si8  1  0.076667  0.816610  0.724561  1
  Si  Si9  1  0.167572  0.914866  0.272058  1
  Si  Si10  1  0.336461  0.595672  0.771019  1
  Si  Si11  1  0.595672  0.336461  0.771019  1
  Si  Si12  1  0.914866  0.167572  0.272058  1
  Si  Si13  1  0.816610  0.076667  0.724561  1
  Si  Si14  1  0.671406  0.417836  0.228644  1
  Si  Si15  1  0.143658  0.409778  0.058986  1
  Si  Si16  1  0.357702  0.095495  0.539878  1
  Si  Si17  1  0.898031  0.643510  0.450866  1
  Si  Si18  1  0.599597  0.855392  0.953692  1
  Si  Si19  1  0.855392  0.599597  0.953692  1
  Si  Si20  1  0.643510  0.898031  0.450866  1
  Si  Si21  1  0.095495  0.357702  0.539878  1
  Si  Si22  1  0.409778  0.143658  0.058986  1
  Ir  Ir23  1  0.192742  0.192742  0.815129  1
