# generated using pymatgen
data_Ho4FeMo2Os5
_symmetry_space_group_name_H-M   'P 1'
_cell_length_a   5.44106052
_cell_length_b   5.47637519
_cell_length_c   8.50631300
_cell_angle_alpha   90.00000000
_cell_angle_beta   90.00000000
_cell_angle_gamma   120.21517251
_symmetry_Int_Tables_number   1
_chemical_formula_structural   Ho4FeMo2Os5
_chemical_formula_sum   'Ho4 Fe1 Mo2 Os5'
_cell_volume   219.02969898
_cell_formula_units_Z   1
loop_
 _symmetry_equiv_pos_site_id
 _symmetry_equiv_pos_as_xyz
  1  'x, y, z'
loop_
 _atom_site_type_symbol
 _atom_site_label
 _atom_site_symmetry_multiplicity
 _atom_site_fract_x
 _atom_site_fract_y
 _atom_site_fract_z
 _atom_site_occupancy
  Ho  Ho0  1  0.333694  0.666843  0.435531  1
  Ho  Ho1  1  0.667519  0.333757  0.564656  1
  Ho  Ho2  1  0.667519  0.333757  0.935344  1
  Ho  Ho3  1  0.333694  0.666843  0.064469  1
  Fe  Fe4  1  0.658131  0.829021  0.750000  1
  Mo  Mo5  1  0.005721  0.002876  0.499900  1
  Mo  Mo6  1  0.005721  0.002876  0.000100  1
  Os  Os7  1  0.824447  0.171542  0.250000  1
  Os  Os8  1  0.824458  0.652936  0.250000  1
  Os  Os9  1  0.342008  0.171002  0.250000  1
  Os  Os10  1  0.168533  0.825303  0.750000  1
  Os  Os11  1  0.168554  0.343244  0.750000  1
