# generated using pymatgen
data_Ba6Sc2WO12
_symmetry_space_group_name_H-M   'P 1'
_cell_length_a   9.31201831
_cell_length_b   9.31201816
_cell_length_c   7.40546633
_cell_angle_alpha   67.92793024
_cell_angle_beta   67.92792889
_cell_angle_gamma   36.87997574
_symmetry_Int_Tables_number   1
_chemical_formula_structural   Ba6Sc2WO12
_chemical_formula_sum   'Ba6 Sc2 W1 O12'
_cell_volume   353.86021108
_cell_formula_units_Z   1
loop_
 _symmetry_equiv_pos_site_id
 _symmetry_equiv_pos_as_xyz
  1  'x, y, z'
loop_
 _atom_site_type_symbol
 _atom_site_label
 _atom_site_symmetry_multiplicity
 _atom_site_fract_x
 _atom_site_fract_y
 _atom_site_fract_z
 _atom_site_occupancy
  Ba  Ba0  1  0.875323  0.875323  0.713651  1
  Ba  Ba1  1  0.220613  0.220613  0.707265  1
  Ba  Ba2  1  0.548964  0.548964  0.703725  1
  Ba  Ba3  1  0.451036  0.451036  0.296275  1
  Ba  Ba4  1  0.779387  0.779387  0.292735  1
  Ba  Ba5  1  0.124677  0.124677  0.286349  1
  Sc  Sc6  1  0.668883  0.668883  0.998965  1
  Sc  Sc7  1  0.331117  0.331117  0.001035  1
  W  W8  1  0.000000  0.000000  0.000000  1
  O  O9  1  0.951532  0.951532  0.292192  1
  O  O10  1  0.283096  0.283096  0.314941  1
  O  O11  1  0.611284  0.611284  0.316692  1
  O  O12  1  0.388716  0.388716  0.683308  1
  O  O13  1  0.716904  0.716904  0.685059  1
  O  O14  1  0.048468  0.048468  0.707808  1
  O  O15  1  0.500000  0.000000  0.000000  1
  O  O16  1  0.842320  0.313632  0.000758  1
  O  O17  1  0.157680  0.686368  0.999242  1
  O  O18  1  0.000000  0.500000  0.000000  1
  O  O19  1  0.313632  0.842320  0.000758  1
  O  O20  1  0.686368  0.157680  0.999242  1
