# generated using pymatgen
data_Ho12InCo2Ni3
_symmetry_space_group_name_H-M   'P 1'
_cell_length_a   8.26801282
_cell_length_b   8.26739353
_cell_length_c   8.26801248
_cell_angle_alpha   110.96547788
_cell_angle_beta   109.88826783
_cell_angle_gamma   107.58119791
_symmetry_Int_Tables_number   1
_chemical_formula_structural   Ho12InCo2Ni3
_chemical_formula_sum   'Ho12 In1 Co2 Ni3'
_cell_volume   434.64990630
_cell_formula_units_Z   1
loop_
 _symmetry_equiv_pos_site_id
 _symmetry_equiv_pos_as_xyz
  1  'x, y, z'
loop_
 _atom_site_type_symbol
 _atom_site_label
 _atom_site_symmetry_multiplicity
 _atom_site_fract_x
 _atom_site_fract_y
 _atom_site_fract_z
 _atom_site_occupancy
  Ho  Ho0  1  0.814922  0.707013  0.521948  1
  Ho  Ho1  1  0.185078  0.292987  0.478052  1
  Ho  Ho2  1  0.185066  0.707013  0.892090  1
  Ho  Ho3  1  0.814934  0.292987  0.107910  1
  Ho  Ho4  1  0.683918  0.378470  0.694553  1
  Ho  Ho5  1  0.316082  0.621530  0.305447  1
  Ho  Ho6  1  0.683908  0.989367  0.305458  1
  Ho  Ho7  1  0.316092  0.010633  0.694542  1
  Ho  Ho8  1  0.593864  0.786379  0.807498  1
  Ho  Ho9  1  0.406136  0.213621  0.192502  1
  Ho  Ho10  1  0.978881  0.786379  0.192515  1
  Ho  Ho11  1  0.021119  0.213621  0.807485  1
  In  In12  1  0.500000  0.500000  0.000000  1
  Co  Co13  1  0.114518  0.614493  0.499975  1
  Co  Co14  1  0.885482  0.385507  0.500025  1
  Ni  Ni15  1  0.632255  0.000000  0.632255  1
  Ni  Ni16  1  0.367745  0.000000  0.367745  1
  Ni  Ni17  1  0.000000  0.000000  0.000000  1
