# generated using pymatgen
data_EuEr2SbO7
_symmetry_space_group_name_H-M   'P 1'
_cell_length_a   6.46396459
_cell_length_b   6.46396462
_cell_length_c   7.54441700
_cell_angle_alpha   90.00000000
_cell_angle_beta   90.00000000
_cell_angle_gamma   108.81603308
_symmetry_Int_Tables_number   1
_chemical_formula_structural   EuEr2SbO7
_chemical_formula_sum   'Eu2 Er4 Sb2 O14'
_cell_volume   298.38111553
_cell_formula_units_Z   2
loop_
 _symmetry_equiv_pos_site_id
 _symmetry_equiv_pos_as_xyz
  1  'x, y, z'
loop_
 _atom_site_type_symbol
 _atom_site_label
 _atom_site_symmetry_multiplicity
 _atom_site_fract_x
 _atom_site_fract_y
 _atom_site_fract_z
 _atom_site_occupancy
  Eu  Eu0  1  0.500000  0.500000  0.500000  1
  Eu  Eu1  1  0.500000  0.500000  0.000000  1
  Er  Er2  1  0.531029  0.000437  0.750000  1
  Er  Er3  1  0.000437  0.531029  0.250000  1
  Er  Er4  1  0.468971  0.999563  0.250000  1
  Er  Er5  1  0.999563  0.468971  0.750000  1
  Sb  Sb6  1  0.000000  0.000000  0.500000  1
  Sb  Sb7  1  0.000000  0.000000  0.000000  1
  O  O8  1  0.678279  0.933284  0.470136  1
  O  O9  1  0.933284  0.678279  0.529864  1
  O  O10  1  0.678279  0.933284  0.029864  1
  O  O11  1  0.933284  0.678279  0.970136  1
  O  O12  1  0.321721  0.066716  0.529864  1
  O  O13  1  0.066716  0.321721  0.470136  1
  O  O14  1  0.321721  0.066716  0.970136  1
  O  O15  1  0.066716  0.321721  0.029864  1
  O  O16  1  0.929750  0.070250  0.750000  1
  O  O17  1  0.070250  0.929750  0.250000  1
  O  O18  1  0.365130  0.634870  0.750000  1
  O  O19  1  0.634870  0.365130  0.250000  1
  O  O20  1  0.641241  0.358759  0.750000  1
  O  O21  1  0.358759  0.641241  0.250000  1
