# generated using pymatgen
data_Pr4LuSi2Sn
_symmetry_space_group_name_H-M   'P 1'
_cell_length_a   7.72901800
_cell_length_b   9.35949520
_cell_length_c   7.72901800
_cell_angle_alpha   114.38696035
_cell_angle_beta   90.00000000
_cell_angle_gamma   114.38696035
_symmetry_Int_Tables_number   1
_chemical_formula_structural   Pr4LuSi2Sn
_chemical_formula_sum   'Pr8 Lu2 Si4 Sn2'
_cell_volume   453.89382171
_cell_formula_units_Z   2
loop_
 _symmetry_equiv_pos_site_id
 _symmetry_equiv_pos_as_xyz
  1  'x, y, z'
loop_
 _atom_site_type_symbol
 _atom_site_label
 _atom_site_symmetry_multiplicity
 _atom_site_fract_x
 _atom_site_fract_y
 _atom_site_fract_z
 _atom_site_occupancy
  Pr  Pr0  1  0.538044  0.725363  0.687321  1
  Pr  Pr1  1  0.187321  0.725363  0.038044  1
  Pr  Pr2  1  0.687321  0.725363  0.187321  1
  Pr  Pr3  1  0.038044  0.725363  0.538044  1
  Pr  Pr4  1  0.461956  0.274637  0.312679  1
  Pr  Pr5  1  0.812679  0.274637  0.961956  1
  Pr  Pr6  1  0.312679  0.274637  0.812679  1
  Pr  Pr7  1  0.961956  0.274637  0.461956  1
  Lu  Lu8  1  0.000000  0.000000  0.000000  1
  Lu  Lu9  1  0.500000  0.000000  0.500000  1
  Si  Si10  1  0.878786  0.000000  0.621214  1
  Si  Si11  1  0.121214  0.000000  0.378786  1
  Si  Si12  1  0.621214  0.000000  0.121214  1
  Si  Si13  1  0.378786  0.000000  0.878786  1
  Sn  Sn14  1  0.750000  0.500000  0.750000  1
  Sn  Sn15  1  0.250000  0.500000  0.250000  1
