# generated using pymatgen
data_Zr6Zn16Cu6SiAu
_symmetry_space_group_name_H-M   'P 1'
_cell_length_a   8.68497167
_cell_length_b   8.68497110
_cell_length_c   8.68497100
_cell_angle_alpha   59.99999656
_cell_angle_beta   59.99999874
_cell_angle_gamma   59.99999918
_symmetry_Int_Tables_number   1
_chemical_formula_structural   Zr6Zn16Cu6SiAu
_chemical_formula_sum   'Zr6 Zn16 Cu6 Si1 Au1'
_cell_volume   463.22302696
_cell_formula_units_Z   1
loop_
 _symmetry_equiv_pos_site_id
 _symmetry_equiv_pos_as_xyz
  1  'x, y, z'
loop_
 _atom_site_type_symbol
 _atom_site_label
 _atom_site_symmetry_multiplicity
 _atom_site_fract_x
 _atom_site_fract_y
 _atom_site_fract_z
 _atom_site_occupancy
  Zr  Zr0  1  0.712618  0.287382  0.287382  1
  Zr  Zr1  1  0.287382  0.712618  0.712618  1
  Zr  Zr2  1  0.287382  0.712618  0.287382  1
  Zr  Zr3  1  0.712618  0.287382  0.712618  1
  Zr  Zr4  1  0.287382  0.287382  0.712618  1
  Zr  Zr5  1  0.712618  0.712618  0.287382  1
  Zn  Zn6  1  0.126600  0.126600  0.126600  1
  Zn  Zn7  1  0.873400  0.873400  0.873400  1
  Zn  Zn8  1  0.126600  0.126600  0.620199  1
  Zn  Zn9  1  0.126600  0.620199  0.126600  1
  Zn  Zn10  1  0.873400  0.873400  0.379801  1
  Zn  Zn11  1  0.873400  0.379801  0.873400  1
  Zn  Zn12  1  0.620199  0.126600  0.126600  1
  Zn  Zn13  1  0.379801  0.873400  0.873400  1
  Zn  Zn14  1  0.336871  0.336871  0.336871  1
  Zn  Zn15  1  0.663129  0.663129  0.663129  1
  Zn  Zn16  1  0.336871  0.336871  0.989388  1
  Zn  Zn17  1  0.336871  0.989388  0.336871  1
  Zn  Zn18  1  0.663129  0.663129  0.010612  1
  Zn  Zn19  1  0.663129  0.010612  0.663129  1
  Zn  Zn20  1  0.989388  0.336871  0.336871  1
  Zn  Zn21  1  0.010612  0.663129  0.663129  1
  Cu  Cu22  1  0.500000  0.000000  0.000000  1
  Cu  Cu23  1  0.000000  0.500000  0.500000  1
  Cu  Cu24  1  0.000000  0.500000  0.000000  1
  Cu  Cu25  1  0.500000  0.000000  0.500000  1
  Cu  Cu26  1  0.000000  0.000000  0.500000  1
  Cu  Cu27  1  0.500000  0.500000  0.000000  1
  Si  Si28  1  0.500000  0.500000  0.500000  1
  Au  Au29  1  0.000000  0.000000  0.000000  1
