# generated using pymatgen
data_CaPr17(YIr6)2
_symmetry_space_group_name_H-M   'P 1'
_cell_length_a   11.32341100
_cell_length_b   11.32341100
_cell_length_c   6.56660800
_cell_angle_alpha   90.00000000
_cell_angle_beta   90.00000000
_cell_angle_gamma   90.00000000
_symmetry_Int_Tables_number   1
_chemical_formula_structural   CaPr17(YIr6)2
_chemical_formula_sum   'Ca1 Pr17 Y2 Ir12'
_cell_volume   841.96809195
_cell_formula_units_Z   1
loop_
 _symmetry_equiv_pos_site_id
 _symmetry_equiv_pos_as_xyz
  1  'x, y, z'
loop_
 _atom_site_type_symbol
 _atom_site_label
 _atom_site_symmetry_multiplicity
 _atom_site_fract_x
 _atom_site_fract_y
 _atom_site_fract_z
 _atom_site_occupancy
  Ca  Ca0  1  0.000000  0.000000  0.000000  1
  Pr  Pr1  1  0.291286  0.088299  0.384219  1
  Pr  Pr2  1  0.288858  0.911995  0.884452  1
  Pr  Pr3  1  0.711142  0.088005  0.884452  1
  Pr  Pr4  1  0.708714  0.911701  0.384219  1
  Pr  Pr5  1  0.588112  0.788903  0.883374  1
  Pr  Pr6  1  0.588336  0.211803  0.384099  1
  Pr  Pr7  1  0.411664  0.788197  0.384099  1
  Pr  Pr8  1  0.411888  0.211097  0.883374  1
  Pr  Pr9  1  0.211803  0.411664  0.615901  1
  Pr  Pr10  1  0.211097  0.588112  0.116626  1
  Pr  Pr11  1  0.788903  0.411888  0.116626  1
  Pr  Pr12  1  0.788197  0.588336  0.615901  1
  Pr  Pr13  1  0.911995  0.711142  0.115548  1
  Pr  Pr14  1  0.911701  0.291286  0.615781  1
  Pr  Pr15  1  0.088299  0.708714  0.615781  1
  Pr  Pr16  1  0.088005  0.288858  0.115548  1
  Pr  Pr17  1  0.000000  0.000000  0.500000  1
  Y  Y18  1  0.500000  0.500000  0.000000  1
  Y  Y19  1  0.500000  0.500000  0.500000  1
  Ir  Ir20  1  0.843605  0.155945  0.254080  1
  Ir  Ir21  1  0.844055  0.843605  0.745920  1
  Ir  Ir22  1  0.155945  0.156395  0.745920  1
  Ir  Ir23  1  0.156395  0.844055  0.254080  1
  Ir  Ir24  1  0.648989  0.351123  0.750591  1
  Ir  Ir25  1  0.648877  0.648989  0.249409  1
  Ir  Ir26  1  0.351123  0.351011  0.249409  1
  Ir  Ir27  1  0.351011  0.648877  0.750591  1
  Ir  Ir28  1  0.500000  0.000000  0.117998  1
  Ir  Ir29  1  0.500000  0.000000  0.618848  1
  Ir  Ir30  1  0.000000  0.500000  0.882002  1
  Ir  Ir31  1  0.000000  0.500000  0.381152  1
