# generated using pymatgen
data_Li4Zr6CBr18
_symmetry_space_group_name_H-M   'P 1'
_cell_length_a   10.42241157
_cell_length_b   10.43421835
_cell_length_c   10.14454196
_cell_angle_alpha   107.67088858
_cell_angle_beta   101.78866130
_cell_angle_gamma   108.67287114
_symmetry_Int_Tables_number   1
_chemical_formula_structural   Li4Zr6CBr18
_chemical_formula_sum   'Li4 Zr6 C1 Br18'
_cell_volume   938.64357391
_cell_formula_units_Z   1
loop_
 _symmetry_equiv_pos_site_id
 _symmetry_equiv_pos_as_xyz
  1  'x, y, z'
loop_
 _atom_site_type_symbol
 _atom_site_label
 _atom_site_symmetry_multiplicity
 _atom_site_fract_x
 _atom_site_fract_y
 _atom_site_fract_z
 _atom_site_occupancy
  Li  Li0  1  0.090858  0.590936  0.410612  1
  Li  Li1  1  0.992245  0.092312  0.904124  1
  Li  Li2  1  0.007755  0.907688  0.095876  1
  Li  Li3  1  0.909142  0.409064  0.589388  1
  Zr  Zr4  1  0.336490  0.464006  0.784987  1
  Zr  Zr5  1  0.378485  0.607915  0.136360  1
  Zr  Zr6  1  0.640998  0.729769  0.016575  1
  Zr  Zr7  1  0.663510  0.535994  0.215013  1
  Zr  Zr8  1  0.359002  0.270231  0.983425  1
  Zr  Zr9  1  0.621515  0.392085  0.863640  1
  C  C10  1  0.500000  0.500000  0.000000  1
  Br  Br11  1  0.827226  0.418373  0.092883  1
  Br  Br12  1  0.549932  0.663892  0.401990  1
  Br  Br13  1  0.169073  0.980667  0.955034  1
  Br  Br14  1  0.172774  0.581627  0.907117  1
  Br  Br15  1  0.856712  0.810718  0.268413  1
  Br  Br16  1  0.523164  0.277973  0.227624  1
  Br  Br17  1  0.770092  0.260105  0.698517  1
  Br  Br18  1  0.143288  0.189282  0.731587  1
  Br  Br19  1  0.526137  0.886697  0.174406  1
  Br  Br20  1  0.808183  0.645791  0.865999  1
  Br  Br21  1  0.229908  0.739895  0.301483  1
  Br  Br22  1  0.125029  0.405961  0.513850  1
  Br  Br23  1  0.476836  0.722027  0.772376  1
  Br  Br24  1  0.830927  0.019333  0.044966  1
  Br  Br25  1  0.450068  0.336108  0.598010  1
  Br  Br26  1  0.191817  0.354209  0.134001  1
  Br  Br27  1  0.874971  0.594039  0.486150  1
  Br  Br28  1  0.473863  0.113303  0.825594  1
