# generated using pymatgen
data_Nd20CuRh15
_symmetry_space_group_name_H-M   'P 1'
_cell_length_a   7.55594876
_cell_length_b   7.70312374
_cell_length_c   15.03622200
_cell_angle_alpha   90.00000000
_cell_angle_beta   90.00000000
_cell_angle_gamma   90.12787500
_symmetry_Int_Tables_number   1
_chemical_formula_structural   Nd20CuRh15
_chemical_formula_sum   'Nd20 Cu1 Rh15'
_cell_volume   875.17222449
_cell_formula_units_Z   1
loop_
 _symmetry_equiv_pos_site_id
 _symmetry_equiv_pos_as_xyz
  1  'x, y, z'
loop_
 _atom_site_type_symbol
 _atom_site_label
 _atom_site_symmetry_multiplicity
 _atom_site_fract_x
 _atom_site_fract_y
 _atom_site_fract_z
 _atom_site_occupancy
  Nd  Nd0  1  0.667219  0.163014  0.621119  1
  Nd  Nd1  1  0.157035  0.333838  0.880583  1
  Nd  Nd2  1  0.336874  0.833412  0.122428  1
  Nd  Nd3  1  0.836821  0.666773  0.377496  1
  Nd  Nd4  1  0.336874  0.833412  0.377572  1
  Nd  Nd5  1  0.836821  0.666773  0.122504  1
  Nd  Nd6  1  0.667219  0.163014  0.878881  1
  Nd  Nd7  1  0.157035  0.333838  0.619417  1
  Nd  Nd8  1  0.515088  0.688683  0.590252  1
  Nd  Nd9  1  0.016041  0.816813  0.908629  1
  Nd  Nd10  1  0.486455  0.319031  0.092183  1
  Nd  Nd11  1  0.987191  0.180943  0.405447  1
  Nd  Nd12  1  0.486455  0.319031  0.407817  1
  Nd  Nd13  1  0.987191  0.180943  0.094553  1
  Nd  Nd14  1  0.515088  0.688683  0.909748  1
  Nd  Nd15  1  0.016041  0.816813  0.591371  1
  Nd  Nd16  1  0.830946  0.514202  0.750000  1
  Nd  Nd17  1  0.318888  0.986463  0.750000  1
  Nd  Nd18  1  0.175675  0.489365  0.250000  1
  Nd  Nd19  1  0.674973  0.010631  0.250000  1
  Cu  Cu20  1  0.454030  0.401698  0.750000  1
  Rh  Rh21  1  0.678411  0.968431  0.458730  1
  Rh  Rh22  1  0.174157  0.530624  0.042474  1
  Rh  Rh23  1  0.322861  0.032983  0.957808  1
  Rh  Rh24  1  0.820069  0.470241  0.543145  1
  Rh  Rh25  1  0.322861  0.032983  0.542192  1
  Rh  Rh26  1  0.820069  0.470241  0.956855  1
  Rh  Rh27  1  0.678411  0.968431  0.041270  1
  Rh  Rh28  1  0.174157  0.530624  0.457526  1
  Rh  Rh29  1  0.956161  0.102572  0.750000  1
  Rh  Rh30  1  0.540464  0.598713  0.250000  1
  Rh  Rh31  1  0.041838  0.900250  0.250000  1
  Rh  Rh32  1  0.693037  0.853800  0.750000  1
  Rh  Rh33  1  0.214186  0.632205  0.750000  1
  Rh  Rh34  1  0.304166  0.145282  0.250000  1
  Rh  Rh35  1  0.799190  0.355249  0.250000  1
