# generated using pymatgen
data_Dy5InRh2Pb3
_symmetry_space_group_name_H-M   'P 1'
_cell_length_a   3.74020300
_cell_length_b   8.06758622
_cell_length_c   18.23261453
_cell_angle_alpha   90.02726577
_cell_angle_beta   90.00000000
_cell_angle_gamma   90.00000000
_symmetry_Int_Tables_number   1
_chemical_formula_structural   Dy5InRh2Pb3
_chemical_formula_sum   'Dy10 In2 Rh4 Pb6'
_cell_volume   550.15832739
_cell_formula_units_Z   2
loop_
 _symmetry_equiv_pos_site_id
 _symmetry_equiv_pos_as_xyz
  1  'x, y, z'
loop_
 _atom_site_type_symbol
 _atom_site_label
 _atom_site_symmetry_multiplicity
 _atom_site_fract_x
 _atom_site_fract_y
 _atom_site_fract_z
 _atom_site_occupancy
  Dy  Dy0  1  0.500000  0.383284  0.587238  1
  Dy  Dy1  1  0.500000  0.883555  0.911772  1
  Dy  Dy2  1  0.500000  0.116484  0.089307  1
  Dy  Dy3  1  0.500000  0.754186  0.719515  1
  Dy  Dy4  1  0.500000  0.254415  0.780024  1
  Dy  Dy5  1  0.500000  0.501055  0.000889  1
  Dy  Dy6  1  0.500000  0.745754  0.220551  1
  Dy  Dy7  1  0.500000  0.250053  0.279198  1
  Dy  Dy8  1  0.500000  0.001529  0.499139  1
  Dy  Dy9  1  0.500000  0.611773  0.410552  1
  In  In10  1  0.000000  0.295930  0.432459  1
  In  In11  1  0.000000  0.422536  0.152013  1
  Rh  Rh12  1  0.000000  0.972387  0.806028  1
  Rh  Rh13  1  0.000000  0.521982  0.305617  1
  Rh  Rh14  1  0.000000  0.471469  0.694200  1
  Rh  Rh15  1  0.000000  0.027210  0.194363  1
  Pb  Pb16  1  0.000000  0.792033  0.066660  1
  Pb  Pb17  1  0.000000  0.927223  0.350550  1
  Pb  Pb18  1  0.000000  0.079856  0.650667  1
  Pb  Pb19  1  0.000000  0.579545  0.849541  1
  Pb  Pb20  1  0.000000  0.703177  0.565106  1
  Pb  Pb21  1  0.000000  0.204565  0.934612  1
