# generated using pymatgen
data_Er17Tm3Sn7Pb9
_symmetry_space_group_name_H-M   'P 1'
_cell_length_a   8.09292014
_cell_length_b   8.14282808
_cell_length_c   15.45076800
_cell_angle_alpha   90.00000000
_cell_angle_beta   90.00000000
_cell_angle_gamma   90.01858389
_symmetry_Int_Tables_number   1
_chemical_formula_structural   Er17Tm3Sn7Pb9
_chemical_formula_sum   'Er17 Tm3 Sn7 Pb9'
_cell_volume   1018.19408296
_cell_formula_units_Z   1
loop_
 _symmetry_equiv_pos_site_id
 _symmetry_equiv_pos_as_xyz
  1  'x, y, z'
loop_
 _atom_site_type_symbol
 _atom_site_label
 _atom_site_symmetry_multiplicity
 _atom_site_fract_x
 _atom_site_fract_y
 _atom_site_fract_z
 _atom_site_occupancy
  Er  Er0  1  0.380185  0.838492  0.876667  1
  Er  Er1  1  0.880467  0.661069  0.623451  1
  Er  Er2  1  0.619829  0.161164  0.377116  1
  Er  Er3  1  0.119595  0.337424  0.123036  1
  Er  Er4  1  0.619829  0.161164  0.122884  1
  Er  Er5  1  0.119595  0.337424  0.376964  1
  Er  Er6  1  0.380185  0.838492  0.623333  1
  Er  Er7  1  0.880467  0.661069  0.876549  1
  Er  Er8  1  0.537926  0.324887  0.895834  1
  Er  Er9  1  0.038413  0.174564  0.604393  1
  Er  Er10  1  0.464734  0.675112  0.397140  1
  Er  Er11  1  0.959867  0.827098  0.101571  1
  Er  Er12  1  0.464734  0.675112  0.102860  1
  Er  Er13  1  0.959867  0.827098  0.398429  1
  Er  Er14  1  0.537926  0.324887  0.604166  1
  Er  Er15  1  0.038413  0.174564  0.895607  1
  Er  Er16  1  0.291243  0.006581  0.250000  1
  Tm  Tm17  1  0.210990  0.503488  0.750000  1
  Tm  Tm18  1  0.710935  0.996376  0.750000  1
  Tm  Tm19  1  0.787262  0.494783  0.250000  1
  Sn  Sn20  1  0.575644  0.622899  0.750000  1
  Sn  Sn21  1  0.075878  0.876466  0.750000  1
  Sn  Sn22  1  0.424973  0.376287  0.250000  1
  Sn  Sn23  1  0.923972  0.122030  0.250000  1
  Sn  Sn24  1  0.346082  0.149414  0.750000  1
  Sn  Sn25  1  0.846001  0.350769  0.750000  1
  Sn  Sn26  1  0.655130  0.850254  0.250000  1
  Pb  Pb27  1  0.280323  0.031680  0.040929  1
  Pb  Pb28  1  0.781534  0.467433  0.459112  1
  Pb  Pb29  1  0.718458  0.968483  0.542011  1
  Pb  Pb30  1  0.219026  0.531447  0.958749  1
  Pb  Pb31  1  0.718458  0.968483  0.957989  1
  Pb  Pb32  1  0.219026  0.531447  0.541251  1
  Pb  Pb33  1  0.280323  0.031680  0.459071  1
  Pb  Pb34  1  0.781534  0.467433  0.040888  1
  Pb  Pb35  1  0.151179  0.652947  0.250000  1
