# generated using pymatgen
data_Tb4HfPd3F28
_symmetry_space_group_name_H-M   'P 1'
_cell_length_a   5.57233842
_cell_length_b   8.93472547
_cell_length_c   12.03312829
_cell_angle_alpha   62.36994723
_cell_angle_beta   89.95437854
_cell_angle_gamma   89.92776185
_symmetry_Int_Tables_number   1
_chemical_formula_structural   Tb4HfPd3F28
_chemical_formula_sum   'Tb4 Hf1 Pd3 F28'
_cell_volume   530.77593145
_cell_formula_units_Z   1
loop_
 _symmetry_equiv_pos_site_id
 _symmetry_equiv_pos_as_xyz
  1  'x, y, z'
loop_
 _atom_site_type_symbol
 _atom_site_label
 _atom_site_symmetry_multiplicity
 _atom_site_fract_x
 _atom_site_fract_y
 _atom_site_fract_z
 _atom_site_occupancy
  Tb  Tb0  1  0.259503  0.813700  0.261871  1
  Tb  Tb1  1  0.738263  0.182700  0.737962  1
  Tb  Tb2  1  0.761130  0.187369  0.236267  1
  Tb  Tb3  1  0.240649  0.811942  0.768618  1
  Hf  Hf4  1  0.744525  0.725230  0.542915  1
  Pd  Pd5  1  0.758092  0.726206  0.043383  1
  Pd  Pd6  1  0.240820  0.272081  0.957773  1
  Pd  Pd7  1  0.259876  0.273129  0.456953  1
  F  F8  1  0.949926  0.710321  0.412672  1
  F  F9  1  0.066030  0.295371  0.583511  1
  F  F10  1  0.433963  0.294919  0.083607  1
  F  F11  1  0.566376  0.703788  0.916991  1
  F  F12  1  0.467573  0.726827  0.132772  1
  F  F13  1  0.530806  0.272089  0.866921  1
  F  F14  1  0.971039  0.275604  0.364970  1
  F  F15  1  0.032789  0.731632  0.640070  1
  F  F16  1  0.945297  0.742681  0.173949  1
  F  F17  1  0.051234  0.256259  0.826609  1
  F  F18  1  0.446508  0.257875  0.324990  1
  F  F19  1  0.544943  0.747602  0.674167  1
  F  F20  1  0.769747  0.480915  0.140686  1
  F  F21  1  0.229262  0.517678  0.860792  1
  F  F22  1  0.275882  0.518467  0.358058  1
  F  F23  1  0.727022  0.473023  0.641507  1
  F  F24  1  0.944845  0.280406  0.041776  1
  F  F25  1  0.055412  0.717824  0.960474  1
  F  F26  1  0.440429  0.722651  0.453138  1
  F  F27  1  0.555679  0.278644  0.542755  1
  F  F28  1  0.740138  0.976696  0.443015  1
  F  F29  1  0.257148  0.027927  0.550139  1
  F  F30  1  0.242485  0.027180  0.048652  1
  F  F31  1  0.757266  0.971335  0.951331  1
  F  F32  1  0.585997  0.970376  0.231561  1
  F  F33  1  0.411073  0.031153  0.769903  1
  F  F34  1  0.086086  0.030898  0.267089  1
  F  F35  1  0.912184  0.967503  0.732149  1
