# generated using pymatgen
data_Mg6ZnSi5Rh12
_symmetry_space_group_name_H-M   'P 1'
_cell_length_a   4.27696700
_cell_length_b   6.02449900
_cell_length_c   12.88738900
_cell_angle_alpha   90.00021132
_cell_angle_beta   90.00093124
_cell_angle_gamma   89.99970998
_symmetry_Int_Tables_number   1
_chemical_formula_structural   Mg6ZnSi5Rh12
_chemical_formula_sum   'Mg6 Zn1 Si5 Rh12'
_cell_volume   332.06398364
_cell_formula_units_Z   1
loop_
 _symmetry_equiv_pos_site_id
 _symmetry_equiv_pos_as_xyz
  1  'x, y, z'
loop_
 _atom_site_type_symbol
 _atom_site_label
 _atom_site_symmetry_multiplicity
 _atom_site_fract_x
 _atom_site_fract_y
 _atom_site_fract_z
 _atom_site_occupancy
  Mg  Mg0  1  0.999984  0.500106  0.996084  1
  Mg  Mg1  1  0.499864  0.999873  0.168958  1
  Mg  Mg2  1  0.999836  0.500208  0.333339  1
  Mg  Mg3  1  0.499996  0.999873  0.497714  1
  Mg  Mg4  1  0.000145  0.500108  0.670563  1
  Mg  Mg5  1  0.500170  0.999805  0.833344  1
  Zn  Zn6  1  0.500141  0.500038  0.833328  1
  Si  Si7  1  0.000001  0.999923  0.997305  1
  Si  Si8  1  0.499877  0.500081  0.164532  1
  Si  Si9  1  0.999856  0.999939  0.333330  1
  Si  Si10  1  0.500002  0.500083  0.502138  1
  Si  Si11  1  0.000127  0.999923  0.669368  1
  Rh  Rh12  1  0.499974  0.245079  0.006463  1
  Rh  Rh13  1  0.499976  0.754935  0.006483  1
  Rh  Rh14  1  0.999887  0.250766  0.168316  1
  Rh  Rh15  1  0.999889  0.749281  0.168298  1
  Rh  Rh16  1  0.499873  0.251149  0.333332  1
  Rh  Rh17  1  0.499876  0.748836  0.333333  1
  Rh  Rh18  1  0.000007  0.250756  0.498346  1
  Rh  Rh19  1  0.000001  0.749290  0.498367  1
  Rh  Rh20  1  0.500107  0.245079  0.660207  1
  Rh  Rh21  1  0.500116  0.754940  0.660189  1
  Rh  Rh22  1  0.000144  0.239181  0.833330  1
  Rh  Rh23  1  0.000145  0.760742  0.833332  1
