# generated using pymatgen
data_Dy13Y7(Al3Ru)2
_symmetry_space_group_name_H-M   'P 1'
_cell_length_a   9.54686826
_cell_length_b   9.54648703
_cell_length_c   9.61882834
_cell_angle_alpha   90.00000087
_cell_angle_beta   90.02643347
_cell_angle_gamma   119.99868216
_symmetry_Int_Tables_number   1
_chemical_formula_structural   Dy13Y7(Al3Ru)2
_chemical_formula_sum   'Dy13 Y7 Al6 Ru2'
_cell_volume   759.21193657
_cell_formula_units_Z   1
loop_
 _symmetry_equiv_pos_site_id
 _symmetry_equiv_pos_as_xyz
  1  'x, y, z'
loop_
 _atom_site_type_symbol
 _atom_site_label
 _atom_site_symmetry_multiplicity
 _atom_site_fract_x
 _atom_site_fract_y
 _atom_site_fract_z
 _atom_site_occupancy
  Dy  Dy0  1  0.999980  0.999990  0.500056  1
  Dy  Dy1  1  0.000136  0.000068  0.999999  1
  Dy  Dy2  1  0.207122  0.793056  0.439711  1
  Dy  Dy3  1  0.207122  0.414067  0.439711  1
  Dy  Dy4  1  0.585938  0.792969  0.439829  1
  Dy  Dy5  1  0.792923  0.207024  0.560299  1
  Dy  Dy6  1  0.792923  0.585898  0.560299  1
  Dy  Dy7  1  0.414042  0.207021  0.560266  1
  Dy  Dy8  1  0.792991  0.207112  0.939682  1
  Dy  Dy9  1  0.792991  0.585878  0.939682  1
  Dy  Dy10  1  0.414006  0.207003  0.939755  1
  Dy  Dy11  1  0.207085  0.792984  0.060295  1
  Dy  Dy12  1  0.207085  0.414102  0.060295  1
  Y  Y13  1  0.586485  0.793243  0.059779  1
  Y  Y14  1  0.539915  0.459915  0.250077  1
  Y  Y15  1  0.539915  0.079999  0.250077  1
  Y  Y16  1  0.920157  0.460078  0.250045  1
  Y  Y17  1  0.460057  0.539890  0.749867  1
  Y  Y18  1  0.460057  0.920167  0.749867  1
  Y  Y19  1  0.079922  0.539961  0.749972  1
  Al  Al20  1  0.888199  0.111802  0.249950  1
  Al  Al21  1  0.888199  0.776398  0.249950  1
  Al  Al22  1  0.223527  0.111764  0.249946  1
  Al  Al23  1  0.111764  0.888151  0.750058  1
  Al  Al24  1  0.111764  0.223613  0.750058  1
  Al  Al25  1  0.776394  0.888196  0.750074  1
  Ru  Ru26  1  0.332533  0.666267  0.250408  1
  Ru  Ru27  1  0.666771  0.333385  0.749992  1
