# generated using pymatgen
data_Tb2Be2SiO7
_symmetry_space_group_name_H-M   'P 1'
_cell_length_a   7.36435500
_cell_length_b   7.36435500
_cell_length_c   4.80705900
_cell_angle_alpha   90.00000000
_cell_angle_beta   90.00000000
_cell_angle_gamma   90.00000000
_symmetry_Int_Tables_number   1
_chemical_formula_structural   Tb2Be2SiO7
_chemical_formula_sum   'Tb4 Be4 Si2 O14'
_cell_volume   260.70471378
_cell_formula_units_Z   2
loop_
 _symmetry_equiv_pos_site_id
 _symmetry_equiv_pos_as_xyz
  1  'x, y, z'
loop_
 _atom_site_type_symbol
 _atom_site_label
 _atom_site_symmetry_multiplicity
 _atom_site_fract_x
 _atom_site_fract_y
 _atom_site_fract_z
 _atom_site_occupancy
  Tb  Tb0  1  0.159009  0.340991  0.507594  1
  Tb  Tb1  1  0.659009  0.159009  0.492406  1
  Tb  Tb2  1  0.340991  0.840991  0.492406  1
  Tb  Tb3  1  0.840991  0.659009  0.507594  1
  Be  Be4  1  0.136513  0.636513  0.039837  1
  Be  Be5  1  0.636513  0.863487  0.960163  1
  Be  Be6  1  0.363487  0.136513  0.960163  1
  Be  Be7  1  0.863487  0.363487  0.039837  1
  Si  Si8  1  0.500000  0.500000  0.000000  1
  Si  Si9  1  0.000000  0.000000  0.000000  1
  O  O10  1  0.918663  0.162764  0.198678  1
  O  O11  1  0.837236  0.918663  0.801322  1
  O  O12  1  0.162764  0.081337  0.801322  1
  O  O13  1  0.081337  0.837236  0.198678  1
  O  O14  1  0.418663  0.337236  0.801322  1
  O  O15  1  0.581337  0.662764  0.801322  1
  O  O16  1  0.662764  0.418663  0.198678  1
  O  O17  1  0.337236  0.581337  0.198678  1
  O  O18  1  0.641242  0.858758  0.290617  1
  O  O19  1  0.141242  0.641242  0.709383  1
  O  O20  1  0.858758  0.358758  0.709383  1
  O  O21  1  0.358758  0.141242  0.290617  1
  O  O22  1  0.500000  0.000000  0.819800  1
  O  O23  1  0.000000  0.500000  0.180200  1
