# generated using pymatgen
data_Y2PaCo7(NiP3)2
_symmetry_space_group_name_H-M   'P 1'
_cell_length_a   3.74290600
_cell_length_b   10.48987800
_cell_length_c   12.16291200
_cell_angle_alpha   90.00000000
_cell_angle_beta   90.00000000
_cell_angle_gamma   90.00000000
_symmetry_Int_Tables_number   1
_chemical_formula_structural   Y2PaCo7(NiP3)2
_chemical_formula_sum   'Y4 Pa2 Co14 Ni4 P12'
_cell_volume   477.54788081
_cell_formula_units_Z   2
loop_
 _symmetry_equiv_pos_site_id
 _symmetry_equiv_pos_as_xyz
  1  'x, y, z'
loop_
 _atom_site_type_symbol
 _atom_site_label
 _atom_site_symmetry_multiplicity
 _atom_site_fract_x
 _atom_site_fract_y
 _atom_site_fract_z
 _atom_site_occupancy
  Y  Y0  1  0.500000  0.814375  0.205297  1
  Y  Y1  1  0.500000  0.185625  0.205297  1
  Y  Y2  1  0.000000  0.685625  0.794703  1
  Y  Y3  1  0.000000  0.314375  0.794703  1
  Pa  Pa4  1  0.000000  0.500000  0.523300  1
  Pa  Pa5  1  0.500000  0.000000  0.476700  1
  Co  Co6  1  0.000000  0.500000  0.984137  1
  Co  Co7  1  0.500000  0.000000  0.015863  1
  Co  Co8  1  0.500000  0.334559  0.994687  1
  Co  Co9  1  0.500000  0.665441  0.994687  1
  Co  Co10  1  0.000000  0.165441  0.005313  1
  Co  Co11  1  0.000000  0.834559  0.005313  1
  Co  Co12  1  0.500000  0.302322  0.432496  1
  Co  Co13  1  0.500000  0.697678  0.432496  1
  Co  Co14  1  0.000000  0.197678  0.567504  1
  Co  Co15  1  0.000000  0.802322  0.567504  1
  Co  Co16  1  0.500000  0.878457  0.709834  1
  Co  Co17  1  0.500000  0.121543  0.709834  1
  Co  Co18  1  0.000000  0.621543  0.290166  1
  Co  Co19  1  0.000000  0.378457  0.290166  1
  Ni  Ni20  1  0.500000  0.500000  0.158569  1
  Ni  Ni21  1  0.000000  0.000000  0.841431  1
  Ni  Ni22  1  0.500000  0.500000  0.698066  1
  Ni  Ni23  1  0.000000  0.000000  0.301934  1
  P  P24  1  0.500000  0.500000  0.880227  1
  P  P25  1  0.000000  0.000000  0.119773  1
  P  P26  1  0.500000  0.500000  0.341268  1
  P  P27  1  0.000000  0.000000  0.658732  1
  P  P28  1  0.500000  0.307587  0.616646  1
  P  P29  1  0.500000  0.692413  0.616646  1
  P  P30  1  0.000000  0.192413  0.383354  1
  P  P31  1  0.000000  0.807587  0.383354  1
  P  P32  1  0.500000  0.846759  0.895567  1
  P  P33  1  0.500000  0.153241  0.895567  1
  P  P34  1  0.000000  0.653241  0.104433  1
  P  P35  1  0.000000  0.346759  0.104433  1
