# generated using pymatgen
data_Nd3YEr2CoBr10
_symmetry_space_group_name_H-M   'P 1'
_cell_length_a   7.45135176
_cell_length_b   9.23622652
_cell_length_c   9.34884404
_cell_angle_alpha   106.95777547
_cell_angle_beta   96.40495719
_cell_angle_gamma   106.36483526
_symmetry_Int_Tables_number   1
_chemical_formula_structural   Nd3YEr2CoBr10
_chemical_formula_sum   'Nd3 Y1 Er2 Co1 Br10'
_cell_volume   577.19499090
_cell_formula_units_Z   1
loop_
 _symmetry_equiv_pos_site_id
 _symmetry_equiv_pos_as_xyz
  1  'x, y, z'
loop_
 _atom_site_type_symbol
 _atom_site_label
 _atom_site_symmetry_multiplicity
 _atom_site_fract_x
 _atom_site_fract_y
 _atom_site_fract_z
 _atom_site_occupancy
  Nd  Nd0  1  0.372224  0.448199  0.734342  1
  Nd  Nd1  1  0.622706  0.548960  0.263970  1
  Nd  Nd2  1  0.862349  0.639305  0.679895  1
  Y  Y3  1  0.145480  0.365764  0.326293  1
  Er  Er4  1  0.468194  0.791756  0.587447  1
  Er  Er5  1  0.527962  0.206987  0.409754  1
  Co  Co6  1  0.499781  0.499696  0.500484  1
  Br  Br7  1  0.414671  0.118662  0.663296  1
  Br  Br8  1  0.580274  0.878593  0.332558  1
  Br  Br9  1  0.055689  0.678403  0.412497  1
  Br  Br10  1  0.946964  0.314809  0.578355  1
  Br  Br11  1  0.298206  0.763979  0.841600  1
  Br  Br12  1  0.720953  0.241324  0.166405  1
  Br  Br13  1  0.242932  0.415018  0.050480  1
  Br  Br14  1  0.747675  0.578915  0.954968  1
  Br  Br15  1  0.835570  0.960101  0.766930  1
  Br  Br16  1  0.158369  0.049528  0.230725  1
