# generated using pymatgen
data_Hf9CrCoRe3
_symmetry_space_group_name_H-M   'P 1'
_cell_length_a   8.57038400
_cell_length_b   8.57038327
_cell_length_c   8.37218200
_cell_angle_alpha   90.00000000
_cell_angle_beta   90.00000000
_cell_angle_gamma   119.99999509
_symmetry_Int_Tables_number   1
_chemical_formula_structural   Hf9CrCoRe3
_chemical_formula_sum   'Hf18 Cr2 Co2 Re6'
_cell_volume   532.56158837
_cell_formula_units_Z   2
loop_
 _symmetry_equiv_pos_site_id
 _symmetry_equiv_pos_as_xyz
  1  'x, y, z'
loop_
 _atom_site_type_symbol
 _atom_site_label
 _atom_site_symmetry_multiplicity
 _atom_site_fract_x
 _atom_site_fract_y
 _atom_site_fract_z
 _atom_site_occupancy
  Hf  Hf0  1  0.198615  0.801385  0.442040  1
  Hf  Hf1  1  0.198615  0.397231  0.442040  1
  Hf  Hf2  1  0.602769  0.801385  0.442040  1
  Hf  Hf3  1  0.801385  0.198615  0.557960  1
  Hf  Hf4  1  0.801385  0.602769  0.557960  1
  Hf  Hf5  1  0.397231  0.198615  0.557960  1
  Hf  Hf6  1  0.801385  0.198615  0.942040  1
  Hf  Hf7  1  0.801385  0.602769  0.942040  1
  Hf  Hf8  1  0.397231  0.198615  0.942040  1
  Hf  Hf9  1  0.198615  0.801385  0.057960  1
  Hf  Hf10  1  0.198615  0.397231  0.057960  1
  Hf  Hf11  1  0.602769  0.801385  0.057960  1
  Hf  Hf12  1  0.541518  0.458482  0.250000  1
  Hf  Hf13  1  0.541518  0.083037  0.250000  1
  Hf  Hf14  1  0.916963  0.458482  0.250000  1
  Hf  Hf15  1  0.458482  0.541518  0.750000  1
  Hf  Hf16  1  0.458482  0.916963  0.750000  1
  Hf  Hf17  1  0.083037  0.541518  0.750000  1
  Cr  Cr18  1  0.000000  0.000000  0.500000  1
  Cr  Cr19  1  0.000000  0.000000  0.000000  1
  Co  Co20  1  0.333333  0.666667  0.250000  1
  Co  Co21  1  0.666667  0.333333  0.750000  1
  Re  Re22  1  0.891221  0.108779  0.250000  1
  Re  Re23  1  0.891221  0.782443  0.250000  1
  Re  Re24  1  0.217557  0.108779  0.250000  1
  Re  Re25  1  0.108779  0.891221  0.750000  1
  Re  Re26  1  0.108779  0.217557  0.750000  1
  Re  Re27  1  0.782443  0.891221  0.750000  1
