# generated using pymatgen
data_Sc2Mn7FeSi4
_symmetry_space_group_name_H-M   'P 1'
_cell_length_a   7.18532996
_cell_length_b   6.51612270
_cell_length_c   3.88246300
_cell_angle_alpha   90.00000000
_cell_angle_beta   90.00000000
_cell_angle_gamma   90.51037203
_symmetry_Int_Tables_number   1
_chemical_formula_structural   Sc2Mn7FeSi4
_chemical_formula_sum   'Sc2 Mn7 Fe1 Si4'
_cell_volume   181.77161491
_cell_formula_units_Z   1
loop_
 _symmetry_equiv_pos_site_id
 _symmetry_equiv_pos_as_xyz
  1  'x, y, z'
loop_
 _atom_site_type_symbol
 _atom_site_label
 _atom_site_symmetry_multiplicity
 _atom_site_fract_x
 _atom_site_fract_y
 _atom_site_fract_z
 _atom_site_occupancy
  Sc  Sc0  1  0.500608  0.502693  0.000000  1
  Sc  Sc1  1  0.001635  0.998526  0.500000  1
  Mn  Mn2  1  0.611685  0.148938  0.500000  1
  Mn  Mn3  1  0.384844  0.859632  0.500000  1
  Mn  Mn4  1  0.114948  0.353382  0.000000  1
  Mn  Mn5  1  0.889098  0.635637  0.000000  1
  Mn  Mn6  1  0.153314  0.576589  0.500000  1
  Mn  Mn7  1  0.847085  0.423441  0.500000  1
  Mn  Mn8  1  0.347696  0.078355  0.000000  1
  Fe  Fe9  1  0.649908  0.920831  0.000000  1
  Si  Si10  1  0.691294  0.737319  0.500000  1
  Si  Si11  1  0.307662  0.270141  0.500000  1
  Si  Si12  1  0.193039  0.767439  0.000000  1
  Si  Si13  1  0.807184  0.227077  0.000000  1
