# generated using pymatgen
data_Nd8Zn5Ga3Rh8
_symmetry_space_group_name_H-M   'P 1'
_cell_length_a   7.38571230
_cell_length_b   4.01919900
_cell_length_c   16.48117396
_cell_angle_alpha   90.00000000
_cell_angle_beta   89.87517149
_cell_angle_gamma   90.00000000
_symmetry_Int_Tables_number   1
_chemical_formula_structural   Nd8Zn5Ga3Rh8
_chemical_formula_sum   'Nd8 Zn5 Ga3 Rh8'
_cell_volume   489.23667823
_cell_formula_units_Z   1
loop_
 _symmetry_equiv_pos_site_id
 _symmetry_equiv_pos_as_xyz
  1  'x, y, z'
loop_
 _atom_site_type_symbol
 _atom_site_label
 _atom_site_symmetry_multiplicity
 _atom_site_fract_x
 _atom_site_fract_y
 _atom_site_fract_z
 _atom_site_occupancy
  Nd  Nd0  1  0.046704  0.249999  0.283427  1
  Nd  Nd1  1  0.454354  0.750000  0.783300  1
  Nd  Nd2  1  0.548407  0.249999  0.215923  1
  Nd  Nd3  1  0.954020  0.750000  0.716760  1
  Nd  Nd4  1  0.169266  0.249999  0.060786  1
  Nd  Nd5  1  0.328589  0.750000  0.559685  1
  Nd  Nd6  1  0.671286  0.249999  0.440297  1
  Nd  Nd7  1  0.828852  0.750000  0.940373  1
  Zn  Zn8  1  0.878246  0.750000  0.150964  1
  Zn  Zn9  1  0.000991  0.249999  0.560244  1
  Zn  Zn10  1  0.499880  0.750000  0.060388  1
  Zn  Zn11  1  0.499289  0.249999  0.939796  1
  Zn  Zn12  1  0.999483  0.750000  0.440001  1
  Ga  Ga13  1  0.121074  0.249999  0.849049  1
  Ga  Ga14  1  0.380375  0.750000  0.348719  1
  Ga  Ga15  1  0.619536  0.249999  0.650793  1
  Rh  Rh16  1  0.248587  0.249999  0.430464  1
  Rh  Rh17  1  0.250525  0.750000  0.931122  1
  Rh  Rh18  1  0.745427  0.249999  0.065580  1
  Rh  Rh19  1  0.751331  0.750000  0.569506  1
  Rh  Rh20  1  0.251631  0.249999  0.686839  1
  Rh  Rh21  1  0.254405  0.750000  0.187877  1
  Rh  Rh22  1  0.750422  0.249999  0.812662  1
  Rh  Rh23  1  0.747318  0.750000  0.315439  1
