# generated using pymatgen
data_Y2HfScPt2
_symmetry_space_group_name_H-M   'P 1'
_cell_length_a   4.68348700
_cell_length_b   7.04647200
_cell_length_c   8.28903900
_cell_angle_alpha   90.00000000
_cell_angle_beta   90.00000000
_cell_angle_gamma   90.00000000
_symmetry_Int_Tables_number   1
_chemical_formula_structural   Y2HfScPt2
_chemical_formula_sum   'Y4 Hf2 Sc2 Pt4'
_cell_volume   273.55536249
_cell_formula_units_Z   2
loop_
 _symmetry_equiv_pos_site_id
 _symmetry_equiv_pos_as_xyz
  1  'x, y, z'
loop_
 _atom_site_type_symbol
 _atom_site_label
 _atom_site_symmetry_multiplicity
 _atom_site_fract_x
 _atom_site_fract_y
 _atom_site_fract_z
 _atom_site_occupancy
  Y  Y0  1  0.250000  0.980358  0.326081  1
  Y  Y1  1  0.250000  0.480358  0.173919  1
  Y  Y2  1  0.750000  0.017433  0.680118  1
  Y  Y3  1  0.750000  0.517433  0.819882  1
  Hf  Hf4  1  0.250000  0.859932  0.928704  1
  Hf  Hf5  1  0.250000  0.359932  0.571296  1
  Sc  Sc6  1  0.750000  0.143921  0.078418  1
  Sc  Sc7  1  0.750000  0.643921  0.421582  1
  Pt  Pt8  1  0.250000  0.233450  0.894799  1
  Pt  Pt9  1  0.250000  0.733450  0.605201  1
  Pt  Pt10  1  0.750000  0.764906  0.091029  1
  Pt  Pt11  1  0.750000  0.264906  0.408971  1
