# generated using pymatgen
data_K6FeTe4Cl
_symmetry_space_group_name_H-M   'P 1'
_cell_length_a   11.21899500
_cell_length_b   11.21899553
_cell_length_c   8.20151000
_cell_angle_alpha   90.00000000
_cell_angle_beta   90.00000000
_cell_angle_gamma   120.00000138
_symmetry_Int_Tables_number   1
_chemical_formula_structural   K6FeTe4Cl
_chemical_formula_sum   'K12 Fe2 Te8 Cl2'
_cell_volume   893.98940929
_cell_formula_units_Z   2
loop_
 _symmetry_equiv_pos_site_id
 _symmetry_equiv_pos_as_xyz
  1  'x, y, z'
loop_
 _atom_site_type_symbol
 _atom_site_label
 _atom_site_symmetry_multiplicity
 _atom_site_fract_x
 _atom_site_fract_y
 _atom_site_fract_z
 _atom_site_occupancy
  K  K0  1  0.124955  0.875045  0.514633  1
  K  K1  1  0.750089  0.875045  0.514633  1
  K  K2  1  0.955886  0.477943  0.318841  1
  K  K3  1  0.522057  0.477943  0.318841  1
  K  K4  1  0.875045  0.750089  0.014633  1
  K  K5  1  0.249911  0.124955  0.014633  1
  K  K6  1  0.522057  0.044114  0.318841  1
  K  K7  1  0.124955  0.249911  0.514633  1
  K  K8  1  0.875045  0.124955  0.014633  1
  K  K9  1  0.044114  0.522057  0.818841  1
  K  K10  1  0.477943  0.955886  0.818841  1
  K  K11  1  0.477943  0.522057  0.818841  1
  Fe  Fe12  1  0.666667  0.333333  0.709688  1
  Fe  Fe13  1  0.333333  0.666667  0.209688  1
  Te  Te14  1  0.410953  0.205477  0.607651  1
  Te  Te15  1  0.589047  0.794523  0.107651  1
  Te  Te16  1  0.666667  0.333333  0.032070  1
  Te  Te17  1  0.794523  0.589047  0.607651  1
  Te  Te18  1  0.205477  0.410953  0.107651  1
  Te  Te19  1  0.333333  0.666667  0.532070  1
  Te  Te20  1  0.205477  0.794523  0.107651  1
  Te  Te21  1  0.794523  0.205477  0.607651  1
  Cl  Cl22  1  0.000000  0.000000  0.275471  1
  Cl  Cl23  1  0.000000  0.000000  0.775471  1
