# generated using pymatgen
data_YScPa2(Al3Rh)6
_symmetry_space_group_name_H-M   'P 1'
_cell_length_a   7.57996527
_cell_length_b   7.59007284
_cell_length_c   9.35189400
_cell_angle_alpha   89.99997039
_cell_angle_beta   89.99995284
_cell_angle_gamma   119.66600129
_symmetry_Int_Tables_number   1
_chemical_formula_structural   YScPa2(Al3Rh)6
_chemical_formula_sum   'Y1 Sc1 Pa2 Al18 Rh6'
_cell_volume   467.51463296
_cell_formula_units_Z   1
loop_
 _symmetry_equiv_pos_site_id
 _symmetry_equiv_pos_as_xyz
  1  'x, y, z'
loop_
 _atom_site_type_symbol
 _atom_site_label
 _atom_site_symmetry_multiplicity
 _atom_site_fract_x
 _atom_site_fract_y
 _atom_site_fract_z
 _atom_site_occupancy
  Y  Y0  1  0.330453  0.006801  0.749999  1
  Sc  Sc1  1  0.670545  0.993243  0.250000  1
  Pa  Pa2  1  0.997206  0.671177  0.249995  1
  Pa  Pa3  1  0.002838  0.328997  0.749998  1
  Al  Al4  1  0.126809  0.124706  0.250000  1
  Al  Al5  1  0.868560  0.873395  0.750001  1
  Al  Al6  1  0.996247  0.328164  0.080609  1
  Al  Al7  1  0.999292  0.667833  0.922876  1
  Al  Al8  1  0.999289  0.667829  0.577124  1
  Al  Al9  1  0.341733  0.002561  0.421700  1
  Al  Al10  1  0.996244  0.328164  0.419393  1
  Al  Al11  1  0.662576  0.997500  0.570702  1
  Al  Al12  1  0.662578  0.997502  0.929299  1
  Al  Al13  1  0.341734  0.002563  0.078301  1
  Al  Al14  1  0.334824  0.333382  0.550964  1
  Al  Al15  1  0.665341  0.669754  0.444280  1
  Al  Al16  1  0.665341  0.669755  0.055721  1
  Al  Al17  1  0.334825  0.333385  0.949037  1
  Al  Al18  1  0.342981  0.553426  0.250000  1
  Al  Al19  1  0.659590  0.451682  0.750001  1
  Al  Al20  1  0.551017  0.340342  0.250001  1
  Al  Al21  1  0.451155  0.659002  0.750001  1
  Rh  Rh22  1  0.675338  0.329480  0.000114  1
  Rh  Rh23  1  0.324394  0.670369  0.000711  1
  Rh  Rh24  1  0.324378  0.670357  0.499283  1
  Rh  Rh25  1  0.675329  0.329474  0.499891  1
  Rh  Rh26  1  0.999692  0.999579  0.000639  1
  Rh  Rh27  1  0.999690  0.999582  0.499361  1
