# generated using pymatgen
data_Tb3Tm5Cd2RuPt
_symmetry_space_group_name_H-M   'P 1'
_cell_length_a   9.58332651
_cell_length_b   9.58332470
_cell_length_c   9.61863800
_cell_angle_alpha   59.87803047
_cell_angle_beta   59.87803673
_cell_angle_gamma   59.82695514
_symmetry_Int_Tables_number   1
_chemical_formula_structural   Tb3Tm5Cd2RuPt
_chemical_formula_sum   'Tb6 Tm10 Cd4 Ru2 Pt2'
_cell_volume   622.67135497
_cell_formula_units_Z   2
loop_
 _symmetry_equiv_pos_site_id
 _symmetry_equiv_pos_as_xyz
  1  'x, y, z'
loop_
 _atom_site_type_symbol
 _atom_site_label
 _atom_site_symmetry_multiplicity
 _atom_site_fract_x
 _atom_site_fract_y
 _atom_site_fract_z
 _atom_site_occupancy
  Tb  Tb0  1  0.938532  0.558179  0.564837  1
  Tb  Tb1  1  0.558179  0.938532  0.938452  1
  Tb  Tb2  1  0.558179  0.938532  0.564837  1
  Tb  Tb3  1  0.938532  0.558179  0.938452  1
  Tb  Tb4  1  0.562601  0.562601  0.937399  1
  Tb  Tb5  1  0.939580  0.939580  0.560420  1
  Tm  Tm6  1  0.348819  0.348819  0.351731  1
  Tm  Tm7  1  0.348819  0.348819  0.950632  1
  Tm  Tm8  1  0.346077  0.955183  0.349371  1
  Tm  Tm9  1  0.955183  0.346077  0.349371  1
  Tm  Tm10  1  0.816328  0.186775  0.188588  1
  Tm  Tm11  1  0.186775  0.816328  0.808309  1
  Tm  Tm12  1  0.186775  0.816328  0.188588  1
  Tm  Tm13  1  0.816328  0.186775  0.808309  1
  Tm  Tm14  1  0.186773  0.186773  0.813227  1
  Tm  Tm15  1  0.809999  0.809999  0.190001  1
  Cd  Cd16  1  0.579714  0.579714  0.581046  1
  Cd  Cd17  1  0.579714  0.579714  0.259526  1
  Cd  Cd18  1  0.580611  0.256849  0.581270  1
  Cd  Cd19  1  0.256849  0.580611  0.581270  1
  Ru  Ru20  1  0.143802  0.143802  0.139082  1
  Ru  Ru21  1  0.143802  0.143802  0.573315  1
  Pt  Pt22  1  0.143571  0.574461  0.140985  1
  Pt  Pt23  1  0.574461  0.143571  0.140985  1
