# generated using pymatgen
data_Y2ErPa(Ga3Ir)6
_symmetry_space_group_name_H-M   'P 1'
_cell_length_a   7.60996652
_cell_length_b   7.60246149
_cell_length_c   9.42428500
_cell_angle_alpha   90.00000000
_cell_angle_beta   90.00000000
_cell_angle_gamma   119.84569683
_symmetry_Int_Tables_number   1
_chemical_formula_structural   Y2ErPa(Ga3Ir)6
_chemical_formula_sum   'Y2 Er1 Pa1 Ga18 Ir6'
_cell_volume   472.92164117
_cell_formula_units_Z   1
loop_
 _symmetry_equiv_pos_site_id
 _symmetry_equiv_pos_as_xyz
  1  'x, y, z'
loop_
 _atom_site_type_symbol
 _atom_site_label
 _atom_site_symmetry_multiplicity
 _atom_site_fract_x
 _atom_site_fract_y
 _atom_site_fract_z
 _atom_site_occupancy
  Y  Y0  1  0.003480  0.330929  0.750000  1
  Y  Y1  1  0.330234  0.002413  0.750000  1
  Er  Er2  1  0.671003  0.996571  0.250000  1
  Pa  Pa3  1  0.997720  0.670124  0.250000  1
  Ga  Ga4  1  0.132114  0.131426  0.250000  1
  Ga  Ga5  1  0.871516  0.873414  0.750000  1
  Ga  Ga6  1  0.998648  0.330469  0.080853  1
  Ga  Ga7  1  0.000624  0.665245  0.916680  1
  Ga  Ga8  1  0.000624  0.665245  0.583320  1
  Ga  Ga9  1  0.339590  0.002888  0.418860  1
  Ga  Ga10  1  0.998648  0.330469  0.419147  1
  Ga  Ga11  1  0.665622  0.001531  0.580211  1
  Ga  Ga12  1  0.665622  0.001531  0.919789  1
  Ga  Ga13  1  0.339590  0.002888  0.081140  1
  Ga  Ga14  1  0.331294  0.331126  0.568138  1
  Ga  Ga15  1  0.663408  0.667509  0.433527  1
  Ga  Ga16  1  0.663408  0.667509  0.066473  1
  Ga  Ga17  1  0.331294  0.331126  0.931862  1
  Ga  Ga18  1  0.339034  0.545312  0.250000  1
  Ga  Ga19  1  0.660237  0.452527  0.750000  1
  Ga  Ga20  1  0.544670  0.340751  0.250000  1
  Ga  Ga21  1  0.452969  0.662162  0.750000  1
  Ir  Ir22  1  0.674185  0.331565  0.002434  1
  Ir  Ir23  1  0.325984  0.671180  0.002328  1
  Ir  Ir24  1  0.325984  0.671180  0.497672  1
  Ir  Ir25  1  0.674185  0.331565  0.497566  1
  Ir  Ir26  1  0.999153  0.995674  0.003316  1
  Ir  Ir27  1  0.999153  0.995674  0.496684  1
