# generated using pymatgen
data_Sc6Sn6Pd5Pt
_symmetry_space_group_name_H-M   'P 1'
_cell_length_a   7.55521400
_cell_length_b   7.55521378
_cell_length_c   7.21211700
_cell_angle_alpha   90.00000000
_cell_angle_beta   90.00000000
_cell_angle_gamma   120.00000097
_symmetry_Int_Tables_number   1
_chemical_formula_structural   Sc6Sn6Pd5Pt
_chemical_formula_sum   'Sc6 Sn6 Pd5 Pt1'
_cell_volume   356.52247981
_cell_formula_units_Z   1
loop_
 _symmetry_equiv_pos_site_id
 _symmetry_equiv_pos_as_xyz
  1  'x, y, z'
loop_
 _atom_site_type_symbol
 _atom_site_label
 _atom_site_symmetry_multiplicity
 _atom_site_fract_x
 _atom_site_fract_y
 _atom_site_fract_z
 _atom_site_occupancy
  Sc  Sc0  1  0.398514  0.011759  0.249346  1
  Sc  Sc1  1  0.613245  0.601486  0.249346  1
  Sc  Sc2  1  0.988241  0.386755  0.249346  1
  Sc  Sc3  1  0.384530  0.982456  0.751188  1
  Sc  Sc4  1  0.597926  0.615470  0.751188  1
  Sc  Sc5  1  0.017544  0.402074  0.751188  1
  Sn  Sn6  1  0.726419  0.001941  0.000306  1
  Sn  Sn7  1  0.275269  0.275057  0.500220  1
  Sn  Sn8  1  0.999788  0.724731  0.500220  1
  Sn  Sn9  1  0.998059  0.724478  0.000306  1
  Sn  Sn10  1  0.275522  0.273581  0.000306  1
  Sn  Sn11  1  0.724943  0.000212  0.500220  1
  Pd  Pd12  1  0.333333  0.666667  0.466019  1
  Pd  Pd13  1  0.666667  0.333333  0.970817  1
  Pd  Pd14  1  0.666667  0.333333  0.529495  1
  Pd  Pd15  1  0.000000  0.000000  0.249552  1
  Pd  Pd16  1  0.000000  0.000000  0.750932  1
  Pt  Pt17  1  0.333333  0.666667  0.030009  1
