# generated using pymatgen
data_Hf18Re8PtS
_symmetry_space_group_name_H-M   'P 1'
_cell_length_a   8.64397500
_cell_length_b   8.64397530
_cell_length_c   8.55982600
_cell_angle_alpha   90.00000000
_cell_angle_beta   90.00000000
_cell_angle_gamma   120.00000267
_symmetry_Int_Tables_number   1
_chemical_formula_structural   Hf18Re8PtS
_chemical_formula_sum   'Hf18 Re8 Pt1 S1'
_cell_volume   553.88879059
_cell_formula_units_Z   1
loop_
 _symmetry_equiv_pos_site_id
 _symmetry_equiv_pos_as_xyz
  1  'x, y, z'
loop_
 _atom_site_type_symbol
 _atom_site_label
 _atom_site_symmetry_multiplicity
 _atom_site_fract_x
 _atom_site_fract_y
 _atom_site_fract_z
 _atom_site_occupancy
  Hf  Hf0  1  0.195536  0.804464  0.448243  1
  Hf  Hf1  1  0.195536  0.391073  0.448243  1
  Hf  Hf2  1  0.608927  0.804464  0.448243  1
  Hf  Hf3  1  0.807181  0.192819  0.553232  1
  Hf  Hf4  1  0.807181  0.614362  0.553232  1
  Hf  Hf5  1  0.385638  0.192819  0.553232  1
  Hf  Hf6  1  0.807181  0.192819  0.946768  1
  Hf  Hf7  1  0.807181  0.614362  0.946768  1
  Hf  Hf8  1  0.385638  0.192819  0.946768  1
  Hf  Hf9  1  0.195536  0.804464  0.051757  1
  Hf  Hf10  1  0.195536  0.391073  0.051757  1
  Hf  Hf11  1  0.608927  0.804464  0.051757  1
  Hf  Hf12  1  0.544342  0.455658  0.250000  1
  Hf  Hf13  1  0.544342  0.088685  0.250000  1
  Hf  Hf14  1  0.911315  0.455658  0.250000  1
  Hf  Hf15  1  0.457512  0.542488  0.750000  1
  Hf  Hf16  1  0.457512  0.915023  0.750000  1
  Hf  Hf17  1  0.084977  0.542488  0.750000  1
  Re  Re18  1  0.890116  0.109884  0.250000  1
  Re  Re19  1  0.890116  0.780231  0.250000  1
  Re  Re20  1  0.219769  0.109884  0.250000  1
  Re  Re21  1  0.111226  0.888774  0.750000  1
  Re  Re22  1  0.111226  0.222453  0.750000  1
  Re  Re23  1  0.777547  0.888774  0.750000  1
  Re  Re24  1  0.000000  0.000000  0.501000  1
  Re  Re25  1  0.000000  0.000000  0.999000  1
  Pt  Pt26  1  0.666667  0.333333  0.750000  1
  S  S27  1  0.333333  0.666667  0.250000  1
