# generated using pymatgen
data_K4In3PI16
_symmetry_space_group_name_H-M   'P 1'
_cell_length_a   8.35355870
_cell_length_b   8.62047425
_cell_length_c   16.93715484
_cell_angle_alpha   85.06423201
_cell_angle_beta   89.87425898
_cell_angle_gamma   89.99653035
_symmetry_Int_Tables_number   1
_chemical_formula_structural   K4In3PI16
_chemical_formula_sum   'K4 In3 P1 I16'
_cell_volume   1215.14650570
_cell_formula_units_Z   1
loop_
 _symmetry_equiv_pos_site_id
 _symmetry_equiv_pos_as_xyz
  1  'x, y, z'
loop_
 _atom_site_type_symbol
 _atom_site_label
 _atom_site_symmetry_multiplicity
 _atom_site_fract_x
 _atom_site_fract_y
 _atom_site_fract_z
 _atom_site_occupancy
  K  K0  1  0.501305  0.256369  0.639442  1
  K  K1  1  0.002324  0.743162  0.861035  1
  K  K2  1  0.498225  0.743607  0.361338  1
  K  K3  1  0.998695  0.255812  0.138154  1
  In  In4  1  0.358519  0.243455  0.361190  1
  In  In5  1  0.858639  0.756602  0.138794  1
  In  In6  1  0.641591  0.756889  0.638761  1
  P  P7  1  0.140669  0.244802  0.860932  1
  I  I8  1  0.858096  0.133503  0.909347  1
  I  I9  1  0.347070  0.871791  0.589345  1
  I  I10  1  0.152806  0.870589  0.088319  1
  I  I11  1  0.652506  0.127987  0.411237  1
  I  I12  1  0.387142  0.424619  0.218615  1
  I  I13  1  0.887240  0.575210  0.280849  1
  I  I14  1  0.611697  0.575900  0.780918  1
  I  I15  1  0.112630  0.417416  0.723900  1
  I  I16  1  0.648979  0.996314  0.161667  1
  I  I17  1  0.148989  0.004031  0.338021  1
  I  I18  1  0.344414  0.014287  0.839087  1
  I  I19  1  0.850742  0.996096  0.662114  1
  I  I20  1  0.244859  0.431835  0.473293  1
  I  I21  1  0.745011  0.568247  0.027207  1
  I  I22  1  0.755233  0.567658  0.527451  1
  I  I23  1  0.252618  0.423820  0.968985  1
