# generated using pymatgen
data_TbYCo3P7Ru9
_symmetry_space_group_name_H-M   'P 1'
_cell_length_a   9.33079900
_cell_length_b   9.33079927
_cell_length_c   3.83392800
_cell_angle_alpha   90.00000000
_cell_angle_beta   90.00000000
_cell_angle_gamma   120.00000257
_symmetry_Int_Tables_number   1
_chemical_formula_structural   TbYCo3P7Ru9
_chemical_formula_sum   'Tb1 Y1 Co3 P7 Ru9'
_cell_volume   289.07614480
_cell_formula_units_Z   1
loop_
 _symmetry_equiv_pos_site_id
 _symmetry_equiv_pos_as_xyz
  1  'x, y, z'
loop_
 _atom_site_type_symbol
 _atom_site_label
 _atom_site_symmetry_multiplicity
 _atom_site_fract_x
 _atom_site_fract_y
 _atom_site_fract_z
 _atom_site_occupancy
  Tb  Tb0  1  0.333333  0.666667  0.500000  1
  Y  Y1  1  0.000000  0.000000  0.000000  1
  Co  Co2  1  0.824435  0.602041  0.000000  1
  Co  Co3  1  0.397959  0.222394  0.000000  1
  Co  Co4  1  0.777606  0.175565  0.000000  1
  P  P5  1  0.781606  0.734270  0.500000  1
  P  P6  1  0.265730  0.047337  0.500000  1
  P  P7  1  0.952663  0.218394  0.500000  1
  P  P8  1  0.666667  0.333333  0.000000  1
  P  P9  1  0.077509  0.634594  0.000000  1
  P  P10  1  0.365406  0.442915  0.000000  1
  P  P11  1  0.557085  0.922491  0.000000  1
  Ru  Ru12  1  0.091721  0.394270  0.000000  1
  Ru  Ru13  1  0.605730  0.697451  0.000000  1
  Ru  Ru14  1  0.302549  0.908279  0.000000  1
  Ru  Ru15  1  0.048672  0.767912  0.500000  1
  Ru  Ru16  1  0.232088  0.280759  0.500000  1
  Ru  Ru17  1  0.719241  0.951328  0.500000  1
  Ru  Ru18  1  0.872621  0.418327  0.500000  1
  Ru  Ru19  1  0.581673  0.454293  0.500000  1
  Ru  Ru20  1  0.545707  0.127379  0.500000  1
