# generated using pymatgen
data_Tb2PaIn3IrRh2
_symmetry_space_group_name_H-M   'P 1'
_cell_length_a   7.62936070
_cell_length_b   7.85631444
_cell_length_c   3.80231500
_cell_angle_alpha   90.00000000
_cell_angle_beta   90.00000000
_cell_angle_gamma   121.26161286
_symmetry_Int_Tables_number   1
_chemical_formula_structural   Tb2PaIn3IrRh2
_chemical_formula_sum   'Tb2 Pa1 In3 Ir1 Rh2'
_cell_volume   194.81528083
_cell_formula_units_Z   1
loop_
 _symmetry_equiv_pos_site_id
 _symmetry_equiv_pos_as_xyz
  1  'x, y, z'
loop_
 _atom_site_type_symbol
 _atom_site_label
 _atom_site_symmetry_multiplicity
 _atom_site_fract_x
 _atom_site_fract_y
 _atom_site_fract_z
 _atom_site_occupancy
  Tb  Tb0  1  0.402410  0.409696  0.500000  1
  Tb  Tb1  1  0.592990  0.996000  0.500000  1
  Pa  Pa2  1  0.999061  0.581195  0.500000  1
  In  In3  1  0.731757  0.741675  0.000000  1
  In  In4  1  0.998300  0.241587  0.000000  1
  In  In5  1  0.269805  0.012155  0.000000  1
  Ir  Ir6  1  0.299278  0.662547  0.000000  1
  Rh  Rh7  1  0.000749  0.987912  0.500000  1
  Rh  Rh8  1  0.705650  0.367233  0.000000  1
