# generated using pymatgen
data_Ba2Ca2Bi2S
_symmetry_space_group_name_H-M   'P 1'
_cell_length_a   5.20984386
_cell_length_b   5.20959671
_cell_length_c   10.10856500
_cell_angle_alpha   104.93907204
_cell_angle_beta   104.94106724
_cell_angle_gamma   89.99674599
_symmetry_Int_Tables_number   1
_chemical_formula_structural   Ba2Ca2Bi2S
_chemical_formula_sum   'Ba2 Ca2 Bi2 S1'
_cell_volume   255.47426724
_cell_formula_units_Z   1
loop_
 _symmetry_equiv_pos_site_id
 _symmetry_equiv_pos_as_xyz
  1  'x, y, z'
loop_
 _atom_site_type_symbol
 _atom_site_label
 _atom_site_symmetry_multiplicity
 _atom_site_fract_x
 _atom_site_fract_y
 _atom_site_fract_z
 _atom_site_occupancy
  Ba  Ba0  1  0.171071  0.171059  0.342013  1
  Ba  Ba1  1  0.828925  0.828940  0.657987  1
  Ca  Ca2  1  0.499982  0.000003  0.000001  1
  Ca  Ca3  1  0.000002  0.499989  0.000000  1
  Bi  Bi4  1  0.627343  0.627316  0.254389  1
  Bi  Bi5  1  0.372656  0.372680  0.745610  1
  S  S6  1  0.000015  0.000007  0.999999  1
