# generated using pymatgen
data_LiCe2Ag(AsP)2
_symmetry_space_group_name_H-M   'P 1'
_cell_length_a   3.93973806
_cell_length_b   3.93973700
_cell_length_c   20.36139400
_cell_angle_alpha   90.00000000
_cell_angle_beta   90.00000000
_cell_angle_gamma   89.99240853
_symmetry_Int_Tables_number   1
_chemical_formula_structural   LiCe2Ag(AsP)2
_chemical_formula_sum   'Li2 Ce4 Ag2 As4 P4'
_cell_volume   316.04002193
_cell_formula_units_Z   2
loop_
 _symmetry_equiv_pos_site_id
 _symmetry_equiv_pos_as_xyz
  1  'x, y, z'
loop_
 _atom_site_type_symbol
 _atom_site_label
 _atom_site_symmetry_multiplicity
 _atom_site_fract_x
 _atom_site_fract_y
 _atom_site_fract_z
 _atom_site_occupancy
  Li  Li0  1  0.242080  0.742080  0.750000  1
  Li  Li1  1  0.257920  0.757920  0.250000  1
  Ce  Ce2  1  0.254908  0.255031  0.385399  1
  Ce  Ce3  1  0.744969  0.745092  0.614601  1
  Ce  Ce4  1  0.755031  0.754908  0.114601  1
  Ce  Ce5  1  0.245092  0.244969  0.885399  1
  Ag  Ag6  1  0.757991  0.257991  0.250000  1
  Ag  Ag7  1  0.742009  0.242009  0.750000  1
  As  As8  1  0.251593  0.748407  0.000000  1
  As  As9  1  0.248407  0.751593  0.500000  1
  As  As10  1  0.748516  0.251484  0.000000  1
  As  As11  1  0.751484  0.248516  0.500000  1
  P  P12  1  0.744062  0.743744  0.834854  1
  P  P13  1  0.256256  0.255938  0.165146  1
  P  P14  1  0.243744  0.244062  0.665146  1
  P  P15  1  0.755938  0.756256  0.334854  1
