# generated using pymatgen
data_CsMnN2
_symmetry_space_group_name_H-M   'P 1'
_cell_length_a   5.76581100
_cell_length_b   8.15265100
_cell_length_c   11.53173200
_cell_angle_alpha   90.00000000
_cell_angle_beta   90.00000000
_cell_angle_gamma   90.00000000
_symmetry_Int_Tables_number   1
_chemical_formula_structural   CsMnN2
_chemical_formula_sum   'Cs8 Mn8 N16'
_cell_volume   542.06803023
_cell_formula_units_Z   8
loop_
 _symmetry_equiv_pos_site_id
 _symmetry_equiv_pos_as_xyz
  1  'x, y, z'
loop_
 _atom_site_type_symbol
 _atom_site_label
 _atom_site_symmetry_multiplicity
 _atom_site_fract_x
 _atom_site_fract_y
 _atom_site_fract_z
 _atom_site_occupancy
  Cs  Cs0  1  0.750000  0.125070  0.000000  1
  Cs  Cs1  1  0.250000  0.874930  0.500000  1
  Cs  Cs2  1  0.250000  0.874930  0.000000  1
  Cs  Cs3  1  0.750000  0.125070  0.500000  1
  Cs  Cs4  1  0.740433  0.374996  0.250000  1
  Cs  Cs5  1  0.240433  0.625004  0.250000  1
  Cs  Cs6  1  0.259567  0.625004  0.750000  1
  Cs  Cs7  1  0.759567  0.374996  0.750000  1
  Mn  Mn8  1  0.250000  0.375192  0.000000  1
  Mn  Mn9  1  0.750000  0.624808  0.500000  1
  Mn  Mn10  1  0.750000  0.624808  0.000000  1
  Mn  Mn11  1  0.250000  0.375192  0.500000  1
  Mn  Mn12  1  0.243202  0.125011  0.250000  1
  Mn  Mn13  1  0.743202  0.874989  0.250000  1
  Mn  Mn14  1  0.756798  0.874989  0.750000  1
  Mn  Mn15  1  0.256798  0.125011  0.750000  1
  N  N16  1  0.990485  0.002793  0.250000  1
  N  N17  1  0.490485  0.997207  0.250000  1
  N  N18  1  0.009515  0.997207  0.750000  1
  N  N19  1  0.509515  0.002793  0.750000  1
  N  N20  1  0.247489  0.249850  0.375007  1
  N  N21  1  0.747489  0.750150  0.124993  1
  N  N22  1  0.752511  0.750150  0.875007  1
  N  N23  1  0.252511  0.249850  0.624993  1
  N  N24  1  0.752511  0.750150  0.624993  1
  N  N25  1  0.252511  0.249850  0.875007  1
  N  N26  1  0.247489  0.249850  0.124993  1
  N  N27  1  0.747489  0.750150  0.375007  1
  N  N28  1  0.500000  0.500000  0.500000  1
  N  N29  1  0.000000  0.500000  0.000000  1
  N  N30  1  0.500000  0.500000  0.000000  1
  N  N31  1  0.000000  0.500000  0.500000  1
