# generated using pymatgen
data_ErBi7(Os2O11)2
_symmetry_space_group_name_H-M   'P 1'
_cell_length_a   6.61839742
_cell_length_b   7.54321440
_cell_length_c   9.90542765
_cell_angle_alpha   100.99360732
_cell_angle_beta   92.05496091
_cell_angle_gamma   90.08364418
_symmetry_Int_Tables_number   1
_chemical_formula_structural   ErBi7(Os2O11)2
_chemical_formula_sum   'Er1 Bi7 Os4 O22'
_cell_volume   485.11375744
_cell_formula_units_Z   1
loop_
 _symmetry_equiv_pos_site_id
 _symmetry_equiv_pos_as_xyz
  1  'x, y, z'
loop_
 _atom_site_type_symbol
 _atom_site_label
 _atom_site_symmetry_multiplicity
 _atom_site_fract_x
 _atom_site_fract_y
 _atom_site_fract_z
 _atom_site_occupancy
  Er  Er0  1  0.749797  0.366531  0.475307  1
  Bi  Bi1  1  0.246584  0.625245  0.517592  1
  Bi  Bi2  1  0.755568  0.872481  0.487639  1
  Bi  Bi3  1  0.248152  0.128223  0.513274  1
  Bi  Bi4  1  0.472494  0.954914  0.820489  1
  Bi  Bi5  1  0.524943  0.046569  0.180272  1
  Bi  Bi6  1  0.416249  0.453440  0.823159  1
  Bi  Bi7  1  0.590519  0.545247  0.174920  1
  Os  Os8  1  0.936984  0.701961  0.809736  1
  Os  Os9  1  0.059864  0.296586  0.188929  1
  Os  Os10  1  0.936330  0.205069  0.810812  1
  Os  Os11  1  0.062330  0.796106  0.187264  1
  O  O12  1  0.228264  0.721485  0.763290  1
  O  O13  1  0.766844  0.277867  0.236018  1
  O  O14  1  0.640155  0.679605  0.832730  1
  O  O15  1  0.356632  0.326154  0.176443  1
  O  O16  1  0.641602  0.239951  0.844253  1
  O  O17  1  0.357104  0.759359  0.162302  1
  O  O18  1  0.887463  0.186402  0.608091  1
  O  O19  1  0.105451  0.828176  0.391884  1
  O  O20  1  0.226910  0.160809  0.761086  1
  O  O21  1  0.770883  0.840914  0.236002  1
  O  O22  1  0.900419  0.622536  0.604545  1
  O  O23  1  0.083186  0.362961  0.396629  1
  O  O24  1  0.008732  0.543738  0.176192  1
  O  O25  1  0.984936  0.457856  0.827734  1
  O  O26  1  0.997108  0.780215  0.999194  1
  O  O27  1  0.003845  0.220372  0.999564  1
  O  O28  1  0.586120  0.599031  0.395677  1
  O  O29  1  0.445042  0.392389  0.602908  1
  O  O30  1  0.144402  0.053544  0.216291  1
  O  O31  1  0.858314  0.945700  0.778649  1
  O  O32  1  0.549660  0.103146  0.400524  1
  O  O33  1  0.457113  0.905416  0.600601  1
