# generated using pymatgen
data_Hf3Si3MoIr2
_symmetry_space_group_name_H-M   'P 1'
_cell_length_a   7.63514014
_cell_length_b   7.63513872
_cell_length_c   7.63513980
_cell_angle_alpha   126.78166561
_cell_angle_beta   122.50946809
_cell_angle_gamma   82.17161774
_symmetry_Int_Tables_number   1
_chemical_formula_structural   Hf3Si3MoIr2
_chemical_formula_sum   'Hf6 Si6 Mo2 Ir4'
_cell_volume   289.05281262
_cell_formula_units_Z   2
loop_
 _symmetry_equiv_pos_site_id
 _symmetry_equiv_pos_as_xyz
  1  'x, y, z'
loop_
 _atom_site_type_symbol
 _atom_site_label
 _atom_site_symmetry_multiplicity
 _atom_site_fract_x
 _atom_site_fract_y
 _atom_site_fract_z
 _atom_site_occupancy
  Hf  Hf0  1  0.464647  0.696409  0.731762  1
  Hf  Hf1  1  0.535353  0.267116  0.231762  1
  Hf  Hf2  1  0.747994  0.832433  0.584439  1
  Hf  Hf3  1  0.252006  0.836444  0.084439  1
  Hf  Hf4  1  0.055305  0.264888  0.709582  1
  Hf  Hf5  1  0.944695  0.654277  0.209582  1
  Si  Si6  1  0.274814  0.260899  0.486085  1
  Si  Si7  1  0.725186  0.211269  0.986085  1
  Si  Si8  1  0.326506  0.589676  0.252058  1
  Si  Si9  1  0.673494  0.925553  0.263171  1
  Si  Si10  1  0.162382  0.925553  0.752058  1
  Si  Si11  1  0.837618  0.589676  0.763171  1
  Mo  Mo12  1  0.500000  0.497511  0.997511  1
  Mo  Mo13  1  0.000000  0.497511  0.497511  1
  Ir  Ir14  1  0.100117  0.253124  0.102187  1
  Ir  Ir15  1  0.899883  0.002070  0.153008  1
  Ir  Ir16  1  0.349062  0.002070  0.602187  1
  Ir  Ir17  1  0.650938  0.253124  0.653008  1
