# generated using pymatgen
data_TbY6Co6AgSn22
_symmetry_space_group_name_H-M   'P 1'
_cell_length_a   9.68576200
_cell_length_b   9.68576205
_cell_length_c   9.98690500
_cell_angle_alpha   90.00000000
_cell_angle_beta   90.00000000
_cell_angle_gamma   119.99999984
_symmetry_Int_Tables_number   1
_chemical_formula_structural   TbY6Co6AgSn22
_chemical_formula_sum   'Tb1 Y6 Co6 Ag1 Sn22'
_cell_volume   811.38904490
_cell_formula_units_Z   1
loop_
 _symmetry_equiv_pos_site_id
 _symmetry_equiv_pos_as_xyz
  1  'x, y, z'
loop_
 _atom_site_type_symbol
 _atom_site_label
 _atom_site_symmetry_multiplicity
 _atom_site_fract_x
 _atom_site_fract_y
 _atom_site_fract_z
 _atom_site_occupancy
  Tb  Tb0  1  0.000000  0.000000  0.000000  1
  Y  Y1  1  0.043790  0.521895  0.306952  1
  Y  Y2  1  0.478105  0.956210  0.306952  1
  Y  Y3  1  0.478105  0.521895  0.306952  1
  Y  Y4  1  0.956210  0.478105  0.693048  1
  Y  Y5  1  0.521895  0.043790  0.693048  1
  Y  Y6  1  0.521895  0.478105  0.693048  1
  Co  Co7  1  0.167979  0.832021  0.803919  1
  Co  Co8  1  0.664042  0.832021  0.803919  1
  Co  Co9  1  0.167979  0.335958  0.803919  1
  Co  Co10  1  0.832021  0.167979  0.196081  1
  Co  Co11  1  0.335958  0.167979  0.196081  1
  Co  Co12  1  0.832021  0.664042  0.196081  1
  Ag  Ag13  1  0.000000  0.000000  0.500000  1
  Sn  Sn14  1  0.113912  0.886088  0.276085  1
  Sn  Sn15  1  0.772176  0.886088  0.276085  1
  Sn  Sn16  1  0.113912  0.227824  0.276085  1
  Sn  Sn17  1  0.886088  0.113912  0.723915  1
  Sn  Sn18  1  0.227824  0.113912  0.723915  1
  Sn  Sn19  1  0.886088  0.772176  0.723915  1
  Sn  Sn20  1  0.346136  0.000000  0.000000  1
  Sn  Sn21  1  0.653864  0.653864  0.000000  1
  Sn  Sn22  1  0.000000  0.346136  0.000000  1
  Sn  Sn23  1  0.346136  0.346136  0.000000  1
  Sn  Sn24  1  0.000000  0.653864  0.000000  1
  Sn  Sn25  1  0.653864  0.000000  0.000000  1
  Sn  Sn26  1  0.783414  0.566826  0.452219  1
  Sn  Sn27  1  0.783414  0.216586  0.452219  1
  Sn  Sn28  1  0.433174  0.216586  0.452219  1
  Sn  Sn29  1  0.216586  0.433174  0.547781  1
  Sn  Sn30  1  0.216586  0.783414  0.547781  1
  Sn  Sn31  1  0.566826  0.783414  0.547781  1
  Sn  Sn32  1  0.666667  0.333333  0.183432  1
  Sn  Sn33  1  0.333333  0.666667  0.816568  1
  Sn  Sn34  1  0.666667  0.333333  0.883097  1
  Sn  Sn35  1  0.333333  0.666667  0.116903  1
