# generated using pymatgen
data_Dy20Cd3Hg3Ru2
_symmetry_space_group_name_H-M   'P 1'
_cell_length_a   9.58354600
_cell_length_b   9.58354488
_cell_length_c   9.83140600
_cell_angle_alpha   90.00000000
_cell_angle_beta   90.00000000
_cell_angle_gamma   120.00000387
_symmetry_Int_Tables_number   1
_chemical_formula_structural   Dy20Cd3Hg3Ru2
_chemical_formula_sum   'Dy20 Cd3 Hg3 Ru2'
_cell_volume   781.98542523
_cell_formula_units_Z   1
loop_
 _symmetry_equiv_pos_site_id
 _symmetry_equiv_pos_as_xyz
  1  'x, y, z'
loop_
 _atom_site_type_symbol
 _atom_site_label
 _atom_site_symmetry_multiplicity
 _atom_site_fract_x
 _atom_site_fract_y
 _atom_site_fract_z
 _atom_site_occupancy
  Dy  Dy0  1  0.000000  0.000000  0.490332  1
  Dy  Dy1  1  0.000000  0.000000  0.009668  1
  Dy  Dy2  1  0.209615  0.790385  0.439831  1
  Dy  Dy3  1  0.209615  0.419231  0.439831  1
  Dy  Dy4  1  0.580769  0.790385  0.439831  1
  Dy  Dy5  1  0.790056  0.209944  0.559675  1
  Dy  Dy6  1  0.790056  0.580111  0.559675  1
  Dy  Dy7  1  0.419889  0.209944  0.559675  1
  Dy  Dy8  1  0.790056  0.209944  0.940325  1
  Dy  Dy9  1  0.790056  0.580111  0.940325  1
  Dy  Dy10  1  0.419889  0.209944  0.940325  1
  Dy  Dy11  1  0.209615  0.790385  0.060169  1
  Dy  Dy12  1  0.209615  0.419231  0.060169  1
  Dy  Dy13  1  0.580769  0.790385  0.060169  1
  Dy  Dy14  1  0.541194  0.458806  0.250000  1
  Dy  Dy15  1  0.541194  0.082390  0.250000  1
  Dy  Dy16  1  0.917610  0.458806  0.250000  1
  Dy  Dy17  1  0.458685  0.541315  0.750000  1
  Dy  Dy18  1  0.458685  0.917370  0.750000  1
  Dy  Dy19  1  0.082630  0.541315  0.750000  1
  Cd  Cd20  1  0.112828  0.887172  0.750000  1
  Cd  Cd21  1  0.112828  0.225656  0.750000  1
  Cd  Cd22  1  0.774344  0.887172  0.750000  1
  Hg  Hg23  1  0.879638  0.120362  0.250000  1
  Hg  Hg24  1  0.879638  0.759278  0.250000  1
  Hg  Hg25  1  0.240722  0.120362  0.250000  1
  Ru  Ru26  1  0.333333  0.666667  0.250000  1
  Ru  Ru27  1  0.666667  0.333333  0.750000  1
