# generated using pymatgen
data_Zr20Si15Ge
_symmetry_space_group_name_H-M   'P 1'
_cell_length_a   7.17531826
_cell_length_b   7.17155370
_cell_length_c   13.06778295
_cell_angle_alpha   90.04592036
_cell_angle_beta   89.91157798
_cell_angle_gamma   90.02133556
_symmetry_Int_Tables_number   1
_chemical_formula_structural   Zr20Si15Ge
_chemical_formula_sum   'Zr20 Si15 Ge1'
_cell_volume   672.44326643
_cell_formula_units_Z   1
loop_
 _symmetry_equiv_pos_site_id
 _symmetry_equiv_pos_as_xyz
  1  'x, y, z'
loop_
 _atom_site_type_symbol
 _atom_site_label
 _atom_site_symmetry_multiplicity
 _atom_site_fract_x
 _atom_site_fract_y
 _atom_site_fract_z
 _atom_site_occupancy
  Zr  Zr0  1  0.356492  0.500349  0.376763  1
  Zr  Zr1  1  0.852637  0.001559  0.372061  1
  Zr  Zr2  1  0.001188  0.145542  0.126678  1
  Zr  Zr3  1  0.999169  0.854990  0.628096  1
  Zr  Zr4  1  0.645527  0.498670  0.877092  1
  Zr  Zr5  1  0.501513  0.353903  0.623175  1
  Zr  Zr6  1  0.498830  0.645593  0.122952  1
  Zr  Zr7  1  0.145625  0.001005  0.873091  1
  Zr  Zr8  1  0.997851  0.649485  0.035756  1
  Zr  Zr9  1  0.001747  0.347247  0.536669  1
  Zr  Zr10  1  0.649469  0.998073  0.964286  1
  Zr  Zr11  1  0.149329  0.502287  0.785689  1
  Zr  Zr12  1  0.848090  0.495581  0.283889  1
  Zr  Zr13  1  0.502412  0.148963  0.213933  1
  Zr  Zr14  1  0.498131  0.851293  0.714391  1
  Zr  Zr15  1  0.352108  0.003476  0.464502  1
  Zr  Zr16  1  0.673673  0.676720  0.500536  1
  Zr  Zr17  1  0.823595  0.176423  0.750176  1
  Zr  Zr18  1  0.177111  0.824703  0.248801  1
  Zr  Zr19  1  0.323692  0.323711  0.999929  1
  Si  Si20  1  0.948303  0.300254  0.937619  1
  Si  Si21  1  0.700548  0.051433  0.562467  1
  Si  Si22  1  0.199732  0.448615  0.187610  1
  Si  Si23  1  0.800340  0.551484  0.687520  1
  Si  Si24  1  0.448463  0.199847  0.812464  1
  Si  Si25  1  0.551376  0.800255  0.312349  1
  Si  Si26  1  0.300456  0.948581  0.062101  1
  Si  Si27  1  0.853030  0.794661  0.822879  1
  Si  Si28  1  0.147011  0.205446  0.322612  1
  Si  Si29  1  0.794666  0.853206  0.177273  1
  Si  Si30  1  0.297268  0.646820  0.574947  1
  Si  Si31  1  0.705443  0.353225  0.072699  1
  Si  Si32  1  0.647208  0.295060  0.427565  1
  Si  Si33  1  0.353065  0.705429  0.927437  1
  Si  Si34  1  0.205692  0.146781  0.677581  1
  Ge  Ge35  1  0.049207  0.699330  0.436409  1
