# generated using pymatgen
data_Pa3Pd12Au
_symmetry_space_group_name_H-M   'P 1'
_cell_length_a   5.79146000
_cell_length_b   5.79146061
_cell_length_c   9.60027600
_cell_angle_alpha   90.00000000
_cell_angle_beta   90.00000000
_cell_angle_gamma   119.99980234
_symmetry_Int_Tables_number   1
_chemical_formula_structural   Pa3Pd12Au
_chemical_formula_sum   'Pa3 Pd12 Au1'
_cell_volume   278.86331341
_cell_formula_units_Z   1
loop_
 _symmetry_equiv_pos_site_id
 _symmetry_equiv_pos_as_xyz
  1  'x, y, z'
loop_
 _atom_site_type_symbol
 _atom_site_label
 _atom_site_symmetry_multiplicity
 _atom_site_fract_x
 _atom_site_fract_y
 _atom_site_fract_z
 _atom_site_occupancy
  Pa  Pa0  1  0.000000  0.000000  0.512912  1
  Pa  Pa1  1  0.000000  0.000000  0.987088  1
  Pa  Pa2  1  0.666666  0.333334  0.250000  1
  Pd  Pd3  1  0.500675  0.499325  0.499100  1
  Pd  Pd4  1  0.500674  0.001348  0.499099  1
  Pd  Pd5  1  0.998652  0.499326  0.499099  1
  Pd  Pd6  1  0.500675  0.499325  0.000900  1
  Pd  Pd7  1  0.500674  0.001348  0.000901  1
  Pd  Pd8  1  0.998652  0.499326  0.000901  1
  Pd  Pd9  1  0.168235  0.831765  0.250000  1
  Pd  Pd10  1  0.168236  0.336469  0.250000  1
  Pd  Pd11  1  0.663531  0.831764  0.250000  1
  Pd  Pd12  1  0.828856  0.171144  0.750000  1
  Pd  Pd13  1  0.828857  0.657712  0.750000  1
  Pd  Pd14  1  0.342288  0.171143  0.750000  1
  Au  Au15  1  0.333333  0.666667  0.750000  1
