# generated using pymatgen
data_ThAs12Os3Ru
_symmetry_space_group_name_H-M   'P 1'
_cell_length_a   7.47516181
_cell_length_b   7.46678943
_cell_length_c   7.46678959
_cell_angle_alpha   109.44849569
_cell_angle_beta   109.49393717
_cell_angle_gamma   109.49393547
_symmetry_Int_Tables_number   1
_chemical_formula_structural   ThAs12Os3Ru
_chemical_formula_sum   'Th1 As12 Os3 Ru1'
_cell_volume   320.73377411
_cell_formula_units_Z   1
loop_
 _symmetry_equiv_pos_site_id
 _symmetry_equiv_pos_as_xyz
  1  'x, y, z'
loop_
 _atom_site_type_symbol
 _atom_site_label
 _atom_site_symmetry_multiplicity
 _atom_site_fract_x
 _atom_site_fract_y
 _atom_site_fract_z
 _atom_site_occupancy
  Th  Th0  1  0.000000  0.000000  0.000000  1
  As  As1  1  0.346655  0.196590  0.851059  1
  As  As2  1  0.653345  0.803410  0.148941  1
  As  As3  1  0.653710  0.504370  0.850807  1
  As  As4  1  0.346290  0.495630  0.149193  1
  As  As5  1  0.197096  0.850807  0.346438  1
  As  As6  1  0.802904  0.149193  0.653562  1
  As  As7  1  0.504405  0.851059  0.654469  1
  As  As8  1  0.495595  0.148941  0.345531  1
  As  As9  1  0.849935  0.345531  0.196590  1
  As  As10  1  0.150065  0.654469  0.803410  1
  As  As11  1  0.850658  0.653562  0.504370  1
  As  As12  1  0.149342  0.346438  0.495630  1
  Os  Os13  1  0.000000  0.000000  0.500000  1
  Os  Os14  1  0.000000  0.500000  0.000000  1
  Os  Os15  1  0.500000  0.500000  0.500000  1
  Ru  Ru16  1  0.500000  0.000000  0.000000  1
