# generated using pymatgen
data_Nd5Ge2Ir
_symmetry_space_group_name_H-M   'P 1'
_cell_length_a   7.98363700
_cell_length_b   8.91611700
_cell_length_c   12.41429100
_cell_angle_alpha   90.00000000
_cell_angle_beta   90.00000000
_cell_angle_gamma   90.00000000
_symmetry_Int_Tables_number   1
_chemical_formula_structural   Nd5Ge2Ir
_chemical_formula_sum   'Nd20 Ge8 Ir4'
_cell_volume   883.68699241
_cell_formula_units_Z   4
loop_
 _symmetry_equiv_pos_site_id
 _symmetry_equiv_pos_as_xyz
  1  'x, y, z'
loop_
 _atom_site_type_symbol
 _atom_site_label
 _atom_site_symmetry_multiplicity
 _atom_site_fract_x
 _atom_site_fract_y
 _atom_site_fract_z
 _atom_site_occupancy
  Nd  Nd0  1  0.680153  0.464996  0.925256  1
  Nd  Nd1  1  0.180153  0.964997  0.574744  1
  Nd  Nd2  1  0.680153  0.035004  0.925256  1
  Nd  Nd3  1  0.819847  0.464996  0.425256  1
  Nd  Nd4  1  0.960108  0.750000  0.000478  1
  Nd  Nd5  1  0.460108  0.250000  0.499522  1
  Nd  Nd6  1  0.039892  0.250000  0.999522  1
  Nd  Nd7  1  0.539892  0.750000  0.500478  1
  Nd  Nd8  1  0.319847  0.535003  0.074744  1
  Nd  Nd9  1  0.819847  0.035004  0.425256  1
  Nd  Nd10  1  0.319847  0.964997  0.074744  1
  Nd  Nd11  1  0.180153  0.535003  0.574744  1
  Nd  Nd12  1  0.350981  0.750000  0.796302  1
  Nd  Nd13  1  0.850981  0.250000  0.703698  1
  Nd  Nd14  1  0.649019  0.250000  0.203698  1
  Nd  Nd15  1  0.149019  0.750000  0.296302  1
  Nd  Nd16  1  0.829241  0.750000  0.718493  1
  Nd  Nd17  1  0.329241  0.250000  0.781507  1
  Nd  Nd18  1  0.170759  0.250000  0.281507  1
  Nd  Nd19  1  0.670759  0.750000  0.218493  1
  Ge  Ge20  1  0.558804  0.495007  0.671308  1
  Ge  Ge21  1  0.941196  0.004993  0.171308  1
  Ge  Ge22  1  0.441196  0.995007  0.328692  1
  Ge  Ge23  1  0.058804  0.504993  0.828692  1
  Ge  Ge24  1  0.441196  0.504993  0.328692  1
  Ge  Ge25  1  0.058804  0.995007  0.828692  1
  Ge  Ge26  1  0.558804  0.004993  0.671308  1
  Ge  Ge27  1  0.941196  0.495007  0.171308  1
  Ir  Ir28  1  0.572099  0.750000  0.987406  1
  Ir  Ir29  1  0.072099  0.250000  0.512594  1
  Ir  Ir30  1  0.427901  0.250000  0.012594  1
  Ir  Ir31  1  0.927901  0.750000  0.487406  1
