# generated using pymatgen
data_Tm4Mn3Co17As12
_symmetry_space_group_name_H-M   'P 1'
_cell_length_a   3.76618000
_cell_length_b   10.69345550
_cell_length_c   12.24748028
_cell_angle_alpha   90.05914249
_cell_angle_beta   90.00000000
_cell_angle_gamma   90.00000000
_symmetry_Int_Tables_number   1
_chemical_formula_structural   Tm4Mn3Co17As12
_chemical_formula_sum   'Tm4 Mn3 Co17 As12'
_cell_volume   493.24836768
_cell_formula_units_Z   1
loop_
 _symmetry_equiv_pos_site_id
 _symmetry_equiv_pos_as_xyz
  1  'x, y, z'
loop_
 _atom_site_type_symbol
 _atom_site_label
 _atom_site_symmetry_multiplicity
 _atom_site_fract_x
 _atom_site_fract_y
 _atom_site_fract_z
 _atom_site_occupancy
  Tm  Tm0  1  0.250000  0.576917  0.702946  1
  Tm  Tm1  1  0.250000  0.922234  0.201782  1
  Tm  Tm2  1  0.750000  0.421013  0.296661  1
  Tm  Tm3  1  0.750000  0.077431  0.796262  1
  Mn  Mn4  1  0.250000  0.701787  0.990869  1
  Mn  Mn5  1  0.250000  0.796818  0.490777  1
  Mn  Mn6  1  0.750000  0.298375  0.008874  1
  Co  Co7  1  0.750000  0.206649  0.509417  1
  Co  Co8  1  0.250000  0.405362  0.486897  1
  Co  Co9  1  0.250000  0.094078  0.986590  1
  Co  Co10  1  0.750000  0.593076  0.514394  1
  Co  Co11  1  0.750000  0.907017  0.015007  1
  Co  Co12  1  0.250000  0.218472  0.177268  1
  Co  Co13  1  0.250000  0.281677  0.674121  1
  Co  Co14  1  0.750000  0.782793  0.825200  1
  Co  Co15  1  0.750000  0.718064  0.325329  1
  Co  Co16  1  0.250000  0.883500  0.698429  1
  Co  Co17  1  0.250000  0.617438  0.199489  1
  Co  Co18  1  0.750000  0.117465  0.302401  1
  Co  Co19  1  0.750000  0.381268  0.799685  1
  Co  Co20  1  0.250000  0.464367  0.932022  1
  Co  Co21  1  0.250000  0.034565  0.432394  1
  Co  Co22  1  0.750000  0.535413  0.067328  1
  Co  Co23  1  0.750000  0.966423  0.566208  1
  As  As24  1  0.250000  0.419350  0.116764  1
  As  As25  1  0.250000  0.082105  0.614870  1
  As  As26  1  0.750000  0.580311  0.882641  1
  As  As27  1  0.750000  0.919105  0.382457  1
  As  As28  1  0.250000  0.264762  0.864482  1
  As  As29  1  0.250000  0.234052  0.367522  1
  As  As30  1  0.750000  0.734446  0.135481  1
  As  As31  1  0.750000  0.766292  0.636042  1
  As  As32  1  0.250000  0.596673  0.390788  1
  As  As33  1  0.250000  0.902621  0.891277  1
  As  As34  1  0.750000  0.398520  0.607391  1
  As  As35  1  0.750000  0.099562  0.109934  1
