# generated using pymatgen
data_Li4La3Si3As
_symmetry_space_group_name_H-M   'P 1'
_cell_length_a   4.43924829
_cell_length_b   6.86181717
_cell_length_c   8.42970700
_cell_angle_alpha   114.01665005
_cell_angle_beta   105.26655064
_cell_angle_gamma   89.99999723
_symmetry_Int_Tables_number   1
_chemical_formula_structural   Li4La3Si3As
_chemical_formula_sum   'Li4 La3 Si3 As1'
_cell_volume   224.59322791
_cell_formula_units_Z   1
loop_
 _symmetry_equiv_pos_site_id
 _symmetry_equiv_pos_as_xyz
  1  'x, y, z'
loop_
 _atom_site_type_symbol
 _atom_site_label
 _atom_site_symmetry_multiplicity
 _atom_site_fract_x
 _atom_site_fract_y
 _atom_site_fract_z
 _atom_site_occupancy
  Li  Li0  1  0.671176  0.981406  0.342349  1
  Li  Li1  1  0.329311  0.018271  0.658624  1
  Li  Li2  1  0.329311  0.640352  0.658624  1
  Li  Li3  1  0.671176  0.360943  0.342349  1
  La  La4  1  0.998820  0.998820  0.997639  1
  La  La5  1  0.132738  0.632738  0.265476  1
  La  La6  1  0.869069  0.369069  0.738139  1
  Si  Si7  1  0.499692  0.675139  0.999385  1
  Si  Si8  1  0.499692  0.324246  0.999385  1
  Si  Si9  1  0.786572  0.786572  0.573143  1
  As  As10  1  0.212443  0.212443  0.424886  1
