# generated using pymatgen
data_PrNd7(GePt)8
_symmetry_space_group_name_H-M   'P 1'
_cell_length_a   4.50058500
_cell_length_b   7.70103800
_cell_length_c   14.65215000
_cell_angle_alpha   90.00000000
_cell_angle_beta   90.00000000
_cell_angle_gamma   90.00000000
_symmetry_Int_Tables_number   1
_chemical_formula_structural   PrNd7(GePt)8
_chemical_formula_sum   'Pr1 Nd7 Ge8 Pt8'
_cell_volume   507.83144720
_cell_formula_units_Z   1
loop_
 _symmetry_equiv_pos_site_id
 _symmetry_equiv_pos_as_xyz
  1  'x, y, z'
loop_
 _atom_site_type_symbol
 _atom_site_label
 _atom_site_symmetry_multiplicity
 _atom_site_fract_x
 _atom_site_fract_y
 _atom_site_fract_z
 _atom_site_occupancy
  Pr  Pr0  1  0.000000  0.291005  0.500000  1
  Nd  Nd1  1  0.500000  0.789963  0.747746  1
  Nd  Nd2  1  0.000000  0.209909  0.752527  1
  Nd  Nd3  1  0.500000  0.789963  0.252254  1
  Nd  Nd4  1  0.000000  0.209909  0.247473  1
  Nd  Nd5  1  0.500000  0.709371  0.000000  1
  Nd  Nd6  1  0.500000  0.705097  0.500000  1
  Nd  Nd7  1  0.000000  0.295290  0.000000  1
  Ge  Ge8  1  0.500000  0.412088  0.649734  1
  Ge  Ge9  1  0.000000  0.588129  0.850740  1
  Ge  Ge10  1  0.500000  0.412088  0.350266  1
  Ge  Ge11  1  0.000000  0.588129  0.149260  1
  Ge  Ge12  1  0.500000  0.087282  0.094926  1
  Ge  Ge13  1  0.000000  0.912278  0.404924  1
  Ge  Ge14  1  0.500000  0.087282  0.905074  1
  Ge  Ge15  1  0.000000  0.912278  0.595076  1
  Pt  Pt16  1  0.500000  0.078225  0.609471  1
  Pt  Pt17  1  0.000000  0.921061  0.891124  1
  Pt  Pt18  1  0.500000  0.078225  0.390529  1
  Pt  Pt19  1  0.000000  0.921061  0.108876  1
  Pt  Pt20  1  0.500000  0.419194  0.151019  1
  Pt  Pt21  1  0.000000  0.581489  0.348639  1
  Pt  Pt22  1  0.500000  0.419194  0.848981  1
  Pt  Pt23  1  0.000000  0.581489  0.651361  1
