# generated using pymatgen
data_ErCo4P3Ru
_symmetry_space_group_name_H-M   'P 1'
_cell_length_a   3.68618900
_cell_length_b   10.39592200
_cell_length_c   11.76511800
_cell_angle_alpha   90.00000000
_cell_angle_beta   90.00000000
_cell_angle_gamma   90.00000000
_symmetry_Int_Tables_number   1
_chemical_formula_structural   ErCo4P3Ru
_chemical_formula_sum   'Er4 Co16 P12 Ru4'
_cell_volume   450.85500844
_cell_formula_units_Z   4
loop_
 _symmetry_equiv_pos_site_id
 _symmetry_equiv_pos_as_xyz
  1  'x, y, z'
loop_
 _atom_site_type_symbol
 _atom_site_label
 _atom_site_symmetry_multiplicity
 _atom_site_fract_x
 _atom_site_fract_y
 _atom_site_fract_z
 _atom_site_occupancy
  Er  Er0  1  0.250000  0.585137  0.704088  1
  Er  Er1  1  0.250000  0.914863  0.204088  1
  Er  Er2  1  0.750000  0.414863  0.295912  1
  Er  Er3  1  0.750000  0.085137  0.795912  1
  Co  Co4  1  0.250000  0.408801  0.488803  1
  Co  Co5  1  0.250000  0.091199  0.988803  1
  Co  Co6  1  0.750000  0.591199  0.511197  1
  Co  Co7  1  0.750000  0.908801  0.011197  1
  Co  Co8  1  0.250000  0.221789  0.176991  1
  Co  Co9  1  0.250000  0.278211  0.676991  1
  Co  Co10  1  0.750000  0.778211  0.823009  1
  Co  Co11  1  0.750000  0.721789  0.323009  1
  Co  Co12  1  0.250000  0.886839  0.702965  1
  Co  Co13  1  0.250000  0.613161  0.202965  1
  Co  Co14  1  0.750000  0.113161  0.297035  1
  Co  Co15  1  0.750000  0.386839  0.797035  1
  Co  Co16  1  0.250000  0.464675  0.930327  1
  Co  Co17  1  0.250000  0.035325  0.430327  1
  Co  Co18  1  0.750000  0.535325  0.069673  1
  Co  Co19  1  0.750000  0.964675  0.569673  1
  P  P20  1  0.250000  0.420236  0.112426  1
  P  P21  1  0.250000  0.079764  0.612426  1
  P  P22  1  0.750000  0.579764  0.887574  1
  P  P23  1  0.750000  0.920236  0.387574  1
  P  P24  1  0.250000  0.270243  0.866810  1
  P  P25  1  0.250000  0.229757  0.366810  1
  P  P26  1  0.750000  0.729757  0.133190  1
  P  P27  1  0.750000  0.770243  0.633190  1
  P  P28  1  0.250000  0.595717  0.390000  1
  P  P29  1  0.250000  0.904283  0.890000  1
  P  P30  1  0.750000  0.404283  0.610000  1
  P  P31  1  0.750000  0.095717  0.110000  1
  Ru  Ru32  1  0.250000  0.716756  0.992192  1
  Ru  Ru33  1  0.250000  0.783244  0.492192  1
  Ru  Ru34  1  0.750000  0.283244  0.007808  1
  Ru  Ru35  1  0.750000  0.216756  0.507808  1
