# generated using pymatgen
data_SmHf2F11
_symmetry_space_group_name_H-M   'P 1'
_cell_length_a   8.36302901
_cell_length_b   8.36302852
_cell_length_c   8.36302897
_cell_angle_alpha   124.68811771
_cell_angle_beta   106.61236460
_cell_angle_gamma   98.33703875
_symmetry_Int_Tables_number   1
_chemical_formula_structural   SmHf2F11
_chemical_formula_sum   'Sm2 Hf4 F22'
_cell_volume   424.28197696
_cell_formula_units_Z   2
loop_
 _symmetry_equiv_pos_site_id
 _symmetry_equiv_pos_as_xyz
  1  'x, y, z'
loop_
 _atom_site_type_symbol
 _atom_site_label
 _atom_site_symmetry_multiplicity
 _atom_site_fract_x
 _atom_site_fract_y
 _atom_site_fract_z
 _atom_site_occupancy
  Sm  Sm0  1  0.750000  0.250000  0.500000  1
  Sm  Sm1  1  0.250000  0.750000  0.500000  1
  Hf  Hf2  1  0.681052  0.635186  0.316239  1
  Hf  Hf3  1  0.318948  0.364814  0.683761  1
  Hf  Hf4  1  0.181052  0.864814  0.045866  1
  Hf  Hf5  1  0.818948  0.135186  0.954134  1
  F  F6  1  0.706520  0.895982  0.341747  1
  F  F7  1  0.293480  0.104018  0.658253  1
  F  F8  1  0.554234  0.364773  0.658253  1
  F  F9  1  0.945766  0.604018  0.810538  1
  F  F10  1  0.445766  0.635227  0.341747  1
  F  F11  1  0.054234  0.395982  0.189462  1
  F  F12  1  0.793480  0.135227  0.189462  1
  F  F13  1  0.206520  0.864773  0.810538  1
  F  F14  1  0.500000  0.500000  0.000000  1
  F  F15  1  0.000000  0.000000  0.000000  1
  F  F16  1  0.780847  0.870437  0.651283  1
  F  F17  1  0.219153  0.129563  0.348717  1
  F  F18  1  0.280847  0.629563  0.910409  1
  F  F19  1  0.719153  0.370437  0.089591  1
  F  F20  1  0.953375  0.738035  0.417659  1
  F  F21  1  0.046625  0.261965  0.582341  1
  F  F22  1  0.320374  0.535715  0.582341  1
  F  F23  1  0.179626  0.761965  0.215340  1
  F  F24  1  0.679626  0.464285  0.417659  1
  F  F25  1  0.820374  0.238035  0.784660  1
  F  F26  1  0.546625  0.964285  0.784660  1
  F  F27  1  0.453375  0.035715  0.215340  1
