# generated using pymatgen
data_Tm12InGa(CoSi)2
_symmetry_space_group_name_H-M   'P 1'
_cell_length_a   8.31005560
_cell_length_b   8.31005525
_cell_length_c   8.31005676
_cell_angle_alpha   113.36704863
_cell_angle_beta   111.01455529
_cell_angle_gamma   104.16852839
_symmetry_Int_Tables_number   1
_chemical_formula_structural   Tm12InGa(CoSi)2
_chemical_formula_sum   'Tm12 In1 Ga1 Co2 Si2'
_cell_volume   438.75618495
_cell_formula_units_Z   1
loop_
 _symmetry_equiv_pos_site_id
 _symmetry_equiv_pos_as_xyz
  1  'x, y, z'
loop_
 _atom_site_type_symbol
 _atom_site_label
 _atom_site_symmetry_multiplicity
 _atom_site_fract_x
 _atom_site_fract_y
 _atom_site_fract_z
 _atom_site_occupancy
  Tm  Tm0  1  0.434806  0.238083  0.196723  1
  Tm  Tm1  1  0.565194  0.761917  0.803277  1
  Tm  Tm2  1  0.041359  0.238083  0.803277  1
  Tm  Tm3  1  0.958641  0.761917  0.196723  1
  Tm  Tm4  1  0.184407  0.284546  0.468953  1
  Tm  Tm5  1  0.815593  0.715454  0.531047  1
  Tm  Tm6  1  0.184407  0.715454  0.899862  1
  Tm  Tm7  1  0.815593  0.284546  0.100138  1
  Tm  Tm8  1  0.306140  0.617531  0.311392  1
  Tm  Tm9  1  0.693860  0.382469  0.688608  1
  Tm  Tm10  1  0.306140  0.994748  0.688608  1
  Tm  Tm11  1  0.693860  0.005252  0.311392  1
  In  In12  1  0.500000  0.500000  0.000000  1
  Ga  Ga13  1  0.000000  0.000000  0.000000  1
  Co  Co14  1  0.108986  0.608986  0.500000  1
  Co  Co15  1  0.891014  0.391014  0.500000  1
  Si  Si16  1  0.360612  0.000000  0.360612  1
  Si  Si17  1  0.639388  0.000000  0.639388  1
