# generated using pymatgen
data_Mg2MnFe3(B2Rh5)2
_symmetry_space_group_name_H-M   'P 1'
_cell_length_a   9.35911236
_cell_length_b   9.35911252
_cell_length_c   2.92212200
_cell_angle_alpha   90.00000000
_cell_angle_beta   90.00000000
_cell_angle_gamma   90.64561278
_symmetry_Int_Tables_number   1
_chemical_formula_structural   Mg2MnFe3(B2Rh5)2
_chemical_formula_sum   'Mg2 Mn1 Fe3 B4 Rh10'
_cell_volume   255.94114138
_cell_formula_units_Z   1
loop_
 _symmetry_equiv_pos_site_id
 _symmetry_equiv_pos_as_xyz
  1  'x, y, z'
loop_
 _atom_site_type_symbol
 _atom_site_label
 _atom_site_symmetry_multiplicity
 _atom_site_fract_x
 _atom_site_fract_y
 _atom_site_fract_z
 _atom_site_occupancy
  Mg  Mg0  1  0.176777  0.322716  0.000000  1
  Mg  Mg1  1  0.822716  0.676777  0.000000  1
  Mn  Mn2  1  0.676465  0.176465  0.000000  1
  Fe  Fe3  1  0.322402  0.822402  0.000000  1
  Fe  Fe4  1  0.999274  0.000504  0.000000  1
  Fe  Fe5  1  0.500504  0.499274  0.000000  1
  B  B6  1  0.126633  0.626633  0.000000  1
  B  B7  1  0.872888  0.372888  0.000000  1
  B  B8  1  0.626183  0.874648  0.000000  1
  B  B9  1  0.374648  0.126183  0.000000  1
  Rh  Rh10  1  0.497175  0.997175  0.500000  1
  Rh  Rh11  1  0.000879  0.500879  0.500000  1
  Rh  Rh12  1  0.217087  0.063753  0.500000  1
  Rh  Rh13  1  0.783123  0.933211  0.500000  1
  Rh  Rh14  1  0.078138  0.788318  0.500000  1
  Rh  Rh15  1  0.713699  0.426127  0.500000  1
  Rh  Rh16  1  0.926127  0.213699  0.500000  1
  Rh  Rh17  1  0.288318  0.578138  0.500000  1
  Rh  Rh18  1  0.563753  0.717087  0.500000  1
  Rh  Rh19  1  0.433211  0.283123  0.500000  1
