# generated using pymatgen
data_Cs12K6TlGaSb8
_symmetry_space_group_name_H-M   'P 1'
_cell_length_a   11.23704900
_cell_length_b   11.23704970
_cell_length_c   11.76526300
_cell_angle_alpha   90.00000000
_cell_angle_beta   90.00000000
_cell_angle_gamma   119.99999498
_symmetry_Int_Tables_number   1
_chemical_formula_structural   Cs12K6TlGaSb8
_chemical_formula_sum   'Cs12 K6 Tl1 Ga1 Sb8'
_cell_volume   1286.58021929
_cell_formula_units_Z   1
loop_
 _symmetry_equiv_pos_site_id
 _symmetry_equiv_pos_as_xyz
  1  'x, y, z'
loop_
 _atom_site_type_symbol
 _atom_site_label
 _atom_site_symmetry_multiplicity
 _atom_site_fract_x
 _atom_site_fract_y
 _atom_site_fract_z
 _atom_site_occupancy
  Cs  Cs0  1  0.208222  0.416442  0.543092  1
  Cs  Cs1  1  0.790813  0.209187  0.040945  1
  Cs  Cs2  1  0.418372  0.209187  0.040945  1
  Cs  Cs3  1  0.583558  0.791778  0.543092  1
  Cs  Cs4  1  0.208222  0.791778  0.543092  1
  Cs  Cs5  1  0.790813  0.581628  0.459055  1
  Cs  Cs6  1  0.790813  0.209187  0.459055  1
  Cs  Cs7  1  0.790813  0.581628  0.040945  1
  Cs  Cs8  1  0.418372  0.209187  0.459055  1
  Cs  Cs9  1  0.583558  0.791778  0.956908  1
  Cs  Cs10  1  0.208222  0.416442  0.956908  1
  Cs  Cs11  1  0.208222  0.791778  0.956908  1
  K  K12  1  0.118998  0.237996  0.250000  1
  K  K13  1  0.880670  0.119330  0.750000  1
  K  K14  1  0.238659  0.119330  0.750000  1
  K  K15  1  0.762004  0.881002  0.250000  1
  K  K16  1  0.118998  0.881002  0.250000  1
  K  K17  1  0.880670  0.761341  0.750000  1
  Tl  Tl18  1  0.333333  0.666667  0.250000  1
  Ga  Ga19  1  0.666667  0.333333  0.750000  1
  Sb  Sb20  1  0.481742  0.518258  0.250000  1
  Sb  Sb21  1  0.944486  0.472243  0.750000  1
  Sb  Sb22  1  0.527757  0.055514  0.750000  1
  Sb  Sb23  1  0.481742  0.963483  0.250000  1
  Sb  Sb24  1  0.036517  0.518258  0.250000  1
  Sb  Sb25  1  0.527757  0.472243  0.750000  1
  Sb  Sb26  1  0.000000  0.000000  0.999980  1
  Sb  Sb27  1  0.000000  0.000000  0.500020  1
