# generated using pymatgen
data_CeDy2Cr(Co4P3)2
_symmetry_space_group_name_H-M   'P 1'
_cell_length_a   3.70201600
_cell_length_b   10.56244600
_cell_length_c   12.17089100
_cell_angle_alpha   90.00009592
_cell_angle_beta   90.00242647
_cell_angle_gamma   89.99808030
_symmetry_Int_Tables_number   1
_chemical_formula_structural   CeDy2Cr(Co4P3)2
_chemical_formula_sum   'Ce2 Dy4 Cr2 Co16 P12'
_cell_volume   475.91036743
_cell_formula_units_Z   2
loop_
 _symmetry_equiv_pos_site_id
 _symmetry_equiv_pos_as_xyz
  1  'x, y, z'
loop_
 _atom_site_type_symbol
 _atom_site_label
 _atom_site_symmetry_multiplicity
 _atom_site_fract_x
 _atom_site_fract_y
 _atom_site_fract_z
 _atom_site_occupancy
  Ce  Ce0  1  0.999991  0.499991  0.527323  1
  Ce  Ce1  1  0.499953  0.999994  0.472753  1
  Dy  Dy2  1  0.500001  0.816268  0.203596  1
  Dy  Dy3  1  0.500004  0.183730  0.203594  1
  Dy  Dy4  1  0.999995  0.683712  0.796427  1
  Dy  Dy5  1  0.999991  0.316286  0.796424  1
  Cr  Cr6  1  0.500502  0.500020  0.153728  1
  Cr  Cr7  1  0.999738  0.000069  0.845966  1
  Co  Co8  1  0.499972  0.499994  0.699836  1
  Co  Co9  1  0.000015  0.999996  0.300158  1
  Co  Co10  1  0.000001  0.499998  0.985932  1
  Co  Co11  1  0.499991  0.999996  0.014067  1
  Co  Co12  1  0.499988  0.332849  0.992382  1
  Co  Co13  1  0.499990  0.667150  0.992374  1
  Co  Co14  1  0.999998  0.167138  0.007607  1
  Co  Co15  1  0.999997  0.832850  0.007616  1
  Co  Co16  1  0.499984  0.298021  0.430931  1
  Co  Co17  1  0.499987  0.701975  0.430936  1
  Co  Co18  1  0.999983  0.202063  0.569102  1
  Co  Co19  1  0.999978  0.797933  0.569107  1
  Co  Co20  1  0.499985  0.880588  0.710459  1
  Co  Co21  1  0.499985  0.119393  0.710460  1
  Co  Co22  1  0.999996  0.619359  0.289579  1
  Co  Co23  1  0.999998  0.380639  0.289574  1
  P  P24  1  0.499996  0.500000  0.881024  1
  P  P25  1  0.000012  0.000000  0.118944  1
  P  P26  1  0.499999  0.500001  0.342521  1
  P  P27  1  0.999990  0.999999  0.657565  1
  P  P28  1  0.499993  0.307016  0.617143  1
  P  P29  1  0.499995  0.692977  0.617144  1
  P  P30  1  0.999993  0.192999  0.382873  1
  P  P31  1  0.999990  0.807002  0.382876  1
  P  P32  1  0.500005  0.847900  0.893282  1
  P  P33  1  0.500008  0.152093  0.893282  1
  P  P34  1  0.000001  0.652104  0.106706  1
  P  P35  1  0.999996  0.347899  0.106705  1
