# generated using pymatgen
data_ZnB4Ir4Pd3
_symmetry_space_group_name_H-M   'P 1'
_cell_length_a   6.82046451
_cell_length_b   6.09905977
_cell_length_c   5.54243199
_cell_angle_alpha   70.74624442
_cell_angle_beta   58.22347601
_cell_angle_gamma   50.70460257
_symmetry_Int_Tables_number   1
_chemical_formula_structural   ZnB4Ir4Pd3
_chemical_formula_sum   'Zn1 B4 Ir4 Pd3'
_cell_volume   151.67861371
_cell_formula_units_Z   1
loop_
 _symmetry_equiv_pos_site_id
 _symmetry_equiv_pos_as_xyz
  1  'x, y, z'
loop_
 _atom_site_type_symbol
 _atom_site_label
 _atom_site_symmetry_multiplicity
 _atom_site_fract_x
 _atom_site_fract_y
 _atom_site_fract_z
 _atom_site_occupancy
  Zn  Zn0  1  0.940792  0.782955  0.394489  1
  B  B1  1  0.054827  0.985259  0.576386  1
  B  B2  1  0.676189  0.844367  0.188132  1
  B  B3  1  0.422203  0.557325  0.960444  1
  B  B4  1  0.263146  0.200490  0.854765  1
  Ir  Ir5  1  0.100908  0.636909  0.879989  1
  Ir  Ir6  1  0.371291  0.851162  0.153621  1
  Ir  Ir7  1  0.616148  0.144127  0.847599  1
  Ir  Ir8  1  0.398871  0.871796  0.629184  1
  Pd  Pd9  1  0.462862  0.306604  0.365467  1
  Pd  Pd10  1  0.862632  0.368404  0.311361  1
  Pd  Pd11  1  0.885331  0.395401  0.783363  1
