# generated using pymatgen
data_CaHo3(Al3Pt4)2
_symmetry_space_group_name_H-M   'P 1'
_cell_length_a   8.11734730
_cell_length_b   8.11734871
_cell_length_c   7.61288200
_cell_angle_alpha   90.05168187
_cell_angle_beta   89.94831812
_cell_angle_gamma   140.01661930
_symmetry_Int_Tables_number   1
_chemical_formula_structural   CaHo3(Al3Pt4)2
_chemical_formula_sum   'Ca1 Ho3 Al6 Pt8'
_cell_volume   322.32541751
_cell_formula_units_Z   1
loop_
 _symmetry_equiv_pos_site_id
 _symmetry_equiv_pos_as_xyz
  1  'x, y, z'
loop_
 _atom_site_type_symbol
 _atom_site_label
 _atom_site_symmetry_multiplicity
 _atom_site_fract_x
 _atom_site_fract_y
 _atom_site_fract_z
 _atom_site_occupancy
  Ca  Ca0  1  0.106311  0.893689  0.407362  1
  Ho  Ho1  1  0.895031  0.104969  0.592173  1
  Ho  Ho2  1  0.393712  0.606288  0.907844  1
  Ho  Ho3  1  0.605905  0.394095  0.091671  1
  Al  Al4  1  0.999414  0.000586  0.001260  1
  Al  Al5  1  0.501177  0.498823  0.498944  1
  Al  Al6  1  0.021950  0.478357  0.250810  1
  Al  Al7  1  0.478623  0.023531  0.748754  1
  Al  Al8  1  0.976469  0.521377  0.748754  1
  Al  Al9  1  0.521643  0.978050  0.250810  1
  Pt  Pt10  1  0.189732  0.312591  0.248781  1
  Pt  Pt11  1  0.309577  0.192014  0.752914  1
  Pt  Pt12  1  0.807986  0.690423  0.752914  1
  Pt  Pt13  1  0.687409  0.810268  0.248781  1
  Pt  Pt14  1  0.185401  0.814599  0.024947  1
  Pt  Pt15  1  0.816523  0.183477  0.970589  1
  Pt  Pt16  1  0.317914  0.682086  0.529381  1
  Pt  Pt17  1  0.685222  0.314778  0.473310  1
