# generated using pymatgen
data_LaLuMg(CuNi2)3
_symmetry_space_group_name_H-M   'P 1'
_cell_length_a   8.63526108
_cell_length_b   8.63526097
_cell_length_c   8.63526108
_cell_angle_alpha   33.43123416
_cell_angle_beta   33.43123810
_cell_angle_gamma   33.43122677
_symmetry_Int_Tables_number   1
_chemical_formula_structural   LaLuMg(CuNi2)3
_chemical_formula_sum   'La1 Lu1 Mg1 Cu3 Ni6'
_cell_volume   174.05294000
_cell_formula_units_Z   1
loop_
 _symmetry_equiv_pos_site_id
 _symmetry_equiv_pos_as_xyz
  1  'x, y, z'
loop_
 _atom_site_type_symbol
 _atom_site_label
 _atom_site_symmetry_multiplicity
 _atom_site_fract_x
 _atom_site_fract_y
 _atom_site_fract_z
 _atom_site_occupancy
  La  La0  1  0.001025  0.001025  0.001025  1
  Lu  Lu1  1  0.858945  0.858945  0.858945  1
  Mg  Mg2  1  0.146725  0.146725  0.146725  1
  Cu  Cu3  1  0.585272  0.083110  0.585272  1
  Cu  Cu4  1  0.083110  0.585272  0.585272  1
  Cu  Cu5  1  0.585272  0.585272  0.083110  1
  Ni  Ni6  1  0.413347  0.916855  0.413347  1
  Ni  Ni7  1  0.916855  0.413347  0.413347  1
  Ni  Ni8  1  0.330676  0.330676  0.330676  1
  Ni  Ni9  1  0.413347  0.413347  0.916855  1
  Ni  Ni10  1  0.500307  0.500307  0.500307  1
  Ni  Ni11  1  0.665119  0.665119  0.665119  1
