# generated using pymatgen
data_Y7ErGePd24
_symmetry_space_group_name_H-M   'P 1'
_cell_length_a   8.36070702
_cell_length_b   8.36070702
_cell_length_c   8.36070702
_cell_angle_alpha   89.99409258
_cell_angle_beta   90.00590742
_cell_angle_gamma   90.00590742
_symmetry_Int_Tables_number   1
_chemical_formula_structural   Y7ErGePd24
_chemical_formula_sum   'Y7 Er1 Ge1 Pd24'
_cell_volume   584.42529972
_cell_formula_units_Z   1
loop_
 _symmetry_equiv_pos_site_id
 _symmetry_equiv_pos_as_xyz
  1  'x, y, z'
loop_
 _atom_site_type_symbol
 _atom_site_label
 _atom_site_symmetry_multiplicity
 _atom_site_fract_x
 _atom_site_fract_y
 _atom_site_fract_z
 _atom_site_occupancy
  Y  Y0  1  0.253182  0.253172  0.253172  1
  Y  Y1  1  0.746847  0.746863  0.746863  1
  Y  Y2  1  0.746828  0.746818  0.253172  1
  Y  Y3  1  0.746828  0.253172  0.746818  1
  Y  Y4  1  0.253137  0.253153  0.746863  1
  Y  Y5  1  0.253137  0.746863  0.253153  1
  Y  Y6  1  0.253141  0.746859  0.746859  1
  Er  Er7  1  0.746702  0.253298  0.253298  1
  Ge  Ge8  1  0.000084  0.999916  0.999916  1
  Pd  Pd9  1  0.259951  0.499995  0.000025  1
  Pd  Pd10  1  0.740028  0.499547  0.000495  1
  Pd  Pd11  1  0.999505  0.259972  0.499547  1
  Pd  Pd12  1  0.500453  0.259972  0.000495  1
  Pd  Pd13  1  0.999975  0.740049  0.499995  1
  Pd  Pd14  1  0.500005  0.740049  0.000025  1
  Pd  Pd15  1  0.500453  0.000495  0.259972  1
  Pd  Pd16  1  0.259951  0.000025  0.499995  1
  Pd  Pd17  1  0.500005  0.000025  0.740049  1
  Pd  Pd18  1  0.740028  0.000495  0.499547  1
  Pd  Pd19  1  0.999505  0.499547  0.259972  1
  Pd  Pd20  1  0.999975  0.499995  0.740049  1
  Pd  Pd21  1  0.253271  0.499976  0.499976  1
  Pd  Pd22  1  0.746719  0.499469  0.499469  1
  Pd  Pd23  1  0.500531  0.253281  0.499469  1
  Pd  Pd24  1  0.500024  0.746729  0.499976  1
  Pd  Pd25  1  0.500531  0.499469  0.253281  1
  Pd  Pd26  1  0.500024  0.499976  0.746729  1
  Pd  Pd27  1  0.289708  0.000010  0.000010  1
  Pd  Pd28  1  0.710380  0.000444  0.000444  1
  Pd  Pd29  1  0.999556  0.289620  0.000444  1
  Pd  Pd30  1  0.999990  0.710292  0.000010  1
  Pd  Pd31  1  0.999556  0.000444  0.289620  1
  Pd  Pd32  1  0.999990  0.000010  0.710292  1
