# generated using pymatgen
data_Lu10NiRh3Au2
_symmetry_space_group_name_H-M   'P 1'
_cell_length_a   8.37077703
_cell_length_b   8.37077650
_cell_length_c   8.40627743
_cell_angle_alpha   127.06147097
_cell_angle_beta   127.06147809
_cell_angle_gamma   77.85099696
_symmetry_Int_Tables_number   1
_chemical_formula_structural   Lu10NiRh3Au2
_chemical_formula_sum   'Lu10 Ni1 Rh3 Au2'
_cell_volume   364.13240009
_cell_formula_units_Z   1
loop_
 _symmetry_equiv_pos_site_id
 _symmetry_equiv_pos_as_xyz
  1  'x, y, z'
loop_
 _atom_site_type_symbol
 _atom_site_label
 _atom_site_symmetry_multiplicity
 _atom_site_fract_x
 _atom_site_fract_y
 _atom_site_fract_z
 _atom_site_occupancy
  Lu  Lu0  1  0.999728  0.999933  0.999661  1
  Lu  Lu1  1  0.500067  0.500272  0.000339  1
  Lu  Lu2  1  0.799247  0.300735  0.820031  1
  Lu  Lu3  1  0.199265  0.700753  0.179969  1
  Lu  Lu4  1  0.479216  0.980705  0.179969  1
  Lu  Lu5  1  0.302112  0.474347  0.500000  1
  Lu  Lu6  1  0.025653  0.197888  0.500000  1
  Lu  Lu7  1  0.519295  0.020784  0.820031  1
  Lu  Lu8  1  0.698634  0.522228  0.500000  1
  Lu  Lu9  1  0.977772  0.801366  0.500000  1
  Ni  Ni10  1  0.363869  0.136131  0.500000  1
  Rh  Rh11  1  0.139936  0.638658  0.778595  1
  Rh  Rh12  1  0.861342  0.360064  0.221405  1
  Rh  Rh13  1  0.634700  0.865300  0.500000  1
  Au  Au14  1  0.249582  0.250418  0.000000  1
  Au  Au15  1  0.749582  0.750418  0.000000  1
