# generated using pymatgen
data_Hf8Zr2Sn6As
_symmetry_space_group_name_H-M   'P 1'
_cell_length_a   5.85624320
_cell_length_b   8.53194517
_cell_length_c   8.53450093
_cell_angle_alpha   119.99009990
_cell_angle_beta   89.95028537
_cell_angle_gamma   90.09946130
_symmetry_Int_Tables_number   1
_chemical_formula_structural   Hf8Zr2Sn6As
_chemical_formula_sum   'Hf8 Zr2 Sn6 As1'
_cell_volume   369.33339968
_cell_formula_units_Z   1
loop_
 _symmetry_equiv_pos_site_id
 _symmetry_equiv_pos_as_xyz
  1  'x, y, z'
loop_
 _atom_site_type_symbol
 _atom_site_label
 _atom_site_symmetry_multiplicity
 _atom_site_fract_x
 _atom_site_fract_y
 _atom_site_fract_z
 _atom_site_occupancy
  Hf  Hf0  1  0.500023  0.333474  0.666778  1
  Hf  Hf1  1  0.500023  0.666695  0.333222  1
  Hf  Hf2  1  0.999406  0.666829  0.333264  1
  Hf  Hf3  1  0.999406  0.333565  0.666736  1
  Hf  Hf4  1  0.762862  0.256066  0.000000  1
  Hf  Hf5  1  0.764712  0.743671  0.744258  1
  Hf  Hf6  1  0.764712  0.999412  0.255742  1
  Hf  Hf7  1  0.235970  0.744907  0.000000  1
  Zr  Zr8  1  0.235476  0.255062  0.254681  1
  Zr  Zr9  1  0.235476  0.000381  0.745319  1
  Sn  Sn10  1  0.747173  0.607232  0.000000  1
  Sn  Sn11  1  0.746827  0.392492  0.392530  1
  Sn  Sn12  1  0.746827  0.999963  0.607470  1
  Sn  Sn13  1  0.252447  0.394164  0.000000  1
  Sn  Sn14  1  0.253023  0.607510  0.607911  1
  Sn  Sn15  1  0.253023  0.999600  0.392089  1
  As  As16  1  0.502615  0.998978  0.000000  1
