# generated using pymatgen
data_Dy4MnNiRu6
_symmetry_space_group_name_H-M   'P 1'
_cell_length_a   5.26692300
_cell_length_b   5.20394971
_cell_length_c   8.83279000
_cell_angle_alpha   90.00000000
_cell_angle_beta   90.00000000
_cell_angle_gamma   120.36076471
_symmetry_Int_Tables_number   1
_chemical_formula_structural   Dy4MnNiRu6
_chemical_formula_sum   'Dy4 Mn1 Ni1 Ru6'
_cell_volume   208.89512143
_cell_formula_units_Z   1
loop_
 _symmetry_equiv_pos_site_id
 _symmetry_equiv_pos_as_xyz
  1  'x, y, z'
loop_
 _atom_site_type_symbol
 _atom_site_label
 _atom_site_symmetry_multiplicity
 _atom_site_fract_x
 _atom_site_fract_y
 _atom_site_fract_z
 _atom_site_occupancy
  Dy  Dy0  1  0.668676  0.337507  0.563143  1
  Dy  Dy1  1  0.332728  0.665769  0.431338  1
  Dy  Dy2  1  0.332728  0.665769  0.068662  1
  Dy  Dy3  1  0.668676  0.337507  0.936857  1
  Mn  Mn4  1  0.164802  0.329528  0.750000  1
  Ni  Ni5  1  0.835122  0.669192  0.250000  1
  Ru  Ru6  1  0.002321  0.004947  0.499999  1
  Ru  Ru7  1  0.002321  0.004947  0.000001  1
  Ru  Ru8  1  0.173660  0.825684  0.750000  1
  Ru  Ru9  1  0.652069  0.825800  0.750000  1
  Ru  Ru10  1  0.823381  0.166598  0.250000  1
  Ru  Ru11  1  0.343518  0.166754  0.250000  1
