# generated using pymatgen
data_Tb7Er(InPt)2
_symmetry_space_group_name_H-M   'P 1'
_cell_length_a   9.75484625
_cell_length_b   9.75383926
_cell_length_c   9.75383909
_cell_angle_alpha   60.00691167
_cell_angle_beta   60.01850937
_cell_angle_gamma   60.01850229
_symmetry_Int_Tables_number   1
_chemical_formula_structural   Tb7Er(InPt)2
_chemical_formula_sum   'Tb14 Er2 In4 Pt4'
_cell_volume   656.44860063
_cell_formula_units_Z   2
loop_
 _symmetry_equiv_pos_site_id
 _symmetry_equiv_pos_as_xyz
  1  'x, y, z'
loop_
 _atom_site_type_symbol
 _atom_site_label
 _atom_site_symmetry_multiplicity
 _atom_site_fract_x
 _atom_site_fract_y
 _atom_site_fract_z
 _atom_site_occupancy
  Tb  Tb0  1  0.190536  0.190667  0.807965  1
  Tb  Tb1  1  0.650261  0.052834  0.649602  1
  Tb  Tb2  1  0.062325  0.062900  0.437779  1
  Tb  Tb3  1  0.437498  0.436300  0.063723  1
  Tb  Tb4  1  0.650197  0.649648  0.649648  1
  Tb  Tb5  1  0.807884  0.190355  0.190355  1
  Tb  Tb6  1  0.188431  0.810060  0.810060  1
  Tb  Tb7  1  0.051968  0.649926  0.649926  1
  Tb  Tb8  1  0.438702  0.062472  0.062472  1
  Tb  Tb9  1  0.437498  0.063723  0.436300  1
  Tb  Tb10  1  0.062325  0.437779  0.062900  1
  Tb  Tb11  1  0.650261  0.649602  0.052834  1
  Tb  Tb12  1  0.190536  0.807965  0.190667  1
  Tb  Tb13  1  0.063264  0.436861  0.436861  1
  Er  Er14  1  0.809399  0.810029  0.189443  1
  Er  Er15  1  0.809399  0.189443  0.810029  1
  In  In16  1  0.416598  0.416300  0.416300  1
  In  In17  1  0.417637  0.417509  0.747583  1
  In  In18  1  0.417637  0.747583  0.417509  1
  In  In19  1  0.747715  0.417571  0.417571  1
  Pt  Pt20  1  0.857462  0.427158  0.857368  1
  Pt  Pt21  1  0.856395  0.858341  0.858341  1
  Pt  Pt22  1  0.857462  0.857368  0.427158  1
  Pt  Pt23  1  0.428610  0.857604  0.857604  1
