# generated using pymatgen
data_Dy2ErIn3Ag2Ir
_symmetry_space_group_name_H-M   'P 1'
_cell_length_a   7.95069016
_cell_length_b   7.95868891
_cell_length_c   3.74507000
_cell_angle_alpha   90.00000000
_cell_angle_beta   90.00000000
_cell_angle_gamma   119.98967038
_symmetry_Int_Tables_number   1
_chemical_formula_structural   Dy2ErIn3Ag2Ir
_chemical_formula_sum   'Dy2 Er1 In3 Ag2 Ir1'
_cell_volume   205.24950830
_cell_formula_units_Z   1
loop_
 _symmetry_equiv_pos_site_id
 _symmetry_equiv_pos_as_xyz
  1  'x, y, z'
loop_
 _atom_site_type_symbol
 _atom_site_label
 _atom_site_symmetry_multiplicity
 _atom_site_fract_x
 _atom_site_fract_y
 _atom_site_fract_z
 _atom_site_occupancy
  Dy  Dy0  1  0.390652  0.968563  0.000000  1
  Dy  Dy1  1  0.031527  0.420975  0.000000  1
  Er  Er2  1  0.576570  0.611111  0.000000  1
  In  In3  1  0.991651  0.725609  0.500000  1
  In  In4  1  0.274736  0.266557  0.500000  1
  In  In5  1  0.733794  0.007576  0.500000  1
  Ag  Ag6  1  0.999541  0.999274  0.000000  1
  Ag  Ag7  1  0.666534  0.334571  0.500000  1
  Ir  Ir8  1  0.334994  0.665765  0.500000  1
