# generated using pymatgen
data_ZrSc(Al2Ni)2
_symmetry_space_group_name_H-M   'P 1'
_cell_length_a   5.20906520
_cell_length_b   5.20906607
_cell_length_c   6.56683100
_cell_angle_alpha   90.00000000
_cell_angle_beta   90.00000000
_cell_angle_gamma   134.12407411
_symmetry_Int_Tables_number   1
_chemical_formula_structural   ZrSc(Al2Ni)2
_chemical_formula_sum   'Zr1 Sc1 Al4 Ni2'
_cell_volume   127.90850451
_cell_formula_units_Z   1
loop_
 _symmetry_equiv_pos_site_id
 _symmetry_equiv_pos_as_xyz
  1  'x, y, z'
loop_
 _atom_site_type_symbol
 _atom_site_label
 _atom_site_symmetry_multiplicity
 _atom_site_fract_x
 _atom_site_fract_y
 _atom_site_fract_z
 _atom_site_occupancy
  Zr  Zr0  1  0.567962  0.432038  0.750000  1
  Sc  Sc1  1  0.431857  0.568143  0.250000  1
  Al  Al2  1  0.856894  0.143106  0.949504  1
  Al  Al3  1  0.143623  0.856377  0.049440  1
  Al  Al4  1  0.143623  0.856377  0.450560  1
  Al  Al5  1  0.856894  0.143106  0.550496  1
  Ni  Ni6  1  0.290457  0.709543  0.750000  1
  Ni  Ni7  1  0.708690  0.291310  0.250000  1
