# generated using pymatgen
data_Cs5Ag(IO)2
_symmetry_space_group_name_H-M   'P 1'
_cell_length_a   6.16802500
_cell_length_b   8.01251900
_cell_length_c   15.53462400
_cell_angle_alpha   90.00000000
_cell_angle_beta   90.00000000
_cell_angle_gamma   90.00000000
_symmetry_Int_Tables_number   1
_chemical_formula_structural   Cs5Ag(IO)2
_chemical_formula_sum   'Cs10 Ag2 I4 O4'
_cell_volume   767.74313849
_cell_formula_units_Z   2
loop_
 _symmetry_equiv_pos_site_id
 _symmetry_equiv_pos_as_xyz
  1  'x, y, z'
loop_
 _atom_site_type_symbol
 _atom_site_label
 _atom_site_symmetry_multiplicity
 _atom_site_fract_x
 _atom_site_fract_y
 _atom_site_fract_z
 _atom_site_occupancy
  Cs  Cs0  1  0.500000  0.331517  0.599950  1
  Cs  Cs1  1  0.500000  0.168483  0.099950  1
  Cs  Cs2  1  0.000000  0.601257  0.736655  1
  Cs  Cs3  1  0.000000  0.500000  0.000000  1
  Cs  Cs4  1  0.500000  0.668483  0.400050  1
  Cs  Cs5  1  0.500000  0.831517  0.900050  1
  Cs  Cs6  1  0.000000  0.898743  0.236655  1
  Cs  Cs7  1  0.000000  0.398743  0.263345  1
  Cs  Cs8  1  0.000000  0.101257  0.763345  1
  Cs  Cs9  1  0.000000  0.000000  0.500000  1
  Ag  Ag10  1  0.000000  0.500000  0.500000  1
  Ag  Ag11  1  0.000000  0.000000  0.000000  1
  I  I12  1  0.500000  0.651092  0.145289  1
  I  I13  1  0.500000  0.348908  0.854711  1
  I  I14  1  0.500000  0.151092  0.354711  1
  I  I15  1  0.500000  0.848908  0.645289  1
  O  O16  1  0.000000  0.665786  0.397117  1
  O  O17  1  0.000000  0.834214  0.897117  1
  O  O18  1  0.000000  0.165786  0.102883  1
  O  O19  1  0.000000  0.334214  0.602883  1
