# generated using pymatgen
data_Rb4(SnSe2)3
_symmetry_space_group_name_H-M   'P 1'
_cell_length_a   8.11498627
_cell_length_b   8.11498579
_cell_length_c   8.86428548
_cell_angle_alpha   82.89543096
_cell_angle_beta   82.89542627
_cell_angle_gamma   117.88137950
_symmetry_Int_Tables_number   1
_chemical_formula_structural   Rb4(SnSe2)3
_chemical_formula_sum   'Rb4 Sn3 Se6'
_cell_volume   500.93228458
_cell_formula_units_Z   1
loop_
 _symmetry_equiv_pos_site_id
 _symmetry_equiv_pos_as_xyz
  1  'x, y, z'
loop_
 _atom_site_type_symbol
 _atom_site_label
 _atom_site_symmetry_multiplicity
 _atom_site_fract_x
 _atom_site_fract_y
 _atom_site_fract_z
 _atom_site_occupancy
  Rb  Rb0  1  0.513472  0.486528  0.000000  1
  Rb  Rb1  1  0.676812  0.323188  0.500000  1
  Rb  Rb2  1  0.330244  0.669756  0.500000  1
  Rb  Rb3  1  0.186205  0.813795  0.000000  1
  Sn  Sn4  1  0.843312  0.156688  0.000000  1
  Sn  Sn5  1  0.062376  0.066694  0.334963  1
  Sn  Sn6  1  0.933306  0.937624  0.665037  1
  Se  Se7  1  0.077271  0.383842  0.229843  1
  Se  Se8  1  0.380850  0.077504  0.263174  1
  Se  Se9  1  0.922496  0.619150  0.736826  1
  Se  Se10  1  0.616158  0.922729  0.770157  1
  Se  Se11  1  0.793436  0.835936  0.206667  1
  Se  Se12  1  0.164064  0.206564  0.793333  1
