# generated using pymatgen
data_Ho3Sc3(Si3Pt2)4
_symmetry_space_group_name_H-M   'P 1'
_cell_length_a   4.15205500
_cell_length_b   8.42345540
_cell_length_c   13.00494668
_cell_angle_alpha   80.75673337
_cell_angle_beta   90.00000000
_cell_angle_gamma   90.00000000
_symmetry_Int_Tables_number   1
_chemical_formula_structural   Ho3Sc3(Si3Pt2)4
_chemical_formula_sum   'Ho3 Sc3 Si12 Pt8'
_cell_volume   448.93743117
_cell_formula_units_Z   1
loop_
 _symmetry_equiv_pos_site_id
 _symmetry_equiv_pos_as_xyz
  1  'x, y, z'
loop_
 _atom_site_type_symbol
 _atom_site_label
 _atom_site_symmetry_multiplicity
 _atom_site_fract_x
 _atom_site_fract_y
 _atom_site_fract_z
 _atom_site_occupancy
  Ho  Ho0  1  0.750000  0.419168  0.806928  1
  Ho  Ho1  1  0.750000  0.926558  0.809899  1
  Ho  Ho2  1  0.250000  0.072700  0.189766  1
  Sc  Sc3  1  0.250000  0.765046  0.436561  1
  Sc  Sc4  1  0.250000  0.583722  0.195429  1
  Sc  Sc5  1  0.750000  0.234541  0.562547  1
  Si  Si6  1  0.750000  0.588885  0.562321  1
  Si  Si7  1  0.750000  0.125081  0.008097  1
  Si  Si8  1  0.750000  0.877196  0.563476  1
  Si  Si9  1  0.250000  0.697044  0.714554  1
  Si  Si10  1  0.750000  0.303967  0.284847  1
  Si  Si11  1  0.750000  0.803818  0.279228  1
  Si  Si12  1  0.250000  0.873214  0.994751  1
  Si  Si13  1  0.250000  0.194456  0.720751  1
  Si  Si14  1  0.250000  0.379983  0.999897  1
  Si  Si15  1  0.250000  0.122191  0.435585  1
  Si  Si16  1  0.750000  0.621226  0.002409  1
  Si  Si17  1  0.250000  0.410955  0.434615  1
  Pt  Pt18  1  0.750000  0.354122  0.101218  1
  Pt  Pt19  1  0.250000  0.971771  0.621797  1
  Pt  Pt20  1  0.750000  0.846870  0.093470  1
  Pt  Pt21  1  0.750000  0.028289  0.376791  1
  Pt  Pt22  1  0.250000  0.648403  0.899390  1
  Pt  Pt23  1  0.250000  0.150708  0.908991  1
  Pt  Pt24  1  0.750000  0.532954  0.375107  1
  Pt  Pt25  1  0.250000  0.467131  0.621576  1
