# generated using pymatgen
data_LaBi3(PS4)4
_symmetry_space_group_name_H-M   'P 1'
_cell_length_a   8.98555077
_cell_length_b   6.71368323
_cell_length_c   12.95384500
_cell_angle_alpha   89.89818718
_cell_angle_beta   121.06713967
_cell_angle_gamma   90.00909597
_symmetry_Int_Tables_number   1
_chemical_formula_structural   LaBi3(PS4)4
_chemical_formula_sum   'La1 Bi3 P4 S16'
_cell_volume   669.36468270
_cell_formula_units_Z   1
loop_
 _symmetry_equiv_pos_site_id
 _symmetry_equiv_pos_as_xyz
  1  'x, y, z'
loop_
 _atom_site_type_symbol
 _atom_site_label
 _atom_site_symmetry_multiplicity
 _atom_site_fract_x
 _atom_site_fract_y
 _atom_site_fract_z
 _atom_site_occupancy
  La  La0  1  0.441588  0.689704  0.834596  1
  Bi  Bi1  1  0.569088  0.326766  0.167492  1
  Bi  Bi2  1  0.432970  0.827875  0.331699  1
  Bi  Bi3  1  0.562745  0.169525  0.662679  1
  P  P4  1  0.303020  0.765194  0.041939  1
  P  P5  1  0.694373  0.264027  0.459917  1
  P  P6  1  0.302476  0.733086  0.535833  1
  P  P7  1  0.695168  0.233376  0.960445  1
  S  S8  1  0.564806  0.737503  0.093162  1
  S  S9  1  0.269685  0.027709  0.111688  1
  S  S10  1  0.257779  0.545930  0.133931  1
  S  S11  1  0.850471  0.246689  0.142456  1
  S  S12  1  0.150381  0.750120  0.353295  1
  S  S13  1  0.744342  0.046468  0.369976  1
  S  S14  1  0.730187  0.524909  0.391278  1
  S  S15  1  0.434121  0.236019  0.411849  1
  S  S16  1  0.565466  0.764938  0.590938  1
  S  S17  1  0.269108  0.471350  0.602496  1
  S  S18  1  0.250415  0.955426  0.622765  1
  S  S19  1  0.847280  0.250905  0.641875  1
  S  S20  1  0.146866  0.753210  0.862480  1
  S  S21  1  0.746057  0.452179  0.872218  1
  S  S22  1  0.735923  0.971278  0.894253  1
  S  S23  1  0.435684  0.255810  0.910740  1
