# generated using pymatgen
data_Ca3Yb2Si12Ir19
_symmetry_space_group_name_H-M   'P 1'
_cell_length_a   12.80817904
_cell_length_b   12.80990916
_cell_length_c   4.01532300
_cell_angle_alpha   90.00000000
_cell_angle_beta   90.00000000
_cell_angle_gamma   120.00460085
_symmetry_Int_Tables_number   1
_chemical_formula_structural   Ca3Yb2Si12Ir19
_chemical_formula_sum   'Ca3 Yb2 Si12 Ir19'
_cell_volume   570.51152424
_cell_formula_units_Z   1
loop_
 _symmetry_equiv_pos_site_id
 _symmetry_equiv_pos_as_xyz
  1  'x, y, z'
loop_
 _atom_site_type_symbol
 _atom_site_label
 _atom_site_symmetry_multiplicity
 _atom_site_fract_x
 _atom_site_fract_y
 _atom_site_fract_z
 _atom_site_occupancy
  Ca  Ca0  1  0.333307  0.666644  0.000000  1
  Ca  Ca1  1  0.180927  0.180898  0.500000  1
  Ca  Ca2  1  0.819079  0.999979  0.500000  1
  Yb  Yb3  1  0.666686  0.333331  0.000000  1
  Yb  Yb4  1  0.999997  0.819018  0.500000  1
  Si  Si5  1  0.817185  0.816968  0.000000  1
  Si  Si6  1  0.182801  0.999760  0.000000  1
  Si  Si7  1  0.000010  0.182878  0.000000  1
  Si  Si8  1  0.312469  0.832596  0.500000  1
  Si  Si9  1  0.167379  0.479965  0.500000  1
  Si  Si10  1  0.520094  0.687483  0.500000  1
  Si  Si11  1  0.832343  0.312611  0.500000  1
  Si  Si12  1  0.480208  0.167668  0.500000  1
  Si  Si13  1  0.687508  0.519823  0.500000  1
  Si  Si14  1  0.368815  0.368766  0.000000  1
  Si  Si15  1  0.631210  0.000010  0.000000  1
  Si  Si16  1  0.999973  0.631447  0.000000  1
  Ir  Ir17  1  0.194180  0.816360  0.000000  1
  Ir  Ir18  1  0.183697  0.378424  0.000000  1
  Ir  Ir19  1  0.621592  0.805208  0.000000  1
  Ir  Ir20  1  0.816114  0.194900  0.000000  1
  Ir  Ir21  1  0.378775  0.183806  0.000000  1
  Ir  Ir22  1  0.805638  0.621808  0.000000  1
  Ir  Ir23  1  0.716828  0.716527  0.500000  1
  Ir  Ir24  1  0.283271  0.999903  0.500000  1
  Ir  Ir25  1  0.999898  0.283495  0.500000  1
  Ir  Ir26  1  0.125340  0.639340  0.500000  1
  Ir  Ir27  1  0.360862  0.486295  0.500000  1
  Ir  Ir28  1  0.513697  0.874542  0.500000  1
  Ir  Ir29  1  0.639316  0.126112  0.500000  1
  Ir  Ir30  1  0.486806  0.360678  0.500000  1
  Ir  Ir31  1  0.873991  0.513502  0.500000  1
  Ir  Ir32  1  0.552743  0.552393  0.000000  1
  Ir  Ir33  1  0.447536  0.000199  0.000000  1
  Ir  Ir34  1  0.999723  0.447453  0.000000  1
  Ir  Ir35  1  0.000001  0.999211  0.000000  1
