# generated using pymatgen
data_Ce2As4Rh3
_symmetry_space_group_name_H-M   'P 1'
_cell_length_a   4.34919000
_cell_length_b   10.37784600
_cell_length_c   15.36509800
_cell_angle_alpha   90.00000000
_cell_angle_beta   90.00000000
_cell_angle_gamma   90.00000000
_symmetry_Int_Tables_number   1
_chemical_formula_structural   Ce2As4Rh3
_chemical_formula_sum   'Ce8 As16 Rh12'
_cell_volume   693.50714070
_cell_formula_units_Z   4
loop_
 _symmetry_equiv_pos_site_id
 _symmetry_equiv_pos_as_xyz
  1  'x, y, z'
loop_
 _atom_site_type_symbol
 _atom_site_label
 _atom_site_symmetry_multiplicity
 _atom_site_fract_x
 _atom_site_fract_y
 _atom_site_fract_z
 _atom_site_occupancy
  Ce  Ce0  1  0.250000  0.581683  0.750548  1
  Ce  Ce1  1  0.250000  0.918317  0.250548  1
  Ce  Ce2  1  0.750000  0.418317  0.249452  1
  Ce  Ce3  1  0.750000  0.081683  0.749452  1
  Ce  Ce4  1  0.250000  0.751347  0.502540  1
  Ce  Ce5  1  0.250000  0.748653  0.002540  1
  Ce  Ce6  1  0.750000  0.248653  0.497460  1
  Ce  Ce7  1  0.750000  0.251347  0.997460  1
  As  As8  1  0.250000  0.443452  0.930801  1
  As  As9  1  0.250000  0.056548  0.430801  1
  As  As10  1  0.750000  0.556548  0.069199  1
  As  As11  1  0.750000  0.943452  0.569199  1
  As  As12  1  0.250000  0.266555  0.649503  1
  As  As13  1  0.250000  0.233445  0.149503  1
  As  As14  1  0.750000  0.733445  0.350497  1
  As  As15  1  0.750000  0.766555  0.850497  1
  As  As16  1  0.250000  0.883759  0.711199  1
  As  As17  1  0.250000  0.616241  0.211199  1
  As  As18  1  0.750000  0.116241  0.288801  1
  As  As19  1  0.750000  0.383759  0.788801  1
  As  As20  1  0.250000  0.066337  0.896480  1
  As  As21  1  0.250000  0.433663  0.396480  1
  As  As22  1  0.750000  0.933663  0.103520  1
  As  As23  1  0.750000  0.566337  0.603520  1
  Rh  Rh24  1  0.250000  0.276399  0.815962  1
  Rh  Rh25  1  0.250000  0.223601  0.315962  1
  Rh  Rh26  1  0.750000  0.723601  0.184038  1
  Rh  Rh27  1  0.750000  0.776399  0.684038  1
  Rh  Rh28  1  0.250000  0.047941  0.591320  1
  Rh  Rh29  1  0.250000  0.452059  0.091320  1
  Rh  Rh30  1  0.750000  0.952059  0.408680  1
  Rh  Rh31  1  0.750000  0.547941  0.908680  1
  Rh  Rh32  1  0.250000  0.463679  0.557898  1
  Rh  Rh33  1  0.250000  0.036321  0.057898  1
  Rh  Rh34  1  0.750000  0.536321  0.442102  1
  Rh  Rh35  1  0.750000  0.963679  0.942102  1
