# generated using pymatgen
data_Ho3ErSi4RuRh3
_symmetry_space_group_name_H-M   'P 1'
_cell_length_a   4.27528500
_cell_length_b   6.89762904
_cell_length_c   7.28183703
_cell_angle_alpha   89.95169073
_cell_angle_beta   90.00000000
_cell_angle_gamma   90.00000000
_symmetry_Int_Tables_number   1
_chemical_formula_structural   Ho3ErSi4RuRh3
_chemical_formula_sum   'Ho3 Er1 Si4 Ru1 Rh3'
_cell_volume   214.73641874
_cell_formula_units_Z   1
loop_
 _symmetry_equiv_pos_site_id
 _symmetry_equiv_pos_as_xyz
  1  'x, y, z'
loop_
 _atom_site_type_symbol
 _atom_site_label
 _atom_site_symmetry_multiplicity
 _atom_site_fract_x
 _atom_site_fract_y
 _atom_site_fract_z
 _atom_site_occupancy
  Ho  Ho0  1  0.250000  0.494829  0.690038  1
  Ho  Ho1  1  0.750000  0.507198  0.311318  1
  Ho  Ho2  1  0.750000  0.002275  0.186972  1
  Er  Er3  1  0.250000  0.996616  0.812278  1
  Si  Si4  1  0.250000  0.297063  0.107345  1
  Si  Si5  1  0.750000  0.703956  0.887895  1
  Si  Si6  1  0.250000  0.797928  0.400762  1
  Si  Si7  1  0.750000  0.200447  0.603984  1
  Ru  Ru8  1  0.750000  0.846190  0.567082  1
  Rh  Rh9  1  0.250000  0.155411  0.431842  1
  Rh  Rh10  1  0.750000  0.342777  0.931024  1
  Rh  Rh11  1  0.250000  0.655310  0.069462  1
