# generated using pymatgen
data_Th14(FeCo)3
_symmetry_space_group_name_H-M   'P 1'
_cell_length_a   9.71064266
_cell_length_b   9.71064344
_cell_length_c   6.25255448
_cell_angle_alpha   90.03884966
_cell_angle_beta   89.96114745
_cell_angle_gamma   119.92465814
_symmetry_Int_Tables_number   1
_chemical_formula_structural   Th14(FeCo)3
_chemical_formula_sum   'Th14 Fe3 Co3'
_cell_volume   510.99091320
_cell_formula_units_Z   1
loop_
 _symmetry_equiv_pos_site_id
 _symmetry_equiv_pos_as_xyz
  1  'x, y, z'
loop_
 _atom_site_type_symbol
 _atom_site_label
 _atom_site_symmetry_multiplicity
 _atom_site_fract_x
 _atom_site_fract_y
 _atom_site_fract_z
 _atom_site_occupancy
  Th  Th0  1  0.332707  0.667293  0.037979  1
  Th  Th1  1  0.665639  0.334361  0.532925  1
  Th  Th2  1  0.124274  0.875726  0.250479  1
  Th  Th3  1  0.248699  0.122018  0.751022  1
  Th  Th4  1  0.877982  0.751301  0.751022  1
  Th  Th5  1  0.126867  0.248218  0.252612  1
  Th  Th6  1  0.751782  0.873133  0.252612  1
  Th  Th7  1  0.875160  0.124840  0.752421  1
  Th  Th8  1  0.542342  0.457658  0.051920  1
  Th  Th9  1  0.083922  0.544290  0.550836  1
  Th  Th10  1  0.455710  0.916078  0.550836  1
  Th  Th11  1  0.539336  0.084178  0.052805  1
  Th  Th12  1  0.915822  0.460664  0.052805  1
  Th  Th13  1  0.458474  0.541526  0.550137  1
  Fe  Fe14  1  0.816022  0.632488  0.292848  1
  Fe  Fe15  1  0.367512  0.183978  0.292848  1
  Fe  Fe16  1  0.184836  0.815164  0.791722  1
  Co  Co17  1  0.816975  0.183025  0.297942  1
  Co  Co18  1  0.631987  0.816046  0.797113  1
  Co  Co19  1  0.183954  0.368013  0.797113  1
