# generated using pymatgen
data_K4Li2ScAlP4
_symmetry_space_group_name_H-M   'P 1'
_cell_length_a   6.21777536
_cell_length_b   6.29489384
_cell_length_c   8.69066680
_cell_angle_alpha   111.23316161
_cell_angle_beta   110.96067293
_cell_angle_gamma   89.99999724
_symmetry_Int_Tables_number   1
_chemical_formula_structural   K4Li2ScAlP4
_chemical_formula_sum   'K4 Li2 Sc1 Al1 P4'
_cell_volume   292.78384183
_cell_formula_units_Z   1
loop_
 _symmetry_equiv_pos_site_id
 _symmetry_equiv_pos_as_xyz
  1  'x, y, z'
loop_
 _atom_site_type_symbol
 _atom_site_label
 _atom_site_symmetry_multiplicity
 _atom_site_fract_x
 _atom_site_fract_y
 _atom_site_fract_z
 _atom_site_occupancy
  K  K0  1  0.676503  0.450178  0.349726  1
  K  K1  1  0.173222  0.899547  0.349726  1
  K  K2  1  0.823496  0.100452  0.650274  1
  K  K3  1  0.326778  0.549822  0.650274  1
  Li  Li4  1  0.250001  0.499999  0.000000  1
  Li  Li5  1  0.750001  0.499999  0.000000  1
  Sc  Sc6  1  0.250001  0.000000  0.000000  1
  Al  Al7  1  0.750001  0.000000  0.000000  1
  P  P8  1  0.078367  0.318448  0.180710  1
  P  P9  1  0.602342  0.862262  0.180710  1
  P  P10  1  0.421633  0.137739  0.819290  1
  P  P11  1  0.897658  0.681552  0.819290  1
