# generated using pymatgen
data_Cs6NdSe4Cl
_symmetry_space_group_name_H-M   'P 1'
_cell_length_a   11.79858400
_cell_length_b   11.79858409
_cell_length_c   8.82155800
_cell_angle_alpha   90.00000000
_cell_angle_beta   90.00000000
_cell_angle_gamma   120.00000535
_symmetry_Int_Tables_number   1
_chemical_formula_structural   Cs6NdSe4Cl
_chemical_formula_sum   'Cs12 Nd2 Se8 Cl2'
_cell_volume   1063.49556503
_cell_formula_units_Z   2
loop_
 _symmetry_equiv_pos_site_id
 _symmetry_equiv_pos_as_xyz
  1  'x, y, z'
loop_
 _atom_site_type_symbol
 _atom_site_label
 _atom_site_symmetry_multiplicity
 _atom_site_fract_x
 _atom_site_fract_y
 _atom_site_fract_z
 _atom_site_occupancy
  Cs  Cs0  1  0.130326  0.869674  0.510223  1
  Cs  Cs1  1  0.739349  0.869674  0.510223  1
  Cs  Cs2  1  0.935941  0.467970  0.317378  1
  Cs  Cs3  1  0.532030  0.467970  0.317378  1
  Cs  Cs4  1  0.869674  0.739349  0.010223  1
  Cs  Cs5  1  0.260651  0.130326  0.010223  1
  Cs  Cs6  1  0.532030  0.064059  0.317378  1
  Cs  Cs7  1  0.130326  0.260651  0.510223  1
  Cs  Cs8  1  0.869674  0.130326  0.010223  1
  Cs  Cs9  1  0.064059  0.532030  0.817378  1
  Cs  Cs10  1  0.467970  0.935941  0.817378  1
  Cs  Cs11  1  0.467970  0.532030  0.817378  1
  Nd  Nd12  1  0.666667  0.333333  0.719879  1
  Nd  Nd13  1  0.333333  0.666667  0.219879  1
  Se  Se14  1  0.408223  0.204112  0.608199  1
  Se  Se15  1  0.591777  0.795888  0.108199  1
  Se  Se16  1  0.666667  0.333333  0.041520  1
  Se  Se17  1  0.795888  0.591777  0.608199  1
  Se  Se18  1  0.204112  0.408223  0.108199  1
  Se  Se19  1  0.333333  0.666667  0.541520  1
  Se  Se20  1  0.204112  0.795888  0.108199  1
  Se  Se21  1  0.795888  0.204112  0.608199  1
  Cl  Cl22  1  0.000000  0.000000  0.271803  1
  Cl  Cl23  1  0.000000  0.000000  0.771803  1
