# generated using pymatgen
data_Ac20Si15Ir
_symmetry_space_group_name_H-M   'P 1'
_cell_length_a   8.28066634
_cell_length_b   8.29046719
_cell_length_c   16.37100541
_cell_angle_alpha   90.12534887
_cell_angle_beta   89.84058972
_cell_angle_gamma   90.08419659
_symmetry_Int_Tables_number   1
_chemical_formula_structural   Ac20Si15Ir
_chemical_formula_sum   'Ac20 Si15 Ir1'
_cell_volume   1123.87098030
_cell_formula_units_Z   1
loop_
 _symmetry_equiv_pos_site_id
 _symmetry_equiv_pos_as_xyz
  1  'x, y, z'
loop_
 _atom_site_type_symbol
 _atom_site_label
 _atom_site_symmetry_multiplicity
 _atom_site_fract_x
 _atom_site_fract_y
 _atom_site_fract_z
 _atom_site_occupancy
  Ac  Ac0  1  0.306246  0.306655  0.999138  1
  Ac  Ac1  1  0.192676  0.808242  0.249788  1
  Ac  Ac2  1  0.825405  0.186918  0.751563  1
  Ac  Ac3  1  0.696502  0.687929  0.501724  1
  Ac  Ac4  1  0.377491  0.014310  0.446632  1
  Ac  Ac5  1  0.482528  0.881679  0.695755  1
  Ac  Ac6  1  0.513448  0.119469  0.195240  1
  Ac  Ac7  1  0.880235  0.484562  0.302616  1
  Ac  Ac8  1  0.124414  0.508734  0.800164  1
  Ac  Ac9  1  0.622411  0.984938  0.944213  1
  Ac  Ac10  1  0.010289  0.380000  0.556872  1
  Ac  Ac11  1  0.985056  0.623470  0.053134  1
  Ac  Ac12  1  0.132938  0.976222  0.874129  1
  Ac  Ac13  1  0.525929  0.625413  0.127291  1
  Ac  Ac14  1  0.466658  0.365823  0.630917  1
  Ac  Ac15  1  0.623821  0.523845  0.872222  1
  Ac  Ac16  1  0.376768  0.475453  0.371875  1
  Ac  Ac17  1  0.874736  0.027431  0.377924  1
  Ac  Ac18  1  0.973638  0.124366  0.122878  1
  Ac  Ac19  1  0.031291  0.884003  0.623677  1
  Si  Si20  1  0.330549  0.694556  0.959569  1
  Si  Si21  1  0.667303  0.303500  0.461570  1
  Si  Si22  1  0.696129  0.330451  0.040632  1
  Si  Si23  1  0.304914  0.670602  0.539147  1
  Si  Si24  1  0.805710  0.828293  0.212146  1
  Si  Si25  1  0.171428  0.195605  0.289410  1
  Si  Si26  1  0.827903  0.802897  0.789786  1
  Si  Si27  1  0.289184  0.917314  0.058684  1
  Si  Si28  1  0.582742  0.789638  0.311304  1
  Si  Si29  1  0.417858  0.208593  0.811716  1
  Si  Si30  1  0.782390  0.585891  0.690144  1
  Si  Si31  1  0.209316  0.418428  0.189604  1
  Si  Si32  1  0.703945  0.079797  0.559336  1
  Si  Si33  1  0.916562  0.289788  0.941382  1
  Si  Si34  1  0.084253  0.714425  0.441054  1
  Ir  Ir35  1  0.187335  0.180758  0.706761  1
