# generated using pymatgen
data_Zr6Sn6Ir3Rh2Au
_symmetry_space_group_name_H-M   'P 1'
_cell_length_a   7.40230000
_cell_length_b   7.40229877
_cell_length_c   7.47345000
_cell_angle_alpha   90.00000000
_cell_angle_beta   90.00000000
_cell_angle_gamma   119.99999657
_symmetry_Int_Tables_number   1
_chemical_formula_structural   Zr6Sn6Ir3Rh2Au
_chemical_formula_sum   'Zr6 Sn6 Ir3 Rh2 Au1'
_cell_volume   354.63783907
_cell_formula_units_Z   1
loop_
 _symmetry_equiv_pos_site_id
 _symmetry_equiv_pos_as_xyz
  1  'x, y, z'
loop_
 _atom_site_type_symbol
 _atom_site_label
 _atom_site_symmetry_multiplicity
 _atom_site_fract_x
 _atom_site_fract_y
 _atom_site_fract_z
 _atom_site_occupancy
  Zr  Zr0  1  0.580836  0.961170  0.744596  1
  Zr  Zr1  1  0.380335  0.419164  0.744596  1
  Zr  Zr2  1  0.038830  0.619665  0.744596  1
  Zr  Zr3  1  0.610462  0.015928  0.257614  1
  Zr  Zr4  1  0.405465  0.389538  0.257614  1
  Zr  Zr5  1  0.984072  0.594535  0.257614  1
  Sn  Sn6  1  0.263701  0.998126  0.005480  1
  Sn  Sn7  1  0.734952  0.730988  0.503288  1
  Sn  Sn8  1  0.996037  0.265048  0.503288  1
  Sn  Sn9  1  0.001874  0.265575  0.005480  1
  Sn  Sn10  1  0.734425  0.736299  0.005480  1
  Sn  Sn11  1  0.269012  0.003963  0.503288  1
  Ir  Ir12  1  0.666667  0.333333  0.530095  1
  Ir  Ir13  1  0.333333  0.666667  0.032532  1
  Ir  Ir14  1  0.333333  0.666667  0.452655  1
  Rh  Rh15  1  0.000000  0.000000  0.753445  1
  Rh  Rh16  1  0.000000  0.000000  0.255910  1
  Au  Au17  1  0.666667  0.333333  0.942429  1
