# generated using pymatgen
data_Er3ScMn4O14
_symmetry_space_group_name_H-M   'P 1'
_cell_length_a   7.00001415
_cell_length_b   7.00001433
_cell_length_c   7.00001321
_cell_angle_alpha   60.25594074
_cell_angle_beta   60.25594103
_cell_angle_gamma   60.25593737
_symmetry_Int_Tables_number   1
_chemical_formula_structural   Er3ScMn4O14
_chemical_formula_sum   'Er3 Sc1 Mn4 O14'
_cell_volume   243.94418583
_cell_formula_units_Z   1
loop_
 _symmetry_equiv_pos_site_id
 _symmetry_equiv_pos_as_xyz
  1  'x, y, z'
loop_
 _atom_site_type_symbol
 _atom_site_label
 _atom_site_symmetry_multiplicity
 _atom_site_fract_x
 _atom_site_fract_y
 _atom_site_fract_z
 _atom_site_occupancy
  Er  Er0  1  0.500000  0.000000  0.500000  1
  Er  Er1  1  0.000000  0.500000  0.500001  1
  Er  Er2  1  0.500000  0.500000  0.000000  1
  Sc  Sc3  1  0.500000  0.500000  0.500000  1
  Mn  Mn4  1  0.000000  0.500000  0.000001  1
  Mn  Mn5  1  0.500000  0.000000  0.000000  1
  Mn  Mn6  1  0.000000  0.000000  0.500000  1
  Mn  Mn7  1  0.000000  0.000000  0.000000  1
  O  O8  1  0.332433  0.917276  0.917275  1
  O  O9  1  0.084904  0.667834  0.667833  1
  O  O10  1  0.917274  0.332434  0.917275  1
  O  O11  1  0.917274  0.917276  0.332434  1
  O  O12  1  0.332166  0.332167  0.915096  1
  O  O13  1  0.332166  0.915097  0.332167  1
  O  O14  1  0.082725  0.667567  0.082725  1
  O  O15  1  0.667833  0.084904  0.667833  1
  O  O16  1  0.380112  0.380113  0.380112  1
  O  O17  1  0.619887  0.619888  0.619888  1
  O  O18  1  0.915095  0.332167  0.332167  1
  O  O19  1  0.667566  0.082725  0.082725  1
  O  O20  1  0.082725  0.082725  0.667566  1
  O  O21  1  0.667833  0.667834  0.084904  1
