# generated using pymatgen
data_Yb2ErPa(NiB4)4
_symmetry_space_group_name_H-M   'P 1'
_cell_length_a   6.80904618
_cell_length_b   6.80849373
_cell_length_c   6.80915057
_cell_angle_alpha   112.79219024
_cell_angle_beta   112.82824388
_cell_angle_gamma   102.98533629
_symmetry_Int_Tables_number   1
_chemical_formula_structural   Yb2ErPa(NiB4)4
_chemical_formula_sum   'Yb2 Er1 Pa1 Ni4 B16'
_cell_volume   240.69003531
_cell_formula_units_Z   1
loop_
 _symmetry_equiv_pos_site_id
 _symmetry_equiv_pos_as_xyz
  1  'x, y, z'
loop_
 _atom_site_type_symbol
 _atom_site_label
 _atom_site_symmetry_multiplicity
 _atom_site_fract_x
 _atom_site_fract_y
 _atom_site_fract_z
 _atom_site_occupancy
  Yb  Yb0  1  0.795617  0.795643  0.999981  1
  Yb  Yb1  1  0.204334  0.204365  0.999981  1
  Er  Er2  1  0.749965  0.249954  0.500026  1
  Pa  Pa3  1  0.250020  0.750024  0.499999  1
  Ni  Ni4  1  0.271507  0.499412  0.772098  1
  Ni  Ni5  1  0.727691  0.499440  0.228097  1
  Ni  Ni6  1  0.500465  0.728515  0.227906  1
  Ni  Ni7  1  0.500483  0.272529  0.771907  1
  B  B8  1  0.275502  0.110400  0.388985  1
  B  B9  1  0.721395  0.886523  0.611010  1
  B  B10  1  0.275493  0.886537  0.165122  1
  B  B11  1  0.721392  0.110415  0.834890  1
  B  B12  1  0.113503  0.724520  0.834897  1
  B  B13  1  0.889654  0.278573  0.165142  1
  B  B14  1  0.113491  0.278618  0.388990  1
  B  B15  1  0.889648  0.724529  0.611087  1
  B  B16  1  0.112806  0.112548  0.530231  1
  B  B17  1  0.582258  0.582542  0.469762  1
  B  B18  1  0.112784  0.582571  0.000263  1
  B  B19  1  0.582269  0.112523  0.999717  1
  B  B20  1  0.887486  0.887227  0.469749  1
  B  B21  1  0.417379  0.417686  0.530213  1
  B  B22  1  0.887472  0.417727  0.000256  1
  B  B23  1  0.417384  0.887179  0.999692  1
