# generated using pymatgen
data_BeV10Ge2As3
_symmetry_space_group_name_H-M   'P 1'
_cell_length_a   9.50221352
_cell_length_b   7.13701759
_cell_length_c   7.11478865
_cell_angle_alpha   83.66559001
_cell_angle_beta   48.30180290
_cell_angle_gamma   48.08381121
_symmetry_Int_Tables_number   1
_chemical_formula_structural   BeV10Ge2As3
_chemical_formula_sum   'Be1 V10 Ge2 As3'
_cell_volume   214.21627838
_cell_formula_units_Z   1
loop_
 _symmetry_equiv_pos_site_id
 _symmetry_equiv_pos_as_xyz
  1  'x, y, z'
loop_
 _atom_site_type_symbol
 _atom_site_label
 _atom_site_symmetry_multiplicity
 _atom_site_fract_x
 _atom_site_fract_y
 _atom_site_fract_z
 _atom_site_occupancy
  Be  Be0  1  0.249929  0.249809  0.250087  1
  V  V1  1  0.788303  0.415713  0.563511  1
  V  V2  1  0.231914  0.564124  0.414899  1
  V  V3  1  0.711614  0.937660  0.084719  1
  V  V4  1  0.266927  0.082253  0.937548  1
  V  V5  1  0.938201  0.711178  0.265238  1
  V  V6  1  0.081912  0.267469  0.713906  1
  V  V7  1  0.416443  0.787158  0.231750  1
  V  V8  1  0.563282  0.232840  0.790077  1
  V  V9  1  0.750387  0.251304  0.249323  1
  V  V10  1  0.251130  0.750394  0.748980  1
  Ge  Ge11  1  0.749811  0.750135  0.750141  1
  Ge  Ge12  1  0.333913  0.333709  0.666150  1
  As  As13  1  0.666975  0.667075  0.333102  1
  As  As14  1  0.165461  0.833826  0.166546  1
  As  As15  1  0.833798  0.165353  0.834025  1
