# generated using pymatgen
data_CsSr2TcN4
_symmetry_space_group_name_H-M   'P 1'
_cell_length_a   10.93933609
_cell_length_b   10.58492727
_cell_length_c   8.38623732
_cell_angle_alpha   68.05845825
_cell_angle_beta   64.61841549
_cell_angle_gamma   46.37484676
_symmetry_Int_Tables_number   1
_chemical_formula_structural   CsSr2TcN4
_chemical_formula_sum   'Cs4 Sr8 Tc4 N16'
_cell_volume   630.54554425
_cell_formula_units_Z   4
loop_
 _symmetry_equiv_pos_site_id
 _symmetry_equiv_pos_as_xyz
  1  'x, y, z'
loop_
 _atom_site_type_symbol
 _atom_site_label
 _atom_site_symmetry_multiplicity
 _atom_site_fract_x
 _atom_site_fract_y
 _atom_site_fract_z
 _atom_site_occupancy
  Cs  Cs0  1  0.553548  0.929122  0.931112  1
  Cs  Cs1  1  0.923449  0.571487  0.596312  1
  Cs  Cs2  1  0.311827  0.684139  0.680011  1
  Cs  Cs3  1  0.123889  0.107943  0.875478  1
  Sr  Sr4  1  0.092845  0.182916  0.386239  1
  Sr  Sr5  1  0.333261  0.379632  0.157864  1
  Sr  Sr6  1  0.724401  0.276174  0.277789  1
  Sr  Sr7  1  0.891405  0.871791  0.086291  1
  Sr  Sr8  1  0.343918  0.338715  0.646274  1
  Sr  Sr9  1  0.897234  0.914336  0.591697  1
  Sr  Sr10  1  0.663279  0.647896  0.354406  1
  Sr  Sr11  1  0.576406  0.593512  0.912150  1
  Tc  Tc12  1  0.507992  0.012385  0.453829  1
  Tc  Tc13  1  0.012251  0.492323  0.032747  1
  Tc  Tc14  1  0.749636  0.243777  0.759828  1
  Tc  Tc15  1  0.238394  0.754353  0.253379  1
  N  N16  1  0.976589  0.669487  0.855045  1
  N  N17  1  0.655527  0.291181  0.995802  1
  N  N18  1  0.643882  0.053873  0.460368  1
  N  N19  1  0.520475  0.835281  0.621105  1
  N  N20  1  0.195331  0.621517  0.438321  1
  N  N21  1  0.787471  0.398162  0.614213  1
  N  N22  1  0.958015  0.023907  0.743891  1
  N  N23  1  0.584283  0.950926  0.236467  1
  N  N24  1  0.452691  0.679535  0.233019  1
  N  N25  1  0.979457  0.559962  0.227838  1
  N  N26  1  0.253004  0.711537  0.050549  1
  N  N27  1  0.859159  0.449680  0.089274  1
  N  N28  1  0.239233  0.290471  0.987038  1
  N  N29  1  0.615984  0.254491  0.672639  1
  N  N30  1  0.279401  0.218921  0.484640  1
  N  N31  1  0.055764  0.990570  0.294383  1
