# generated using pymatgen
data_Tb7Dy2YRu4
_symmetry_space_group_name_H-M   'P 1'
_cell_length_a   8.53704273
_cell_length_b   8.54020975
_cell_length_c   7.29017301
_cell_angle_alpha   83.38628092
_cell_angle_beta   83.26561315
_cell_angle_gamma   44.03422331
_symmetry_Int_Tables_number   1
_chemical_formula_structural   Tb7Dy2YRu4
_chemical_formula_sum   'Tb7 Dy2 Y1 Ru4'
_cell_volume   366.53214191
_cell_formula_units_Z   1
loop_
 _symmetry_equiv_pos_site_id
 _symmetry_equiv_pos_as_xyz
  1  'x, y, z'
loop_
 _atom_site_type_symbol
 _atom_site_label
 _atom_site_symmetry_multiplicity
 _atom_site_fract_x
 _atom_site_fract_y
 _atom_site_fract_z
 _atom_site_occupancy
  Tb  Tb0  1  0.206883  0.978902  0.584831  1
  Tb  Tb1  1  0.020508  0.793512  0.915062  1
  Tb  Tb2  1  0.206917  0.359581  0.314035  1
  Tb  Tb3  1  0.640245  0.793478  0.185899  1
  Tb  Tb4  1  0.793413  0.640444  0.685847  1
  Tb  Tb5  1  0.359847  0.206371  0.814334  1
  Tb  Tb6  1  0.979203  0.206641  0.084652  1
  Dy  Dy7  1  0.576773  0.423319  0.750036  1
  Dy  Dy8  1  0.423081  0.576881  0.249983  1
  Y  Y9  1  0.793129  0.021286  0.415718  1
  Ru  Ru10  1  0.176587  0.602499  0.575223  1
  Ru  Ru11  1  0.396495  0.824308  0.925290  1
  Ru  Ru12  1  0.824006  0.396448  0.425455  1
  Ru  Ru13  1  0.602910  0.176330  0.073638  1
