# generated using pymatgen
data_Dy6TaSi12Rh17
_symmetry_space_group_name_H-M   'P 1'
_cell_length_a   3.93811900
_cell_length_b   11.19242600
_cell_length_c   12.80406400
_cell_angle_alpha   90.00000000
_cell_angle_beta   90.00000000
_cell_angle_gamma   90.00000000
_symmetry_Int_Tables_number   1
_chemical_formula_structural   Dy6TaSi12Rh17
_chemical_formula_sum   'Dy6 Ta1 Si12 Rh17'
_cell_volume   564.36607959
_cell_formula_units_Z   1
loop_
 _symmetry_equiv_pos_site_id
 _symmetry_equiv_pos_as_xyz
  1  'x, y, z'
loop_
 _atom_site_type_symbol
 _atom_site_label
 _atom_site_symmetry_multiplicity
 _atom_site_fract_x
 _atom_site_fract_y
 _atom_site_fract_z
 _atom_site_occupancy
  Dy  Dy0  1  0.000000  0.500000  0.524036  1
  Dy  Dy1  1  0.500000  0.000000  0.475087  1
  Dy  Dy2  1  0.500000  0.816404  0.205959  1
  Dy  Dy3  1  0.500000  0.183596  0.205959  1
  Dy  Dy4  1  0.000000  0.682287  0.796719  1
  Dy  Dy5  1  0.000000  0.317713  0.796719  1
  Ta  Ta6  1  0.500000  0.500000  0.147861  1
  Si  Si7  1  0.500000  0.500000  0.876885  1
  Si  Si8  1  0.000000  0.000000  0.123264  1
  Si  Si9  1  0.500000  0.500000  0.348618  1
  Si  Si10  1  0.000000  0.000000  0.658577  1
  Si  Si11  1  0.500000  0.305055  0.617121  1
  Si  Si12  1  0.500000  0.694945  0.617121  1
  Si  Si13  1  0.000000  0.195551  0.383265  1
  Si  Si14  1  0.000000  0.804449  0.383265  1
  Si  Si15  1  0.500000  0.853741  0.893528  1
  Si  Si16  1  0.500000  0.146259  0.893528  1
  Si  Si17  1  0.000000  0.656272  0.104012  1
  Si  Si18  1  0.000000  0.343728  0.104012  1
  Rh  Rh19  1  0.000000  0.000000  0.842888  1
  Rh  Rh20  1  0.500000  0.500000  0.691339  1
  Rh  Rh21  1  0.000000  0.000000  0.307374  1
  Rh  Rh22  1  0.000000  0.500000  0.980457  1
  Rh  Rh23  1  0.500000  0.000000  0.024372  1
  Rh  Rh24  1  0.500000  0.329331  0.988357  1
  Rh  Rh25  1  0.500000  0.670669  0.988357  1
  Rh  Rh26  1  0.000000  0.165820  0.008700  1
  Rh  Rh27  1  0.000000  0.834180  0.008700  1
  Rh  Rh28  1  0.500000  0.299542  0.432956  1
  Rh  Rh29  1  0.500000  0.700458  0.432956  1
  Rh  Rh30  1  0.000000  0.196677  0.569875  1
  Rh  Rh31  1  0.000000  0.803323  0.569875  1
  Rh  Rh32  1  0.500000  0.878128  0.710717  1
  Rh  Rh33  1  0.500000  0.121872  0.710717  1
  Rh  Rh34  1  0.000000  0.622554  0.288414  1
  Rh  Rh35  1  0.000000  0.377446  0.288414  1
