# generated using pymatgen
data_FeSbI6
_symmetry_space_group_name_H-M   'P 1'
_cell_length_a   10.96382698
_cell_length_b   10.96382708
_cell_length_c   8.02346354
_cell_angle_alpha   69.94640088
_cell_angle_beta   69.94640202
_cell_angle_gamma   79.22149781
_symmetry_Int_Tables_number   1
_chemical_formula_structural   FeSbI6
_chemical_formula_sum   'Fe2 Sb2 I12'
_cell_volume   848.42429644
_cell_formula_units_Z   2
loop_
 _symmetry_equiv_pos_site_id
 _symmetry_equiv_pos_as_xyz
  1  'x, y, z'
loop_
 _atom_site_type_symbol
 _atom_site_label
 _atom_site_symmetry_multiplicity
 _atom_site_fract_x
 _atom_site_fract_y
 _atom_site_fract_z
 _atom_site_occupancy
  Fe  Fe0  1  0.195873  0.195873  0.650952  1
  Fe  Fe1  1  0.804127  0.804127  0.349048  1
  Sb  Sb2  1  0.810387  0.189613  0.000000  1
  Sb  Sb3  1  0.189613  0.810387  0.000000  1
  I  I4  1  0.214605  0.576811  0.925723  1
  I  I5  1  0.423189  0.785395  0.074277  1
  I  I6  1  0.785395  0.423189  0.074277  1
  I  I7  1  0.576811  0.214605  0.925723  1
  I  I8  1  0.024696  0.722020  0.420805  1
  I  I9  1  0.277980  0.975304  0.579195  1
  I  I10  1  0.975304  0.277980  0.579195  1
  I  I11  1  0.722020  0.024696  0.420805  1
  I  I12  1  0.857992  0.857992  0.995474  1
  I  I13  1  0.142008  0.142008  0.004526  1
  I  I14  1  0.640462  0.640462  0.532347  1
  I  I15  1  0.359538  0.359538  0.467653  1
