# generated using pymatgen
data_ScH2Cl
_symmetry_space_group_name_H-M   'P 1'
_cell_length_a   10.08633012
_cell_length_b   10.08633004
_cell_length_c   10.08633010
_cell_angle_alpha   19.61567460
_cell_angle_beta   19.61567293
_cell_angle_gamma   19.61567110
_symmetry_Int_Tables_number   1
_chemical_formula_structural   ScH2Cl
_chemical_formula_sum   'Sc2 H4 Cl2'
_cell_volume   101.12931357
_cell_formula_units_Z   2
loop_
 _symmetry_equiv_pos_site_id
 _symmetry_equiv_pos_as_xyz
  1  'x, y, z'
loop_
 _atom_site_type_symbol
 _atom_site_label
 _atom_site_symmetry_multiplicity
 _atom_site_fract_x
 _atom_site_fract_y
 _atom_site_fract_z
 _atom_site_occupancy
  Sc  Sc0  1  0.883808  0.883808  0.883808  1
  Sc  Sc1  1  0.116192  0.116192  0.116192  1
  H  H2  1  0.814980  0.814980  0.814980  1
  H  H3  1  0.185020  0.185020  0.185020  1
  H  H4  1  0.543326  0.543326  0.543326  1
  H  H5  1  0.456674  0.456674  0.456674  1
  Cl  Cl6  1  0.725374  0.725374  0.725374  1
  Cl  Cl7  1  0.274626  0.274626  0.274626  1
