# generated using pymatgen
data_Be16Nb2Ni
_symmetry_space_group_name_H-M   'P 1'
_cell_length_a   5.57518983
_cell_length_b   5.57518972
_cell_length_c   5.57518904
_cell_angle_alpha   83.14454493
_cell_angle_beta   83.14454413
_cell_angle_gamma   83.14454050
_symmetry_Int_Tables_number   1
_chemical_formula_structural   Be16Nb2Ni
_chemical_formula_sum   'Be16 Nb2 Ni1'
_cell_volume   169.84907141
_cell_formula_units_Z   1
loop_
 _symmetry_equiv_pos_site_id
 _symmetry_equiv_pos_as_xyz
  1  'x, y, z'
loop_
 _atom_site_type_symbol
 _atom_site_label
 _atom_site_symmetry_multiplicity
 _atom_site_fract_x
 _atom_site_fract_y
 _atom_site_fract_z
 _atom_site_occupancy
  Be  Be0  1  0.603674  0.603674  0.603674  1
  Be  Be1  1  0.500035  0.500035  0.000704  1
  Be  Be2  1  0.500035  0.000704  0.500035  1
  Be  Be3  1  0.000704  0.500035  0.500035  1
  Be  Be4  1  0.498592  0.789860  0.207565  1
  Be  Be5  1  0.789860  0.207565  0.498592  1
  Be  Be6  1  0.207565  0.498592  0.789860  1
  Be  Be7  1  0.498592  0.207565  0.789860  1
  Be  Be8  1  0.207565  0.789860  0.498592  1
  Be  Be9  1  0.789860  0.498592  0.207565  1
  Be  Be10  1  0.658952  0.153409  0.153409  1
  Be  Be11  1  0.153409  0.153409  0.658952  1
  Be  Be12  1  0.153409  0.658952  0.153409  1
  Be  Be13  1  0.847648  0.339955  0.847648  1
  Be  Be14  1  0.339955  0.847648  0.847648  1
  Be  Be15  1  0.847648  0.847648  0.339955  1
  Nb  Nb16  1  0.158471  0.158471  0.158471  1
  Nb  Nb17  1  0.838822  0.838822  0.838822  1
  Ni  Ni18  1  0.405203  0.405203  0.405203  1
