# generated using pymatgen
data_Th6U(P3Rh5)4
_symmetry_space_group_name_H-M   'P 1'
_cell_length_a   13.52248000
_cell_length_b   13.52247982
_cell_length_c   4.04136800
_cell_angle_alpha   90.00000000
_cell_angle_beta   90.00000000
_cell_angle_gamma   119.99999619
_symmetry_Int_Tables_number   1
_chemical_formula_structural   Th6U(P3Rh5)4
_chemical_formula_sum   'Th6 U1 P12 Rh20'
_cell_volume   639.98786115
_cell_formula_units_Z   1
loop_
 _symmetry_equiv_pos_site_id
 _symmetry_equiv_pos_as_xyz
  1  'x, y, z'
loop_
 _atom_site_type_symbol
 _atom_site_label
 _atom_site_symmetry_multiplicity
 _atom_site_fract_x
 _atom_site_fract_y
 _atom_site_fract_z
 _atom_site_occupancy
  Th  Th0  1  0.527289  0.716278  0.258270  1
  Th  Th1  1  0.283722  0.811010  0.258270  1
  Th  Th2  1  0.188990  0.472711  0.258270  1
  Th  Th3  1  0.472711  0.283722  0.741730  1
  Th  Th4  1  0.716278  0.188990  0.741730  1
  Th  Th5  1  0.811010  0.527289  0.741730  1
  U  U6  1  0.000000  0.000000  0.000000  1
  P  P7  1  0.523755  0.136314  0.243272  1
  P  P8  1  0.863686  0.387442  0.243272  1
  P  P9  1  0.612558  0.476245  0.243272  1
  P  P10  1  0.948688  0.717472  0.235028  1
  P  P11  1  0.282528  0.231216  0.235028  1
  P  P12  1  0.768784  0.051312  0.235028  1
  P  P13  1  0.387442  0.523755  0.756728  1
  P  P14  1  0.476245  0.863686  0.756728  1
  P  P15  1  0.136314  0.612558  0.756728  1
  P  P16  1  0.717472  0.768784  0.764972  1
  P  P17  1  0.231216  0.948688  0.764972  1
  P  P18  1  0.051312  0.282528  0.764972  1
  Rh  Rh19  1  0.333333  0.666667  0.743275  1
  Rh  Rh20  1  0.920795  0.251046  0.223965  1
  Rh  Rh21  1  0.748954  0.669749  0.223965  1
  Rh  Rh22  1  0.330251  0.079205  0.223965  1
  Rh  Rh23  1  0.437606  0.019814  0.742553  1
  Rh  Rh24  1  0.980186  0.417793  0.742553  1
  Rh  Rh25  1  0.582207  0.562394  0.742553  1
  Rh  Rh26  1  0.666667  0.333333  0.256725  1
  Rh  Rh27  1  0.097548  0.201781  0.284869  1
  Rh  Rh28  1  0.798219  0.895766  0.284869  1
  Rh  Rh29  1  0.104234  0.902452  0.284869  1
  Rh  Rh30  1  0.019814  0.582207  0.257447  1
  Rh  Rh31  1  0.417793  0.437606  0.257447  1
  Rh  Rh32  1  0.562394  0.980186  0.257447  1
  Rh  Rh33  1  0.669749  0.920795  0.776035  1
  Rh  Rh34  1  0.079205  0.748954  0.776035  1
  Rh  Rh35  1  0.251046  0.330251  0.776035  1
  Rh  Rh36  1  0.902452  0.798219  0.715131  1
  Rh  Rh37  1  0.201781  0.104234  0.715131  1
  Rh  Rh38  1  0.895766  0.097548  0.715131  1
