# generated using pymatgen
data_NdEr3(BeSi3)2
_symmetry_space_group_name_H-M   'P 1'
_cell_length_a   7.85193200
_cell_length_b   7.85193236
_cell_length_c   8.11455100
_cell_angle_alpha   90.00000000
_cell_angle_beta   90.00000000
_cell_angle_gamma   119.99999847
_symmetry_Int_Tables_number   1
_chemical_formula_structural   NdEr3(BeSi3)2
_chemical_formula_sum   'Nd2 Er6 Be4 Si12'
_cell_volume   433.25961780
_cell_formula_units_Z   2
loop_
 _symmetry_equiv_pos_site_id
 _symmetry_equiv_pos_as_xyz
  1  'x, y, z'
loop_
 _atom_site_type_symbol
 _atom_site_label
 _atom_site_symmetry_multiplicity
 _atom_site_fract_x
 _atom_site_fract_y
 _atom_site_fract_z
 _atom_site_occupancy
  Nd  Nd0  1  0.000000  0.000000  0.250000  1
  Nd  Nd1  1  0.000000  0.000000  0.750000  1
  Er  Er2  1  0.500141  0.499859  0.250000  1
  Er  Er3  1  0.500141  0.000281  0.250000  1
  Er  Er4  1  0.999719  0.499859  0.250000  1
  Er  Er5  1  0.499859  0.500141  0.750000  1
  Er  Er6  1  0.000281  0.500141  0.750000  1
  Er  Er7  1  0.499859  0.999719  0.750000  1
  Be  Be8  1  0.666667  0.333333  0.492758  1
  Be  Be9  1  0.666667  0.333333  0.007242  1
  Be  Be10  1  0.333333  0.666667  0.992758  1
  Be  Be11  1  0.333333  0.666667  0.507242  1
  Si  Si12  1  0.826053  0.173947  0.500019  1
  Si  Si13  1  0.826053  0.652107  0.500019  1
  Si  Si14  1  0.347893  0.173947  0.500019  1
  Si  Si15  1  0.826053  0.173947  0.999981  1
  Si  Si16  1  0.826053  0.652107  0.999981  1
  Si  Si17  1  0.347893  0.173947  0.999981  1
  Si  Si18  1  0.173947  0.826053  0.000019  1
  Si  Si19  1  0.652107  0.826053  0.000019  1
  Si  Si20  1  0.173947  0.347893  0.000019  1
  Si  Si21  1  0.173947  0.826053  0.499981  1
  Si  Si22  1  0.652107  0.826053  0.499981  1
  Si  Si23  1  0.173947  0.347893  0.499981  1
