# generated using pymatgen
data_La6TcNiBr6
_symmetry_space_group_name_H-M   'P 1'
_cell_length_a   10.59395994
_cell_length_b   10.59395991
_cell_length_c   10.61962978
_cell_angle_alpha   109.79020545
_cell_angle_beta   109.79020994
_cell_angle_gamma   108.73580573
_symmetry_Int_Tables_number   1
_chemical_formula_structural   La6TcNiBr6
_chemical_formula_sum   'La12 Tc2 Ni2 Br12'
_cell_volume   918.52000970
_cell_formula_units_Z   2
loop_
 _symmetry_equiv_pos_site_id
 _symmetry_equiv_pos_as_xyz
  1  'x, y, z'
loop_
 _atom_site_type_symbol
 _atom_site_label
 _atom_site_symmetry_multiplicity
 _atom_site_fract_x
 _atom_site_fract_y
 _atom_site_fract_z
 _atom_site_occupancy
  La  La0  1  0.390011  0.609989  0.000000  1
  La  La1  1  0.609989  0.390011  0.000000  1
  La  La2  1  0.645600  0.145600  0.291201  1
  La  La3  1  0.854400  0.354400  0.708799  1
  La  La4  1  0.408425  0.395229  0.266932  1
  La  La5  1  0.128296  0.141494  0.733068  1
  La  La6  1  0.133528  0.360330  0.517433  1
  La  La7  1  0.842897  0.616094  0.482567  1
  La  La8  1  0.604771  0.591575  0.733068  1
  La  La9  1  0.858506  0.871704  0.266932  1
  La  La10  1  0.639670  0.866472  0.482567  1
  La  La11  1  0.383906  0.157103  0.517433  1
  Tc  Tc12  1  0.633547  0.633547  0.267092  1
  Tc  Tc13  1  0.366453  0.366453  0.732908  1
  Ni  Ni14  1  0.873296  0.126704  0.500000  1
  Ni  Ni15  1  0.626704  0.373296  0.500000  1
  Br  Br16  1  0.367404  0.632596  0.500000  1
  Br  Br17  1  0.132596  0.867404  0.500000  1
  Br  Br18  1  0.119055  0.119055  0.238110  1
  Br  Br19  1  0.880945  0.880945  0.761890  1
  Br  Br20  1  0.882354  0.627409  0.000225  1
  Br  Br21  1  0.627183  0.882127  0.999775  1
  Br  Br22  1  0.622608  0.121092  0.752528  1
  Br  Br23  1  0.368563  0.870080  0.247472  1
  Br  Br24  1  0.372591  0.117646  0.999775  1
  Br  Br25  1  0.117873  0.372817  0.000225  1
  Br  Br26  1  0.878908  0.377392  0.247472  1
  Br  Br27  1  0.129920  0.631437  0.752528  1
