# generated using pymatgen
data_TbTmSi3Pd
_symmetry_space_group_name_H-M   'P 1'
_cell_length_a   8.17425300
_cell_length_b   8.17425185
_cell_length_c   8.15076700
_cell_angle_alpha   90.00000000
_cell_angle_beta   90.00000000
_cell_angle_gamma   119.93143066
_symmetry_Int_Tables_number   1
_chemical_formula_structural   TbTmSi3Pd
_chemical_formula_sum   'Tb4 Tm4 Si12 Pd4'
_cell_volume   471.98137496
_cell_formula_units_Z   4
loop_
 _symmetry_equiv_pos_site_id
 _symmetry_equiv_pos_as_xyz
  1  'x, y, z'
loop_
 _atom_site_type_symbol
 _atom_site_label
 _atom_site_symmetry_multiplicity
 _atom_site_fract_x
 _atom_site_fract_y
 _atom_site_fract_z
 _atom_site_occupancy
  Tb  Tb0  1  0.500343  0.499657  0.250000  1
  Tb  Tb1  1  0.499657  0.500343  0.750000  1
  Tb  Tb2  1  0.000016  0.999984  0.250000  1
  Tb  Tb3  1  0.999984  0.000016  0.750000  1
  Tm  Tm4  1  0.500590  0.000390  0.250000  1
  Tm  Tm5  1  0.499410  0.999610  0.750000  1
  Tm  Tm6  1  0.999610  0.499410  0.250000  1
  Tm  Tm7  1  0.000390  0.500590  0.750000  1
  Si  Si8  1  0.165143  0.331530  0.000304  1
  Si  Si9  1  0.834857  0.668470  0.999696  1
  Si  Si10  1  0.668470  0.834857  0.000304  1
  Si  Si11  1  0.834857  0.668470  0.500304  1
  Si  Si12  1  0.331530  0.165143  0.999696  1
  Si  Si13  1  0.165143  0.331530  0.499696  1
  Si  Si14  1  0.165983  0.834017  0.000207  1
  Si  Si15  1  0.331530  0.165143  0.500304  1
  Si  Si16  1  0.834017  0.165983  0.999793  1
  Si  Si17  1  0.668470  0.834857  0.499696  1
  Si  Si18  1  0.834017  0.165983  0.500207  1
  Si  Si19  1  0.165983  0.834017  0.499793  1
  Pd  Pd20  1  0.332505  0.667495  0.000450  1
  Pd  Pd21  1  0.667495  0.332505  0.999550  1
  Pd  Pd22  1  0.667495  0.332505  0.500450  1
  Pd  Pd23  1  0.332505  0.667495  0.499550  1
