# generated using pymatgen
data_Th6Cu5NiSn8
_symmetry_space_group_name_H-M   'P 1'
_cell_length_a   8.45968377
_cell_length_b   8.45968391
_cell_length_c   8.45968385
_cell_angle_alpha   109.54420721
_cell_angle_beta   109.54420379
_cell_angle_gamma   109.32535550
_symmetry_Int_Tables_number   1
_chemical_formula_structural   Th6Cu5NiSn8
_chemical_formula_sum   'Th6 Cu5 Ni1 Sn8'
_cell_volume   466.05627932
_cell_formula_units_Z   1
loop_
 _symmetry_equiv_pos_site_id
 _symmetry_equiv_pos_as_xyz
  1  'x, y, z'
loop_
 _atom_site_type_symbol
 _atom_site_label
 _atom_site_symmetry_multiplicity
 _atom_site_fract_x
 _atom_site_fract_y
 _atom_site_fract_z
 _atom_site_occupancy
  Th  Th0  1  0.874922  0.248080  0.118815  1
  Th  Th1  1  0.629265  0.756107  0.381185  1
  Th  Th2  1  0.243893  0.125078  0.873158  1
  Th  Th3  1  0.751920  0.370735  0.626842  1
  Th  Th4  1  0.125000  0.875000  0.250000  1
  Th  Th5  1  0.375000  0.625000  0.750000  1
  Cu  Cu6  1  0.374812  0.249394  0.624722  1
  Cu  Cu7  1  0.124672  0.750090  0.875278  1
  Cu  Cu8  1  0.249910  0.625188  0.374582  1
  Cu  Cu9  1  0.750606  0.875328  0.125418  1
  Cu  Cu10  1  0.625000  0.375000  0.250000  1
  Ni  Ni11  1  0.875000  0.125000  0.750000  1
  Sn  Sn12  1  0.661224  0.500061  0.000425  1
  Sn  Sn13  1  0.502502  0.000261  0.663135  1
  Sn  Sn14  1  0.999635  0.660799  0.499575  1
  Sn  Sn15  1  0.837126  0.839367  0.836865  1
  Sn  Sn16  1  0.499939  0.000365  0.161164  1
  Sn  Sn17  1  0.160633  0.497498  0.997759  1
  Sn  Sn18  1  0.999739  0.162874  0.502241  1
  Sn  Sn19  1  0.339201  0.338776  0.338836  1
