# generated using pymatgen
data_TbEr19Sn16
_symmetry_space_group_name_H-M   'P 1'
_cell_length_a   7.99115264
_cell_length_b   8.12798260
_cell_length_c   15.35871306
_cell_angle_alpha   90.00430282
_cell_angle_beta   89.94084434
_cell_angle_gamma   89.95628026
_symmetry_Int_Tables_number   1
_chemical_formula_structural   TbEr19Sn16
_chemical_formula_sum   'Tb1 Er19 Sn16'
_cell_volume   997.57753210
_cell_formula_units_Z   1
loop_
 _symmetry_equiv_pos_site_id
 _symmetry_equiv_pos_as_xyz
  1  'x, y, z'
loop_
 _atom_site_type_symbol
 _atom_site_label
 _atom_site_symmetry_multiplicity
 _atom_site_fract_x
 _atom_site_fract_y
 _atom_site_fract_z
 _atom_site_occupancy
  Tb  Tb0  1  0.020488  0.180071  0.902766  1
  Er  Er1  1  0.367829  0.835931  0.877836  1
  Er  Er2  1  0.867895  0.664012  0.621993  1
  Er  Er3  1  0.632048  0.163924  0.377895  1
  Er  Er4  1  0.132357  0.336223  0.122279  1
  Er  Er5  1  0.632358  0.163893  0.122173  1
  Er  Er6  1  0.132089  0.336046  0.377876  1
  Er  Er7  1  0.367975  0.835954  0.622047  1
  Er  Er8  1  0.867833  0.663945  0.877865  1
  Er  Er9  1  0.521023  0.320178  0.902619  1
  Er  Er10  1  0.021118  0.180045  0.597594  1
  Er  Er11  1  0.478957  0.679954  0.402524  1
  Er  Er12  1  0.979189  0.819808  0.097460  1
  Er  Er13  1  0.479114  0.680098  0.097402  1
  Er  Er14  1  0.978952  0.820037  0.402536  1
  Er  Er15  1  0.521052  0.320110  0.597328  1
  Er  Er16  1  0.198225  0.502966  0.749851  1
  Er  Er17  1  0.697928  0.996970  0.749794  1
  Er  Er18  1  0.801929  0.497125  0.250049  1
  Er  Er19  1  0.301954  0.002803  0.250009  1
  Sn  Sn20  1  0.293040  0.034606  0.042179  1
  Sn  Sn21  1  0.792120  0.465031  0.458276  1
  Sn  Sn22  1  0.707932  0.965122  0.541729  1
  Sn  Sn23  1  0.208282  0.536012  0.958488  1
  Sn  Sn24  1  0.706509  0.963783  0.958532  1
  Sn  Sn25  1  0.207815  0.535007  0.541699  1
  Sn  Sn26  1  0.292172  0.034925  0.458288  1
  Sn  Sn27  1  0.792221  0.465029  0.041722  1
  Sn  Sn28  1  0.564578  0.619139  0.749976  1
  Sn  Sn29  1  0.064637  0.880481  0.749936  1
  Sn  Sn30  1  0.435448  0.380785  0.250010  1
  Sn  Sn31  1  0.935416  0.119290  0.250049  1
  Sn  Sn32  1  0.330144  0.147385  0.749806  1
  Sn  Sn33  1  0.828801  0.353308  0.749430  1
  Sn  Sn34  1  0.670327  0.852535  0.249973  1
  Sn  Sn35  1  0.170246  0.647471  0.250012  1
