# generated using pymatgen
data_NdDy3(Si3Ni5)4
_symmetry_space_group_name_H-M   'P 1'
_cell_length_a   3.81083400
_cell_length_b   6.59928721
_cell_length_c   18.84015029
_cell_angle_alpha   89.94532106
_cell_angle_beta   90.00000000
_cell_angle_gamma   90.00000000
_symmetry_Int_Tables_number   1
_chemical_formula_structural   NdDy3(Si3Ni5)4
_chemical_formula_sum   'Nd1 Dy3 Si12 Ni20'
_cell_volume   473.80673153
_cell_formula_units_Z   1
loop_
 _symmetry_equiv_pos_site_id
 _symmetry_equiv_pos_as_xyz
  1  'x, y, z'
loop_
 _atom_site_type_symbol
 _atom_site_label
 _atom_site_symmetry_multiplicity
 _atom_site_fract_x
 _atom_site_fract_y
 _atom_site_fract_z
 _atom_site_occupancy
  Nd  Nd0  1  0.250000  0.874929  0.356445  1
  Dy  Dy1  1  0.750000  0.123392  0.644734  1
  Dy  Dy2  1  0.750000  0.375951  0.143174  1
  Dy  Dy3  1  0.250000  0.624373  0.856215  1
  Si  Si4  1  0.250000  0.079001  0.085311  1
  Si  Si5  1  0.750000  0.921655  0.913643  1
  Si  Si6  1  0.750000  0.568713  0.414480  1
  Si  Si7  1  0.250000  0.424448  0.589082  1
  Si  Si8  1  0.250000  0.654933  0.072672  1
  Si  Si9  1  0.750000  0.343233  0.925369  1
  Si  Si10  1  0.750000  0.161595  0.428138  1
  Si  Si11  1  0.250000  0.843512  0.573685  1
  Si  Si12  1  0.250000  0.381100  0.262034  1
  Si  Si13  1  0.750000  0.619975  0.737855  1
  Si  Si14  1  0.750000  0.881292  0.234271  1
  Si  Si15  1  0.250000  0.118767  0.763247  1
  Ni  Ni16  1  0.250000  0.072964  0.205476  1
  Ni  Ni17  1  0.750000  0.928945  0.793221  1
  Ni  Ni18  1  0.750000  0.570729  0.291488  1
  Ni  Ni19  1  0.250000  0.429104  0.708948  1
  Ni  Ni20  1  0.250000  0.608051  0.485555  1
  Ni  Ni21  1  0.750000  0.386433  0.519605  1
  Ni  Ni22  1  0.750000  0.115354  0.015407  1
  Ni  Ni23  1  0.250000  0.885869  0.983619  1
  Ni  Ni24  1  0.250000  0.686182  0.197228  1
  Ni  Ni25  1  0.750000  0.313223  0.800978  1
  Ni  Ni26  1  0.750000  0.189160  0.299892  1
  Ni  Ni27  1  0.250000  0.813959  0.699366  1
  Ni  Ni28  1  0.250000  0.354937  0.383684  1
  Ni  Ni29  1  0.750000  0.649208  0.616914  1
  Ni  Ni30  1  0.750000  0.852749  0.113307  1
  Ni  Ni31  1  0.250000  0.145580  0.884174  1
  Ni  Ni32  1  0.250000  0.364833  0.004582  1
  Ni  Ni33  1  0.750000  0.633685  0.993500  1
  Ni  Ni34  1  0.750000  0.863975  0.495644  1
  Ni  Ni35  1  0.250000  0.138192  0.507055  1
