# generated using pymatgen
data_Nd6Er3TmPb6
_symmetry_space_group_name_H-M   'P 1'
_cell_length_a   6.74162500
_cell_length_b   9.24807302
_cell_length_c   9.24857600
_cell_angle_alpha   119.99799470
_cell_angle_beta   89.99962098
_cell_angle_gamma   90.00011244
_symmetry_Int_Tables_number   1
_chemical_formula_structural   Nd6Er3TmPb6
_chemical_formula_sum   'Nd6 Er3 Tm1 Pb6'
_cell_volume   499.37881920
_cell_formula_units_Z   1
loop_
 _symmetry_equiv_pos_site_id
 _symmetry_equiv_pos_as_xyz
  1  'x, y, z'
loop_
 _atom_site_type_symbol
 _atom_site_label
 _atom_site_symmetry_multiplicity
 _atom_site_fract_x
 _atom_site_fract_y
 _atom_site_fract_z
 _atom_site_occupancy
  Nd  Nd0  1  0.750019  0.240113  0.999975  1
  Nd  Nd1  1  0.750022  0.759785  0.759840  1
  Nd  Nd2  1  0.750021  0.999992  0.240183  1
  Nd  Nd3  1  0.249978  0.759862  0.999980  1
  Nd  Nd4  1  0.249974  0.240192  0.240183  1
  Nd  Nd5  1  0.249972  0.000055  0.759840  1
  Er  Er6  1  0.499996  0.333332  0.666697  1
  Er  Er7  1  0.500001  0.666634  0.333296  1
  Er  Er8  1  0.000001  0.666664  0.333301  1
  Tm  Tm9  1  0.999996  0.333370  0.666705  1
  Pb  Pb10  1  0.750052  0.601719  0.999930  1
  Pb  Pb11  1  0.750059  0.398176  0.398224  1
  Pb  Pb12  1  0.750057  0.000092  0.601846  1
  Pb  Pb13  1  0.249948  0.398211  0.999930  1
  Pb  Pb14  1  0.249953  0.601755  0.601846  1
  Pb  Pb15  1  0.249953  0.000048  0.398223  1
