# generated using pymatgen
data_Y6MnCo16P12Os
_symmetry_space_group_name_H-M   'P 1'
_cell_length_a   3.71461800
_cell_length_b   10.54416300
_cell_length_c   12.24325600
_cell_angle_alpha   90.00000000
_cell_angle_beta   90.00000000
_cell_angle_gamma   90.00000000
_symmetry_Int_Tables_number   1
_chemical_formula_structural   Y6MnCo16P12Os
_chemical_formula_sum   'Y6 Mn1 Co16 P12 Os1'
_cell_volume   479.53819064
_cell_formula_units_Z   1
loop_
 _symmetry_equiv_pos_site_id
 _symmetry_equiv_pos_as_xyz
  1  'x, y, z'
loop_
 _atom_site_type_symbol
 _atom_site_label
 _atom_site_symmetry_multiplicity
 _atom_site_fract_x
 _atom_site_fract_y
 _atom_site_fract_z
 _atom_site_occupancy
  Y  Y0  1  0.000000  0.500000  0.524573  1
  Y  Y1  1  0.500000  0.000000  0.478241  1
  Y  Y2  1  0.500000  0.817981  0.206010  1
  Y  Y3  1  0.500000  0.182019  0.206010  1
  Y  Y4  1  0.000000  0.682143  0.793958  1
  Y  Y5  1  0.000000  0.317857  0.793958  1
  Mn  Mn6  1  0.000000  0.000000  0.842516  1
  Co  Co7  1  0.500000  0.500000  0.702983  1
  Co  Co8  1  0.000000  0.000000  0.296374  1
  Co  Co9  1  0.000000  0.500000  0.987980  1
  Co  Co10  1  0.500000  0.000000  0.013674  1
  Co  Co11  1  0.500000  0.333350  0.990833  1
  Co  Co12  1  0.500000  0.666650  0.990833  1
  Co  Co13  1  0.000000  0.168108  0.006743  1
  Co  Co14  1  0.000000  0.831892  0.006743  1
  Co  Co15  1  0.500000  0.297397  0.430151  1
  Co  Co16  1  0.500000  0.702603  0.430151  1
  Co  Co17  1  0.000000  0.203469  0.568457  1
  Co  Co18  1  0.000000  0.796531  0.568457  1
  Co  Co19  1  0.500000  0.878569  0.709323  1
  Co  Co20  1  0.500000  0.121431  0.709323  1
  Co  Co21  1  0.000000  0.620007  0.291090  1
  Co  Co22  1  0.000000  0.379993  0.291090  1
  P  P23  1  0.500000  0.500000  0.881162  1
  P  P24  1  0.000000  0.000000  0.116709  1
  P  P25  1  0.500000  0.500000  0.349745  1
  P  P26  1  0.000000  0.000000  0.655822  1
  P  P27  1  0.500000  0.310466  0.615840  1
  P  P28  1  0.500000  0.689534  0.615840  1
  P  P29  1  0.000000  0.188647  0.384046  1
  P  P30  1  0.000000  0.811353  0.384046  1
  P  P31  1  0.500000  0.848021  0.892814  1
  P  P32  1  0.500000  0.151979  0.892814  1
  P  P33  1  0.000000  0.654480  0.106508  1
  P  P34  1  0.000000  0.345520  0.106508  1
  Os  Os35  1  0.500000  0.500000  0.158674  1
