# generated using pymatgen
data_Li2YbYSi4
_symmetry_space_group_name_H-M   'P 1'
_cell_length_a   3.78823600
_cell_length_b   7.77643600
_cell_length_c   10.39973071
_cell_angle_alpha   90.56217380
_cell_angle_beta   90.00000000
_cell_angle_gamma   90.00000000
_symmetry_Int_Tables_number   1
_chemical_formula_structural   Li2YbYSi4
_chemical_formula_sum   'Li4 Yb2 Y2 Si8'
_cell_volume   306.35065817
_cell_formula_units_Z   2
loop_
 _symmetry_equiv_pos_site_id
 _symmetry_equiv_pos_as_xyz
  1  'x, y, z'
loop_
 _atom_site_type_symbol
 _atom_site_label
 _atom_site_symmetry_multiplicity
 _atom_site_fract_x
 _atom_site_fract_y
 _atom_site_fract_z
 _atom_site_occupancy
  Li  Li0  1  0.250000  0.991810  0.389282  1
  Li  Li1  1  0.750000  0.008190  0.610718  1
  Li  Li2  1  0.250000  0.497612  0.109401  1
  Li  Li3  1  0.750000  0.502388  0.890599  1
  Yb  Yb4  1  0.250000  0.136542  0.865484  1
  Yb  Yb5  1  0.750000  0.863458  0.134516  1
  Y  Y6  1  0.250000  0.630280  0.635187  1
  Y  Y7  1  0.750000  0.369720  0.364813  1
  Si  Si8  1  0.750000  0.271319  0.071802  1
  Si  Si9  1  0.250000  0.728681  0.928198  1
  Si  Si10  1  0.750000  0.763081  0.436771  1
  Si  Si11  1  0.250000  0.236919  0.563229  1
  Si  Si12  1  0.750000  0.834343  0.818392  1
  Si  Si13  1  0.250000  0.165657  0.181608  1
  Si  Si14  1  0.750000  0.342060  0.674729  1
  Si  Si15  1  0.250000  0.657940  0.325271  1
