# generated using pymatgen
data_Tb8Ho12Sn9Pb7
_symmetry_space_group_name_H-M   'P 1'
_cell_length_a   8.07863959
_cell_length_b   8.19718383
_cell_length_c   15.50277400
_cell_angle_alpha   90.02974114
_cell_angle_beta   89.94599246
_cell_angle_gamma   89.96289881
_symmetry_Int_Tables_number   1
_chemical_formula_structural   Tb8Ho12Sn9Pb7
_chemical_formula_sum   'Tb8 Ho12 Sn9 Pb7'
_cell_volume   1026.62534358
_cell_formula_units_Z   1
loop_
 _symmetry_equiv_pos_site_id
 _symmetry_equiv_pos_as_xyz
  1  'x, y, z'
loop_
 _atom_site_type_symbol
 _atom_site_label
 _atom_site_symmetry_multiplicity
 _atom_site_fract_x
 _atom_site_fract_y
 _atom_site_fract_z
 _atom_site_occupancy
  Tb  Tb0  1  0.526896  0.324050  0.900455  1
  Tb  Tb1  1  0.025487  0.177742  0.601177  1
  Tb  Tb2  1  0.475200  0.677637  0.398887  1
  Tb  Tb3  1  0.974700  0.819228  0.100058  1
  Tb  Tb4  1  0.478297  0.675294  0.100076  1
  Tb  Tb5  1  0.974736  0.821921  0.398911  1
  Tb  Tb6  1  0.524617  0.322132  0.600898  1
  Tb  Tb7  1  0.023125  0.179584  0.900133  1
  Ho  Ho8  1  0.368425  0.838949  0.875702  1
  Ho  Ho9  1  0.869017  0.661208  0.624132  1
  Ho  Ho10  1  0.630429  0.161095  0.375540  1
  Ho  Ho11  1  0.128629  0.338692  0.123621  1
  Ho  Ho12  1  0.632208  0.163784  0.123489  1
  Ho  Ho13  1  0.130125  0.338892  0.375680  1
  Ho  Ho14  1  0.369424  0.839368  0.624539  1
  Ho  Ho15  1  0.868631  0.660114  0.877094  1
  Ho  Ho16  1  0.199842  0.503596  0.750224  1
  Ho  Ho17  1  0.699855  0.996463  0.750046  1
  Ho  Ho18  1  0.799459  0.496330  0.248451  1
  Ho  Ho19  1  0.300292  0.003300  0.249817  1
  Sn  Sn20  1  0.791526  0.462162  0.041633  1
  Sn  Sn21  1  0.565623  0.620472  0.750246  1
  Sn  Sn22  1  0.065066  0.878967  0.750390  1
  Sn  Sn23  1  0.433550  0.379244  0.249826  1
  Sn  Sn24  1  0.934684  0.119614  0.249730  1
  Sn  Sn25  1  0.332842  0.149523  0.750903  1
  Sn  Sn26  1  0.832480  0.351197  0.750160  1
  Sn  Sn27  1  0.667651  0.851449  0.249534  1
  Sn  Sn28  1  0.167722  0.648724  0.249611  1
  Pb  Pb29  1  0.290956  0.037878  0.041312  1
  Pb  Pb30  1  0.790198  0.461538  0.458682  1
  Pb  Pb31  1  0.710179  0.962562  0.541149  1
  Pb  Pb32  1  0.210323  0.538535  0.959292  1
  Pb  Pb33  1  0.708242  0.962136  0.958751  1
  Pb  Pb34  1  0.209806  0.538585  0.541058  1
  Pb  Pb35  1  0.289760  0.038035  0.458794  1
