# generated using pymatgen
data_Th2(P2Pd7)3
_symmetry_space_group_name_H-M   'P 1'
_cell_length_a   8.68803337
_cell_length_b   8.68803334
_cell_length_c   8.68803300
_cell_angle_alpha   60.00000511
_cell_angle_beta   60.00000521
_cell_angle_gamma   60.00000558
_symmetry_Int_Tables_number   1
_chemical_formula_structural   Th2(P2Pd7)3
_chemical_formula_sum   'Th2 P6 Pd21'
_cell_volume   463.71321790
_cell_formula_units_Z   1
loop_
 _symmetry_equiv_pos_site_id
 _symmetry_equiv_pos_as_xyz
  1  'x, y, z'
loop_
 _atom_site_type_symbol
 _atom_site_label
 _atom_site_symmetry_multiplicity
 _atom_site_fract_x
 _atom_site_fract_y
 _atom_site_fract_z
 _atom_site_occupancy
  Th  Th0  1  0.250000  0.250000  0.250000  1
  Th  Th1  1  0.750000  0.750000  0.750000  1
  P  P2  1  0.740010  0.259990  0.259990  1
  P  P3  1  0.259990  0.740010  0.740010  1
  P  P4  1  0.259990  0.740010  0.259990  1
  P  P5  1  0.740010  0.259990  0.740010  1
  P  P6  1  0.259990  0.259990  0.740010  1
  P  P7  1  0.740010  0.740010  0.259990  1
  Pd  Pd8  1  0.000000  0.000000  0.000000  1
  Pd  Pd9  1  0.384922  0.384922  0.384922  1
  Pd  Pd10  1  0.615078  0.615078  0.615078  1
  Pd  Pd11  1  0.384922  0.384922  0.845232  1
  Pd  Pd12  1  0.384922  0.845232  0.384922  1
  Pd  Pd13  1  0.615078  0.615078  0.154768  1
  Pd  Pd14  1  0.615078  0.154768  0.615078  1
  Pd  Pd15  1  0.845232  0.384922  0.384922  1
  Pd  Pd16  1  0.154768  0.615078  0.615078  1
  Pd  Pd17  1  0.344690  0.000000  0.000000  1
  Pd  Pd18  1  0.655310  0.000000  0.000000  1
  Pd  Pd19  1  0.000000  0.344690  0.655310  1
  Pd  Pd20  1  0.000000  0.655310  0.344690  1
  Pd  Pd21  1  0.000000  0.344690  0.000000  1
  Pd  Pd22  1  0.655310  0.000000  0.344690  1
  Pd  Pd23  1  0.000000  0.655310  0.000000  1
  Pd  Pd24  1  0.344690  0.000000  0.655310  1
  Pd  Pd25  1  0.000000  0.000000  0.344690  1
  Pd  Pd26  1  0.000000  0.000000  0.655310  1
  Pd  Pd27  1  0.655310  0.344690  0.000000  1
  Pd  Pd28  1  0.344690  0.655310  0.000000  1
