# generated using pymatgen
data_Dy20Ir3Pt4Rh5
_symmetry_space_group_name_H-M   'P 1'
_cell_length_a   10.98742297
_cell_length_b   10.99092140
_cell_length_c   6.35056762
_cell_angle_alpha   90.02341200
_cell_angle_beta   89.95489718
_cell_angle_gamma   89.67401715
_symmetry_Int_Tables_number   1
_chemical_formula_structural   Dy20Ir3Pt4Rh5
_chemical_formula_sum   'Dy20 Ir3 Pt4 Rh5'
_cell_volume   766.89391119
_cell_formula_units_Z   1
loop_
 _symmetry_equiv_pos_site_id
 _symmetry_equiv_pos_as_xyz
  1  'x, y, z'
loop_
 _atom_site_type_symbol
 _atom_site_label
 _atom_site_symmetry_multiplicity
 _atom_site_fract_x
 _atom_site_fract_y
 _atom_site_fract_z
 _atom_site_occupancy
  Dy  Dy0  1  0.292476  0.092398  0.378859  1
  Dy  Dy1  1  0.293453  0.909923  0.874671  1
  Dy  Dy2  1  0.705548  0.087326  0.876028  1
  Dy  Dy3  1  0.706116  0.908218  0.375585  1
  Dy  Dy4  1  0.587048  0.789444  0.880389  1
  Dy  Dy5  1  0.584948  0.207517  0.376522  1
  Dy  Dy6  1  0.413023  0.790246  0.379768  1
  Dy  Dy7  1  0.408099  0.208703  0.881417  1
  Dy  Dy8  1  0.210767  0.411125  0.619663  1
  Dy  Dy9  1  0.209410  0.586658  0.120079  1
  Dy  Dy10  1  0.792092  0.414701  0.123885  1
  Dy  Dy11  1  0.791413  0.590104  0.618363  1
  Dy  Dy12  1  0.908906  0.706374  0.123808  1
  Dy  Dy13  1  0.913999  0.293303  0.625112  1
  Dy  Dy14  1  0.091293  0.705397  0.624346  1
  Dy  Dy15  1  0.092991  0.292797  0.121567  1
  Dy  Dy16  1  0.001309  0.000586  0.499935  1
  Dy  Dy17  1  0.001093  0.001895  0.000028  1
  Dy  Dy18  1  0.498596  0.500867  0.999931  1
  Dy  Dy19  1  0.498838  0.501514  0.499970  1
  Ir  Ir20  1  0.654881  0.654004  0.250053  1
  Ir  Ir21  1  0.346210  0.345327  0.249819  1
  Ir  Ir22  1  0.344539  0.655856  0.750491  1
  Pt  Pt23  1  0.844710  0.155109  0.250229  1
  Pt  Pt24  1  0.846087  0.846953  0.750488  1
  Pt  Pt25  1  0.154400  0.845411  0.249856  1
  Pt  Pt26  1  0.655877  0.344575  0.749567  1
  Rh  Rh27  1  0.152483  0.153311  0.749520  1
  Rh  Rh28  1  0.500320  0.000238  0.124134  1
  Rh  Rh29  1  0.499982  0.000753  0.624753  1
  Rh  Rh30  1  0.999584  0.499698  0.875206  1
  Rh  Rh31  1  0.999509  0.499669  0.375959  1
