# generated using pymatgen
data_SrPrAsPt8
_symmetry_space_group_name_H-M   'P 1'
_cell_length_a   9.34730024
_cell_length_b   9.40767858
_cell_length_c   4.33163900
_cell_angle_alpha   90.00000000
_cell_angle_beta   90.00000000
_cell_angle_gamma   145.76482871
_symmetry_Int_Tables_number   1
_chemical_formula_structural   SrPrAsPt8
_chemical_formula_sum   'Sr1 Pr1 As1 Pt8'
_cell_volume   214.29581159
_cell_formula_units_Z   1
loop_
 _symmetry_equiv_pos_site_id
 _symmetry_equiv_pos_as_xyz
  1  'x, y, z'
loop_
 _atom_site_type_symbol
 _atom_site_label
 _atom_site_symmetry_multiplicity
 _atom_site_fract_x
 _atom_site_fract_y
 _atom_site_fract_z
 _atom_site_occupancy
  Sr  Sr0  1  0.617742  0.375242  0.500000  1
  Pr  Pr1  1  0.373074  0.624927  0.500000  1
  As  As2  1  0.229416  0.223763  0.000000  1
  Pt  Pt3  1  0.101390  0.871579  0.000000  1
  Pt  Pt4  1  0.886247  0.112073  0.000000  1
  Pt  Pt5  1  0.491305  0.983643  0.000000  1
  Pt  Pt6  1  0.992528  0.489920  0.000000  1
  Pt  Pt7  1  0.197693  0.788889  0.500000  1
  Pt  Pt8  1  0.791976  0.196365  0.500000  1
  Pt  Pt9  1  0.988340  0.991003  0.500000  1
  Pt  Pt10  1  0.643886  0.656195  0.000000  1
