# generated using pymatgen
data_Sc(Ta3Si2)3
_symmetry_space_group_name_H-M   'P 1'
_cell_length_a   7.58898628
_cell_length_b   7.61533581
_cell_length_c   7.60787147
_cell_angle_alpha   128.81273826
_cell_angle_beta   128.71769775
_cell_angle_gamma   75.33296021
_symmetry_Int_Tables_number   1
_chemical_formula_structural   Sc(Ta3Si2)3
_chemical_formula_sum   'Sc1 Ta9 Si6'
_cell_volume   260.24381817
_cell_formula_units_Z   1
loop_
 _symmetry_equiv_pos_site_id
 _symmetry_equiv_pos_as_xyz
  1  'x, y, z'
loop_
 _atom_site_type_symbol
 _atom_site_label
 _atom_site_symmetry_multiplicity
 _atom_site_fract_x
 _atom_site_fract_y
 _atom_site_fract_z
 _atom_site_occupancy
  Sc  Sc0  1  0.010213  0.183705  0.500000  1
  Ta  Ta1  1  0.682254  0.519422  0.500000  1
  Ta  Ta2  1  0.514481  0.014314  0.827982  1
  Ta  Ta3  1  0.186500  0.686333  0.172018  1
  Ta  Ta4  1  0.986890  0.810082  0.500000  1
  Ta  Ta5  1  0.316179  0.482938  0.500000  1
  Ta  Ta6  1  0.484733  0.986095  0.170534  1
  Ta  Ta7  1  0.814199  0.315561  0.829466  1
  Ta  Ta8  1  0.002385  0.000836  0.997862  1
  Ta  Ta9  1  0.504523  0.502974  0.002138  1
  Si  Si10  1  0.748634  0.748551  0.998867  1
  Si  Si11  1  0.249767  0.249683  0.001133  1
  Si  Si12  1  0.368017  0.129783  0.500000  1
  Si  Si13  1  0.631019  0.872381  0.500000  1
  Si  Si14  1  0.870268  0.368836  0.240331  1
  Si  Si15  1  0.129938  0.628505  0.759669  1
