# generated using pymatgen
data_Ho2MgSi2SnIr4
_symmetry_space_group_name_H-M   'P 1'
_cell_length_a   4.06433500
_cell_length_b   4.06433500
_cell_length_c   11.10998100
_cell_angle_alpha   90.00000000
_cell_angle_beta   90.00000000
_cell_angle_gamma   90.00000000
_symmetry_Int_Tables_number   1
_chemical_formula_structural   Ho2MgSi2SnIr4
_chemical_formula_sum   'Ho2 Mg1 Si2 Sn1 Ir4'
_cell_volume   183.52376515
_cell_formula_units_Z   1
loop_
 _symmetry_equiv_pos_site_id
 _symmetry_equiv_pos_as_xyz
  1  'x, y, z'
loop_
 _atom_site_type_symbol
 _atom_site_label
 _atom_site_symmetry_multiplicity
 _atom_site_fract_x
 _atom_site_fract_y
 _atom_site_fract_z
 _atom_site_occupancy
  Ho  Ho0  1  0.000000  0.500000  0.233319  1
  Ho  Ho1  1  0.500000  0.000000  0.766681  1
  Mg  Mg2  1  0.500000  0.500000  0.500000  1
  Si  Si3  1  0.000000  0.500000  0.882143  1
  Si  Si4  1  0.500000  0.000000  0.117857  1
  Sn  Sn5  1  0.000000  0.000000  0.500000  1
  Ir  Ir6  1  0.000000  0.000000  0.000000  1
  Ir  Ir7  1  0.500000  0.500000  0.000000  1
  Ir  Ir8  1  0.000000  0.500000  0.669423  1
  Ir  Ir9  1  0.500000  0.000000  0.330577  1
