# generated using pymatgen
data_Y15Th(HgPt)4
_symmetry_space_group_name_H-M   'P 1'
_cell_length_a   9.70559799
_cell_length_b   9.70559887
_cell_length_c   9.70559920
_cell_angle_alpha   60.26361389
_cell_angle_beta   60.26362004
_cell_angle_gamma   60.26361693
_symmetry_Int_Tables_number   1
_chemical_formula_structural   Y15Th(HgPt)4
_chemical_formula_sum   'Y15 Th1 Hg4 Pt4'
_cell_volume   650.33279930
_cell_formula_units_Z   1
loop_
 _symmetry_equiv_pos_site_id
 _symmetry_equiv_pos_as_xyz
  1  'x, y, z'
loop_
 _atom_site_type_symbol
 _atom_site_label
 _atom_site_symmetry_multiplicity
 _atom_site_fract_x
 _atom_site_fract_y
 _atom_site_fract_z
 _atom_site_occupancy
  Y  Y0  1  0.357380  0.357380  0.930004  1
  Y  Y1  1  0.357380  0.930004  0.357380  1
  Y  Y2  1  0.930004  0.357380  0.357380  1
  Y  Y3  1  0.813115  0.189167  0.189167  1
  Y  Y4  1  0.190631  0.810898  0.810898  1
  Y  Y5  1  0.189167  0.813115  0.189167  1
  Y  Y6  1  0.810898  0.190631  0.810898  1
  Y  Y7  1  0.189167  0.189167  0.813115  1
  Y  Y8  1  0.810898  0.810898  0.190631  1
  Y  Y9  1  0.937860  0.565333  0.565333  1
  Y  Y10  1  0.562696  0.937687  0.937687  1
  Y  Y11  1  0.565333  0.937860  0.565333  1
  Y  Y12  1  0.937687  0.562696  0.937687  1
  Y  Y13  1  0.565333  0.565333  0.937860  1
  Y  Y14  1  0.937687  0.937687  0.562696  1
  Th  Th15  1  0.349894  0.349894  0.349894  1
  Hg  Hg16  1  0.586594  0.586594  0.586594  1
  Hg  Hg17  1  0.587046  0.587046  0.238037  1
  Hg  Hg18  1  0.587046  0.238037  0.587046  1
  Hg  Hg19  1  0.238037  0.587046  0.587046  1
  Pt  Pt20  1  0.145466  0.145466  0.145466  1
  Pt  Pt21  1  0.141139  0.141139  0.568404  1
  Pt  Pt22  1  0.141139  0.568404  0.141139  1
  Pt  Pt23  1  0.568404  0.141139  0.141139  1
