# generated using pymatgen
data_Lu3Zr(SiMo)4
_symmetry_space_group_name_H-M   'P 1'
_cell_length_a   3.61376100
_cell_length_b   7.13513069
_cell_length_c   8.33199806
_cell_angle_alpha   90.07976136
_cell_angle_beta   90.00000000
_cell_angle_gamma   90.00000000
_symmetry_Int_Tables_number   1
_chemical_formula_structural   Lu3Zr(SiMo)4
_chemical_formula_sum   'Lu3 Zr1 Si4 Mo4'
_cell_volume   214.83750417
_cell_formula_units_Z   1
loop_
 _symmetry_equiv_pos_site_id
 _symmetry_equiv_pos_as_xyz
  1  'x, y, z'
loop_
 _atom_site_type_symbol
 _atom_site_label
 _atom_site_symmetry_multiplicity
 _atom_site_fract_x
 _atom_site_fract_y
 _atom_site_fract_z
 _atom_site_occupancy
  Lu  Lu0  1  0.250000  0.043603  0.333644  1
  Lu  Lu1  1  0.250000  0.541471  0.164295  1
  Lu  Lu2  1  0.750000  0.957396  0.667250  1
  Zr  Zr3  1  0.750000  0.457839  0.832177  1
  Si  Si4  1  0.250000  0.264211  0.640262  1
  Si  Si5  1  0.250000  0.756078  0.864352  1
  Si  Si6  1  0.750000  0.737463  0.363980  1
  Si  Si7  1  0.750000  0.239572  0.132880  1
  Mo  Mo8  1  0.250000  0.128630  0.940047  1
  Mo  Mo9  1  0.250000  0.624892  0.558848  1
  Mo  Mo10  1  0.750000  0.873924  0.056109  1
  Mo  Mo11  1  0.750000  0.374920  0.446156  1
