# generated using pymatgen
data_LaPr5Th4(Sn3Cl)2
_symmetry_space_group_name_H-M   'P 1'
_cell_length_a   9.55913600
_cell_length_b   9.55992912
_cell_length_c   6.69311700
_cell_angle_alpha   90.00000000
_cell_angle_beta   90.00000000
_cell_angle_gamma   119.99724871
_symmetry_Int_Tables_number   1
_chemical_formula_structural   LaPr5Th4(Sn3Cl)2
_chemical_formula_sum   'La1 Pr5 Th4 Sn6 Cl2'
_cell_volume   529.71759804
_cell_formula_units_Z   1
loop_
 _symmetry_equiv_pos_site_id
 _symmetry_equiv_pos_as_xyz
  1  'x, y, z'
loop_
 _atom_site_type_symbol
 _atom_site_label
 _atom_site_symmetry_multiplicity
 _atom_site_fract_x
 _atom_site_fract_y
 _atom_site_fract_z
 _atom_site_occupancy
  La  La0  1  0.262989  0.000000  0.250000  1
  Pr  Pr1  1  0.736509  0.000000  0.750000  1
  Pr  Pr2  1  0.736770  0.736939  0.250000  1
  Pr  Pr3  1  0.999831  0.263061  0.250000  1
  Pr  Pr4  1  0.999904  0.736463  0.750000  1
  Pr  Pr5  1  0.263441  0.263537  0.750000  1
  Th  Th6  1  0.666873  0.333520  0.999989  1
  Th  Th7  1  0.333351  0.666480  0.500011  1
  Th  Th8  1  0.666873  0.333520  0.500011  1
  Th  Th9  1  0.333351  0.666480  0.999989  1
  Sn  Sn10  1  0.611462  0.611466  0.750000  1
  Sn  Sn11  1  0.999473  0.610588  0.250000  1
  Sn  Sn12  1  0.612331  0.000000  0.250000  1
  Sn  Sn13  1  0.388550  0.000000  0.750000  1
  Sn  Sn14  1  0.999996  0.388534  0.750000  1
  Sn  Sn15  1  0.388886  0.389412  0.250000  1
  Cl  Cl16  1  0.999705  0.000000  0.500366  1
  Cl  Cl17  1  0.999705  0.000000  0.999634  1
