# generated using pymatgen
data_Tb3Yb2Si12Ir19
_symmetry_space_group_name_H-M   'P 1'
_cell_length_a   12.81453110
_cell_length_b   12.81453234
_cell_length_c   4.00232900
_cell_angle_alpha   90.00000000
_cell_angle_beta   90.00000000
_cell_angle_gamma   119.98571426
_symmetry_Int_Tables_number   1
_chemical_formula_structural   Tb3Yb2Si12Ir19
_chemical_formula_sum   'Tb3 Yb2 Si12 Ir19'
_cell_volume   569.26095626
_cell_formula_units_Z   1
loop_
 _symmetry_equiv_pos_site_id
 _symmetry_equiv_pos_as_xyz
  1  'x, y, z'
loop_
 _atom_site_type_symbol
 _atom_site_label
 _atom_site_symmetry_multiplicity
 _atom_site_fract_x
 _atom_site_fract_y
 _atom_site_fract_z
 _atom_site_occupancy
  Tb  Tb0  1  0.333387  0.666483  0.000000  1
  Tb  Tb1  1  0.666483  0.333387  0.000000  1
  Tb  Tb2  1  0.182475  0.182475  0.500000  1
  Yb  Yb3  1  0.815937  0.999656  0.500000  1
  Yb  Yb4  1  0.999656  0.815937  0.500000  1
  Si  Si5  1  0.817724  0.817724  0.000000  1
  Si  Si6  1  0.181627  0.998974  0.000000  1
  Si  Si7  1  0.998974  0.181627  0.000000  1
  Si  Si8  1  0.311002  0.831488  0.500000  1
  Si  Si9  1  0.168040  0.480155  0.500000  1
  Si  Si10  1  0.520769  0.688921  0.500000  1
  Si  Si11  1  0.831488  0.311002  0.500000  1
  Si  Si12  1  0.480155  0.168040  0.500000  1
  Si  Si13  1  0.688921  0.520769  0.500000  1
  Si  Si14  1  0.367499  0.367499  0.000000  1
  Si  Si15  1  0.632851  0.000031  0.000000  1
  Si  Si16  1  0.000031  0.632851  0.000000  1
  Ir  Ir17  1  0.194696  0.816897  0.000000  1
  Ir  Ir18  1  0.182719  0.376407  0.000000  1
  Ir  Ir19  1  0.621913  0.805547  0.000000  1
  Ir  Ir20  1  0.816897  0.194696  0.000000  1
  Ir  Ir21  1  0.376407  0.182719  0.000000  1
  Ir  Ir22  1  0.805547  0.621913  0.000000  1
  Ir  Ir23  1  0.717429  0.717429  0.500000  1
  Ir  Ir24  1  0.283321  0.000650  0.500000  1
  Ir  Ir25  1  0.000650  0.283321  0.500000  1
  Ir  Ir26  1  0.126275  0.638465  0.500000  1
  Ir  Ir27  1  0.361568  0.488588  0.500000  1
  Ir  Ir28  1  0.511313  0.873616  0.500000  1
  Ir  Ir29  1  0.638465  0.126275  0.500000  1
  Ir  Ir30  1  0.488588  0.361568  0.500000  1
  Ir  Ir31  1  0.873616  0.511313  0.500000  1
  Ir  Ir32  1  0.551833  0.551833  0.000000  1
  Ir  Ir33  1  0.448848  0.001852  0.000000  1
  Ir  Ir34  1  0.001852  0.448848  0.000000  1
  Ir  Ir35  1  0.001041  0.001041  0.000000  1
