# generated using pymatgen
data_Dy3Ho(Tm3Pt4)2
_symmetry_space_group_name_H-M   'P 1'
_cell_length_a   7.42300300
_cell_length_b   7.51267000
_cell_length_c   14.62044000
_cell_angle_alpha   89.99754943
_cell_angle_beta   90.00000000
_cell_angle_gamma   90.00000000
_symmetry_Int_Tables_number   1
_chemical_formula_structural   Dy3Ho(Tm3Pt4)2
_chemical_formula_sum   'Dy6 Ho2 Tm12 Pt16'
_cell_volume   815.33181880
_cell_formula_units_Z   2
loop_
 _symmetry_equiv_pos_site_id
 _symmetry_equiv_pos_as_xyz
  1  'x, y, z'
loop_
 _atom_site_type_symbol
 _atom_site_label
 _atom_site_symmetry_multiplicity
 _atom_site_fract_x
 _atom_site_fract_y
 _atom_site_fract_z
 _atom_site_occupancy
  Dy  Dy0  1  0.501009  0.679615  0.592648  1
  Dy  Dy1  1  0.001009  0.820385  0.907352  1
  Dy  Dy2  1  0.498991  0.320525  0.092617  1
  Dy  Dy3  1  0.998991  0.179475  0.407383  1
  Dy  Dy4  1  0.498982  0.320429  0.407349  1
  Dy  Dy5  1  0.998982  0.179571  0.092651  1
  Ho  Ho6  1  0.501148  0.679610  0.907304  1
  Ho  Ho7  1  0.001148  0.820390  0.592696  1
  Tm  Tm8  1  0.656839  0.167684  0.622695  1
  Tm  Tm9  1  0.156839  0.332316  0.877305  1
  Tm  Tm10  1  0.343331  0.832180  0.122641  1
  Tm  Tm11  1  0.843331  0.667820  0.377359  1
  Tm  Tm12  1  0.343199  0.832271  0.377319  1
  Tm  Tm13  1  0.843199  0.667729  0.122681  1
  Tm  Tm14  1  0.656727  0.167734  0.877297  1
  Tm  Tm15  1  0.156727  0.332266  0.622703  1
  Tm  Tm16  1  0.819350  0.510898  0.750010  1
  Tm  Tm17  1  0.319350  0.989102  0.749990  1
  Tm  Tm18  1  0.180623  0.489204  0.250001  1
  Tm  Tm19  1  0.680623  0.010796  0.249999  1
  Pt  Pt20  1  0.683183  0.966385  0.458386  1
  Pt  Pt21  1  0.183183  0.533615  0.041614  1
  Pt  Pt22  1  0.316977  0.033329  0.958266  1
  Pt  Pt23  1  0.816977  0.466671  0.541734  1
  Pt  Pt24  1  0.316644  0.033339  0.541724  1
  Pt  Pt25  1  0.816644  0.466661  0.958276  1
  Pt  Pt26  1  0.683048  0.966350  0.041633  1
  Pt  Pt27  1  0.183048  0.533650  0.458367  1
  Pt  Pt28  1  0.454263  0.386094  0.750058  1
  Pt  Pt29  1  0.954263  0.113906  0.749942  1
  Pt  Pt30  1  0.545743  0.614032  0.250000  1
  Pt  Pt31  1  0.045743  0.885968  0.250000  1
  Pt  Pt32  1  0.682621  0.856835  0.750066  1
  Pt  Pt33  1  0.182621  0.643165  0.749934  1
  Pt  Pt34  1  0.317324  0.143019  0.249999  1
  Pt  Pt35  1  0.817324  0.356981  0.250001  1
