# generated using pymatgen
data_Tm4VTc3F28
_symmetry_space_group_name_H-M   'P 1'
_cell_length_a   5.52425816
_cell_length_b   8.80750521
_cell_length_c   11.90199100
_cell_angle_alpha   62.59292890
_cell_angle_beta   90.03707872
_cell_angle_gamma   90.03229667
_symmetry_Int_Tables_number   1
_chemical_formula_structural   Tm4VTc3F28
_chemical_formula_sum   'Tm4 V1 Tc3 F28'
_cell_volume   514.09249235
_cell_formula_units_Z   1
loop_
 _symmetry_equiv_pos_site_id
 _symmetry_equiv_pos_as_xyz
  1  'x, y, z'
loop_
 _atom_site_type_symbol
 _atom_site_label
 _atom_site_symmetry_multiplicity
 _atom_site_fract_x
 _atom_site_fract_y
 _atom_site_fract_z
 _atom_site_occupancy
  Tm  Tm0  1  0.260644  0.812812  0.268534  1
  Tm  Tm1  1  0.740988  0.185268  0.735072  1
  Tm  Tm2  1  0.759234  0.184392  0.235356  1
  Tm  Tm3  1  0.240688  0.812825  0.761799  1
  V  V4  1  0.741423  0.725624  0.544619  1
  Tc  Tc5  1  0.759002  0.726523  0.043812  1
  Tc  Tc6  1  0.242201  0.273009  0.956514  1
  Tc  Tc7  1  0.257308  0.273189  0.457151  1
  F  F8  1  0.948424  0.711553  0.424593  1
  F  F9  1  0.049835  0.295304  0.582104  1
  F  F10  1  0.449742  0.293958  0.081909  1
  F  F11  1  0.552138  0.705980  0.917767  1
  F  F12  1  0.476766  0.728797  0.143426  1
  F  F13  1  0.524322  0.271142  0.856643  1
  F  F14  1  0.972953  0.267067  0.360424  1
  F  F15  1  0.011318  0.730846  0.641483  1
  F  F16  1  0.960581  0.746223  0.174021  1
  F  F17  1  0.039620  0.254651  0.826483  1
  F  F18  1  0.460062  0.252359  0.328284  1
  F  F19  1  0.537225  0.744882  0.666501  1
  F  F20  1  0.773799  0.476252  0.143097  1
  F  F21  1  0.227901  0.523045  0.856470  1
  F  F22  1  0.268050  0.523047  0.359696  1
  F  F23  1  0.725915  0.489120  0.639060  1
  F  F24  1  0.947277  0.278242  0.048136  1
  F  F25  1  0.052959  0.721926  0.951100  1
  F  F26  1  0.458360  0.722397  0.452152  1
  F  F27  1  0.553709  0.281411  0.547136  1
  F  F28  1  0.742877  0.961720  0.448412  1
  F  F29  1  0.257634  0.024178  0.552499  1
  F  F30  1  0.242852  0.024568  0.054186  1
  F  F31  1  0.756898  0.975908  0.945894  1
  F  F32  1  0.579907  0.972816  0.230814  1
  F  F33  1  0.423708  0.026569  0.765033  1
  F  F34  1  0.080128  0.028063  0.268248  1
  F  F35  1  0.923556  0.974337  0.731572  1
