# generated using pymatgen
data_Tb6Gd10MgCd3Rh4
_symmetry_space_group_name_H-M   'P 1'
_cell_length_a   9.77647059
_cell_length_b   9.75652880
_cell_length_c   9.75652900
_cell_angle_alpha   60.00000271
_cell_angle_beta   60.06745499
_cell_angle_gamma   60.06745523
_symmetry_Int_Tables_number   1
_chemical_formula_structural   Tb6Gd10MgCd3Rh4
_chemical_formula_sum   'Tb6 Gd10 Mg1 Cd3 Rh4'
_cell_volume   658.71845010
_cell_formula_units_Z   1
loop_
 _symmetry_equiv_pos_site_id
 _symmetry_equiv_pos_as_xyz
  1  'x, y, z'
loop_
 _atom_site_type_symbol
 _atom_site_label
 _atom_site_symmetry_multiplicity
 _atom_site_fract_x
 _atom_site_fract_y
 _atom_site_fract_z
 _atom_site_occupancy
  Tb  Tb0  1  0.935192  0.565240  0.565240  1
  Tb  Tb1  1  0.564029  0.935173  0.935173  1
  Tb  Tb2  1  0.564029  0.935173  0.565625  1
  Tb  Tb3  1  0.935192  0.565240  0.934328  1
  Tb  Tb4  1  0.564029  0.565625  0.935173  1
  Tb  Tb5  1  0.935192  0.934328  0.565240  1
  Gd  Gd6  1  0.348820  0.347950  0.347950  1
  Gd  Gd7  1  0.348820  0.347950  0.955281  1
  Gd  Gd8  1  0.348820  0.955281  0.347950  1
  Gd  Gd9  1  0.947928  0.350691  0.350691  1
  Gd  Gd10  1  0.810182  0.189159  0.189159  1
  Gd  Gd11  1  0.186616  0.812788  0.812788  1
  Gd  Gd12  1  0.186616  0.812788  0.187807  1
  Gd  Gd13  1  0.810182  0.189159  0.811502  1
  Gd  Gd14  1  0.186616  0.187807  0.812788  1
  Gd  Gd15  1  0.810182  0.811502  0.189159  1
  Mg  Mg16  1  0.279348  0.573551  0.573551  1
  Cd  Cd17  1  0.581276  0.582541  0.582541  1
  Cd  Cd18  1  0.581276  0.582541  0.253642  1
  Cd  Cd19  1  0.581276  0.253642  0.582541  1
  Rh  Rh20  1  0.140627  0.142863  0.142863  1
  Rh  Rh21  1  0.140627  0.142863  0.573646  1
  Rh  Rh22  1  0.140627  0.573646  0.142863  1
  Rh  Rh23  1  0.572499  0.142500  0.142500  1
