# generated using pymatgen
data_CuI28
_symmetry_space_group_name_H-M   'P 1'
_cell_length_a   10.67681737
_cell_length_b   14.33344904
_cell_length_c   12.98270300
_cell_angle_alpha   108.44914254
_cell_angle_beta   105.43469067
_cell_angle_gamma   86.57346759
_symmetry_Int_Tables_number   1
_chemical_formula_structural   CuI28
_chemical_formula_sum   'Cu1 I28'
_cell_volume   1816.08072199
_cell_formula_units_Z   1
loop_
 _symmetry_equiv_pos_site_id
 _symmetry_equiv_pos_as_xyz
  1  'x, y, z'
loop_
 _atom_site_type_symbol
 _atom_site_label
 _atom_site_symmetry_multiplicity
 _atom_site_fract_x
 _atom_site_fract_y
 _atom_site_fract_z
 _atom_site_occupancy
  Cu  Cu0  1  0.500000  0.000000  0.000000  1
  I  I1  1  0.052034  0.086765  0.407065  1
  I  I2  1  0.555558  0.139748  0.399398  1
  I  I3  1  0.276756  0.242068  0.874996  1
  I  I4  1  0.756378  0.280510  0.852501  1
  I  I5  1  0.246223  0.474956  0.683023  1
  I  I6  1  0.821953  0.586216  0.730253  1
  I  I7  1  0.444442  0.860252  0.600602  1
  I  I8  1  0.947966  0.913235  0.592935  1
  I  I9  1  0.243622  0.719490  0.147499  1
  I  I10  1  0.723244  0.757932  0.125004  1
  I  I11  1  0.178047  0.413784  0.269747  1
  I  I12  1  0.753777  0.525044  0.316977  1
  I  I13  1  0.851127  0.092373  0.726129  1
  I  I14  1  0.332795  0.959175  0.807779  1
  I  I15  1  0.035136  0.651476  0.944330  1
  I  I16  1  0.532673  0.813275  0.945000  1
  I  I17  1  0.627616  0.389719  0.372799  1
  I  I18  1  0.121681  0.250730  0.338280  1
  I  I19  1  0.667205  0.040825  0.192221  1
  I  I20  1  0.148873  0.907627  0.273871  1
  I  I21  1  0.467327  0.186725  0.055000  1
  I  I22  1  0.964864  0.348524  0.055670  1
  I  I23  1  0.878319  0.749270  0.661720  1
  I  I24  1  0.372384  0.610281  0.627201  1
  I  I25  1  0.088255  0.325511  0.724506  1
  I  I26  1  0.477160  0.225267  0.595572  1
  I  I27  1  0.522840  0.774733  0.404428  1
  I  I28  1  0.911745  0.674489  0.275494  1
