# generated using pymatgen
data_Hf4H15
_symmetry_space_group_name_H-M   'P 1'
_cell_length_a   6.90516130
_cell_length_b   6.90798779
_cell_length_c   6.91832372
_cell_angle_alpha   109.51039130
_cell_angle_beta   109.45565047
_cell_angle_gamma   109.35258053
_symmetry_Int_Tables_number   1
_chemical_formula_structural   Hf4H15
_chemical_formula_sum   'Hf8 H30'
_cell_volume   254.33848966
_cell_formula_units_Z   2
loop_
 _symmetry_equiv_pos_site_id
 _symmetry_equiv_pos_as_xyz
  1  'x, y, z'
loop_
 _atom_site_type_symbol
 _atom_site_label
 _atom_site_symmetry_multiplicity
 _atom_site_fract_x
 _atom_site_fract_y
 _atom_site_fract_z
 _atom_site_occupancy
  Hf  Hf0  1  0.904116  0.904291  0.904137  1
  Hf  Hf1  1  0.499945  0.000048  0.096014  1
  Hf  Hf2  1  0.000425  0.095878  0.500041  1
  Hf  Hf3  1  0.095787  0.499933  0.000058  1
  Hf  Hf4  1  0.000191  0.595677  0.499859  1
  Hf  Hf5  1  0.595848  0.500000  0.000225  1
  Hf  Hf6  1  0.499955  0.000051  0.594707  1
  Hf  Hf7  1  0.405397  0.405703  0.405613  1
  H  H8  1  0.655218  0.966377  0.386440  1
  H  H9  1  0.231264  0.312842  0.844136  1
  H  H10  1  0.187415  0.419054  0.531435  1
  H  H11  1  0.080575  0.268038  0.111982  1
  H  H12  1  0.268472  0.112782  0.080876  1
  H  H13  1  0.112568  0.081201  0.268503  1
  H  H14  1  0.468643  0.156101  0.887853  1
  H  H15  1  0.730866  0.344240  0.812772  1
  H  H16  1  0.625359  0.375246  0.250351  1
  H  H17  1  0.249662  0.625246  0.374510  1
  H  H18  1  0.750119  0.874547  0.125365  1
  H  H19  1  0.124754  0.749189  0.874617  1
  H  H20  1  0.375060  0.250708  0.625407  1
  H  H21  1  0.874975  0.124898  0.749606  1
  H  H22  1  0.768750  0.580054  0.613604  1
  H  H23  1  0.312305  0.844564  0.230787  1
  H  H24  1  0.386647  0.655504  0.966899  1
  H  H25  1  0.967357  0.386736  0.655443  1
  H  H26  1  0.532604  0.187737  0.418739  1
  H  H27  1  0.418333  0.531521  0.187315  1
  H  H28  1  0.844124  0.230584  0.312504  1
  H  H29  1  0.919686  0.688512  0.033063  1
  H  H30  1  0.811902  0.731327  0.344551  1
  H  H31  1  0.156035  0.887681  0.468569  1
  H  H32  1  0.687637  0.031916  0.919092  1
  H  H33  1  0.344066  0.812703  0.731396  1
  H  H34  1  0.887292  0.468656  0.155965  1
  H  H35  1  0.613728  0.768890  0.581084  1
  H  H36  1  0.581367  0.613664  0.769093  1
  H  H37  1  0.031555  0.917908  0.687384  1
