# generated using pymatgen
data_La10Ir5Ru
_symmetry_space_group_name_H-M   'P 1'
_cell_length_a   11.39402200
_cell_length_b   11.39402200
_cell_length_c   6.68600800
_cell_angle_alpha   90.00000000
_cell_angle_beta   90.00000000
_cell_angle_gamma   90.00000000
_symmetry_Int_Tables_number   1
_chemical_formula_structural   La10Ir5Ru
_chemical_formula_sum   'La20 Ir10 Ru2'
_cell_volume   868.00254642
_cell_formula_units_Z   2
loop_
 _symmetry_equiv_pos_site_id
 _symmetry_equiv_pos_as_xyz
  1  'x, y, z'
loop_
 _atom_site_type_symbol
 _atom_site_label
 _atom_site_symmetry_multiplicity
 _atom_site_fract_x
 _atom_site_fract_y
 _atom_site_fract_z
 _atom_site_occupancy
  La  La0  1  0.294045  0.089035  0.385287  1
  La  La1  1  0.294045  0.910965  0.885287  1
  La  La2  1  0.705955  0.089035  0.885287  1
  La  La3  1  0.705955  0.910965  0.385287  1
  La  La4  1  0.589035  0.794045  0.885287  1
  La  La5  1  0.589035  0.205955  0.385287  1
  La  La6  1  0.410965  0.794045  0.385287  1
  La  La7  1  0.410965  0.205955  0.885287  1
  La  La8  1  0.208209  0.409273  0.615665  1
  La  La9  1  0.208209  0.590727  0.115665  1
  La  La10  1  0.791791  0.409273  0.115665  1
  La  La11  1  0.791791  0.590727  0.615665  1
  La  La12  1  0.909273  0.708209  0.115665  1
  La  La13  1  0.909273  0.291791  0.615665  1
  La  La14  1  0.090727  0.708209  0.615665  1
  La  La15  1  0.090727  0.291791  0.115665  1
  La  La16  1  0.000000  0.000000  0.498993  1
  La  La17  1  0.000000  0.000000  0.998993  1
  La  La18  1  0.500000  0.500000  0.998993  1
  La  La19  1  0.500000  0.500000  0.498993  1
  Ir  Ir20  1  0.847172  0.154169  0.249984  1
  Ir  Ir21  1  0.847172  0.845831  0.749984  1
  Ir  Ir22  1  0.152828  0.154169  0.749984  1
  Ir  Ir23  1  0.152828  0.845831  0.249984  1
  Ir  Ir24  1  0.654169  0.347172  0.749984  1
  Ir  Ir25  1  0.654169  0.652828  0.249984  1
  Ir  Ir26  1  0.345831  0.347172  0.249984  1
  Ir  Ir27  1  0.345831  0.652828  0.749984  1
  Ir  Ir28  1  0.000000  0.500000  0.884994  1
  Ir  Ir29  1  0.000000  0.500000  0.384994  1
  Ru  Ru30  1  0.500000  0.000000  0.113274  1
  Ru  Ru31  1  0.500000  0.000000  0.613274  1
