# generated using pymatgen
data_TmLuMnB6
_symmetry_space_group_name_H-M   'P 1'
_cell_length_a   3.49363100
_cell_length_b   9.01288200
_cell_length_c   11.37645000
_cell_angle_alpha   90.00000000
_cell_angle_beta   90.00000000
_cell_angle_gamma   90.00000000
_symmetry_Int_Tables_number   1
_chemical_formula_structural   TmLuMnB6
_chemical_formula_sum   'Tm4 Lu4 Mn4 B24'
_cell_volume   358.21806212
_cell_formula_units_Z   4
loop_
 _symmetry_equiv_pos_site_id
 _symmetry_equiv_pos_as_xyz
  1  'x, y, z'
loop_
 _atom_site_type_symbol
 _atom_site_label
 _atom_site_symmetry_multiplicity
 _atom_site_fract_x
 _atom_site_fract_y
 _atom_site_fract_z
 _atom_site_occupancy
  Tm  Tm0  1  0.000000  0.823283  0.085129  1
  Tm  Tm1  1  0.000000  0.176717  0.914871  1
  Tm  Tm2  1  0.000000  0.323283  0.414871  1
  Tm  Tm3  1  0.000000  0.676717  0.585129  1
  Lu  Lu4  1  0.000000  0.442250  0.131198  1
  Lu  Lu5  1  0.000000  0.557750  0.868802  1
  Lu  Lu6  1  0.000000  0.942250  0.368802  1
  Lu  Lu7  1  0.000000  0.057750  0.631198  1
  Mn  Mn8  1  0.000000  0.139138  0.180027  1
  Mn  Mn9  1  0.000000  0.860862  0.819973  1
  Mn  Mn10  1  0.000000  0.639138  0.319973  1
  Mn  Mn11  1  0.000000  0.360862  0.680027  1
  B  B12  1  0.500000  0.053890  0.067547  1
  B  B13  1  0.500000  0.946110  0.932453  1
  B  B14  1  0.500000  0.553890  0.432453  1
  B  B15  1  0.500000  0.446110  0.567547  1
  B  B16  1  0.500000  0.248115  0.082034  1
  B  B17  1  0.500000  0.751885  0.917966  1
  B  B18  1  0.500000  0.748115  0.417966  1
  B  B19  1  0.500000  0.251885  0.582034  1
  B  B20  1  0.500000  0.291013  0.235271  1
  B  B21  1  0.500000  0.708987  0.764729  1
  B  B22  1  0.500000  0.791013  0.264729  1
  B  B23  1  0.500000  0.208987  0.735271  1
  B  B24  1  0.500000  0.130814  0.314499  1
  B  B25  1  0.500000  0.869186  0.685501  1
  B  B26  1  0.500000  0.630814  0.185501  1
  B  B27  1  0.500000  0.369186  0.814499  1
  B  B28  1  0.500000  0.483354  0.288534  1
  B  B29  1  0.500000  0.516646  0.711466  1
  B  B30  1  0.500000  0.983354  0.211466  1
  B  B31  1  0.500000  0.016646  0.788534  1
  B  B32  1  0.500000  0.101323  0.472063  1
  B  B33  1  0.500000  0.898677  0.527937  1
  B  B34  1  0.500000  0.601323  0.027937  1
  B  B35  1  0.500000  0.398677  0.972063  1
