# generated using pymatgen
data_Cd3Os2Ru2PbO14
_symmetry_space_group_name_H-M   'P 1'
_cell_length_a   7.33632242
_cell_length_b   7.25088358
_cell_length_c   7.28474692
_cell_angle_alpha   60.15364467
_cell_angle_beta   60.40931244
_cell_angle_gamma   60.38450350
_symmetry_Int_Tables_number   1
_chemical_formula_structural   Cd3Os2Ru2PbO14
_chemical_formula_sum   'Cd3 Os2 Ru2 Pb1 O14'
_cell_volume   275.96630506
_cell_formula_units_Z   1
loop_
 _symmetry_equiv_pos_site_id
 _symmetry_equiv_pos_as_xyz
  1  'x, y, z'
loop_
 _atom_site_type_symbol
 _atom_site_label
 _atom_site_symmetry_multiplicity
 _atom_site_fract_x
 _atom_site_fract_y
 _atom_site_fract_z
 _atom_site_occupancy
  Cd  Cd0  1  0.125000  0.125000  0.125000  1
  Cd  Cd1  1  0.125000  0.625000  0.125000  1
  Cd  Cd2  1  0.125000  0.125000  0.625000  1
  Os  Os3  1  0.125000  0.625000  0.625000  1
  Os  Os4  1  0.625000  0.625000  0.125000  1
  Ru  Ru5  1  0.625000  0.625000  0.625000  1
  Ru  Ru6  1  0.625000  0.125000  0.625000  1
  Pb  Pb7  1  0.625000  0.125000  0.125000  1
  O  O8  1  0.226400  0.258088  0.257424  1
  O  O9  1  0.023600  0.991912  0.992576  1
  O  O10  1  0.559177  0.946971  0.546882  1
  O  O11  1  0.311408  0.689811  0.308970  1
  O  O12  1  0.558533  0.552600  0.947889  1
  O  O13  1  0.945410  0.559417  0.556907  1
  O  O14  1  0.558533  0.940978  0.947889  1
  O  O15  1  0.945410  0.938266  0.556907  1
  O  O16  1  0.938592  0.560189  0.941030  1
  O  O17  1  0.691467  0.309022  0.302111  1
  O  O18  1  0.304590  0.690583  0.693093  1
  O  O19  1  0.690823  0.303029  0.703118  1
  O  O20  1  0.304590  0.311734  0.693093  1
  O  O21  1  0.691467  0.697400  0.302111  1
