# generated using pymatgen
data_Nd3GaRh3
_symmetry_space_group_name_H-M   'P 1'
_cell_length_a   5.72051946
_cell_length_b   5.72051889
_cell_length_c   14.14813400
_cell_angle_alpha   90.00000000
_cell_angle_beta   90.00000000
_cell_angle_gamma   137.52312844
_symmetry_Int_Tables_number   1
_chemical_formula_structural   Nd3GaRh3
_chemical_formula_sum   'Nd6 Ga2 Rh6'
_cell_volume   312.65257277
_cell_formula_units_Z   2
loop_
 _symmetry_equiv_pos_site_id
 _symmetry_equiv_pos_as_xyz
  1  'x, y, z'
loop_
 _atom_site_type_symbol
 _atom_site_label
 _atom_site_symmetry_multiplicity
 _atom_site_fract_x
 _atom_site_fract_y
 _atom_site_fract_z
 _atom_site_occupancy
  Nd  Nd0  1  0.791427  0.208573  0.394007  1
  Nd  Nd1  1  0.208573  0.791427  0.605993  1
  Nd  Nd2  1  0.791427  0.208573  0.105993  1
  Nd  Nd3  1  0.208573  0.791427  0.894007  1
  Nd  Nd4  1  0.515414  0.484586  0.250000  1
  Nd  Nd5  1  0.484586  0.515414  0.750000  1
  Ga  Ga6  1  0.500000  0.500000  0.500000  1
  Ga  Ga7  1  0.500000  0.500000  0.000000  1
  Rh  Rh8  1  0.076875  0.923125  0.412619  1
  Rh  Rh9  1  0.923125  0.076875  0.587381  1
  Rh  Rh10  1  0.076875  0.923125  0.087381  1
  Rh  Rh11  1  0.923125  0.076875  0.912619  1
  Rh  Rh12  1  0.236554  0.763446  0.250000  1
  Rh  Rh13  1  0.763446  0.236554  0.750000  1
