# generated using pymatgen
data_TaNb11(MoRu)6
_symmetry_space_group_name_H-M   'P 1'
_cell_length_a   4.54729300
_cell_length_b   6.39038700
_cell_length_c   13.63575600
_cell_angle_alpha   90.00030369
_cell_angle_beta   90.00010082
_cell_angle_gamma   90.00010420
_symmetry_Int_Tables_number   1
_chemical_formula_structural   TaNb11(MoRu)6
_chemical_formula_sum   'Ta1 Nb11 Mo6 Ru6'
_cell_volume   396.24091643
_cell_formula_units_Z   1
loop_
 _symmetry_equiv_pos_site_id
 _symmetry_equiv_pos_as_xyz
  1  'x, y, z'
loop_
 _atom_site_type_symbol
 _atom_site_label
 _atom_site_symmetry_multiplicity
 _atom_site_fract_x
 _atom_site_fract_y
 _atom_site_fract_z
 _atom_site_occupancy
  Ta  Ta0  1  0.000004  0.749840  0.833335  1
  Nb  Nb1  1  0.500000  0.249779  0.000132  1
  Nb  Nb2  1  0.500003  0.750236  0.999883  1
  Nb  Nb3  1  0.999991  0.250217  0.166689  1
  Nb  Nb4  1  0.999989  0.749738  0.166663  1
  Nb  Nb5  1  0.499982  0.249807  0.333338  1
  Nb  Nb6  1  0.499979  0.750272  0.333337  1
  Nb  Nb7  1  0.999998  0.250223  0.499974  1
  Nb  Nb8  1  0.000004  0.749732  0.500001  1
  Nb  Nb9  1  0.500020  0.249786  0.666531  1
  Nb  Nb10  1  0.500021  0.750232  0.666779  1
  Nb  Nb11  1  0.000012  0.250128  0.833337  1
  Mo  Mo12  1  0.000001  0.499970  0.000003  1
  Mo  Mo13  1  0.499985  0.999999  0.166628  1
  Mo  Mo14  1  0.999988  0.500008  0.333330  1
  Mo  Mo15  1  0.500000  0.999998  0.500037  1
  Mo  Mo16  1  0.000011  0.499970  0.666666  1
  Mo  Mo17  1  0.500013  0.000125  0.833336  1
  Ru  Ru18  1  0.000001  0.999588  0.999680  1
  Ru  Ru19  1  0.499979  0.499991  0.166720  1
  Ru  Ru20  1  0.999989  0.999980  0.333330  1
  Ru  Ru21  1  0.499999  0.499992  0.499949  1
  Ru  Ru22  1  0.000010  0.999580  0.666989  1
  Ru  Ru23  1  0.500022  0.500812  0.833330  1
