# generated using pymatgen
data_La10Tc3Ir
_symmetry_space_group_name_H-M   'P 1'
_cell_length_a   9.08836241
_cell_length_b   9.03438758
_cell_length_c   7.46669514
_cell_angle_alpha   84.79603549
_cell_angle_beta   84.51215137
_cell_angle_gamma   43.63222338
_symmetry_Int_Tables_number   1
_chemical_formula_structural   La10Tc3Ir
_chemical_formula_sum   'La10 Tc3 Ir1'
_cell_volume   420.89231253
_cell_formula_units_Z   1
loop_
 _symmetry_equiv_pos_site_id
 _symmetry_equiv_pos_as_xyz
  1  'x, y, z'
loop_
 _atom_site_type_symbol
 _atom_site_label
 _atom_site_symmetry_multiplicity
 _atom_site_fract_x
 _atom_site_fract_y
 _atom_site_fract_z
 _atom_site_occupancy
  La  La0  1  0.022396  0.793787  0.904696  1
  La  La1  1  0.206862  0.979419  0.594779  1
  La  La2  1  0.982357  0.206816  0.096784  1
  La  La3  1  0.801197  0.014605  0.412149  1
  La  La4  1  0.357999  0.210061  0.814696  1
  La  La5  1  0.788374  0.641377  0.682396  1
  La  La6  1  0.639791  0.786821  0.180939  1
  La  La7  1  0.206613  0.363664  0.318455  1
  La  La8  1  0.579569  0.422730  0.748293  1
  La  La9  1  0.421426  0.577381  0.249825  1
  Tc  Tc10  1  0.175541  0.604213  0.578572  1
  Tc  Tc11  1  0.392879  0.829411  0.923294  1
  Tc  Tc12  1  0.827466  0.392609  0.417741  1
  Ir  Ir13  1  0.597530  0.177105  0.077380  1
