# generated using pymatgen
data_Cs3Cr4As3O16
_symmetry_space_group_name_H-M   'P 1'
_cell_length_a   7.78360708
_cell_length_b   7.78405254
_cell_length_c   7.78486300
_cell_angle_alpha   90.18082232
_cell_angle_beta   90.22133360
_cell_angle_gamma   89.78830920
_symmetry_Int_Tables_number   1
_chemical_formula_structural   Cs3Cr4As3O16
_chemical_formula_sum   'Cs3 Cr4 As3 O16'
_cell_volume   471.66026346
_cell_formula_units_Z   1
loop_
 _symmetry_equiv_pos_site_id
 _symmetry_equiv_pos_as_xyz
  1  'x, y, z'
loop_
 _atom_site_type_symbol
 _atom_site_label
 _atom_site_symmetry_multiplicity
 _atom_site_fract_x
 _atom_site_fract_y
 _atom_site_fract_z
 _atom_site_occupancy
  Cs  Cs0  1  0.000876  0.501550  0.000173  1
  Cs  Cs1  1  0.001960  0.999784  0.498192  1
  Cs  Cs2  1  0.502166  0.000925  0.999094  1
  Cr  Cr3  1  0.366713  0.365743  0.364538  1
  Cr  Cr4  1  0.625884  0.632408  0.367407  1
  Cr  Cr5  1  0.631333  0.371052  0.629910  1
  Cr  Cr6  1  0.366250  0.634227  0.635445  1
  As  As7  1  0.498235  0.000456  0.501476  1
  As  As8  1  0.497492  0.498714  0.999742  1
  As  As9  1  0.997746  0.500261  0.498837  1
  O  O10  1  0.365921  0.361805  0.109258  1
  O  O11  1  0.880375  0.632419  0.366066  1
  O  O12  1  0.624973  0.616786  0.618545  1
  O  O13  1  0.624895  0.385385  0.379928  1
  O  O14  1  0.110506  0.364292  0.367381  1
  O  O15  1  0.365875  0.637761  0.890861  1
  O  O16  1  0.632467  0.630558  0.118693  1
  O  O17  1  0.389176  0.375613  0.621593  1
  O  O18  1  0.634446  0.879939  0.371879  1
  O  O19  1  0.880277  0.367314  0.633264  1
  O  O20  1  0.368175  0.109215  0.361462  1
  O  O21  1  0.635180  0.369694  0.883471  1
  O  O22  1  0.385021  0.621606  0.379930  1
  O  O23  1  0.367752  0.890920  0.639112  1
  O  O24  1  0.110162  0.632720  0.634408  1
  O  O25  1  0.636142  0.118853  0.629332  1
