# generated using pymatgen
data_Sr6Sn8BiBr
_symmetry_space_group_name_H-M   'P 1'
_cell_length_a   9.01631677
_cell_length_b   9.01631641
_cell_length_c   9.01631712
_cell_angle_alpha   120.17717512
_cell_angle_beta   120.17717107
_cell_angle_gamma   89.69340425
_symmetry_Int_Tables_number   1
_chemical_formula_structural   Sr6Sn8BiBr
_chemical_formula_sum   'Sr6 Sn8 Bi1 Br1'
_cell_volume   516.89358739
_cell_formula_units_Z   1
loop_
 _symmetry_equiv_pos_site_id
 _symmetry_equiv_pos_as_xyz
  1  'x, y, z'
loop_
 _atom_site_type_symbol
 _atom_site_label
 _atom_site_symmetry_multiplicity
 _atom_site_fract_x
 _atom_site_fract_y
 _atom_site_fract_z
 _atom_site_occupancy
  Sr  Sr0  1  0.246334  0.246334  0.000000  1
  Sr  Sr1  1  0.753666  0.753666  0.000000  1
  Sr  Sr2  1  0.162947  0.661980  0.824927  1
  Sr  Sr3  1  0.837053  0.338020  0.175073  1
  Sr  Sr4  1  0.661980  0.837053  0.499033  1
  Sr  Sr5  1  0.338020  0.162947  0.500967  1
  Sn  Sn6  1  0.830671  0.331463  0.784344  1
  Sn  Sn7  1  0.169329  0.668537  0.215656  1
  Sn  Sn8  1  0.547119  0.046327  0.215656  1
  Sn  Sn9  1  0.331463  0.547119  0.500792  1
  Sn  Sn10  1  0.953673  0.169329  0.500792  1
  Sn  Sn11  1  0.452881  0.953673  0.784344  1
  Sn  Sn12  1  0.668537  0.452881  0.499208  1
  Sn  Sn13  1  0.046327  0.830671  0.499208  1
  Bi  Bi14  1  0.500000  0.500000  0.000000  1
  Br  Br15  1  0.000000  0.000000  0.000000  1
