# generated using pymatgen
data_Li2Ta2(P2O7)3
_symmetry_space_group_name_H-M   'P 1'
_cell_length_a   8.99140000
_cell_length_b   8.99140066
_cell_length_c   12.50003500
_cell_angle_alpha   90.00000000
_cell_angle_beta   90.00000000
_cell_angle_gamma   120.00000493
_symmetry_Int_Tables_number   1
_chemical_formula_structural   Li2Ta2(P2O7)3
_chemical_formula_sum   'Li4 Ta4 P12 O42'
_cell_volume   875.17823403
_cell_formula_units_Z   2
loop_
 _symmetry_equiv_pos_site_id
 _symmetry_equiv_pos_as_xyz
  1  'x, y, z'
loop_
 _atom_site_type_symbol
 _atom_site_label
 _atom_site_symmetry_multiplicity
 _atom_site_fract_x
 _atom_site_fract_y
 _atom_site_fract_z
 _atom_site_occupancy
  Li  Li0  1  0.000000  0.000000  0.500000  1
  Li  Li1  1  0.000000  0.000000  0.000000  1
  Li  Li2  1  0.000000  0.000000  0.750000  1
  Li  Li3  1  0.000000  0.000000  0.250000  1
  Ta  Ta4  1  0.666667  0.333333  0.531143  1
  Ta  Ta5  1  0.333333  0.666667  0.031143  1
  Ta  Ta6  1  0.333333  0.666667  0.468857  1
  Ta  Ta7  1  0.666667  0.333333  0.968857  1
  P  P8  1  0.324098  0.974641  0.633663  1
  P  P9  1  0.025359  0.349458  0.633663  1
  P  P10  1  0.650542  0.675902  0.633663  1
  P  P11  1  0.675902  0.025359  0.133663  1
  P  P12  1  0.974641  0.650542  0.133663  1
  P  P13  1  0.349458  0.324098  0.133663  1
  P  P14  1  0.675902  0.025359  0.366337  1
  P  P15  1  0.974641  0.650542  0.366337  1
  P  P16  1  0.349458  0.324098  0.366337  1
  P  P17  1  0.324098  0.974641  0.866337  1
  P  P18  1  0.025359  0.349458  0.866337  1
  P  P19  1  0.650542  0.675902  0.866337  1
  O  O20  1  0.358456  0.920649  0.750000  1
  O  O21  1  0.079351  0.437808  0.750000  1
  O  O22  1  0.562192  0.641544  0.750000  1
  O  O23  1  0.641544  0.079351  0.250000  1
  O  O24  1  0.920649  0.562192  0.250000  1
  O  O25  1  0.437808  0.358456  0.250000  1
  O  O26  1  0.476503  0.161621  0.618651  1
  O  O27  1  0.838379  0.314882  0.618651  1
  O  O28  1  0.685118  0.523497  0.618651  1
  O  O29  1  0.523497  0.838379  0.118651  1
  O  O30  1  0.161621  0.685118  0.118651  1
  O  O31  1  0.314882  0.476503  0.118651  1
  O  O32  1  0.523497  0.838379  0.381349  1
  O  O33  1  0.161621  0.685118  0.381349  1
  O  O34  1  0.314882  0.476503  0.381349  1
  O  O35  1  0.476503  0.161621  0.881349  1
  O  O36  1  0.838379  0.314882  0.881349  1
  O  O37  1  0.685118  0.523497  0.881349  1
  O  O38  1  0.359015  0.856742  0.560726  1
  O  O39  1  0.143258  0.502273  0.560726  1
  O  O40  1  0.497727  0.640985  0.560726  1
  O  O41  1  0.640985  0.143258  0.060726  1
  O  O42  1  0.856742  0.497727  0.060726  1
  O  O43  1  0.502273  0.359015  0.060726  1
  O  O44  1  0.640985  0.143258  0.439274  1
  O  O45  1  0.856742  0.497727  0.439274  1
  O  O46  1  0.502273  0.359015  0.439274  1
  O  O47  1  0.359015  0.856742  0.939274  1
  O  O48  1  0.143258  0.502273  0.939274  1
  O  O49  1  0.497727  0.640985  0.939274  1
  O  O50  1  0.151274  0.956149  0.624059  1
  O  O51  1  0.043851  0.195123  0.624059  1
  O  O52  1  0.804877  0.848726  0.624059  1
  O  O53  1  0.848726  0.043851  0.124059  1
  O  O54  1  0.956149  0.804877  0.124059  1
  O  O55  1  0.195123  0.151274  0.124059  1
  O  O56  1  0.848726  0.043851  0.375941  1
  O  O57  1  0.956149  0.804877  0.375941  1
  O  O58  1  0.195123  0.151274  0.375941  1
  O  O59  1  0.151274  0.956149  0.875941  1
  O  O60  1  0.043851  0.195123  0.875941  1
  O  O61  1  0.804877  0.848726  0.875941  1
