# generated using pymatgen
data_Dy11HoInCo4Pt
_symmetry_space_group_name_H-M   'P 1'
_cell_length_a   8.31213235
_cell_length_b   8.30964202
_cell_length_c   8.30964237
_cell_angle_alpha   111.02201043
_cell_angle_beta   110.46000161
_cell_angle_gamma   106.94944872
_symmetry_Int_Tables_number   1
_chemical_formula_structural   Dy11HoInCo4Pt
_chemical_formula_sum   'Dy11 Ho1 In1 Co4 Pt1'
_cell_volume   441.24614111
_cell_formula_units_Z   1
loop_
 _symmetry_equiv_pos_site_id
 _symmetry_equiv_pos_as_xyz
  1  'x, y, z'
loop_
 _atom_site_type_symbol
 _atom_site_label
 _atom_site_symmetry_multiplicity
 _atom_site_fract_x
 _atom_site_fract_y
 _atom_site_fract_z
 _atom_site_occupancy
  Dy  Dy0  1  0.315118  0.620164  0.304737  1
  Dy  Dy1  1  0.684851  0.380046  0.695375  1
  Dy  Dy2  1  0.315118  0.010380  0.694955  1
  Dy  Dy3  1  0.684851  0.989477  0.304804  1
  Dy  Dy4  1  0.185795  0.291449  0.477377  1
  Dy  Dy5  1  0.814147  0.708387  0.522359  1
  Dy  Dy6  1  0.185795  0.708418  0.894346  1
  Dy  Dy7  1  0.814147  0.291789  0.105759  1
  Dy  Dy8  1  0.413120  0.214880  0.198240  1
  Dy  Dy9  1  0.586927  0.785014  0.801912  1
  Dy  Dy10  1  0.016720  0.214957  0.801763  1
  Ho  Ho11  1  0.983556  0.785272  0.198284  1
  In  In12  1  0.500132  0.500104  0.000028  1
  Co  Co13  1  0.111599  0.611737  0.499862  1
  Co  Co14  1  0.888334  0.388333  0.500002  1
  Co  Co15  1  0.379597  0.999877  0.379720  1
  Co  Co16  1  0.620141  0.000027  0.620114  1
  Pt  Pt17  1  0.000050  0.999688  0.000362  1
