# generated using pymatgen
data_Ba4Gd(TcO6)2
_symmetry_space_group_name_H-M   'P 1'
_cell_length_a   10.13518322
_cell_length_b   10.13518427
_cell_length_c   10.13518358
_cell_angle_alpha   33.89707909
_cell_angle_beta   33.89707053
_cell_angle_gamma   33.89707454
_symmetry_Int_Tables_number   1
_chemical_formula_structural   Ba4Gd(TcO6)2
_chemical_formula_sum   'Ba4 Gd1 Tc2 O12'
_cell_volume   288.59388576
_cell_formula_units_Z   1
loop_
 _symmetry_equiv_pos_site_id
 _symmetry_equiv_pos_as_xyz
  1  'x, y, z'
loop_
 _atom_site_type_symbol
 _atom_site_label
 _atom_site_symmetry_multiplicity
 _atom_site_fract_x
 _atom_site_fract_y
 _atom_site_fract_z
 _atom_site_occupancy
  Ba  Ba0  1  0.711192  0.711192  0.711192  1
  Ba  Ba1  1  0.288808  0.288808  0.288808  1
  Ba  Ba2  1  0.867459  0.867459  0.867459  1
  Ba  Ba3  1  0.132541  0.132541  0.132541  1
  Gd  Gd4  1  0.000000  0.000000  0.000000  1
  Tc  Tc5  1  0.577076  0.577076  0.577076  1
  Tc  Tc6  1  0.422924  0.422924  0.422924  1
  O  O7  1  0.225595  0.686458  0.225595  1
  O  O8  1  0.225595  0.225595  0.686458  1
  O  O9  1  0.686458  0.225595  0.225595  1
  O  O10  1  0.774405  0.313542  0.774405  1
  O  O11  1  0.774405  0.774405  0.313542  1
  O  O12  1  0.313542  0.774405  0.774405  1
  O  O13  1  0.388042  0.857437  0.388042  1
  O  O14  1  0.388042  0.388042  0.857437  1
  O  O15  1  0.857437  0.388042  0.388042  1
  O  O16  1  0.611958  0.142563  0.611958  1
  O  O17  1  0.611958  0.611958  0.142563  1
  O  O18  1  0.142563  0.611958  0.611958  1
