# generated using pymatgen
data_Pr6GdPCl12
_symmetry_space_group_name_H-M   'P 1'
_cell_length_a   9.00211738
_cell_length_b   9.00211707
_cell_length_c   9.00211700
_cell_angle_alpha   107.02119693
_cell_angle_beta   107.02118302
_cell_angle_gamma   107.02117394
_symmetry_Int_Tables_number   1
_chemical_formula_structural   Pr6GdPCl12
_chemical_formula_sum   'Pr6 Gd1 P1 Cl12'
_cell_volume   607.19529267
_cell_formula_units_Z   1
loop_
 _symmetry_equiv_pos_site_id
 _symmetry_equiv_pos_as_xyz
  1  'x, y, z'
loop_
 _atom_site_type_symbol
 _atom_site_label
 _atom_site_symmetry_multiplicity
 _atom_site_fract_x
 _atom_site_fract_y
 _atom_site_fract_z
 _atom_site_occupancy
  Pr  Pr0  1  0.108392  0.327011  0.027833  1
  Pr  Pr1  1  0.327011  0.027834  0.108391  1
  Pr  Pr2  1  0.027834  0.108391  0.327012  1
  Pr  Pr3  1  0.972167  0.891609  0.672989  1
  Pr  Pr4  1  0.672989  0.972167  0.891609  1
  Pr  Pr5  1  0.891608  0.672989  0.972167  1
  Gd  Gd6  1  0.500000  0.500000  0.500000  1
  P  P7  1  0.000000  0.000000  0.000000  1
  Cl  Cl8  1  0.228698  0.688182  0.077202  1
  Cl  Cl9  1  0.468900  0.388748  0.170444  1
  Cl  Cl10  1  0.688183  0.077202  0.228698  1
  Cl  Cl11  1  0.922799  0.771302  0.311818  1
  Cl  Cl12  1  0.170444  0.468900  0.388748  1
  Cl  Cl13  1  0.388748  0.170444  0.468900  1
  Cl  Cl14  1  0.611252  0.829556  0.531101  1
  Cl  Cl15  1  0.829557  0.531100  0.611252  1
  Cl  Cl16  1  0.077202  0.228698  0.688183  1
  Cl  Cl17  1  0.311818  0.922799  0.771302  1
  Cl  Cl18  1  0.531100  0.611252  0.829557  1
  Cl  Cl19  1  0.771302  0.311818  0.922798  1
