# generated using pymatgen
data_Sm4HgPt4Pb
_symmetry_space_group_name_H-M   'P 1'
_cell_length_a   7.98779400
_cell_length_b   7.98779400
_cell_length_c   7.42624500
_cell_angle_alpha   90.00000000
_cell_angle_beta   90.00000000
_cell_angle_gamma   90.00000000
_symmetry_Int_Tables_number   1
_chemical_formula_structural   Sm4HgPt4Pb
_chemical_formula_sum   'Sm8 Hg2 Pt8 Pb2'
_cell_volume   473.83047047
_cell_formula_units_Z   2
loop_
 _symmetry_equiv_pos_site_id
 _symmetry_equiv_pos_as_xyz
  1  'x, y, z'
loop_
 _atom_site_type_symbol
 _atom_site_label
 _atom_site_symmetry_multiplicity
 _atom_site_fract_x
 _atom_site_fract_y
 _atom_site_fract_z
 _atom_site_occupancy
  Sm  Sm0  1  0.664068  0.678274  0.000000  1
  Sm  Sm1  1  0.335073  0.320764  0.500000  1
  Sm  Sm2  1  0.821726  0.164068  0.500000  1
  Sm  Sm3  1  0.664927  0.679236  0.500000  1
  Sm  Sm4  1  0.335932  0.321726  0.000000  1
  Sm  Sm5  1  0.178274  0.835932  0.500000  1
  Sm  Sm6  1  0.820764  0.164927  0.000000  1
  Sm  Sm7  1  0.179236  0.835073  0.000000  1
  Hg  Hg8  1  0.500000  0.000000  0.750000  1
  Hg  Hg9  1  0.500000  0.000000  0.250000  1
  Pt  Pt10  1  0.876420  0.873052  0.750922  1
  Pt  Pt11  1  0.123580  0.126948  0.750922  1
  Pt  Pt12  1  0.626948  0.376420  0.749078  1
  Pt  Pt13  1  0.626948  0.376420  0.250922  1
  Pt  Pt14  1  0.373052  0.623580  0.250922  1
  Pt  Pt15  1  0.123580  0.126948  0.249078  1
  Pt  Pt16  1  0.876420  0.873052  0.249078  1
  Pt  Pt17  1  0.373052  0.623580  0.749078  1
  Pb  Pb18  1  0.000000  0.500000  0.750000  1
  Pb  Pb19  1  0.000000  0.500000  0.250000  1
