# generated using pymatgen
data_K4Ba2HfAs4
_symmetry_space_group_name_H-M   'P 1'
_cell_length_a   10.62561622
_cell_length_b   10.62561592
_cell_length_c   8.17666459
_cell_angle_alpha   89.15008837
_cell_angle_beta   89.15008231
_cell_angle_gamma   119.90579826
_symmetry_Int_Tables_number   1
_chemical_formula_structural   K4Ba2HfAs4
_chemical_formula_sum   'K8 Ba4 Hf2 As8'
_cell_volume   799.90031589
_cell_formula_units_Z   2
loop_
 _symmetry_equiv_pos_site_id
 _symmetry_equiv_pos_as_xyz
  1  'x, y, z'
loop_
 _atom_site_type_symbol
 _atom_site_label
 _atom_site_symmetry_multiplicity
 _atom_site_fract_x
 _atom_site_fract_y
 _atom_site_fract_z
 _atom_site_occupancy
  K  K0  1  0.472171  0.941369  0.382664  1
  K  K1  1  0.941369  0.472171  0.882664  1
  K  K2  1  0.865875  0.725004  0.188296  1
  K  K3  1  0.274813  0.130800  0.224713  1
  K  K4  1  0.855737  0.137825  0.206052  1
  K  K5  1  0.130800  0.274813  0.724713  1
  K  K6  1  0.725004  0.865875  0.688296  1
  K  K7  1  0.137825  0.855737  0.706052  1
  Ba  Ba8  1  0.061322  0.533608  0.388185  1
  Ba  Ba9  1  0.475564  0.535010  0.382074  1
  Ba  Ba10  1  0.533608  0.061322  0.888185  1
  Ba  Ba11  1  0.535010  0.475564  0.882074  1
  Hf  Hf12  1  0.663682  0.330809  0.489138  1
  Hf  Hf13  1  0.330809  0.663682  0.989138  1
  As  As14  1  0.654535  0.331564  0.167862  1
  As  As15  1  0.331564  0.654535  0.667862  1
  As  As16  1  0.205338  0.399256  0.113845  1
  As  As17  1  0.602982  0.797713  0.080670  1
  As  As18  1  0.202626  0.802207  0.094171  1
  As  As19  1  0.797713  0.602982  0.580670  1
  As  As20  1  0.399256  0.205338  0.613845  1
  As  As21  1  0.802207  0.202626  0.594171  1
