# generated using pymatgen
data_YLu2Fe7B2
_symmetry_space_group_name_H-M   'P 1'
_cell_length_a   5.09134100
_cell_length_b   5.09134156
_cell_length_c   14.39841800
_cell_angle_alpha   90.00000000
_cell_angle_beta   90.00000000
_cell_angle_gamma   120.00000288
_symmetry_Int_Tables_number   1
_chemical_formula_structural   YLu2Fe7B2
_chemical_formula_sum   'Y2 Lu4 Fe14 B4'
_cell_volume   323.22862523
_cell_formula_units_Z   2
loop_
 _symmetry_equiv_pos_site_id
 _symmetry_equiv_pos_as_xyz
  1  'x, y, z'
loop_
 _atom_site_type_symbol
 _atom_site_label
 _atom_site_symmetry_multiplicity
 _atom_site_fract_x
 _atom_site_fract_y
 _atom_site_fract_z
 _atom_site_occupancy
  Y  Y0  1  0.333333  0.666667  0.750000  1
  Y  Y1  1  0.666667  0.333333  0.250000  1
  Lu  Lu2  1  0.333333  0.666667  0.534284  1
  Lu  Lu3  1  0.666667  0.333333  0.034284  1
  Lu  Lu4  1  0.666667  0.333333  0.465716  1
  Lu  Lu5  1  0.333333  0.666667  0.965716  1
  Fe  Fe6  1  0.000000  0.000000  0.000000  1
  Fe  Fe7  1  0.000000  0.000000  0.500000  1
  Fe  Fe8  1  0.166456  0.332912  0.144726  1
  Fe  Fe9  1  0.833544  0.667088  0.644726  1
  Fe  Fe10  1  0.667088  0.833544  0.144726  1
  Fe  Fe11  1  0.166456  0.833544  0.144726  1
  Fe  Fe12  1  0.833544  0.166456  0.644726  1
  Fe  Fe13  1  0.332912  0.166456  0.644726  1
  Fe  Fe14  1  0.833544  0.667088  0.855274  1
  Fe  Fe15  1  0.833544  0.166456  0.855274  1
  Fe  Fe16  1  0.332912  0.166456  0.855274  1
  Fe  Fe17  1  0.667088  0.833544  0.355274  1
  Fe  Fe18  1  0.166456  0.833544  0.355274  1
  Fe  Fe19  1  0.166456  0.332912  0.355274  1
  B  B20  1  0.333333  0.666667  0.250000  1
  B  B21  1  0.666667  0.333333  0.750000  1
  B  B22  1  0.000000  0.000000  0.250000  1
  B  B23  1  0.000000  0.000000  0.750000  1
