# generated using pymatgen
data_Tb6Tc16N
_symmetry_space_group_name_H-M   'P 1'
_cell_length_a   8.08619135
_cell_length_b   8.08619062
_cell_length_c   8.08619100
_cell_angle_alpha   109.47122911
_cell_angle_beta   109.47122728
_cell_angle_gamma   109.47120873
_symmetry_Int_Tables_number   1
_chemical_formula_structural   Tb6Tc16N
_chemical_formula_sum   'Tb6 Tc16 N1'
_cell_volume   407.01468253
_cell_formula_units_Z   1
loop_
 _symmetry_equiv_pos_site_id
 _symmetry_equiv_pos_as_xyz
  1  'x, y, z'
loop_
 _atom_site_type_symbol
 _atom_site_label
 _atom_site_symmetry_multiplicity
 _atom_site_fract_x
 _atom_site_fract_y
 _atom_site_fract_z
 _atom_site_occupancy
  Tb  Tb0  1  0.739508  0.739508  0.000000  1
  Tb  Tb1  1  0.260491  0.000000  0.260492  1
  Tb  Tb2  1  0.739508  0.000000  0.739508  1
  Tb  Tb3  1  0.000000  0.739508  0.739509  1
  Tb  Tb4  1  0.000000  0.260491  0.260492  1
  Tb  Tb5  1  0.260491  0.260491  0.000000  1
  Tc  Tc6  1  0.000000  0.500000  0.000000  1
  Tc  Tc7  1  0.500000  0.000000  0.000000  1
  Tc  Tc8  1  0.000000  0.000000  0.500000  1
  Tc  Tc9  1  0.500000  0.500000  0.500000  1
  Tc  Tc10  1  0.339618  0.339618  0.679235  1
  Tc  Tc11  1  0.660382  0.660382  0.320765  1
  Tc  Tc12  1  0.000000  0.339618  0.660382  1
  Tc  Tc13  1  0.320765  0.660382  0.660382  1
  Tc  Tc14  1  0.660382  0.320765  0.660382  1
  Tc  Tc15  1  0.339618  0.000000  0.660382  1
  Tc  Tc16  1  0.660382  0.339618  0.000000  1
  Tc  Tc17  1  0.339618  0.660382  0.000000  1
  Tc  Tc18  1  0.339618  0.679235  0.339618  1
  Tc  Tc19  1  0.000000  0.660382  0.339618  1
  Tc  Tc20  1  0.660382  0.000000  0.339618  1
  Tc  Tc21  1  0.679235  0.339618  0.339618  1
  N  N22  1  0.000000  0.000000  0.000000  1
