# generated using pymatgen
data_Er3Zr(Si5Os3)2
_symmetry_space_group_name_H-M   'P 1'
_cell_length_a   8.19901138
_cell_length_b   8.21974992
_cell_length_c   8.21975059
_cell_angle_alpha   140.05704427
_cell_angle_beta   108.29013597
_cell_angle_gamma   85.41586246
_symmetry_Int_Tables_number   1
_chemical_formula_structural   Er3Zr(Si5Os3)2
_chemical_formula_sum   'Er3 Zr1 Si10 Os6'
_cell_volume   325.74541696
_cell_formula_units_Z   1
loop_
 _symmetry_equiv_pos_site_id
 _symmetry_equiv_pos_as_xyz
  1  'x, y, z'
loop_
 _atom_site_type_symbol
 _atom_site_label
 _atom_site_symmetry_multiplicity
 _atom_site_fract_x
 _atom_site_fract_y
 _atom_site_fract_z
 _atom_site_occupancy
  Er  Er0  1  0.095002  0.863944  0.231059  1
  Er  Er1  1  0.629921  0.363425  0.266496  1
  Er  Er2  1  0.368410  0.634955  0.733455  1
  Zr  Zr3  1  0.909589  0.139196  0.770393  1
  Si  Si4  1  0.998748  0.750494  0.748978  1
  Si  Si5  1  0.998748  0.249770  0.248254  1
  Si  Si6  1  0.710700  0.460558  0.756722  1
  Si  Si7  1  0.289744  0.046765  0.752071  1
  Si  Si8  1  0.289744  0.537673  0.242979  1
  Si  Si9  1  0.710700  0.953979  0.250142  1
  Si  Si10  1  0.232398  0.401228  0.831169  1
  Si  Si11  1  0.576240  0.906953  0.669289  1
  Si  Si12  1  0.427826  0.095467  0.332358  1
  Si  Si13  1  0.765028  0.596497  0.168532  1
  Os  Os14  1  0.757192  0.853802  0.903392  1
  Os  Os15  1  0.500940  0.249695  0.750702  1
  Os  Os16  1  0.945653  0.352176  0.593477  1
  Os  Os17  1  0.051643  0.647647  0.403996  1
  Os  Os18  1  0.240834  0.145540  0.095292  1
  Os  Os19  1  0.500940  0.750238  0.251245  1
