# generated using pymatgen
data_Gd4Tc2BiO12
_symmetry_space_group_name_H-M   'P 1'
_cell_length_a   6.91730885
_cell_length_b   6.91730894
_cell_length_c   7.63335300
_cell_angle_alpha   73.62106716
_cell_angle_beta   73.62107557
_cell_angle_gamma   48.71236273
_symmetry_Int_Tables_number   1
_chemical_formula_structural   Gd4Tc2BiO12
_chemical_formula_sum   'Gd4 Tc2 Bi1 O12'
_cell_volume   260.97183325
_cell_formula_units_Z   1
loop_
 _symmetry_equiv_pos_site_id
 _symmetry_equiv_pos_as_xyz
  1  'x, y, z'
loop_
 _atom_site_type_symbol
 _atom_site_label
 _atom_site_symmetry_multiplicity
 _atom_site_fract_x
 _atom_site_fract_y
 _atom_site_fract_z
 _atom_site_occupancy
  Gd  Gd0  1  0.500565  0.500565  0.500587  1
  Gd  Gd1  1  0.185056  0.185056  0.167913  1
  Gd  Gd2  1  0.814762  0.814762  0.830273  1
  Gd  Gd3  1  0.807303  0.807303  0.352532  1
  Tc  Tc4  1  0.713379  0.285607  0.001381  1
  Tc  Tc5  1  0.285607  0.713379  0.001381  1
  Bi  Bi6  1  0.196493  0.196493  0.635489  1
  O  O7  1  0.997996  0.997996  0.175821  1
  O  O8  1  0.999628  0.999628  0.829954  1
  O  O9  1  0.500169  0.500169  0.798159  1
  O  O10  1  0.497786  0.497786  0.204894  1
  O  O11  1  0.604038  0.093162  0.572865  1
  O  O12  1  0.904560  0.404871  0.421239  1
  O  O13  1  0.404871  0.904560  0.421239  1
  O  O14  1  0.417071  0.905848  0.924153  1
  O  O15  1  0.086238  0.585470  0.082552  1
  O  O16  1  0.585470  0.086238  0.082552  1
  O  O17  1  0.905848  0.417071  0.924153  1
  O  O18  1  0.093162  0.604038  0.572865  1
