# generated using pymatgen
data_BeV2B5Mo8
_symmetry_space_group_name_H-M   'P 1'
_cell_length_a   5.86694827
_cell_length_b   5.86694781
_cell_length_c   6.84851280
_cell_angle_alpha   115.36208490
_cell_angle_beta   115.36208957
_cell_angle_gamma   89.99999529
_symmetry_Int_Tables_number   1
_chemical_formula_structural   BeV2B5Mo8
_chemical_formula_sum   'Be1 V2 B5 Mo8'
_cell_volume   187.56044423
_cell_formula_units_Z   1
loop_
 _symmetry_equiv_pos_site_id
 _symmetry_equiv_pos_as_xyz
  1  'x, y, z'
loop_
 _atom_site_type_symbol
 _atom_site_label
 _atom_site_symmetry_multiplicity
 _atom_site_fract_x
 _atom_site_fract_y
 _atom_site_fract_z
 _atom_site_occupancy
  Be  Be0  1  0.250000  0.250000  0.500000  1
  V  V1  1  0.499335  0.499335  0.998669  1
  V  V2  1  0.000665  0.000665  0.001331  1
  B  B3  1  0.750000  0.750000  0.500000  1
  B  B4  1  0.618914  0.118914  0.000000  1
  B  B5  1  0.381086  0.881086  0.000000  1
  B  B6  1  0.881086  0.618914  0.000000  1
  B  B7  1  0.118914  0.381086  0.000000  1
  Mo  Mo8  1  0.024316  0.530311  0.715021  1
  Mo  Mo9  1  0.690705  0.184710  0.715021  1
  Mo  Mo10  1  0.184710  0.024316  0.715021  1
  Mo  Mo11  1  0.530311  0.690705  0.715021  1
  Mo  Mo12  1  0.969689  0.475684  0.284979  1
  Mo  Mo13  1  0.315290  0.809295  0.284979  1
  Mo  Mo14  1  0.809295  0.969689  0.284979  1
  Mo  Mo15  1  0.475684  0.315290  0.284979  1
