# generated using pymatgen
data_DyLu15Tl4(InCo)2
_symmetry_space_group_name_H-M   'P 1'
_cell_length_a   10.12709800
_cell_length_b   10.13797333
_cell_length_c   6.97504505
_cell_angle_alpha   90.01201391
_cell_angle_beta   90.00000000
_cell_angle_gamma   119.96452717
_symmetry_Int_Tables_number   1
_chemical_formula_structural   DyLu15Tl4(InCo)2
_chemical_formula_sum   'Dy1 Lu15 Tl4 In2 Co2'
_cell_volume   620.39590102
_cell_formula_units_Z   1
loop_
 _symmetry_equiv_pos_site_id
 _symmetry_equiv_pos_as_xyz
  1  'x, y, z'
loop_
 _atom_site_type_symbol
 _atom_site_label
 _atom_site_symmetry_multiplicity
 _atom_site_fract_x
 _atom_site_fract_y
 _atom_site_fract_z
 _atom_site_occupancy
  Dy  Dy0  1  0.999490  0.998981  0.000276  1
  Lu  Lu1  1  0.535636  0.071273  0.511966  1
  Lu  Lu2  1  0.927876  0.464915  0.513186  1
  Lu  Lu3  1  0.537038  0.464915  0.513186  1
  Lu  Lu4  1  0.463536  0.927072  0.015521  1
  Lu  Lu5  1  0.073469  0.536537  0.014715  1
  Lu  Lu6  1  0.463068  0.536537  0.014715  1
  Lu  Lu7  1  0.179348  0.358696  0.715170  1
  Lu  Lu8  1  0.641320  0.820981  0.717564  1
  Lu  Lu9  1  0.179661  0.820981  0.717564  1
  Lu  Lu10  1  0.820051  0.640103  0.216202  1
  Lu  Lu11  1  0.359396  0.180082  0.217029  1
  Lu  Lu12  1  0.820684  0.180082  0.217029  1
  Lu  Lu13  1  0.666541  0.333080  0.903439  1
  Lu  Lu14  1  0.333593  0.667187  0.405190  1
  Lu  Lu15  1  0.999089  0.998178  0.497457  1
  Tl  Tl16  1  0.836708  0.673415  0.762440  1
  Tl  Tl17  1  0.326805  0.162929  0.762100  1
  Tl  Tl18  1  0.836125  0.162929  0.762100  1
  Tl  Tl19  1  0.162673  0.325346  0.264949  1
  In  In20  1  0.673912  0.837921  0.264665  1
  In  In21  1  0.164009  0.837921  0.264665  1
  Co  Co22  1  0.666720  0.333439  0.285372  1
  Co  Co23  1  0.333250  0.666501  0.787696  1
