# generated using pymatgen
data_TbHo2Er5Pt4
_symmetry_space_group_name_H-M   'P 1'
_cell_length_a   4.74889200
_cell_length_b   7.10587300
_cell_length_c   8.70936700
_cell_angle_alpha   90.00162069
_cell_angle_beta   90.00000000
_cell_angle_gamma   90.00000000
_symmetry_Int_Tables_number   1
_chemical_formula_structural   TbHo2Er5Pt4
_chemical_formula_sum   'Tb1 Ho2 Er5 Pt4'
_cell_volume   293.89779359
_cell_formula_units_Z   1
loop_
 _symmetry_equiv_pos_site_id
 _symmetry_equiv_pos_as_xyz
  1  'x, y, z'
loop_
 _atom_site_type_symbol
 _atom_site_label
 _atom_site_symmetry_multiplicity
 _atom_site_fract_x
 _atom_site_fract_y
 _atom_site_fract_z
 _atom_site_occupancy
  Tb  Tb0  1  0.250000  0.991332  0.329467  1
  Ho  Ho1  1  0.250000  0.490627  0.168522  1
  Ho  Ho2  1  0.750000  0.009097  0.669967  1
  Er  Er3  1  0.750000  0.643178  0.420815  1
  Er  Er4  1  0.250000  0.356615  0.580996  1
  Er  Er5  1  0.750000  0.144437  0.078106  1
  Er  Er6  1  0.250000  0.854963  0.919734  1
  Er  Er7  1  0.750000  0.509243  0.831887  1
  Pt  Pt8  1  0.750000  0.242751  0.408504  1
  Pt  Pt9  1  0.250000  0.757637  0.592839  1
  Pt  Pt10  1  0.750000  0.742074  0.091607  1
  Pt  Pt11  1  0.250000  0.258049  0.907557  1
