# generated using pymatgen
data_Dy2(ThOs)3
_symmetry_space_group_name_H-M   'P 1'
_cell_length_a   6.38798100
_cell_length_b   8.37022680
_cell_length_c   8.37048601
_cell_angle_alpha   119.99897389
_cell_angle_beta   90.00000000
_cell_angle_gamma   90.00000000
_symmetry_Int_Tables_number   1
_chemical_formula_structural   Dy2(ThOs)3
_chemical_formula_sum   'Dy4 Th6 Os6'
_cell_volume   387.60256155
_cell_formula_units_Z   2
loop_
 _symmetry_equiv_pos_site_id
 _symmetry_equiv_pos_as_xyz
  1  'x, y, z'
loop_
 _atom_site_type_symbol
 _atom_site_label
 _atom_site_symmetry_multiplicity
 _atom_site_fract_x
 _atom_site_fract_y
 _atom_site_fract_z
 _atom_site_occupancy
  Dy  Dy0  1  0.500000  0.333306  0.666620  1
  Dy  Dy1  1  0.500000  0.666688  0.333380  1
  Dy  Dy2  1  0.000000  0.666694  0.333380  1
  Dy  Dy3  1  0.000000  0.333313  0.666620  1
  Th  Th4  1  0.750003  0.254662  0.000000  1
  Th  Th5  1  0.749998  0.745360  0.745348  1
  Th  Th6  1  0.749998  0.000010  0.254652  1
  Th  Th7  1  0.250003  0.745338  0.000000  1
  Th  Th8  1  0.249998  0.254640  0.254652  1
  Th  Th9  1  0.249998  0.999990  0.745348  1
  Os  Os10  1  0.749997  0.619034  0.000000  1
  Os  Os11  1  0.750002  0.380987  0.380984  1
  Os  Os12  1  0.750002  0.000003  0.619016  1
  Os  Os13  1  0.249997  0.380966  0.000000  1
  Os  Os14  1  0.250002  0.619013  0.619016  1
  Os  Os15  1  0.250002  0.999997  0.380984  1
