# generated using pymatgen
data_Np8Tc(B8Os)3
_symmetry_space_group_name_H-M   'P 1'
_cell_length_a   3.57660600
_cell_length_b   9.32910506
_cell_length_c   11.37821707
_cell_angle_alpha   89.98739528
_cell_angle_beta   90.00000000
_cell_angle_gamma   90.00000000
_symmetry_Int_Tables_number   1
_chemical_formula_structural   Np8Tc(B8Os)3
_chemical_formula_sum   'Np8 Tc1 B24 Os3'
_cell_volume   379.65164748
_cell_formula_units_Z   1
loop_
 _symmetry_equiv_pos_site_id
 _symmetry_equiv_pos_as_xyz
  1  'x, y, z'
loop_
 _atom_site_type_symbol
 _atom_site_label
 _atom_site_symmetry_multiplicity
 _atom_site_fract_x
 _atom_site_fract_y
 _atom_site_fract_z
 _atom_site_occupancy
  Np  Np0  1  0.000000  0.338940  0.406521  1
  Np  Np1  1  0.000000  0.662257  0.592233  1
  Np  Np2  1  0.000000  0.837064  0.093669  1
  Np  Np3  1  0.000000  0.162184  0.907267  1
  Np  Np4  1  0.000000  0.958295  0.400989  1
  Np  Np5  1  0.000000  0.041321  0.599102  1
  Np  Np6  1  0.000000  0.460401  0.099539  1
  Np  Np7  1  0.000000  0.540650  0.900688  1
  Tc  Tc8  1  0.000000  0.645882  0.319609  1
  B  B9  1  0.500000  0.551984  0.432188  1
  B  B10  1  0.500000  0.448051  0.567966  1
  B  B11  1  0.500000  0.051456  0.068073  1
  B  B12  1  0.500000  0.948045  0.932250  1
  B  B13  1  0.500000  0.743404  0.423693  1
  B  B14  1  0.500000  0.256890  0.576332  1
  B  B15  1  0.500000  0.243214  0.076514  1
  B  B16  1  0.500000  0.756848  0.923549  1
  B  B17  1  0.500000  0.805974  0.274286  1
  B  B18  1  0.500000  0.193719  0.726158  1
  B  B19  1  0.500000  0.305965  0.225798  1
  B  B20  1  0.500000  0.693764  0.773726  1
  B  B21  1  0.500000  0.646854  0.188237  1
  B  B22  1  0.500000  0.353100  0.811704  1
  B  B23  1  0.500000  0.146874  0.311420  1
  B  B24  1  0.500000  0.853193  0.688437  1
  B  B25  1  0.500000  0.988564  0.220746  1
  B  B26  1  0.500000  0.011550  0.779424  1
  B  B27  1  0.500000  0.488482  0.278842  1
  B  B28  1  0.500000  0.511481  0.720471  1
  B  B29  1  0.500000  0.644444  0.039696  1
  B  B30  1  0.500000  0.355760  0.960258  1
  B  B31  1  0.500000  0.144628  0.459819  1
  B  B32  1  0.500000  0.855933  0.540182  1
  Os  Os33  1  0.000000  0.353088  0.680773  1
  Os  Os34  1  0.000000  0.146689  0.180398  1
  Os  Os35  1  0.000000  0.853048  0.819445  1
