# generated using pymatgen
data_LaDyNb2(SbRh)4
_symmetry_space_group_name_H-M   'P 1'
_cell_length_a   4.51746800
_cell_length_b   6.47219381
_cell_length_c   9.14549575
_cell_angle_alpha   89.62774124
_cell_angle_beta   90.00000000
_cell_angle_gamma   90.00000000
_symmetry_Int_Tables_number   1
_chemical_formula_structural   LaDyNb2(SbRh)4
_chemical_formula_sum   'La1 Dy1 Nb2 Sb4 Rh4'
_cell_volume   267.38970618
_cell_formula_units_Z   1
loop_
 _symmetry_equiv_pos_site_id
 _symmetry_equiv_pos_as_xyz
  1  'x, y, z'
loop_
 _atom_site_type_symbol
 _atom_site_label
 _atom_site_symmetry_multiplicity
 _atom_site_fract_x
 _atom_site_fract_y
 _atom_site_fract_z
 _atom_site_occupancy
  La  La0  1  0.500001  0.506424  0.620586  1
  Dy  Dy1  1  0.000000  0.000707  0.377747  1
  Nb  Nb2  1  0.500001  0.493637  0.118738  1
  Nb  Nb3  1  0.000000  0.997446  0.881645  1
  Sb  Sb4  1  0.500001  0.982626  0.124214  1
  Sb  Sb5  1  0.000000  0.503723  0.356621  1
  Sb  Sb6  1  0.500001  0.012868  0.633021  1
  Sb  Sb7  1  0.000000  0.486131  0.882739  1
  Rh  Rh8  1  0.000000  0.736879  0.109054  1
  Rh  Rh9  1  0.500001  0.264159  0.344939  1
  Rh  Rh10  1  0.000000  0.781851  0.656866  1
  Rh  Rh11  1  0.500001  0.233557  0.893828  1
