# generated using pymatgen
data_YbMn3P3O13
_symmetry_space_group_name_H-M   'P 1'
_cell_length_a   6.26460000
_cell_length_b   7.77863721
_cell_length_c   10.37630300
_cell_angle_alpha   80.54913317
_cell_angle_beta   90.00000000
_cell_angle_gamma   90.00000000
_symmetry_Int_Tables_number   1
_chemical_formula_structural   YbMn3P3O13
_chemical_formula_sum   'Yb2 Mn6 P6 O26'
_cell_volume   498.77463458
_cell_formula_units_Z   2
loop_
 _symmetry_equiv_pos_site_id
 _symmetry_equiv_pos_as_xyz
  1  'x, y, z'
loop_
 _atom_site_type_symbol
 _atom_site_label
 _atom_site_symmetry_multiplicity
 _atom_site_fract_x
 _atom_site_fract_y
 _atom_site_fract_z
 _atom_site_occupancy
  Yb  Yb0  1  0.750000  0.350094  0.190699  1
  Yb  Yb1  1  0.250000  0.649906  0.809301  1
  Mn  Mn2  1  0.250000  0.655916  0.209972  1
  Mn  Mn3  1  0.750000  0.344084  0.790028  1
  Mn  Mn4  1  0.250000  0.230646  0.428908  1
  Mn  Mn5  1  0.500000  0.000000  0.000000  1
  Mn  Mn6  1  0.750000  0.769354  0.571092  1
  Mn  Mn7  1  0.000000  0.000000  0.000000  1
  P  P8  1  0.250000  0.786244  0.491618  1
  P  P9  1  0.750000  0.213756  0.508382  1
  P  P10  1  0.250000  0.255505  0.756407  1
  P  P11  1  0.750000  0.744495  0.243593  1
  P  P12  1  0.750000  0.681778  0.891477  1
  P  P13  1  0.250000  0.318222  0.108523  1
  O  O14  1  0.750000  0.634401  0.748919  1
  O  O15  1  0.559720  0.251395  0.407647  1
  O  O16  1  0.250000  0.215364  0.618219  1
  O  O17  1  0.543988  0.788119  0.905311  1
  O  O18  1  0.750000  0.353603  0.598393  1
  O  O19  1  0.750000  0.116062  0.910857  1
  O  O20  1  0.250000  0.646397  0.401607  1
  O  O21  1  0.043988  0.211881  0.094689  1
  O  O22  1  0.250000  0.969551  0.414508  1
  O  O23  1  0.750000  0.030449  0.585492  1
  O  O24  1  0.058840  0.373624  0.785617  1
  O  O25  1  0.250000  0.883938  0.089143  1
  O  O26  1  0.558840  0.626376  0.214383  1
  O  O27  1  0.750000  0.499895  0.974715  1
  O  O28  1  0.750000  0.784636  0.381781  1
  O  O29  1  0.456012  0.211881  0.094689  1
  O  O30  1  0.940280  0.251395  0.407647  1
  O  O31  1  0.440280  0.748605  0.592353  1
  O  O32  1  0.441160  0.373624  0.785617  1
  O  O33  1  0.250000  0.365599  0.251081  1
  O  O34  1  0.750000  0.915440  0.143472  1
  O  O35  1  0.250000  0.084560  0.856528  1
  O  O36  1  0.941160  0.626376  0.214383  1
  O  O37  1  0.956012  0.788119  0.905311  1
  O  O38  1  0.059720  0.748605  0.592353  1
  O  O39  1  0.250000  0.500105  0.025285  1
