# generated using pymatgen
data_TbDy(Cu2P)4
_symmetry_space_group_name_H-M   'P 1'
_cell_length_a   7.25858337
_cell_length_b   7.25858248
_cell_length_c   3.78618400
_cell_angle_alpha   90.00000000
_cell_angle_beta   90.00000000
_cell_angle_gamma   89.95389352
_symmetry_Int_Tables_number   1
_chemical_formula_structural   TbDy(Cu2P)4
_chemical_formula_sum   'Tb1 Dy1 Cu8 P4'
_cell_volume   199.48271075
_cell_formula_units_Z   1
loop_
 _symmetry_equiv_pos_site_id
 _symmetry_equiv_pos_as_xyz
  1  'x, y, z'
loop_
 _atom_site_type_symbol
 _atom_site_label
 _atom_site_symmetry_multiplicity
 _atom_site_fract_x
 _atom_site_fract_y
 _atom_site_fract_z
 _atom_site_occupancy
  Tb  Tb0  1  0.500000  0.500000  0.500000  1
  Dy  Dy1  1  0.000000  0.000000  0.000000  1
  Cu  Cu2  1  0.664894  0.916242  0.500000  1
  Cu  Cu3  1  0.164398  0.584102  0.000000  1
  Cu  Cu4  1  0.415898  0.835602  0.000000  1
  Cu  Cu5  1  0.916242  0.664894  0.500000  1
  Cu  Cu6  1  0.835602  0.415898  0.000000  1
  Cu  Cu7  1  0.584102  0.164398  0.000000  1
  Cu  Cu8  1  0.083758  0.335106  0.500000  1
  Cu  Cu9  1  0.335106  0.083758  0.500000  1
  P  P10  1  0.286144  0.286144  0.000000  1
  P  P11  1  0.713856  0.713856  0.000000  1
  P  P12  1  0.787150  0.212850  0.500000  1
  P  P13  1  0.212850  0.787150  0.500000  1
