# generated using pymatgen
data_BeCr21ReC6
_symmetry_space_group_name_H-M   'P 1'
_cell_length_a   7.46279334
_cell_length_b   7.46279231
_cell_length_c   7.46279300
_cell_angle_alpha   60.00000139
_cell_angle_beta   60.00000593
_cell_angle_gamma   59.99999173
_symmetry_Int_Tables_number   1
_chemical_formula_structural   BeCr21ReC6
_chemical_formula_sum   'Be1 Cr21 Re1 C6'
_cell_volume   293.89294800
_cell_formula_units_Z   1
loop_
 _symmetry_equiv_pos_site_id
 _symmetry_equiv_pos_as_xyz
  1  'x, y, z'
loop_
 _atom_site_type_symbol
 _atom_site_label
 _atom_site_symmetry_multiplicity
 _atom_site_fract_x
 _atom_site_fract_y
 _atom_site_fract_z
 _atom_site_occupancy
  Be  Be0  1  0.000000  0.000000  0.000000  1
  Cr  Cr1  1  0.250000  0.250000  0.250000  1
  Cr  Cr2  1  0.615477  0.615477  0.153569  1
  Cr  Cr3  1  0.615477  0.153569  0.615477  1
  Cr  Cr4  1  0.153569  0.615477  0.615477  1
  Cr  Cr5  1  0.615477  0.615477  0.615477  1
  Cr  Cr6  1  0.378995  0.378995  0.863016  1
  Cr  Cr7  1  0.378995  0.863016  0.378995  1
  Cr  Cr8  1  0.863016  0.378995  0.378995  1
  Cr  Cr9  1  0.378995  0.378995  0.378995  1
  Cr  Cr10  1  0.000251  0.000251  0.336840  1
  Cr  Cr11  1  0.662658  0.000251  0.336840  1
  Cr  Cr12  1  0.000251  0.662658  0.336840  1
  Cr  Cr13  1  0.662658  0.336840  0.000251  1
  Cr  Cr14  1  0.000251  0.336840  0.000251  1
  Cr  Cr15  1  0.000251  0.336840  0.662658  1
  Cr  Cr16  1  0.336840  0.662658  0.000251  1
  Cr  Cr17  1  0.336840  0.000251  0.662658  1
  Cr  Cr18  1  0.336840  0.000251  0.000251  1
  Cr  Cr19  1  0.000251  0.000251  0.662658  1
  Cr  Cr20  1  0.000251  0.662658  0.000251  1
  Cr  Cr21  1  0.662658  0.000251  0.000251  1
  Re  Re22  1  0.750000  0.750000  0.750000  1
  C  C23  1  0.722218  0.722218  0.277782  1
  C  C24  1  0.277782  0.722218  0.277782  1
  C  C25  1  0.722218  0.277782  0.277782  1
  C  C26  1  0.277782  0.277782  0.722218  1
  C  C27  1  0.722218  0.277782  0.722218  1
  C  C28  1  0.277782  0.722218  0.722218  1
