# generated using pymatgen
data_La2Pr3Tc3(P3Ir4)4
_symmetry_space_group_name_H-M   'P 1'
_cell_length_a   12.76084900
_cell_length_b   12.76034977
_cell_length_c   4.08218300
_cell_angle_alpha   90.00000000
_cell_angle_beta   90.00000000
_cell_angle_gamma   119.99870299
_symmetry_Int_Tables_number   1
_chemical_formula_structural   La2Pr3Tc3(P3Ir4)4
_chemical_formula_sum   'La2 Pr3 Tc3 P12 Ir16'
_cell_volume   575.66645895
_cell_formula_units_Z   1
loop_
 _symmetry_equiv_pos_site_id
 _symmetry_equiv_pos_as_xyz
  1  'x, y, z'
loop_
 _atom_site_type_symbol
 _atom_site_label
 _atom_site_symmetry_multiplicity
 _atom_site_fract_x
 _atom_site_fract_y
 _atom_site_fract_z
 _atom_site_occupancy
  La  La0  1  0.184096  0.183884  0.500000  1
  La  La1  1  0.815904  0.999788  0.500000  1
  Pr  Pr2  1  0.000000  0.814743  0.500000  1
  Pr  Pr3  1  0.333395  0.666792  0.000000  1
  Pr  Pr4  1  0.666605  0.333396  0.000000  1
  Tc  Tc5  1  0.000000  0.292685  0.500000  1
  Tc  Tc6  1  0.707771  0.707524  0.500000  1
  Tc  Tc7  1  0.292229  0.999753  0.500000  1
  P  P8  1  0.000000  0.184280  0.000000  1
  P  P9  1  0.816343  0.815866  0.000000  1
  P  P10  1  0.183657  0.999523  0.000000  1
  P  P11  1  0.521062  0.694037  0.500000  1
  P  P12  1  0.306078  0.826922  0.500000  1
  P  P13  1  0.173032  0.479180  0.500000  1
  P  P14  1  0.478938  0.172975  0.500000  1
  P  P15  1  0.693922  0.520845  0.500000  1
  P  P16  1  0.826968  0.306148  0.500000  1
  P  P17  1  0.000000  0.636044  0.000000  1
  P  P18  1  0.364548  0.364538  0.000000  1
  P  P19  1  0.635452  0.999990  0.000000  1
  Ir  Ir20  1  0.619269  0.802173  0.000000  1
  Ir  Ir21  1  0.197187  0.816936  0.000000  1
  Ir  Ir22  1  0.182976  0.380729  0.000000  1
  Ir  Ir23  1  0.380731  0.182904  0.000000  1
  Ir  Ir24  1  0.802813  0.619749  0.000000  1
  Ir  Ir25  1  0.817024  0.197752  0.000000  1
  Ir  Ir26  1  0.506532  0.872666  0.500000  1
  Ir  Ir27  1  0.127438  0.634090  0.500000  1
  Ir  Ir28  1  0.366108  0.493520  0.500000  1
  Ir  Ir29  1  0.493468  0.366133  0.500000  1
  Ir  Ir30  1  0.872562  0.506650  0.500000  1
  Ir  Ir31  1  0.633892  0.127411  0.500000  1
  Ir  Ir32  1  0.000000  0.999965  0.000000  1
  Ir  Ir33  1  0.000000  0.455013  0.000000  1
  Ir  Ir34  1  0.545275  0.545336  0.000000  1
  Ir  Ir35  1  0.454725  0.000061  0.000000  1
