# generated using pymatgen
data_Tm3CrO6
_symmetry_space_group_name_H-M   'P 1'
_cell_length_a   6.43282097
_cell_length_b   6.43282245
_cell_length_c   6.43282274
_cell_angle_alpha   92.15431319
_cell_angle_beta   92.15432540
_cell_angle_gamma   92.15432277
_symmetry_Int_Tables_number   1
_chemical_formula_structural   Tm3CrO6
_chemical_formula_sum   'Tm6 Cr2 O12'
_cell_volume   265.61887962
_cell_formula_units_Z   2
loop_
 _symmetry_equiv_pos_site_id
 _symmetry_equiv_pos_as_xyz
  1  'x, y, z'
loop_
 _atom_site_type_symbol
 _atom_site_label
 _atom_site_symmetry_multiplicity
 _atom_site_fract_x
 _atom_site_fract_y
 _atom_site_fract_z
 _atom_site_occupancy
  Tm  Tm0  1  0.746199  0.929271  0.437528  1
  Tm  Tm1  1  0.929271  0.437528  0.746199  1
  Tm  Tm2  1  0.437528  0.746199  0.929271  1
  Tm  Tm3  1  0.253801  0.070729  0.562472  1
  Tm  Tm4  1  0.070729  0.562472  0.253801  1
  Tm  Tm5  1  0.562472  0.253801  0.070729  1
  Cr  Cr6  1  0.500000  0.500000  0.500000  1
  Cr  Cr7  1  0.000000  0.000000  0.000000  1
  O  O8  1  0.589823  0.461191  0.802201  1
  O  O9  1  0.461191  0.802201  0.589823  1
  O  O10  1  0.802201  0.589823  0.461191  1
  O  O11  1  0.410177  0.538809  0.197799  1
  O  O12  1  0.538809  0.197799  0.410177  1
  O  O13  1  0.197799  0.410177  0.538809  1
  O  O14  1  0.069899  0.917133  0.302763  1
  O  O15  1  0.917133  0.302763  0.069899  1
  O  O16  1  0.697237  0.930101  0.082867  1
  O  O17  1  0.082867  0.697237  0.930101  1
  O  O18  1  0.930101  0.082867  0.697237  1
  O  O19  1  0.302763  0.069899  0.917133  1
