# generated using pymatgen
data_Cr2InAgO8
_symmetry_space_group_name_H-M   'P 1'
_cell_length_a   5.25420533
_cell_length_b   5.25420409
_cell_length_c   7.21114951
_cell_angle_alpha   91.77572582
_cell_angle_beta   91.77572117
_cell_angle_gamma   66.54176698
_symmetry_Int_Tables_number   1
_chemical_formula_structural   Cr2InAgO8
_chemical_formula_sum   'Cr2 In1 Ag1 O8'
_cell_volume   182.49682071
_cell_formula_units_Z   1
loop_
 _symmetry_equiv_pos_site_id
 _symmetry_equiv_pos_as_xyz
  1  'x, y, z'
loop_
 _atom_site_type_symbol
 _atom_site_label
 _atom_site_symmetry_multiplicity
 _atom_site_fract_x
 _atom_site_fract_y
 _atom_site_fract_z
 _atom_site_occupancy
  Cr  Cr0  1  0.356249  0.356249  0.772096  1
  Cr  Cr1  1  0.643751  0.643751  0.227904  1
  In  In2  1  0.000000  0.000000  0.000000  1
  Ag  Ag3  1  0.000000  0.000000  0.500000  1
  O  O4  1  0.254109  0.254109  0.579554  1
  O  O5  1  0.745891  0.745891  0.420446  1
  O  O6  1  0.709677  0.222748  0.780497  1
  O  O7  1  0.290323  0.777252  0.219503  1
  O  O8  1  0.777252  0.290323  0.219503  1
  O  O9  1  0.222748  0.709677  0.780497  1
  O  O10  1  0.243205  0.243205  0.952124  1
  O  O11  1  0.756795  0.756795  0.047876  1
