# generated using pymatgen
data_TbDy(CoCl)2
_symmetry_space_group_name_H-M   'P 1'
_cell_length_a   3.87891700
_cell_length_b   3.87891754
_cell_length_c   11.04670500
_cell_angle_alpha   90.00000000
_cell_angle_beta   90.00000000
_cell_angle_gamma   120.00000389
_symmetry_Int_Tables_number   1
_chemical_formula_structural   TbDy(CoCl)2
_chemical_formula_sum   'Tb1 Dy1 Co2 Cl2'
_cell_volume   143.94096353
_cell_formula_units_Z   1
loop_
 _symmetry_equiv_pos_site_id
 _symmetry_equiv_pos_as_xyz
  1  'x, y, z'
loop_
 _atom_site_type_symbol
 _atom_site_label
 _atom_site_symmetry_multiplicity
 _atom_site_fract_x
 _atom_site_fract_y
 _atom_site_fract_z
 _atom_site_occupancy
  Tb  Tb0  1  0.000000  0.000000  0.169987  1
  Dy  Dy1  1  0.000000  0.000000  0.830111  1
  Co  Co2  1  0.666666  0.333335  0.005730  1
  Co  Co3  1  0.333333  0.666666  0.992706  1
  Cl  Cl4  1  0.333333  0.666666  0.327556  1
  Cl  Cl5  1  0.666666  0.333335  0.673912  1
