# generated using pymatgen
data_Nd16MgHg3Ir4
_symmetry_space_group_name_H-M   'P 1'
_cell_length_a   9.93983652
_cell_length_b   9.93972506
_cell_length_c   9.93982317
_cell_angle_alpha   60.28158187
_cell_angle_beta   60.28208602
_cell_angle_gamma   60.28166150
_symmetry_Int_Tables_number   1
_chemical_formula_structural   Nd16MgHg3Ir4
_chemical_formula_sum   'Nd16 Mg1 Hg3 Ir4'
_cell_volume   698.84044692
_cell_formula_units_Z   1
loop_
 _symmetry_equiv_pos_site_id
 _symmetry_equiv_pos_as_xyz
  1  'x, y, z'
loop_
 _atom_site_type_symbol
 _atom_site_label
 _atom_site_symmetry_multiplicity
 _atom_site_fract_x
 _atom_site_fract_y
 _atom_site_fract_z
 _atom_site_occupancy
  Nd  Nd0  1  0.651356  0.044987  0.651354  1
  Nd  Nd1  1  0.808388  0.191023  0.808388  1
  Nd  Nd2  1  0.191017  0.808388  0.808388  1
  Nd  Nd3  1  0.060199  0.438435  0.438434  1
  Nd  Nd4  1  0.059842  0.059844  0.440531  1
  Nd  Nd5  1  0.438433  0.060201  0.438434  1
  Nd  Nd6  1  0.811842  0.189373  0.189366  1
  Nd  Nd7  1  0.440532  0.059844  0.059842  1
  Nd  Nd8  1  0.189368  0.811841  0.189371  1
  Nd  Nd9  1  0.438433  0.438436  0.060199  1
  Nd  Nd10  1  0.808388  0.808387  0.191018  1
  Nd  Nd11  1  0.189364  0.189374  0.811841  1
  Nd  Nd12  1  0.044984  0.651349  0.651358  1
  Nd  Nd13  1  0.649866  0.649856  0.649864  1
  Nd  Nd14  1  0.059843  0.440531  0.059844  1
  Nd  Nd15  1  0.651359  0.651349  0.044985  1
  Mg  Mg16  1  0.429561  0.429562  0.429562  1
  Hg  Hg17  1  0.413191  0.413192  0.754641  1
  Hg  Hg18  1  0.754641  0.413192  0.413191  1
  Hg  Hg19  1  0.413192  0.754640  0.413192  1
  Ir  Ir20  1  0.857804  0.857800  0.857803  1
  Ir  Ir21  1  0.856923  0.424553  0.856922  1
  Ir  Ir22  1  0.856926  0.856922  0.424549  1
  Ir  Ir23  1  0.424549  0.856922  0.856925  1
