# generated using pymatgen
data_Ac8C8Cl5
_symmetry_space_group_name_H-M   'P 1'
_cell_length_a   17.51863800
_cell_length_b   7.20081490
_cell_length_c   8.14384556
_cell_angle_alpha   76.05364018
_cell_angle_beta   90.00000000
_cell_angle_gamma   90.00000000
_symmetry_Int_Tables_number   1
_chemical_formula_structural   Ac8C8Cl5
_chemical_formula_sum   'Ac16 C16 Cl10'
_cell_volume   997.04969318
_cell_formula_units_Z   2
loop_
 _symmetry_equiv_pos_site_id
 _symmetry_equiv_pos_as_xyz
  1  'x, y, z'
loop_
 _atom_site_type_symbol
 _atom_site_label
 _atom_site_symmetry_multiplicity
 _atom_site_fract_x
 _atom_site_fract_y
 _atom_site_fract_z
 _atom_site_occupancy
  Ac  Ac0  1  0.069938  0.876900  0.155097  1
  Ac  Ac1  1  0.569938  0.623100  0.844903  1
  Ac  Ac2  1  0.930062  0.123100  0.844903  1
  Ac  Ac3  1  0.430062  0.376900  0.155097  1
  Ac  Ac4  1  0.952578  0.383647  0.228082  1
  Ac  Ac5  1  0.452578  0.116353  0.771918  1
  Ac  Ac6  1  0.047422  0.616353  0.771918  1
  Ac  Ac7  1  0.547422  0.883647  0.228082  1
  Ac  Ac8  1  0.193830  0.373542  0.080056  1
  Ac  Ac9  1  0.693830  0.126458  0.919944  1
  Ac  Ac10  1  0.806170  0.626458  0.919944  1
  Ac  Ac11  1  0.306170  0.873542  0.080056  1
  Ac  Ac12  1  0.171714  0.106906  0.698356  1
  Ac  Ac13  1  0.671714  0.393094  0.301644  1
  Ac  Ac14  1  0.828286  0.893094  0.301644  1
  Ac  Ac15  1  0.328286  0.606906  0.698356  1
  C  C16  1  0.040445  0.276725  0.022003  1
  C  C17  1  0.540445  0.223275  0.977997  1
  C  C18  1  0.959555  0.723275  0.977997  1
  C  C19  1  0.459555  0.776725  0.022003  1
  C  C20  1  0.160881  0.765648  0.950776  1
  C  C21  1  0.660881  0.734352  0.049224  1
  C  C22  1  0.839119  0.234352  0.049224  1
  C  C23  1  0.339119  0.265648  0.950776  1
  C  C24  1  0.083741  0.221057  0.902833  1
  C  C25  1  0.583741  0.278943  0.097167  1
  C  C26  1  0.916259  0.778943  0.097167  1
  C  C27  1  0.416259  0.721057  0.902833  1
  C  C28  1  0.286300  0.217118  0.847311  1
  C  C29  1  0.786300  0.282882  0.152689  1
  C  C30  1  0.713700  0.782882  0.152689  1
  C  C31  1  0.213700  0.717118  0.847311  1
  Cl  Cl32  1  0.203924  0.982153  0.352977  1
  Cl  Cl33  1  0.703924  0.517847  0.647023  1
  Cl  Cl34  1  0.796076  0.017847  0.647023  1
  Cl  Cl35  1  0.296076  0.482153  0.352977  1
  Cl  Cl36  1  0.098086  0.480623  0.413666  1
  Cl  Cl37  1  0.598086  0.019377  0.586334  1
  Cl  Cl38  1  0.901914  0.519377  0.586334  1
  Cl  Cl39  1  0.401914  0.980623  0.413666  1
  Cl  Cl40  1  0.000000  0.000000  0.500000  1
  Cl  Cl41  1  0.500000  0.500000  0.500000  1
