# generated using pymatgen
data_Th8Os5Pt3
_symmetry_space_group_name_H-M   'P 1'
_cell_length_a   4.29758000
_cell_length_b   5.89949261
_cell_length_c   15.01324076
_cell_angle_alpha   90.09533313
_cell_angle_beta   90.00000000
_cell_angle_gamma   90.00000000
_symmetry_Int_Tables_number   1
_chemical_formula_structural   Th8Os5Pt3
_chemical_formula_sum   'Th8 Os5 Pt3'
_cell_volume   380.63829498
_cell_formula_units_Z   1
loop_
 _symmetry_equiv_pos_site_id
 _symmetry_equiv_pos_as_xyz
  1  'x, y, z'
loop_
 _atom_site_type_symbol
 _atom_site_label
 _atom_site_symmetry_multiplicity
 _atom_site_fract_x
 _atom_site_fract_y
 _atom_site_fract_z
 _atom_site_occupancy
  Th  Th0  1  0.250000  0.545988  0.287464  1
  Th  Th1  1  0.750000  0.462334  0.716804  1
  Th  Th2  1  0.250000  0.959852  0.781301  1
  Th  Th3  1  0.250000  0.754177  0.534087  1
  Th  Th4  1  0.250000  0.738616  0.041396  1
  Th  Th5  1  0.750000  0.263060  0.960083  1
  Th  Th6  1  0.750000  0.039353  0.218939  1
  Th  Th7  1  0.750000  0.244300  0.458239  1
  Os  Os8  1  0.250000  0.052677  0.350432  1
  Os  Os9  1  0.750000  0.557558  0.148196  1
  Os  Os10  1  0.750000  0.728261  0.404097  1
  Os  Os11  1  0.250000  0.442771  0.850261  1
  Os  Os12  1  0.750000  0.944527  0.648934  1
  Pt  Pt13  1  0.750000  0.776026  0.902418  1
  Pt  Pt14  1  0.250000  0.225104  0.098913  1
  Pt  Pt15  1  0.250000  0.265401  0.598437  1
