# generated using pymatgen
data_Ho12Fe2Co2BiRh
_symmetry_space_group_name_H-M   'P 1'
_cell_length_a   8.29897444
_cell_length_b   8.29915173
_cell_length_c   8.29897422
_cell_angle_alpha   111.79545720
_cell_angle_beta   110.83445314
_cell_angle_gamma   105.84422416
_symmetry_Int_Tables_number   1
_chemical_formula_structural   Ho12Fe2Co2BiRh
_chemical_formula_sum   'Ho12 Fe2 Co2 Bi1 Rh1'
_cell_volume   438.66820045
_cell_formula_units_Z   1
loop_
 _symmetry_equiv_pos_site_id
 _symmetry_equiv_pos_as_xyz
  1  'x, y, z'
loop_
 _atom_site_type_symbol
 _atom_site_label
 _atom_site_symmetry_multiplicity
 _atom_site_fract_x
 _atom_site_fract_y
 _atom_site_fract_z
 _atom_site_occupancy
  Ho  Ho0  1  0.814287  0.713355  0.527640  1
  Ho  Ho1  1  0.185713  0.286645  0.472360  1
  Ho  Ho2  1  0.185716  0.713355  0.899068  1
  Ho  Ho3  1  0.814284  0.286645  0.100932  1
  Ho  Ho4  1  0.689529  0.381252  0.691724  1
  Ho  Ho5  1  0.310471  0.618748  0.308276  1
  Ho  Ho6  1  0.689533  0.997809  0.308277  1
  Ho  Ho7  1  0.310467  0.002191  0.691723  1
  Ho  Ho8  1  0.591680  0.790018  0.801657  1
  Ho  Ho9  1  0.408320  0.209982  0.198343  1
  Ho  Ho10  1  0.988361  0.790018  0.198339  1
  Ho  Ho11  1  0.011639  0.209982  0.801661  1
  Fe  Fe12  1  0.615676  0.000000  0.615676  1
  Fe  Fe13  1  0.384324  0.000000  0.384324  1
  Co  Co14  1  0.110077  0.610076  0.500000  1
  Co  Co15  1  0.889923  0.389924  0.500000  1
  Bi  Bi16  1  0.500000  0.500000  0.000000  1
  Rh  Rh17  1  0.000000  0.000000  0.000000  1
