# generated using pymatgen
data_Li8Nd8GeSb7
_symmetry_space_group_name_H-M   'P 1'
_cell_length_a   9.50241500
_cell_length_b   9.50241580
_cell_length_c   7.43386100
_cell_angle_alpha   90.00000000
_cell_angle_beta   90.00000000
_cell_angle_gamma   119.99999373
_symmetry_Int_Tables_number   1
_chemical_formula_structural   Li8Nd8GeSb7
_chemical_formula_sum   'Li8 Nd8 Ge1 Sb7'
_cell_volume   581.31712762
_cell_formula_units_Z   1
loop_
 _symmetry_equiv_pos_site_id
 _symmetry_equiv_pos_as_xyz
  1  'x, y, z'
loop_
 _atom_site_type_symbol
 _atom_site_label
 _atom_site_symmetry_multiplicity
 _atom_site_fract_x
 _atom_site_fract_y
 _atom_site_fract_z
 _atom_site_occupancy
  Li  Li0  1  0.167636  0.335273  0.268324  1
  Li  Li1  1  0.167636  0.832364  0.268324  1
  Li  Li2  1  0.664727  0.832364  0.268324  1
  Li  Li3  1  0.829439  0.658878  0.768850  1
  Li  Li4  1  0.829439  0.170561  0.768850  1
  Li  Li5  1  0.341122  0.170561  0.768850  1
  Li  Li6  1  0.333333  0.666667  0.692479  1
  Li  Li7  1  0.666667  0.333333  0.194068  1
  Nd  Nd8  1  0.512163  0.024326  0.499737  1
  Nd  Nd9  1  0.512163  0.487837  0.499737  1
  Nd  Nd10  1  0.975674  0.487837  0.499737  1
  Nd  Nd11  1  0.496560  0.993119  0.993201  1
  Nd  Nd12  1  0.496560  0.503440  0.993201  1
  Nd  Nd13  1  0.006881  0.503440  0.993201  1
  Nd  Nd14  1  0.000000  0.000000  0.501567  1
  Nd  Nd15  1  0.000000  0.000000  0.000628  1
  Ge  Ge16  1  0.666667  0.333333  0.756992  1
  Sb  Sb17  1  0.166540  0.333081  0.741143  1
  Sb  Sb18  1  0.166540  0.833460  0.741143  1
  Sb  Sb19  1  0.666919  0.833460  0.741143  1
  Sb  Sb20  1  0.833455  0.666910  0.241072  1
  Sb  Sb21  1  0.833455  0.166545  0.241072  1
  Sb  Sb22  1  0.333090  0.166545  0.241072  1
  Sb  Sb23  1  0.333333  0.666667  0.259258  1
