# generated using pymatgen
data_Tb5YbYFeI12
_symmetry_space_group_name_H-M   'P 1'
_cell_length_a   9.76155717
_cell_length_b   9.82117252
_cell_length_c   9.74757815
_cell_angle_alpha   107.23745718
_cell_angle_beta   106.74532507
_cell_angle_gamma   106.83317512
_symmetry_Int_Tables_number   1
_chemical_formula_structural   Tb5YbYFeI12
_chemical_formula_sum   'Tb5 Yb1 Y1 Fe1 I12'
_cell_volume   779.54635988
_cell_formula_units_Z   1
loop_
 _symmetry_equiv_pos_site_id
 _symmetry_equiv_pos_as_xyz
  1  'x, y, z'
loop_
 _atom_site_type_symbol
 _atom_site_label
 _atom_site_symmetry_multiplicity
 _atom_site_fract_x
 _atom_site_fract_y
 _atom_site_fract_z
 _atom_site_occupancy
  Tb  Tb0  1  0.024490  0.092707  0.288257  1
  Tb  Tb1  1  0.286429  0.024550  0.093020  1
  Tb  Tb2  1  0.902120  0.698874  0.975179  1
  Tb  Tb3  1  0.975596  0.907395  0.711838  1
  Tb  Tb4  1  0.713743  0.975504  0.907035  1
  Yb  Yb5  1  0.499993  0.500043  0.499961  1
  Y  Y6  1  0.097838  0.301465  0.024861  1
  Fe  Fe7  1  0.000018  0.999811  0.000121  1
  I  I8  1  0.456914  0.377676  0.150732  1
  I  I9  1  0.149730  0.455349  0.378506  1
  I  I10  1  0.379970  0.152332  0.457029  1
  I  I11  1  0.542037  0.622160  0.848743  1
  I  I12  1  0.850134  0.544528  0.620791  1
  I  I13  1  0.620059  0.847748  0.542977  1
  I  I14  1  0.774056  0.316695  0.926689  1
  I  I15  1  0.927592  0.776684  0.319273  1
  I  I16  1  0.317210  0.927053  0.775572  1
  I  I17  1  0.226657  0.682656  0.073476  1
  I  I18  1  0.072579  0.223748  0.681462  1
  I  I19  1  0.682836  0.073018  0.224478  1
