# generated using pymatgen
data_Sc6B4IrRu2Rh7
_symmetry_space_group_name_H-M   'P 1'
_cell_length_a   9.55661616
_cell_length_b   9.58416515
_cell_length_c   3.07162200
_cell_angle_alpha   90.00000000
_cell_angle_beta   90.00000000
_cell_angle_gamma   89.92302782
_symmetry_Int_Tables_number   1
_chemical_formula_structural   Sc6B4IrRu2Rh7
_chemical_formula_sum   'Sc6 B4 Ir1 Ru2 Rh7'
_cell_volume   281.33632468
_cell_formula_units_Z   1
loop_
 _symmetry_equiv_pos_site_id
 _symmetry_equiv_pos_as_xyz
  1  'x, y, z'
loop_
 _atom_site_type_symbol
 _atom_site_label
 _atom_site_symmetry_multiplicity
 _atom_site_fract_x
 _atom_site_fract_y
 _atom_site_fract_z
 _atom_site_occupancy
  Sc  Sc0  1  0.827608  0.325834  0.000000  1
  Sc  Sc1  1  0.325627  0.172991  0.000000  1
  Sc  Sc2  1  0.673212  0.826433  0.000000  1
  Sc  Sc3  1  0.173517  0.672984  0.000000  1
  Sc  Sc4  1  0.999302  0.998277  0.000000  1
  Sc  Sc5  1  0.500092  0.499897  0.000000  1
  B  B6  1  0.620227  0.120514  0.000000  1
  B  B7  1  0.119924  0.378745  0.000000  1
  B  B8  1  0.879653  0.620353  0.000000  1
  B  B9  1  0.379926  0.879705  0.000000  1
  Ir  Ir10  1  0.073631  0.221668  0.500000  1
  Ru  Ru11  1  0.500627  0.999880  0.500000  1
  Ru  Ru12  1  0.999896  0.501174  0.500000  1
  Rh  Rh13  1  0.221531  0.926966  0.500000  1
  Rh  Rh14  1  0.778901  0.073823  0.500000  1
  Rh  Rh15  1  0.926117  0.778487  0.500000  1
  Rh  Rh16  1  0.426344  0.721790  0.500000  1
  Rh  Rh17  1  0.573432  0.278529  0.500000  1
  Rh  Rh18  1  0.720913  0.573971  0.500000  1
  Rh  Rh19  1  0.279521  0.427978  0.500000  1
