# generated using pymatgen
data_Be6Fe2Re3Os
_symmetry_space_group_name_H-M   'P 1'
_cell_length_a   4.46923200
_cell_length_b   4.46923211
_cell_length_c   7.13873700
_cell_angle_alpha   90.00000000
_cell_angle_beta   90.00000000
_cell_angle_gamma   120.00001397
_symmetry_Int_Tables_number   1
_chemical_formula_structural   Be6Fe2Re3Os
_chemical_formula_sum   'Be6 Fe2 Re3 Os1'
_cell_volume   123.48601141
_cell_formula_units_Z   1
loop_
 _symmetry_equiv_pos_site_id
 _symmetry_equiv_pos_as_xyz
  1  'x, y, z'
loop_
 _atom_site_type_symbol
 _atom_site_label
 _atom_site_symmetry_multiplicity
 _atom_site_fract_x
 _atom_site_fract_y
 _atom_site_fract_z
 _atom_site_occupancy
  Be  Be0  1  0.831878  0.663756  0.248215  1
  Be  Be1  1  0.168312  0.831688  0.750429  1
  Be  Be2  1  0.663374  0.831688  0.750429  1
  Be  Be3  1  0.336244  0.168122  0.248215  1
  Be  Be4  1  0.831878  0.168122  0.248215  1
  Be  Be5  1  0.168312  0.336626  0.750429  1
  Fe  Fe6  1  0.000000  0.000000  0.999470  1
  Fe  Fe7  1  0.000000  0.000000  0.496852  1
  Re  Re8  1  0.666667  0.333333  0.570051  1
  Re  Re9  1  0.666667  0.333333  0.930869  1
  Re  Re10  1  0.333333  0.666667  0.433825  1
  Os  Os11  1  0.333333  0.666667  0.073000  1
