# generated using pymatgen
data_Er5Lu11Tl4(InCo)2
_symmetry_space_group_name_H-M   'P 1'
_cell_length_a   10.14382806
_cell_length_b   10.15226304
_cell_length_c   6.95777309
_cell_angle_alpha   89.98829150
_cell_angle_beta   90.01366360
_cell_angle_gamma   119.95133119
_symmetry_Int_Tables_number   1
_chemical_formula_structural   Er5Lu11Tl4(InCo)2
_chemical_formula_sum   'Er5 Lu11 Tl4 In2 Co2'
_cell_volume   620.83815029
_cell_formula_units_Z   1
loop_
 _symmetry_equiv_pos_site_id
 _symmetry_equiv_pos_as_xyz
  1  'x, y, z'
loop_
 _atom_site_type_symbol
 _atom_site_label
 _atom_site_symmetry_multiplicity
 _atom_site_fract_x
 _atom_site_fract_y
 _atom_site_fract_z
 _atom_site_occupancy
  Er  Er0  1  0.535327  0.070670  0.520527  1
  Er  Er1  1  0.928518  0.465065  0.521823  1
  Er  Er2  1  0.536393  0.465246  0.522396  1
  Er  Er3  1  0.463786  0.927570  0.023588  1
  Er  Er4  1  0.073012  0.536336  0.023066  1
  Lu  Lu5  1  0.462949  0.536885  0.023655  1
  Lu  Lu6  1  0.178638  0.356243  0.725715  1
  Lu  Lu7  1  0.643735  0.821717  0.727994  1
  Lu  Lu8  1  0.178522  0.822095  0.726742  1
  Lu  Lu9  1  0.820721  0.642643  0.224226  1
  Lu  Lu10  1  0.357065  0.179639  0.224341  1
  Lu  Lu11  1  0.822283  0.178755  0.224851  1
  Lu  Lu12  1  0.666295  0.333420  0.915281  1
  Lu  Lu13  1  0.333826  0.666697  0.416096  1
  Lu  Lu14  1  0.999139  0.998217  0.503988  1
  Lu  Lu15  1  0.999308  0.998508  0.006945  1
  Tl  Tl16  1  0.837320  0.674396  0.773513  1
  Tl  Tl17  1  0.325501  0.162710  0.773241  1
  Tl  Tl18  1  0.837195  0.163112  0.772897  1
  Tl  Tl19  1  0.163107  0.326001  0.273826  1
  In  In20  1  0.674442  0.837081  0.272603  1
  In  In21  1  0.162377  0.837595  0.272794  1
  Co  Co22  1  0.666766  0.333444  0.292358  1
  Co  Co23  1  0.333777  0.665956  0.793215  1
