# generated using pymatgen
data_Ca2Yb5HoBi6
_symmetry_space_group_name_H-M   'P 1'
_cell_length_a   8.27964600
_cell_length_b   8.35017546
_cell_length_c   8.36667300
_cell_angle_alpha   109.63574209
_cell_angle_beta   109.32361366
_cell_angle_gamma   109.27112434
_symmetry_Int_Tables_number   1
_chemical_formula_structural   Ca2Yb5HoBi6
_chemical_formula_sum   'Ca2 Yb5 Ho1 Bi6'
_cell_volume   446.28506839
_cell_formula_units_Z   1
loop_
 _symmetry_equiv_pos_site_id
 _symmetry_equiv_pos_as_xyz
  1  'x, y, z'
loop_
 _atom_site_type_symbol
 _atom_site_label
 _atom_site_symmetry_multiplicity
 _atom_site_fract_x
 _atom_site_fract_y
 _atom_site_fract_z
 _atom_site_occupancy
  Ca  Ca0  1  0.648767  0.500204  0.000131  1
  Ca  Ca1  1  0.500005  0.000716  0.650186  1
  Yb  Yb2  1  0.354458  0.351592  0.354660  1
  Yb  Yb3  1  0.502652  0.002803  0.148371  1
  Yb  Yb4  1  0.999068  0.649717  0.499590  1
  Yb  Yb5  1  0.849710  0.849465  0.850253  1
  Yb  Yb6  1  0.999719  0.145434  0.497121  1
  Ho  Ho7  1  0.146533  0.500124  0.000487  1
  Bi  Bi8  1  0.370824  0.623896  0.754375  1
  Bi  Bi9  1  0.882264  0.254780  0.125876  1
  Bi  Bi10  1  0.616717  0.745382  0.369595  1
  Bi  Bi11  1  0.126413  0.870537  0.244695  1
  Bi  Bi12  1  0.246473  0.130271  0.875935  1
  Bi  Bi13  1  0.756398  0.375082  0.628724  1
