# generated using pymatgen
data_Er12InFe2CuOs
_symmetry_space_group_name_H-M   'P 1'
_cell_length_a   8.21679924
_cell_length_b   8.22371701
_cell_length_c   8.21679682
_cell_angle_alpha   106.93131043
_cell_angle_beta   110.90244116
_cell_angle_gamma   110.57639849
_symmetry_Int_Tables_number   1
_chemical_formula_structural   Er12InFe2CuOs
_chemical_formula_sum   'Er12 In1 Fe2 Cu1 Os1'
_cell_volume   426.96540203
_cell_formula_units_Z   1
loop_
 _symmetry_equiv_pos_site_id
 _symmetry_equiv_pos_as_xyz
  1  'x, y, z'
loop_
 _atom_site_type_symbol
 _atom_site_label
 _atom_site_symmetry_multiplicity
 _atom_site_fract_x
 _atom_site_fract_y
 _atom_site_fract_z
 _atom_site_occupancy
  Er  Er0  1  0.309173  0.309495  0.618831  1
  Er  Er1  1  0.690827  0.690505  0.381169  1
  Er  Er2  1  0.309337  0.690505  0.999677  1
  Er  Er3  1  0.690663  0.309495  0.000323  1
  Er  Er4  1  0.449463  0.190681  0.258699  1
  Er  Er5  1  0.550537  0.809319  0.741301  1
  Er  Er6  1  0.931982  0.190681  0.741218  1
  Er  Er7  1  0.190340  0.962053  0.771715  1
  Er  Er8  1  0.068018  0.809319  0.258782  1
  Er  Er9  1  0.809660  0.037947  0.228285  1
  Er  Er10  1  0.190272  0.418417  0.228146  1
  Er  Er11  1  0.809728  0.581583  0.771854  1
  In  In12  1  0.000000  0.500000  0.500000  1
  Fe  Fe13  1  0.382399  0.382409  0.000010  1
  Fe  Fe14  1  0.617601  0.617591  0.999990  1
  Cu  Cu15  1  0.500000  0.000000  0.500000  1
  Os  Os16  1  0.000000  0.000000  0.000000  1
