# generated using pymatgen
data_Tm3Pa(Ni2Hg)2
_symmetry_space_group_name_H-M   'P 1'
_cell_length_a   7.34652803
_cell_length_b   7.34652768
_cell_length_c   3.55648300
_cell_angle_alpha   90.00000000
_cell_angle_beta   90.00000000
_cell_angle_gamma   92.30791352
_symmetry_Int_Tables_number   1
_chemical_formula_structural   Tm3Pa(Ni2Hg)2
_chemical_formula_sum   'Tm3 Pa1 Ni4 Hg2'
_cell_volume   191.79292042
_cell_formula_units_Z   1
loop_
 _symmetry_equiv_pos_site_id
 _symmetry_equiv_pos_as_xyz
  1  'x, y, z'
loop_
 _atom_site_type_symbol
 _atom_site_label
 _atom_site_symmetry_multiplicity
 _atom_site_fract_x
 _atom_site_fract_y
 _atom_site_fract_z
 _atom_site_occupancy
  Tm  Tm0  1  0.325417  0.825417  0.500000  1
  Tm  Tm1  1  0.173689  0.327834  0.500000  1
  Tm  Tm2  1  0.827834  0.673689  0.500000  1
  Pa  Pa3  1  0.672316  0.172316  0.500000  1
  Ni  Ni4  1  0.863058  0.363058  0.000000  1
  Ni  Ni5  1  0.111356  0.611356  0.000000  1
  Ni  Ni6  1  0.393675  0.128694  0.000000  1
  Ni  Ni7  1  0.628694  0.893675  0.000000  1
  Hg  Hg8  1  0.494323  0.509637  0.000000  1
  Hg  Hg9  1  0.009637  0.994323  0.000000  1
