# generated using pymatgen
data_Er6CoNi16P12Os
_symmetry_space_group_name_H-M   'P 1'
_cell_length_a   3.75110600
_cell_length_b   10.46906600
_cell_length_c   12.29222000
_cell_angle_alpha   90.00000000
_cell_angle_beta   90.00000000
_cell_angle_gamma   90.00000000
_symmetry_Int_Tables_number   1
_chemical_formula_structural   Er6CoNi16P12Os
_chemical_formula_sum   'Er6 Co1 Ni16 P12 Os1'
_cell_volume   482.72256325
_cell_formula_units_Z   1
loop_
 _symmetry_equiv_pos_site_id
 _symmetry_equiv_pos_as_xyz
  1  'x, y, z'
loop_
 _atom_site_type_symbol
 _atom_site_label
 _atom_site_symmetry_multiplicity
 _atom_site_fract_x
 _atom_site_fract_y
 _atom_site_fract_z
 _atom_site_occupancy
  Er  Er0  1  0.750000  0.250000  0.475814  1
  Er  Er1  1  0.250000  0.750000  0.520974  1
  Er  Er2  1  0.250000  0.933468  0.793264  1
  Er  Er3  1  0.250000  0.566532  0.793264  1
  Er  Er4  1  0.750000  0.065403  0.207522  1
  Er  Er5  1  0.750000  0.434597  0.207522  1
  Co  Co6  1  0.750000  0.250000  0.016049  1
  Ni  Ni7  1  0.750000  0.750000  0.158921  1
  Ni  Ni8  1  0.250000  0.250000  0.297836  1
  Ni  Ni9  1  0.750000  0.750000  0.699687  1
  Ni  Ni10  1  0.250000  0.750000  0.983338  1
  Ni  Ni11  1  0.250000  0.418963  0.010964  1
  Ni  Ni12  1  0.250000  0.081037  0.010964  1
  Ni  Ni13  1  0.750000  0.583145  0.993226  1
  Ni  Ni14  1  0.750000  0.916855  0.993226  1
  Ni  Ni15  1  0.250000  0.447217  0.570662  1
  Ni  Ni16  1  0.250000  0.052783  0.570662  1
  Ni  Ni17  1  0.750000  0.552143  0.428425  1
  Ni  Ni18  1  0.750000  0.947857  0.428425  1
  Ni  Ni19  1  0.250000  0.871269  0.289605  1
  Ni  Ni20  1  0.250000  0.628731  0.289605  1
  Ni  Ni21  1  0.750000  0.129188  0.710308  1
  Ni  Ni22  1  0.750000  0.370812  0.710308  1
  P  P23  1  0.250000  0.250000  0.121446  1
  P  P24  1  0.750000  0.750000  0.875192  1
  P  P25  1  0.250000  0.250000  0.651628  1
  P  P26  1  0.750000  0.750000  0.345639  1
  P  P27  1  0.250000  0.436079  0.385280  1
  P  P28  1  0.250000  0.063921  0.385280  1
  P  P29  1  0.750000  0.564522  0.613879  1
  P  P30  1  0.750000  0.935478  0.613879  1
  P  P31  1  0.250000  0.900333  0.108387  1
  P  P32  1  0.250000  0.599667  0.108387  1
  P  P33  1  0.750000  0.098335  0.892648  1
  P  P34  1  0.750000  0.401665  0.892648  1
  Os  Os35  1  0.250000  0.250000  0.845129  1
