# generated using pymatgen
data_LuZr(PaRh2)2
_symmetry_space_group_name_H-M   'P 1'
_cell_length_a   4.49758300
_cell_length_b   5.39732720
_cell_length_c   6.68799810
_cell_angle_alpha   89.90281178
_cell_angle_beta   90.00000000
_cell_angle_gamma   90.00000000
_symmetry_Int_Tables_number   1
_chemical_formula_structural   LuZr(PaRh2)2
_chemical_formula_sum   'Lu1 Zr1 Pa2 Rh4'
_cell_volume   162.35043239
_cell_formula_units_Z   1
loop_
 _symmetry_equiv_pos_site_id
 _symmetry_equiv_pos_as_xyz
  1  'x, y, z'
loop_
 _atom_site_type_symbol
 _atom_site_label
 _atom_site_symmetry_multiplicity
 _atom_site_fract_x
 _atom_site_fract_y
 _atom_site_fract_z
 _atom_site_occupancy
  Lu  Lu0  1  0.250000  0.349460  0.682252  1
  Zr  Zr1  1  0.250000  0.144681  0.180494  1
  Pa  Pa2  1  0.750000  0.863856  0.820826  1
  Pa  Pa3  1  0.750000  0.644162  0.318823  1
  Rh  Rh4  1  0.750000  0.161040  0.430806  1
  Rh  Rh5  1  0.250000  0.837730  0.545179  1
  Rh  Rh6  1  0.250000  0.670180  0.050289  1
  Rh  Rh7  1  0.750000  0.328890  0.971329  1
