# generated using pymatgen
data_ScNbFe3P7Ru9
_symmetry_space_group_name_H-M   'P 1'
_cell_length_a   9.22526300
_cell_length_b   9.22526215
_cell_length_c   3.79193800
_cell_angle_alpha   90.00000000
_cell_angle_beta   90.00000000
_cell_angle_gamma   119.99999850
_symmetry_Int_Tables_number   1
_chemical_formula_structural   ScNbFe3P7Ru9
_chemical_formula_sum   'Sc1 Nb1 Fe3 P7 Ru9'
_cell_volume   279.47910154
_cell_formula_units_Z   1
loop_
 _symmetry_equiv_pos_site_id
 _symmetry_equiv_pos_as_xyz
  1  'x, y, z'
loop_
 _atom_site_type_symbol
 _atom_site_label
 _atom_site_symmetry_multiplicity
 _atom_site_fract_x
 _atom_site_fract_y
 _atom_site_fract_z
 _atom_site_occupancy
  Sc  Sc0  1  0.333333  0.666667  0.000000  1
  Nb  Nb1  1  0.666667  0.333333  0.500000  1
  Fe  Fe2  1  0.728031  0.885738  0.000000  1
  Fe  Fe3  1  0.114262  0.842291  0.000000  1
  Fe  Fe4  1  0.157709  0.271969  0.000000  1
  P  P5  1  0.598822  0.721050  0.500000  1
  P  P6  1  0.000000  0.000000  0.000000  1
  P  P7  1  0.278950  0.877771  0.500000  1
  P  P8  1  0.122229  0.401178  0.500000  1
  P  P9  1  0.891553  0.585464  0.000000  1
  P  P10  1  0.414536  0.306089  0.000000  1
  P  P11  1  0.693911  0.108447  0.000000  1
  Ru  Ru12  1  0.558621  0.949520  0.500000  1
  Ru  Ru13  1  0.390899  0.441379  0.500000  1
  Ru  Ru14  1  0.911925  0.118956  0.500000  1
  Ru  Ru15  1  0.207031  0.088075  0.500000  1
  Ru  Ru16  1  0.881044  0.792969  0.500000  1
  Ru  Ru17  1  0.428393  0.071822  0.000000  1
  Ru  Ru18  1  0.928178  0.356572  0.000000  1
  Ru  Ru19  1  0.643428  0.571607  0.000000  1
  Ru  Ru20  1  0.050480  0.609101  0.500000  1
