# generated using pymatgen
data_Ho4Mn3VB16
_symmetry_space_group_name_H-M   'P 1'
_cell_length_a   3.41244200
_cell_length_b   5.90702241
_cell_length_c   11.41949482
_cell_angle_alpha   89.95689320
_cell_angle_beta   90.00000000
_cell_angle_gamma   90.00000000
_symmetry_Int_Tables_number   1
_chemical_formula_structural   Ho4Mn3VB16
_chemical_formula_sum   'Ho4 Mn3 V1 B16'
_cell_volume   230.18693283
_cell_formula_units_Z   1
loop_
 _symmetry_equiv_pos_site_id
 _symmetry_equiv_pos_as_xyz
  1  'x, y, z'
loop_
 _atom_site_type_symbol
 _atom_site_label
 _atom_site_symmetry_multiplicity
 _atom_site_fract_x
 _atom_site_fract_y
 _atom_site_fract_z
 _atom_site_occupancy
  Ho  Ho0  1  0.500000  0.626349  0.149023  1
  Ho  Ho1  1  0.500000  0.373803  0.849912  1
  Ho  Ho2  1  0.500000  0.125241  0.348557  1
  Ho  Ho3  1  0.500000  0.876289  0.651969  1
  Mn  Mn4  1  0.500000  0.376790  0.582686  1
  Mn  Mn5  1  0.500000  0.127877  0.081945  1
  Mn  Mn6  1  0.500000  0.871656  0.915428  1
  V  V7  1  0.500000  0.624430  0.419085  1
  B  B8  1  0.000000  0.975956  0.190076  1
  B  B9  1  0.000000  0.025124  0.808821  1
  B  B10  1  0.000000  0.472780  0.307538  1
  B  B11  1  0.000000  0.523180  0.692272  1
  B  B12  1  0.000000  0.784729  0.313710  1
  B  B13  1  0.000000  0.219911  0.683949  1
  B  B14  1  0.000000  0.280132  0.182724  1
  B  B15  1  0.000000  0.718671  0.816336  1
  B  B16  1  0.000000  0.865498  0.469069  1
  B  B17  1  0.000000  0.138044  0.534247  1
  B  B18  1  0.000000  0.361869  0.031610  1
  B  B19  1  0.000000  0.637908  0.967503  1
  B  B20  1  0.000000  0.887511  0.045636  1
  B  B21  1  0.000000  0.112049  0.952886  1
  B  B22  1  0.000000  0.383655  0.455698  1
  B  B23  1  0.000000  0.610548  0.549321  1
