# generated using pymatgen
data_Ti5Al16GaPt7
_symmetry_space_group_name_H-M   'P 1'
_cell_length_a   8.61442535
_cell_length_b   8.67766234
_cell_length_c   8.67766275
_cell_angle_alpha   59.51845662
_cell_angle_beta   60.24077022
_cell_angle_gamma   60.24077417
_symmetry_Int_Tables_number   1
_chemical_formula_structural   Ti5Al16GaPt7
_chemical_formula_sum   'Ti5 Al16 Ga1 Pt7'
_cell_volume   458.63905739
_cell_formula_units_Z   1
loop_
 _symmetry_equiv_pos_site_id
 _symmetry_equiv_pos_as_xyz
  1  'x, y, z'
loop_
 _atom_site_type_symbol
 _atom_site_label
 _atom_site_symmetry_multiplicity
 _atom_site_fract_x
 _atom_site_fract_y
 _atom_site_fract_z
 _atom_site_occupancy
  Ti  Ti0  1  0.814647  0.185353  0.185353  1
  Ti  Ti1  1  0.791384  0.208616  0.791214  1
  Ti  Ti2  1  0.791384  0.791214  0.208616  1
  Ti  Ti3  1  0.208786  0.791214  0.208616  1
  Ti  Ti4  1  0.208786  0.208616  0.791214  1
  Al  Al5  1  0.877286  0.843073  0.843073  1
  Al  Al6  1  0.852736  0.832668  0.461860  1
  Al  Al7  1  0.436568  0.843073  0.843073  1
  Al  Al8  1  0.852736  0.461860  0.832668  1
  Al  Al9  1  0.167332  0.147264  0.147264  1
  Al  Al10  1  0.156927  0.122714  0.563432  1
  Al  Al11  1  0.156927  0.563432  0.122714  1
  Al  Al12  1  0.538140  0.147264  0.147264  1
  Al  Al13  1  0.621940  0.617054  0.617054  1
  Al  Al14  1  0.629986  0.617487  0.122543  1
  Al  Al15  1  0.143952  0.617054  0.617054  1
  Al  Al16  1  0.629986  0.122543  0.617487  1
  Al  Al17  1  0.382513  0.370014  0.370014  1
  Al  Al18  1  0.382946  0.378060  0.856048  1
  Al  Al19  1  0.382946  0.856048  0.378060  1
  Al  Al20  1  0.877457  0.370014  0.370014  1
  Ga  Ga21  1  0.037482  0.962518  0.962518  1
  Pt  Pt22  1  0.010756  0.489244  0.489244  1
  Pt  Pt23  1  0.510756  0.989244  0.989244  1
  Pt  Pt24  1  0.509487  0.996998  0.490513  1
  Pt  Pt25  1  0.509487  0.490513  0.996998  1
  Pt  Pt26  1  0.003002  0.490513  0.996998  1
  Pt  Pt27  1  0.003002  0.996998  0.490513  1
  Pt  Pt28  1  0.510666  0.489334  0.489334  1
