# generated using pymatgen
data_LaSm(SiPt2)2
_symmetry_space_group_name_H-M   'P 1'
_cell_length_a   4.12269258
_cell_length_b   4.17254900
_cell_length_c   9.44166612
_cell_angle_alpha   90.00000000
_cell_angle_beta   102.61064370
_cell_angle_gamma   90.00000000
_symmetry_Int_Tables_number   1
_chemical_formula_structural   LaSm(SiPt2)2
_chemical_formula_sum   'La1 Sm1 Si2 Pt4'
_cell_volume   158.49872455
_cell_formula_units_Z   1
loop_
 _symmetry_equiv_pos_site_id
 _symmetry_equiv_pos_as_xyz
  1  'x, y, z'
loop_
 _atom_site_type_symbol
 _atom_site_label
 _atom_site_symmetry_multiplicity
 _atom_site_fract_x
 _atom_site_fract_y
 _atom_site_fract_z
 _atom_site_occupancy
  La  La0  1  0.399984  0.750000  0.799970  1
  Sm  Sm1  1  0.602838  0.250000  0.205674  1
  Si  Si2  1  0.821725  0.250000  0.643450  1
  Si  Si3  1  0.176700  0.750000  0.353399  1
  Pt  Pt4  1  0.951997  0.250000  0.903995  1
  Pt  Pt5  1  0.049280  0.750000  0.098562  1
  Pt  Pt6  1  0.249174  0.250000  0.498347  1
  Pt  Pt7  1  0.748301  0.750000  0.496604  1
