# generated using pymatgen
data_Tb17Yb2YIr12
_symmetry_space_group_name_H-M   'P 1'
_cell_length_a   6.38404207
_cell_length_b   10.93387820
_cell_length_c   10.93437910
_cell_angle_alpha   90.01501776
_cell_angle_beta   89.99524377
_cell_angle_gamma   89.98397874
_symmetry_Int_Tables_number   1
_chemical_formula_structural   Tb17Yb2YIr12
_chemical_formula_sum   'Tb17 Yb2 Y1 Ir12'
_cell_volume   763.24517166
_cell_formula_units_Z   1
loop_
 _symmetry_equiv_pos_site_id
 _symmetry_equiv_pos_as_xyz
  1  'x, y, z'
loop_
 _atom_site_type_symbol
 _atom_site_label
 _atom_site_symmetry_multiplicity
 _atom_site_fract_x
 _atom_site_fract_y
 _atom_site_fract_z
 _atom_site_occupancy
  Tb  Tb0  1  0.382213  0.839416  0.541350  1
  Tb  Tb1  1  0.882269  0.660645  0.541301  1
  Tb  Tb2  1  0.882284  0.839386  0.958730  1
  Tb  Tb3  1  0.382263  0.660632  0.958691  1
  Tb  Tb4  1  0.883675  0.540187  0.837992  1
  Tb  Tb5  1  0.383698  0.959792  0.837985  1
  Tb  Tb6  1  0.383692  0.540197  0.662039  1
  Tb  Tb7  1  0.883721  0.959807  0.661994  1
  Tb  Tb8  1  0.616287  0.161982  0.459744  1
  Tb  Tb9  1  0.116338  0.337885  0.459733  1
  Tb  Tb10  1  0.116356  0.161999  0.040271  1
  Tb  Tb11  1  0.616382  0.337968  0.040190  1
  Tb  Tb12  1  0.117774  0.458637  0.160635  1
  Tb  Tb13  1  0.617667  0.041322  0.160674  1
  Tb  Tb14  1  0.617785  0.458688  0.339406  1
  Tb  Tb15  1  0.499941  0.750033  0.249988  1
  Tb  Tb16  1  0.000040  0.750072  0.250012  1
  Yb  Yb17  1  0.000011  0.249981  0.749990  1
  Yb  Yb18  1  0.499995  0.250008  0.750005  1
  Y  Y19  1  0.117897  0.041284  0.339330  1
  Ir  Ir20  1  0.249998  0.903227  0.096682  1
  Ir  Ir21  1  0.749997  0.596679  0.096685  1
  Ir  Ir22  1  0.749756  0.903172  0.403323  1
  Ir  Ir23  1  0.250006  0.596700  0.403286  1
  Ir  Ir24  1  0.749972  0.092352  0.907643  1
  Ir  Ir25  1  0.249977  0.407659  0.907638  1
  Ir  Ir26  1  0.250097  0.092357  0.592480  1
  Ir  Ir27  1  0.749996  0.407653  0.592357  1
  Ir  Ir28  1  0.125667  0.749999  0.749979  1
  Ir  Ir29  1  0.625646  0.749997  0.750002  1
  Ir  Ir30  1  0.874122  0.250141  0.249912  1
  Ir  Ir31  1  0.374479  0.250148  0.249958  1
