# generated using pymatgen
data_TiFe(Cu3Se4)2
_symmetry_space_group_name_H-M   'P 1'
_cell_length_a   8.00100300
_cell_length_b   8.00100300
_cell_length_c   5.62553800
_cell_angle_alpha   90.00000000
_cell_angle_beta   90.00000000
_cell_angle_gamma   90.00000000
_symmetry_Int_Tables_number   1
_chemical_formula_structural   TiFe(Cu3Se4)2
_chemical_formula_sum   'Ti1 Fe1 Cu6 Se8'
_cell_volume   360.12471629
_cell_formula_units_Z   1
loop_
 _symmetry_equiv_pos_site_id
 _symmetry_equiv_pos_as_xyz
  1  'x, y, z'
loop_
 _atom_site_type_symbol
 _atom_site_label
 _atom_site_symmetry_multiplicity
 _atom_site_fract_x
 _atom_site_fract_y
 _atom_site_fract_z
 _atom_site_occupancy
  Ti  Ti0  1  0.000000  0.000000  0.000000  1
  Fe  Fe1  1  0.500000  0.500000  0.000000  1
  Cu  Cu2  1  0.251576  0.748424  0.000000  1
  Cu  Cu3  1  0.748424  0.251576  0.000000  1
  Cu  Cu4  1  0.251576  0.251576  0.000000  1
  Cu  Cu5  1  0.748424  0.748424  0.000000  1
  Cu  Cu6  1  0.000000  0.000000  0.500000  1
  Cu  Cu7  1  0.500000  0.500000  0.500000  1
  Se  Se8  1  0.500000  0.261757  0.761646  1
  Se  Se9  1  0.000000  0.750143  0.750697  1
  Se  Se10  1  0.500000  0.738243  0.761646  1
  Se  Se11  1  0.000000  0.249857  0.750697  1
  Se  Se12  1  0.750143  0.000000  0.249303  1
  Se  Se13  1  0.261757  0.500000  0.238354  1
  Se  Se14  1  0.249857  0.000000  0.249303  1
  Se  Se15  1  0.738243  0.500000  0.238354  1
