# generated using pymatgen
data_Tb3Gd2Ho3(WO6)4
_symmetry_space_group_name_H-M   'P 1'
_cell_length_a   5.42643488
_cell_length_b   7.73941033
_cell_length_c   11.50538180
_cell_angle_alpha   75.59374011
_cell_angle_beta   90.01866671
_cell_angle_gamma   90.06513675
_symmetry_Int_Tables_number   1
_chemical_formula_structural   Tb3Gd2Ho3(WO6)4
_chemical_formula_sum   'Tb3 Gd2 Ho3 W4 O24'
_cell_volume   468.00226122
_cell_formula_units_Z   1
loop_
 _symmetry_equiv_pos_site_id
 _symmetry_equiv_pos_as_xyz
  1  'x, y, z'
loop_
 _atom_site_type_symbol
 _atom_site_label
 _atom_site_symmetry_multiplicity
 _atom_site_fract_x
 _atom_site_fract_y
 _atom_site_fract_z
 _atom_site_occupancy
  Tb  Tb0  1  0.740942  0.999884  0.750744  1
  Tb  Tb1  1  0.259177  0.999567  0.249108  1
  Tb  Tb2  1  0.814995  0.204668  0.422681  1
  Gd  Gd3  1  0.683471  0.500150  0.750387  1
  Gd  Gd4  1  0.316165  0.500455  0.249236  1
  Ho  Ho5  1  0.185270  0.794093  0.577887  1
  Ho  Ho6  1  0.815638  0.794211  0.077798  1
  Ho  Ho7  1  0.183875  0.205948  0.922189  1
  W  W8  1  0.254782  0.725072  0.885092  1
  W  W9  1  0.745240  0.724973  0.385160  1
  W  W10  1  0.254454  0.275114  0.615677  1
  W  W11  1  0.744562  0.275337  0.114130  1
  O  O12  1  0.046409  0.940246  0.896535  1
  O  O13  1  0.534773  0.844458  0.931481  1
  O  O14  1  0.957547  0.938480  0.396281  1
  O  O15  1  0.455184  0.791616  0.727299  1
  O  O16  1  0.467702  0.846210  0.431381  1
  O  O17  1  0.982772  0.713429  0.771147  1
  O  O18  1  0.545105  0.791985  0.226968  1
  O  O19  1  0.851603  0.636830  0.547252  1
  O  O20  1  0.355663  0.491196  0.886557  1
  O  O21  1  0.016745  0.712526  0.270660  1
  O  O22  1  0.356208  0.509181  0.614421  1
  O  O23  1  0.851104  0.363449  0.952280  1
  O  O24  1  0.148562  0.637271  0.047225  1
  O  O25  1  0.641643  0.492029  0.386309  1
  O  O26  1  0.981999  0.286713  0.729119  1
  O  O27  1  0.643810  0.509068  0.113289  1
  O  O28  1  0.150785  0.363507  0.453293  1
  O  O29  1  0.454854  0.208739  0.773577  1
  O  O30  1  0.017498  0.287078  0.227632  1
  O  O31  1  0.532625  0.153952  0.570367  1
  O  O32  1  0.543176  0.208816  0.271430  1
  O  O33  1  0.046234  0.059137  0.604552  1
  O  O34  1  0.465870  0.154770  0.067641  1
  O  O35  1  0.953560  0.059840  0.103213  1
