# generated using pymatgen
data_Sc2FeCo(BIr2)2
_symmetry_space_group_name_H-M   'P 1'
_cell_length_a   9.23398400
_cell_length_b   9.23398400
_cell_length_c   3.04220300
_cell_angle_alpha   90.00000000
_cell_angle_beta   90.00000000
_cell_angle_gamma   90.00000000
_symmetry_Int_Tables_number   1
_chemical_formula_structural   Sc2FeCo(BIr2)2
_chemical_formula_sum   'Sc4 Fe2 Co2 B4 Ir8'
_cell_volume   259.39788197
_cell_formula_units_Z   2
loop_
 _symmetry_equiv_pos_site_id
 _symmetry_equiv_pos_as_xyz
  1  'x, y, z'
loop_
 _atom_site_type_symbol
 _atom_site_label
 _atom_site_symmetry_multiplicity
 _atom_site_fract_x
 _atom_site_fract_y
 _atom_site_fract_z
 _atom_site_occupancy
  Sc  Sc0  1  0.175312  0.675312  0.000000  1
  Sc  Sc1  1  0.824688  0.324688  0.000000  1
  Sc  Sc2  1  0.324688  0.175312  0.000000  1
  Sc  Sc3  1  0.675312  0.824688  0.000000  1
  Fe  Fe4  1  0.000000  0.000000  0.000000  1
  Fe  Fe5  1  0.500000  0.500000  0.000000  1
  Co  Co6  1  0.500000  0.000000  0.500000  1
  Co  Co7  1  0.000000  0.500000  0.500000  1
  B  B8  1  0.386756  0.886756  0.000000  1
  B  B9  1  0.886756  0.613244  0.000000  1
  B  B10  1  0.113244  0.386756  0.000000  1
  B  B11  1  0.613244  0.113244  0.000000  1
  Ir  Ir12  1  0.721169  0.563905  0.500000  1
  Ir  Ir13  1  0.563905  0.278831  0.500000  1
  Ir  Ir14  1  0.436095  0.721169  0.500000  1
  Ir  Ir15  1  0.278831  0.436095  0.500000  1
  Ir  Ir16  1  0.936095  0.778831  0.500000  1
  Ir  Ir17  1  0.778831  0.063905  0.500000  1
  Ir  Ir18  1  0.221169  0.936095  0.500000  1
  Ir  Ir19  1  0.063905  0.221169  0.500000  1
