# generated using pymatgen
data_PaIO2
_symmetry_space_group_name_H-M   'P 1'
_cell_length_a   4.13074600
_cell_length_b   4.20428200
_cell_length_c   23.38700600
_cell_angle_alpha   90.00000000
_cell_angle_beta   90.00000000
_cell_angle_gamma   90.00000000
_symmetry_Int_Tables_number   1
_chemical_formula_structural   PaIO2
_chemical_formula_sum   'Pa4 I4 O8'
_cell_volume   406.15794820
_cell_formula_units_Z   4
loop_
 _symmetry_equiv_pos_site_id
 _symmetry_equiv_pos_as_xyz
  1  'x, y, z'
loop_
 _atom_site_type_symbol
 _atom_site_label
 _atom_site_symmetry_multiplicity
 _atom_site_fract_x
 _atom_site_fract_y
 _atom_site_fract_z
 _atom_site_occupancy
  Pa  Pa0  1  0.250000  0.506611  0.932792  1
  Pa  Pa1  1  0.750000  0.006611  0.567208  1
  Pa  Pa2  1  0.750000  0.493389  0.067208  1
  Pa  Pa3  1  0.250000  0.993389  0.432792  1
  I  I4  1  0.250000  0.005112  0.672080  1
  I  I5  1  0.750000  0.994888  0.327920  1
  I  I6  1  0.250000  0.494888  0.172080  1
  I  I7  1  0.750000  0.505112  0.827920  1
  O  O8  1  0.250000  0.493480  0.430657  1
  O  O9  1  0.750000  0.506520  0.569343  1
  O  O10  1  0.250000  0.006520  0.930657  1
  O  O11  1  0.750000  0.992915  0.468163  1
  O  O12  1  0.250000  0.007085  0.531837  1
  O  O13  1  0.250000  0.492915  0.031837  1
  O  O14  1  0.750000  0.993480  0.069343  1
  O  O15  1  0.750000  0.507085  0.968163  1
