# generated using pymatgen
data_Gd6Al24Os5Pt3
_symmetry_space_group_name_H-M   'P 1'
_cell_length_a   8.92367290
_cell_length_b   8.94051702
_cell_length_c   9.66990200
_cell_angle_alpha   90.10683705
_cell_angle_beta   89.92378044
_cell_angle_gamma   120.02046824
_symmetry_Int_Tables_number   1
_chemical_formula_structural   Gd6Al24Os5Pt3
_chemical_formula_sum   'Gd6 Al24 Os5 Pt3'
_cell_volume   667.98786005
_cell_formula_units_Z   1
loop_
 _symmetry_equiv_pos_site_id
 _symmetry_equiv_pos_as_xyz
  1  'x, y, z'
loop_
 _atom_site_type_symbol
 _atom_site_label
 _atom_site_symmetry_multiplicity
 _atom_site_fract_x
 _atom_site_fract_y
 _atom_site_fract_z
 _atom_site_occupancy
  Gd  Gd0  1  0.196696  0.383895  0.251943  1
  Gd  Gd1  1  0.803304  0.616105  0.748057  1
  Gd  Gd2  1  0.615133  0.805803  0.251103  1
  Gd  Gd3  1  0.384867  0.194197  0.748897  1
  Gd  Gd4  1  0.193905  0.811356  0.250933  1
  Gd  Gd5  1  0.806095  0.188644  0.749067  1
  Al  Al6  1  0.335440  0.664423  0.028244  1
  Al  Al7  1  0.664560  0.335577  0.971756  1
  Al  Al8  1  0.662051  0.330672  0.525999  1
  Al  Al9  1  0.337949  0.669328  0.474001  1
  Al  Al10  1  0.168156  0.326104  0.575604  1
  Al  Al11  1  0.831844  0.673896  0.424396  1
  Al  Al12  1  0.671037  0.835441  0.574662  1
  Al  Al13  1  0.831719  0.674173  0.075976  1
  Al  Al14  1  0.328963  0.164559  0.425338  1
  Al  Al15  1  0.168281  0.325827  0.924024  1
  Al  Al16  1  0.167690  0.842828  0.576256  1
  Al  Al17  1  0.326630  0.169078  0.077486  1
  Al  Al18  1  0.832310  0.157172  0.423744  1
  Al  Al19  1  0.673370  0.830922  0.922514  1
  Al  Al20  1  0.838816  0.162569  0.078930  1
  Al  Al21  1  0.161184  0.837431  0.921070  1
  Al  Al22  1  0.562819  0.125962  0.252754  1
  Al  Al23  1  0.437181  0.874038  0.747246  1
  Al  Al24  1  0.873640  0.437365  0.249829  1
  Al  Al25  1  0.126360  0.562635  0.750171  1
  Al  Al26  1  0.562251  0.438487  0.249657  1
  Al  Al27  1  0.437749  0.561513  0.750343  1
  Al  Al28  1  0.002676  0.001058  0.250235  1
  Al  Al29  1  0.997324  0.998942  0.749765  1
  Os  Os30  1  0.500000  0.000000  0.500000  1
  Os  Os31  1  0.500000  0.500000  0.000000  1
  Os  Os32  1  0.500000  0.500000  0.500000  1
  Os  Os33  1  0.000000  0.000000  0.000000  1
  Os  Os34  1  0.000000  0.000000  0.500000  1
  Pt  Pt35  1  0.500000  0.000000  0.000000  1
  Pt  Pt36  1  0.000000  0.500000  0.000000  1
  Pt  Pt37  1  0.000000  0.500000  0.500000  1
