# generated using pymatgen
data_Tb8InPdPt23
_symmetry_space_group_name_H-M   'P 1'
_cell_length_a   8.43736000
_cell_length_b   8.43736000
_cell_length_c   8.44263500
_cell_angle_alpha   90.00000000
_cell_angle_beta   90.00000000
_cell_angle_gamma   90.00000000
_symmetry_Int_Tables_number   1
_chemical_formula_structural   Tb8InPdPt23
_chemical_formula_sum   'Tb8 In1 Pd1 Pt23'
_cell_volume   601.02311255
_cell_formula_units_Z   1
loop_
 _symmetry_equiv_pos_site_id
 _symmetry_equiv_pos_as_xyz
  1  'x, y, z'
loop_
 _atom_site_type_symbol
 _atom_site_label
 _atom_site_symmetry_multiplicity
 _atom_site_fract_x
 _atom_site_fract_y
 _atom_site_fract_z
 _atom_site_occupancy
  Tb  Tb0  1  0.249973  0.249973  0.250472  1
  Tb  Tb1  1  0.749097  0.749097  0.749396  1
  Tb  Tb2  1  0.750027  0.750027  0.250472  1
  Tb  Tb3  1  0.749097  0.250903  0.749396  1
  Tb  Tb4  1  0.250903  0.250903  0.749396  1
  Tb  Tb5  1  0.249973  0.750027  0.250472  1
  Tb  Tb6  1  0.250903  0.749097  0.749396  1
  Tb  Tb7  1  0.750027  0.249973  0.250472  1
  In  In8  1  0.000000  0.000000  0.001110  1
  Pd  Pd9  1  0.000000  0.000000  0.685976  1
  Pt  Pt10  1  0.267634  0.500000  0.000083  1
  Pt  Pt11  1  0.732366  0.500000  0.000083  1
  Pt  Pt12  1  0.000000  0.266832  0.500134  1
  Pt  Pt13  1  0.500000  0.267634  0.000083  1
  Pt  Pt14  1  0.000000  0.733168  0.500134  1
  Pt  Pt15  1  0.500000  0.732366  0.000083  1
  Pt  Pt16  1  0.500000  0.000000  0.267100  1
  Pt  Pt17  1  0.266832  0.000000  0.500134  1
  Pt  Pt18  1  0.500000  0.000000  0.731738  1
  Pt  Pt19  1  0.733168  0.000000  0.500134  1
  Pt  Pt20  1  0.000000  0.500000  0.267100  1
  Pt  Pt21  1  0.000000  0.500000  0.731738  1
  Pt  Pt22  1  0.255210  0.500000  0.500010  1
  Pt  Pt23  1  0.744790  0.500000  0.500010  1
  Pt  Pt24  1  0.500000  0.255210  0.500010  1
  Pt  Pt25  1  0.500000  0.744790  0.500010  1
  Pt  Pt26  1  0.500000  0.500000  0.255655  1
  Pt  Pt27  1  0.500000  0.500000  0.744537  1
  Pt  Pt28  1  0.315838  0.000000  0.999179  1
  Pt  Pt29  1  0.684162  0.000000  0.999179  1
  Pt  Pt30  1  0.000000  0.315838  0.999179  1
  Pt  Pt31  1  0.000000  0.684162  0.999179  1
  Pt  Pt32  1  0.000000  0.000000  0.317953  1
