# generated using pymatgen
data_NdMn2(Al4Fe)2
_symmetry_space_group_name_H-M   'P 1'
_cell_length_a   5.13353682
_cell_length_b   6.73625058
_cell_length_c   6.73625000
_cell_angle_alpha   81.39461100
_cell_angle_beta   67.31385028
_cell_angle_gamma   67.31385770
_symmetry_Int_Tables_number   1
_chemical_formula_structural   NdMn2(Al4Fe)2
_chemical_formula_sum   'Nd1 Mn2 Al8 Fe2'
_cell_volume   198.29388371
_cell_formula_units_Z   1
loop_
 _symmetry_equiv_pos_site_id
 _symmetry_equiv_pos_as_xyz
  1  'x, y, z'
loop_
 _atom_site_type_symbol
 _atom_site_label
 _atom_site_symmetry_multiplicity
 _atom_site_fract_x
 _atom_site_fract_y
 _atom_site_fract_z
 _atom_site_occupancy
  Nd  Nd0  1  0.000000  0.000000  0.000000  1
  Mn  Mn1  1  0.500000  0.000000  0.500000  1
  Mn  Mn2  1  0.500000  0.500000  0.000000  1
  Al  Al3  1  0.000000  0.340848  0.659152  1
  Al  Al4  1  0.000000  0.659152  0.340848  1
  Al  Al5  1  0.660050  0.341357  0.341357  1
  Al  Al6  1  0.339950  0.658643  0.658643  1
  Al  Al7  1  0.500000  0.774129  0.225871  1
  Al  Al8  1  0.500000  0.225871  0.774129  1
  Al  Al9  1  0.731095  0.774474  0.774474  1
  Al  Al10  1  0.268905  0.225526  0.225526  1
  Fe  Fe11  1  0.000000  0.000000  0.500000  1
  Fe  Fe12  1  0.000000  0.500000  0.000000  1
