# generated using pymatgen
data_TbU2(AlIr)3
_symmetry_space_group_name_H-M   'P 1'
_cell_length_a   7.06600009
_cell_length_b   7.06600074
_cell_length_c   4.03901200
_cell_angle_alpha   90.00000000
_cell_angle_beta   90.00000000
_cell_angle_gamma   121.63370289
_symmetry_Int_Tables_number   1
_chemical_formula_structural   TbU2(AlIr)3
_chemical_formula_sum   'Tb1 U2 Al3 Ir3'
_cell_volume   171.69813442
_cell_formula_units_Z   1
loop_
 _symmetry_equiv_pos_site_id
 _symmetry_equiv_pos_as_xyz
  1  'x, y, z'
loop_
 _atom_site_type_symbol
 _atom_site_label
 _atom_site_symmetry_multiplicity
 _atom_site_fract_x
 _atom_site_fract_y
 _atom_site_fract_z
 _atom_site_occupancy
  Tb  Tb0  1  0.418762  0.418762  0.500000  1
  U  U1  1  0.579026  0.002291  0.500000  1
  U  U2  1  0.002291  0.579026  0.500000  1
  Al  Al3  1  0.753725  0.753725  0.000000  1
  Al  Al4  1  0.234350  0.006972  0.000000  1
  Al  Al5  1  0.006972  0.234350  0.000000  1
  Ir  Ir6  1  0.693103  0.329548  0.000000  1
  Ir  Ir7  1  0.329548  0.693103  0.000000  1
  Ir  Ir8  1  0.982224  0.982224  0.500000  1
