# generated using pymatgen
data_K12Al(TlSe4)3
_symmetry_space_group_name_H-M   'P 1'
_cell_length_a   8.06195961
_cell_length_b   8.30790539
_cell_length_c   16.79653200
_cell_angle_alpha   61.32105658
_cell_angle_beta   89.72242356
_cell_angle_gamma   90.12352576
_symmetry_Int_Tables_number   1
_chemical_formula_structural   K12Al(TlSe4)3
_chemical_formula_sum   'K12 Al1 Tl3 Se12'
_cell_volume   986.96177395
_cell_formula_units_Z   1
loop_
 _symmetry_equiv_pos_site_id
 _symmetry_equiv_pos_as_xyz
  1  'x, y, z'
loop_
 _atom_site_type_symbol
 _atom_site_label
 _atom_site_symmetry_multiplicity
 _atom_site_fract_x
 _atom_site_fract_y
 _atom_site_fract_z
 _atom_site_occupancy
  K  K0  1  0.037297  0.927185  0.289817  1
  K  K1  1  0.531142  0.055811  0.218816  1
  K  K2  1  0.959322  0.073209  0.709816  1
  K  K3  1  0.463484  0.937581  0.785450  1
  K  K4  1  0.982987  0.718461  0.114255  1
  K  K5  1  0.497134  0.271249  0.391316  1
  K  K6  1  0.009098  0.278604  0.891745  1
  K  K7  1  0.507309  0.723012  0.607389  1
  K  K8  1  0.982030  0.301745  0.404126  1
  K  K9  1  0.492887  0.688904  0.102333  1
  K  K10  1  0.004052  0.688412  0.595460  1
  K  K11  1  0.507836  0.311454  0.902687  1
  Al  Al12  1  0.644669  0.664590  0.417149  1
  Tl  Tl13  1  0.144350  0.328972  0.085793  1
  Tl  Tl14  1  0.362014  0.338687  0.579067  1
  Tl  Tl15  1  0.855046  0.670498  0.916081  1
  Se  Se16  1  0.799108  0.350700  0.070513  1
  Se  Se17  1  0.335094  0.662050  0.423795  1
  Se  Se18  1  0.198711  0.647884  0.930796  1
  Se  Se19  1  0.707103  0.378372  0.555186  1
  Se  Se20  1  0.234955  0.345056  0.232644  1
  Se  Se21  1  0.733620  0.654745  0.283296  1
  Se  Se22  1  0.761477  0.658437  0.768129  1
  Se  Se23  1  0.262910  0.347372  0.727220  1
  Se  Se24  1  0.746508  0.929702  0.423326  1
  Se  Se25  1  0.256025  0.041387  0.074820  1
  Se  Se26  1  0.243318  0.048198  0.572941  1
  Se  Se27  1  0.740514  0.957724  0.926035  1
