# generated using pymatgen
data_Cs2Li14Zr3O14
_symmetry_space_group_name_H-M   'P 1'
_cell_length_a   8.39233396
_cell_length_b   8.39233398
_cell_length_c   8.39233408
_cell_angle_alpha   127.81014874
_cell_angle_beta   123.71889166
_cell_angle_gamma   80.31881135
_symmetry_Int_Tables_number   1
_chemical_formula_structural   Cs2Li14Zr3O14
_chemical_formula_sum   'Cs2 Li14 Zr3 O14'
_cell_volume   374.85791826
_cell_formula_units_Z   1
loop_
 _symmetry_equiv_pos_site_id
 _symmetry_equiv_pos_as_xyz
  1  'x, y, z'
loop_
 _atom_site_type_symbol
 _atom_site_label
 _atom_site_symmetry_multiplicity
 _atom_site_fract_x
 _atom_site_fract_y
 _atom_site_fract_z
 _atom_site_occupancy
  Cs  Cs0  1  0.500000  0.769688  0.269688  1
  Cs  Cs1  1  0.500000  0.230312  0.730312  1
  Li  Li2  1  0.706577  0.135761  0.115191  1
  Li  Li3  1  0.979430  0.864239  0.570816  1
  Li  Li4  1  0.020570  0.591386  0.884809  1
  Li  Li5  1  0.293423  0.408614  0.429184  1
  Li  Li6  1  0.020570  0.135761  0.429184  1
  Li  Li7  1  0.846229  0.500000  0.346229  1
  Li  Li8  1  0.153771  0.500000  0.653771  1
  Li  Li9  1  0.413198  0.769810  0.643388  1
  Li  Li10  1  0.586802  0.230190  0.356612  1
  Li  Li11  1  0.873578  0.230190  0.643388  1
  Li  Li12  1  0.126422  0.769810  0.356612  1
  Li  Li13  1  0.706577  0.591386  0.570816  1
  Li  Li14  1  0.293423  0.864239  0.884809  1
  Li  Li15  1  0.979430  0.408614  0.115191  1
  Zr  Zr16  1  0.000000  0.000000  0.000000  1
  Zr  Zr17  1  0.268828  0.268828  0.000000  1
  Zr  Zr18  1  0.731172  0.731172  0.000000  1
  O  O19  1  0.050339  0.872404  0.177935  1
  O  O20  1  0.422325  0.633821  0.788503  1
  O  O21  1  0.845318  0.633821  0.211497  1
  O  O22  1  0.577675  0.366179  0.211497  1
  O  O23  1  0.154682  0.366179  0.788503  1
  O  O24  1  0.748015  0.033277  0.285262  1
  O  O25  1  0.251985  0.537248  0.285262  1
  O  O26  1  0.251985  0.966723  0.714738  1
  O  O27  1  0.748015  0.462752  0.714738  1
  O  O28  1  0.000000  0.712481  0.712481  1
  O  O29  1  0.000000  0.287519  0.287519  1
  O  O30  1  0.694468  0.872404  0.822065  1
  O  O31  1  0.305532  0.127596  0.177935  1
  O  O32  1  0.949661  0.127596  0.822065  1
