# generated using pymatgen
data_Ca2CeDy(Ru2O7)2
_symmetry_space_group_name_H-M   'P 1'
_cell_length_a   7.28550427
_cell_length_b   7.32081499
_cell_length_c   7.28550408
_cell_angle_alpha   59.66794106
_cell_angle_beta   59.40480614
_cell_angle_gamma   59.66794295
_symmetry_Int_Tables_number   1
_chemical_formula_structural   Ca2CeDy(Ru2O7)2
_chemical_formula_sum   'Ca2 Ce1 Dy1 Ru4 O14'
_cell_volume   272.14072098
_cell_formula_units_Z   1
loop_
 _symmetry_equiv_pos_site_id
 _symmetry_equiv_pos_as_xyz
  1  'x, y, z'
loop_
 _atom_site_type_symbol
 _atom_site_label
 _atom_site_symmetry_multiplicity
 _atom_site_fract_x
 _atom_site_fract_y
 _atom_site_fract_z
 _atom_site_occupancy
  Ca  Ca0  1  0.125000  0.125000  0.625000  1
  Ca  Ca1  1  0.625000  0.125000  0.125000  1
  Ce  Ce2  1  0.125000  0.625000  0.125000  1
  Dy  Dy3  1  0.125000  0.125000  0.125000  1
  Ru  Ru4  1  0.625000  0.625000  0.125000  1
  Ru  Ru5  1  0.625000  0.125000  0.625000  1
  Ru  Ru6  1  0.125000  0.625000  0.625000  1
  Ru  Ru7  1  0.625000  0.625000  0.625000  1
  O  O8  1  0.241586  0.263305  0.241586  1
  O  O9  1  0.008414  0.986695  0.008414  1
  O  O10  1  0.288636  0.714336  0.288636  1
  O  O11  1  0.552044  0.948179  0.552044  1
  O  O12  1  0.294705  0.297518  0.708790  1
  O  O13  1  0.708790  0.297518  0.294705  1
  O  O14  1  0.294435  0.702001  0.707217  1
  O  O15  1  0.707217  0.702001  0.294435  1
  O  O16  1  0.697956  0.301821  0.697956  1
  O  O17  1  0.955565  0.547999  0.542783  1
  O  O18  1  0.541210  0.952482  0.955295  1
  O  O19  1  0.961364  0.535664  0.961364  1
  O  O20  1  0.542783  0.547999  0.955565  1
  O  O21  1  0.955295  0.952482  0.541210  1
