# generated using pymatgen
data_CuHg4Ir3O14
_symmetry_space_group_name_H-M   'P 1'
_cell_length_a   7.32945900
_cell_length_b   7.28028538
_cell_length_c   7.28028532
_cell_angle_alpha   60.44737543
_cell_angle_beta   90.00000000
_cell_angle_gamma   59.77631968
_symmetry_Int_Tables_number   1
_chemical_formula_structural   CuHg4Ir3O14
_chemical_formula_sum   'Cu1 Hg4 Ir3 O14'
_cell_volume   275.61360792
_cell_formula_units_Z   1
loop_
 _symmetry_equiv_pos_site_id
 _symmetry_equiv_pos_as_xyz
  1  'x, y, z'
loop_
 _atom_site_type_symbol
 _atom_site_label
 _atom_site_symmetry_multiplicity
 _atom_site_fract_x
 _atom_site_fract_y
 _atom_site_fract_z
 _atom_site_occupancy
  Cu  Cu0  1  0.000000  0.000000  0.500000  1
  Hg  Hg1  1  0.499999  0.000000  0.000000  1
  Hg  Hg2  1  0.000000  0.500000  0.000000  1
  Hg  Hg3  1  0.500001  0.500000  0.000000  1
  Hg  Hg4  1  0.500001  0.000000  0.500000  1
  Ir  Ir5  1  0.000000  0.000000  0.000000  1
  Ir  Ir6  1  0.000000  0.499998  0.500002  1
  Ir  Ir7  1  0.500001  0.499998  0.500002  1
  O  O8  1  0.369973  0.260052  0.130025  1
  O  O9  1  0.322613  0.759523  0.177384  1
  O  O10  1  0.917863  0.759523  0.177384  1
  O  O11  1  0.930644  0.138710  0.172287  1
  O  O12  1  0.069354  0.258359  0.430643  1
  O  O13  1  0.672287  0.258359  0.430643  1
  O  O14  1  0.677385  0.645229  0.417865  1
  O  O15  1  0.327713  0.741642  0.569356  1
  O  O16  1  0.930644  0.741642  0.569356  1
  O  O17  1  0.322615  0.354770  0.582137  1
  O  O18  1  0.069357  0.861289  0.827712  1
  O  O19  1  0.082137  0.240479  0.822615  1
  O  O20  1  0.677384  0.240479  0.822615  1
  O  O21  1  0.630026  0.739949  0.869975  1
