# generated using pymatgen
data_Mg3Ta2NbIr6
_symmetry_space_group_name_H-M   'P 1'
_cell_length_a   4.24785700
_cell_length_b   7.01908300
_cell_length_c   12.68615100
_cell_angle_alpha   90.00000000
_cell_angle_beta   90.00003143
_cell_angle_gamma   90.00000000
_symmetry_Int_Tables_number   1
_chemical_formula_structural   Mg3Ta2NbIr6
_chemical_formula_sum   'Mg6 Ta4 Nb2 Ir12'
_cell_volume   378.25105023
_cell_formula_units_Z   2
loop_
 _symmetry_equiv_pos_site_id
 _symmetry_equiv_pos_as_xyz
  1  'x, y, z'
loop_
 _atom_site_type_symbol
 _atom_site_label
 _atom_site_symmetry_multiplicity
 _atom_site_fract_x
 _atom_site_fract_y
 _atom_site_fract_z
 _atom_site_occupancy
  Mg  Mg0  1  0.000000  0.500000  0.000333  1
  Mg  Mg1  1  0.499981  0.000000  0.166339  1
  Mg  Mg2  1  0.999991  0.500000  0.333077  1
  Mg  Mg3  1  0.499998  0.000000  0.500092  1
  Mg  Mg4  1  0.000007  0.500000  0.666568  1
  Mg  Mg5  1  0.500024  0.000000  0.833593  1
  Ta  Ta6  1  0.999988  0.000000  0.333402  1
  Ta  Ta7  1  0.500001  0.500000  0.499756  1
  Ta  Ta8  1  0.000009  0.000000  0.666929  1
  Ta  Ta9  1  0.500014  0.500000  0.833260  1
  Nb  Nb10  1  0.000021  0.000000  0.999777  1
  Nb  Nb11  1  0.499975  0.500000  0.166889  1
  Ir  Ir12  1  0.500002  0.251480  0.999468  1
  Ir  Ir13  1  0.500002  0.748520  0.999468  1
  Ir  Ir14  1  0.999986  0.248536  0.167182  1
  Ir  Ir15  1  0.999986  0.751463  0.167182  1
  Ir  Ir16  1  0.499987  0.248285  0.333938  1
  Ir  Ir17  1  0.499987  0.751716  0.333938  1
  Ir  Ir18  1  0.999998  0.250459  0.500107  1
  Ir  Ir19  1  0.999998  0.749542  0.500107  1
  Ir  Ir20  1  0.500008  0.249534  0.666571  1
  Ir  Ir21  1  0.500008  0.750467  0.666571  1
  Ir  Ir22  1  0.000013  0.251732  0.832724  1
  Ir  Ir23  1  0.000013  0.748267  0.832724  1
