# generated using pymatgen
data_Er16MgIn(AgIr2)2
_symmetry_space_group_name_H-M   'P 1'
_cell_length_a   9.55582196
_cell_length_b   9.56945251
_cell_length_c   9.55582217
_cell_angle_alpha   59.81703587
_cell_angle_beta   59.80860618
_cell_angle_gamma   59.81703308
_symmetry_Int_Tables_number   1
_chemical_formula_structural   Er16MgIn(AgIr2)2
_chemical_formula_sum   'Er16 Mg1 In1 Ag2 Ir4'
_cell_volume   615.28022475
_cell_formula_units_Z   1
loop_
 _symmetry_equiv_pos_site_id
 _symmetry_equiv_pos_as_xyz
  1  'x, y, z'
loop_
 _atom_site_type_symbol
 _atom_site_label
 _atom_site_symmetry_multiplicity
 _atom_site_fract_x
 _atom_site_fract_y
 _atom_site_fract_z
 _atom_site_occupancy
  Er  Er0  1  0.057786  0.065252  0.437478  1
  Er  Er1  1  0.648522  0.050211  0.648522  1
  Er  Er2  1  0.191220  0.809752  0.191220  1
  Er  Er3  1  0.435012  0.064866  0.435012  1
  Er  Er4  1  0.191277  0.191286  0.809798  1
  Er  Er5  1  0.652306  0.653238  0.652306  1
  Er  Er6  1  0.046001  0.649768  0.650711  1
  Er  Er7  1  0.437478  0.065252  0.057786  1
  Er  Er8  1  0.650711  0.649768  0.046001  1
  Er  Er9  1  0.188865  0.812753  0.812087  1
  Er  Er10  1  0.809945  0.191249  0.809945  1
  Er  Er11  1  0.809798  0.191286  0.191277  1
  Er  Er12  1  0.812087  0.812753  0.188865  1
  Er  Er13  1  0.057646  0.437610  0.436238  1
  Er  Er14  1  0.436238  0.437610  0.057646  1
  Er  Er15  1  0.061197  0.438722  0.061197  1
  Mg  Mg16  1  0.428129  0.724630  0.428129  1
  In  In17  1  0.420896  0.417014  0.420896  1
  Ag  Ag18  1  0.749381  0.418136  0.416930  1
  Ag  Ag19  1  0.416930  0.418136  0.749381  1
  Ir  Ir20  1  0.857605  0.859256  0.857605  1
  Ir  Ir21  1  0.424599  0.858460  0.858538  1
  Ir  Ir22  1  0.858538  0.858460  0.424599  1
  Ir  Ir23  1  0.857832  0.424532  0.857832  1
