# generated using pymatgen
data_YTm6Sn23Rh6
_symmetry_space_group_name_H-M   'P 1'
_cell_length_a   9.82790000
_cell_length_b   9.82789994
_cell_length_c   10.08475200
_cell_angle_alpha   90.00000000
_cell_angle_beta   90.00000000
_cell_angle_gamma   120.00000019
_symmetry_Int_Tables_number   1
_chemical_formula_structural   YTm6Sn23Rh6
_chemical_formula_sum   'Y1 Tm6 Sn23 Rh6'
_cell_volume   843.56258443
_cell_formula_units_Z   1
loop_
 _symmetry_equiv_pos_site_id
 _symmetry_equiv_pos_as_xyz
  1  'x, y, z'
loop_
 _atom_site_type_symbol
 _atom_site_label
 _atom_site_symmetry_multiplicity
 _atom_site_fract_x
 _atom_site_fract_y
 _atom_site_fract_z
 _atom_site_occupancy
  Y  Y0  1  0.000000  0.000000  0.000000  1
  Tm  Tm1  1  0.041596  0.520798  0.308346  1
  Tm  Tm2  1  0.479202  0.958404  0.308346  1
  Tm  Tm3  1  0.479202  0.520798  0.308346  1
  Tm  Tm4  1  0.958404  0.479202  0.691654  1
  Tm  Tm5  1  0.520798  0.041596  0.691654  1
  Tm  Tm6  1  0.520798  0.479202  0.691654  1
  Sn  Sn7  1  0.000000  0.000000  0.500000  1
  Sn  Sn8  1  0.120214  0.879786  0.279886  1
  Sn  Sn9  1  0.759570  0.879786  0.279886  1
  Sn  Sn10  1  0.120214  0.240430  0.279886  1
  Sn  Sn11  1  0.879786  0.120214  0.720114  1
  Sn  Sn12  1  0.240430  0.120214  0.720114  1
  Sn  Sn13  1  0.879786  0.759570  0.720114  1
  Sn  Sn14  1  0.351471  0.000000  0.000000  1
  Sn  Sn15  1  0.648529  0.648529  0.000000  1
  Sn  Sn16  1  0.000000  0.351471  0.000000  1
  Sn  Sn17  1  0.351471  0.351471  0.000000  1
  Sn  Sn18  1  0.000000  0.648529  0.000000  1
  Sn  Sn19  1  0.648529  0.000000  0.000000  1
  Sn  Sn20  1  0.778827  0.557652  0.455286  1
  Sn  Sn21  1  0.778827  0.221173  0.455286  1
  Sn  Sn22  1  0.442348  0.221173  0.455286  1
  Sn  Sn23  1  0.221173  0.442348  0.544714  1
  Sn  Sn24  1  0.221173  0.778827  0.544714  1
  Sn  Sn25  1  0.557652  0.778827  0.544714  1
  Sn  Sn26  1  0.666667  0.333333  0.182194  1
  Sn  Sn27  1  0.333333  0.666667  0.817806  1
  Sn  Sn28  1  0.666667  0.333333  0.877388  1
  Sn  Sn29  1  0.333333  0.666667  0.122612  1
  Rh  Rh30  1  0.169036  0.830964  0.801752  1
  Rh  Rh31  1  0.661927  0.830964  0.801752  1
  Rh  Rh32  1  0.169036  0.338073  0.801752  1
  Rh  Rh33  1  0.830964  0.169036  0.198248  1
  Rh  Rh34  1  0.338073  0.169036  0.198248  1
  Rh  Rh35  1  0.830964  0.661927  0.198248  1
