# generated using pymatgen
data_Cs6InTe4Cl
_symmetry_space_group_name_H-M   'P 1'
_cell_length_a   12.21240400
_cell_length_b   12.21240441
_cell_length_c   8.89913000
_cell_angle_alpha   90.00000000
_cell_angle_beta   90.00000000
_cell_angle_gamma   120.00000431
_symmetry_Int_Tables_number   1
_chemical_formula_structural   Cs6InTe4Cl
_chemical_formula_sum   'Cs12 In2 Te8 Cl2'
_cell_volume   1149.42464337
_cell_formula_units_Z   2
loop_
 _symmetry_equiv_pos_site_id
 _symmetry_equiv_pos_as_xyz
  1  'x, y, z'
loop_
 _atom_site_type_symbol
 _atom_site_label
 _atom_site_symmetry_multiplicity
 _atom_site_fract_x
 _atom_site_fract_y
 _atom_site_fract_z
 _atom_site_occupancy
  Cs  Cs0  1  0.127274  0.872726  0.516628  1
  Cs  Cs1  1  0.745451  0.872726  0.516628  1
  Cs  Cs2  1  0.955472  0.477736  0.318604  1
  Cs  Cs3  1  0.522264  0.477736  0.318604  1
  Cs  Cs4  1  0.872726  0.745451  0.016628  1
  Cs  Cs5  1  0.254549  0.127274  0.016628  1
  Cs  Cs6  1  0.522264  0.044528  0.318604  1
  Cs  Cs7  1  0.127274  0.254549  0.516628  1
  Cs  Cs8  1  0.872726  0.127274  0.016628  1
  Cs  Cs9  1  0.044528  0.522264  0.818604  1
  Cs  Cs10  1  0.477736  0.955472  0.818604  1
  Cs  Cs11  1  0.477736  0.522264  0.818604  1
  In  In12  1  0.666667  0.333333  0.708223  1
  In  In13  1  0.333333  0.666667  0.208223  1
  Te  Te14  1  0.410288  0.205145  0.607531  1
  Te  Te15  1  0.589712  0.794855  0.107531  1
  Te  Te16  1  0.666667  0.333333  0.028573  1
  Te  Te17  1  0.794855  0.589712  0.607531  1
  Te  Te18  1  0.205145  0.410288  0.107531  1
  Te  Te19  1  0.333333  0.666667  0.528573  1
  Te  Te20  1  0.205145  0.794855  0.107531  1
  Te  Te21  1  0.794855  0.205145  0.607531  1
  Cl  Cl22  1  0.000000  0.000000  0.275518  1
  Cl  Cl23  1  0.000000  0.000000  0.775518  1
