# generated using pymatgen
data_NdZnIO6
_symmetry_space_group_name_H-M   'P 1'
_cell_length_a   5.29745000
_cell_length_b   5.29745026
_cell_length_c   5.07533000
_cell_angle_alpha   90.00000000
_cell_angle_beta   90.00000000
_cell_angle_gamma   120.00001086
_symmetry_Int_Tables_number   1
_chemical_formula_structural   NdZnIO6
_chemical_formula_sum   'Nd1 Zn1 I1 O6'
_cell_volume   123.34700925
_cell_formula_units_Z   1
loop_
 _symmetry_equiv_pos_site_id
 _symmetry_equiv_pos_as_xyz
  1  'x, y, z'
loop_
 _atom_site_type_symbol
 _atom_site_label
 _atom_site_symmetry_multiplicity
 _atom_site_fract_x
 _atom_site_fract_y
 _atom_site_fract_z
 _atom_site_occupancy
  Nd  Nd0  1  0.333333  0.666667  0.000000  1
  Zn  Zn1  1  0.666667  0.333333  0.500000  1
  I  I2  1  0.000000  0.000000  0.500000  1
  O  O3  1  0.303029  0.015219  0.714966  1
  O  O4  1  0.984781  0.696971  0.285034  1
  O  O5  1  0.303029  0.287810  0.285034  1
  O  O6  1  0.712190  0.015219  0.285034  1
  O  O7  1  0.984781  0.287810  0.714966  1
  O  O8  1  0.712190  0.696971  0.714966  1
