# generated using pymatgen
data_Er9Tm(Ga2Sb)2
_symmetry_space_group_name_H-M   'P 1'
_cell_length_a   8.60143205
_cell_length_b   8.61853712
_cell_length_c   6.47392400
_cell_angle_alpha   89.99946843
_cell_angle_beta   90.00026595
_cell_angle_gamma   120.06581235
_symmetry_Int_Tables_number   1
_chemical_formula_structural   Er9Tm(Ga2Sb)2
_chemical_formula_sum   'Er9 Tm1 Ga4 Sb2'
_cell_volume   415.34994250
_cell_formula_units_Z   1
loop_
 _symmetry_equiv_pos_site_id
 _symmetry_equiv_pos_as_xyz
  1  'x, y, z'
loop_
 _atom_site_type_symbol
 _atom_site_label
 _atom_site_symmetry_multiplicity
 _atom_site_fract_x
 _atom_site_fract_y
 _atom_site_fract_z
 _atom_site_occupancy
  Er  Er0  1  0.987017  0.750624  0.749948  1
  Er  Er1  1  0.987017  0.236392  0.250052  1
  Er  Er2  1  0.765786  0.766137  0.250058  1
  Er  Er3  1  0.765786  0.999651  0.749942  1
  Er  Er4  1  0.236200  0.249022  0.749932  1
  Er  Er5  1  0.236200  0.987177  0.250068  1
  Er  Er6  1  0.684479  0.342239  0.000000  1
  Er  Er7  1  0.684399  0.342199  0.500000  1
  Er  Er8  1  0.331963  0.665982  0.000000  1
  Tm  Tm9  1  0.331951  0.665976  0.500000  1
  Ga  Ga10  1  0.001552  0.601499  0.250093  1
  Ga  Ga11  1  0.001552  0.400053  0.749907  1
  Ga  Ga12  1  0.598072  0.601477  0.749880  1
  Ga  Ga13  1  0.598072  0.996594  0.250120  1
  Sb  Sb14  1  0.394977  0.004037  0.749863  1
  Sb  Sb15  1  0.394977  0.390940  0.250137  1
