# generated using pymatgen
data_Ho12OsRh3
_symmetry_space_group_name_H-M   'P 1'
_cell_length_a   6.35042529
_cell_length_b   7.22888626
_cell_length_c   9.18191800
_cell_angle_alpha   90.00000000
_cell_angle_beta   90.00000000
_cell_angle_gamma   90.13567549
_symmetry_Int_Tables_number   1
_chemical_formula_structural   Ho12OsRh3
_chemical_formula_sum   'Ho12 Os1 Rh3'
_cell_volume   421.50855603
_cell_formula_units_Z   1
loop_
 _symmetry_equiv_pos_site_id
 _symmetry_equiv_pos_as_xyz
  1  'x, y, z'
loop_
 _atom_site_type_symbol
 _atom_site_label
 _atom_site_symmetry_multiplicity
 _atom_site_fract_x
 _atom_site_fract_y
 _atom_site_fract_z
 _atom_site_occupancy
  Ho  Ho0  1  0.332632  0.677285  0.058511  1
  Ho  Ho1  1  0.171031  0.178473  0.437037  1
  Ho  Ho2  1  0.672081  0.323573  0.563764  1
  Ho  Ho3  1  0.825328  0.819270  0.935318  1
  Ho  Ho4  1  0.672081  0.323573  0.936236  1
  Ho  Ho5  1  0.825328  0.819270  0.564682  1
  Ho  Ho6  1  0.332632  0.677285  0.441489  1
  Ho  Ho7  1  0.171031  0.178473  0.062963  1
  Ho  Ho8  1  0.872550  0.536842  0.250000  1
  Ho  Ho9  1  0.630988  0.035449  0.250000  1
  Ho  Ho10  1  0.128518  0.464749  0.750000  1
  Ho  Ho11  1  0.371185  0.965870  0.750000  1
  Os  Os12  1  0.537602  0.614990  0.750000  1
  Rh  Rh13  1  0.046221  0.885632  0.250000  1
  Rh  Rh14  1  0.455563  0.384875  0.250000  1
  Rh  Rh15  1  0.955229  0.114391  0.750000  1
