# generated using pymatgen
data_NpPa3BeTe12
_symmetry_space_group_name_H-M   'P 1'
_cell_length_a   7.48149039
_cell_length_b   7.48148990
_cell_length_c   11.21221100
_cell_angle_alpha   70.68041149
_cell_angle_beta   70.68041281
_cell_angle_gamma   68.93166548
_symmetry_Int_Tables_number   1
_chemical_formula_structural   NpPa3BeTe12
_chemical_formula_sum   'Np1 Pa3 Be1 Te12'
_cell_volume   536.40811009
_cell_formula_units_Z   1
loop_
 _symmetry_equiv_pos_site_id
 _symmetry_equiv_pos_as_xyz
  1  'x, y, z'
loop_
 _atom_site_type_symbol
 _atom_site_label
 _atom_site_symmetry_multiplicity
 _atom_site_fract_x
 _atom_site_fract_y
 _atom_site_fract_z
 _atom_site_occupancy
  Np  Np0  1  0.812136  0.812136  0.839943  1
  Pa  Pa1  1  0.313023  0.313023  0.831306  1
  Pa  Pa2  1  0.689139  0.190710  0.166550  1
  Pa  Pa3  1  0.190710  0.689139  0.166550  1
  Be  Be4  1  0.813201  0.813201  0.521270  1
  Te  Te5  1  0.008128  0.008128  0.335858  1
  Te  Te6  1  0.501532  0.501532  0.330026  1
  Te  Te7  1  0.502578  0.985531  0.662453  1
  Te  Te8  1  0.985531  0.502578  0.662453  1
  Te  Te9  1  0.259002  0.259002  0.334615  1
  Te  Te10  1  0.749267  0.749267  0.335266  1
  Te  Te11  1  0.251397  0.736800  0.667294  1
  Te  Te12  1  0.736800  0.251397  0.667294  1
  Te  Te13  1  0.025658  0.025658  0.943557  1
  Te  Te14  1  0.517631  0.517631  0.946149  1
  Te  Te15  1  0.469632  0.985933  0.061908  1
  Te  Te16  1  0.985933  0.469632  0.061908  1
