# generated using pymatgen
data_Ni4SnPRh
_symmetry_space_group_name_H-M   'P 1'
_cell_length_a   3.73597000
_cell_length_b   3.73597000
_cell_length_c   6.52099800
_cell_angle_alpha   90.00000000
_cell_angle_beta   90.00000000
_cell_angle_gamma   90.00000000
_symmetry_Int_Tables_number   1
_chemical_formula_structural   Ni4SnPRh
_chemical_formula_sum   'Ni4 Sn1 P1 Rh1'
_cell_volume   91.01664596
_cell_formula_units_Z   1
loop_
 _symmetry_equiv_pos_site_id
 _symmetry_equiv_pos_as_xyz
  1  'x, y, z'
loop_
 _atom_site_type_symbol
 _atom_site_label
 _atom_site_symmetry_multiplicity
 _atom_site_fract_x
 _atom_site_fract_y
 _atom_site_fract_z
 _atom_site_occupancy
  Ni  Ni0  1  0.500000  0.000000  0.306175  1
  Ni  Ni1  1  0.000000  0.500000  0.306175  1
  Ni  Ni2  1  0.500000  0.000000  0.693824  1
  Ni  Ni3  1  0.000000  0.500000  0.693824  1
  Sn  Sn4  1  0.500000  0.500000  0.000000  1
  P  P5  1  0.000000  0.000000  0.500000  1
  Rh  Rh6  1  0.000000  0.000000  0.000000  1
