# generated using pymatgen
data_TmLu7In3Ni
_symmetry_space_group_name_H-M   'P 1'
_cell_length_a   10.21572100
_cell_length_b   10.21572010
_cell_length_c   6.83423600
_cell_angle_alpha   90.00000000
_cell_angle_beta   90.00000000
_cell_angle_gamma   120.00001263
_symmetry_Int_Tables_number   1
_chemical_formula_structural   TmLu7In3Ni
_chemical_formula_sum   'Tm2 Lu14 In6 Ni2'
_cell_volume   617.67291364
_cell_formula_units_Z   2
loop_
 _symmetry_equiv_pos_site_id
 _symmetry_equiv_pos_as_xyz
  1  'x, y, z'
loop_
 _atom_site_type_symbol
 _atom_site_label
 _atom_site_symmetry_multiplicity
 _atom_site_fract_x
 _atom_site_fract_y
 _atom_site_fract_z
 _atom_site_occupancy
  Tm  Tm0  1  0.000000  0.000000  0.269441  1
  Tm  Tm1  1  0.000000  0.000000  0.769441  1
  Lu  Lu2  1  0.178192  0.821808  0.993709  1
  Lu  Lu3  1  0.356385  0.178192  0.493709  1
  Lu  Lu4  1  0.821808  0.643615  0.493709  1
  Lu  Lu5  1  0.178192  0.356385  0.993709  1
  Lu  Lu6  1  0.643615  0.821808  0.993709  1
  Lu  Lu7  1  0.821808  0.178192  0.493709  1
  Lu  Lu8  1  0.333333  0.666667  0.676724  1
  Lu  Lu9  1  0.666667  0.333333  0.176724  1
  Lu  Lu10  1  0.466691  0.533309  0.290312  1
  Lu  Lu11  1  0.933381  0.466691  0.790312  1
  Lu  Lu12  1  0.533309  0.066619  0.790312  1
  Lu  Lu13  1  0.466691  0.933381  0.290312  1
  Lu  Lu14  1  0.066619  0.533309  0.290312  1
  Lu  Lu15  1  0.533309  0.466691  0.790312  1
  In  In16  1  0.162827  0.837173  0.534556  1
  In  In17  1  0.325652  0.162827  0.034556  1
  In  In18  1  0.837173  0.674348  0.034556  1
  In  In19  1  0.162827  0.325652  0.534556  1
  In  In20  1  0.674348  0.837173  0.534556  1
  In  In21  1  0.837173  0.162827  0.034556  1
  Ni  Ni22  1  0.333333  0.666667  0.060113  1
  Ni  Ni23  1  0.666667  0.333333  0.560113  1
