# generated using pymatgen
data_Cr2TcNiP4
_symmetry_space_group_name_H-M   'P 1'
_cell_length_a   3.10751300
_cell_length_b   5.40438095
_cell_length_c   6.05239141
_cell_angle_alpha   89.65193319
_cell_angle_beta   90.00000000
_cell_angle_gamma   90.00000000
_symmetry_Int_Tables_number   1
_chemical_formula_structural   Cr2TcNiP4
_chemical_formula_sum   'Cr2 Tc1 Ni1 P4'
_cell_volume   101.64309976
_cell_formula_units_Z   1
loop_
 _symmetry_equiv_pos_site_id
 _symmetry_equiv_pos_as_xyz
  1  'x, y, z'
loop_
 _atom_site_type_symbol
 _atom_site_label
 _atom_site_symmetry_multiplicity
 _atom_site_fract_x
 _atom_site_fract_y
 _atom_site_fract_z
 _atom_site_occupancy
  Cr  Cr0  1  0.500000  0.491585  0.292941  1
  Cr  Cr1  1  0.500000  0.995361  0.201659  1
  Tc  Tc2  1  0.000000  0.005507  0.807988  1
  Ni  Ni3  1  0.000000  0.504391  0.693714  1
  P  P4  1  0.000000  0.693392  0.077410  1
  P  P5  1  0.000000  0.190072  0.433037  1
  P  P6  1  0.500000  0.317017  0.937024  1
  P  P7  1  0.500000  0.802677  0.556227  1
