# generated using pymatgen
data_La2Ce2Zn5Cu19
_symmetry_space_group_name_H-M   'P 1'
_cell_length_a   5.11029800
_cell_length_b   8.18153243
_cell_length_c   10.26966585
_cell_angle_alpha   89.82597492
_cell_angle_beta   90.00000000
_cell_angle_gamma   90.00000000
_symmetry_Int_Tables_number   1
_chemical_formula_structural   La2Ce2Zn5Cu19
_chemical_formula_sum   'La2 Ce2 Zn5 Cu19'
_cell_volume   429.37345527
_cell_formula_units_Z   1
loop_
 _symmetry_equiv_pos_site_id
 _symmetry_equiv_pos_as_xyz
  1  'x, y, z'
loop_
 _atom_site_type_symbol
 _atom_site_label
 _atom_site_symmetry_multiplicity
 _atom_site_fract_x
 _atom_site_fract_y
 _atom_site_fract_z
 _atom_site_occupancy
  La  La0  1  0.000000  0.760994  0.692936  1
  La  La1  1  0.000000  0.259106  0.310944  1
  Ce  Ce2  1  0.500000  0.241006  0.812363  1
  Ce  Ce3  1  0.500000  0.741171  0.183223  1
  Zn  Zn4  1  0.500000  0.355260  0.108569  1
  Zn  Zn5  1  0.500000  0.856947  0.890805  1
  Zn  Zn6  1  0.000000  0.645116  0.387756  1
  Zn  Zn7  1  0.000000  0.144841  0.611129  1
  Zn  Zn8  1  0.500000  0.681803  0.497280  1
  Cu  Cu9  1  0.500000  0.182132  0.502554  1
  Cu  Cu10  1  0.000000  0.318295  0.002879  1
  Cu  Cu11  1  0.000000  0.818336  0.997789  1
  Cu  Cu12  1  0.500000  0.943096  0.652066  1
  Cu  Cu13  1  0.500000  0.439068  0.347362  1
  Cu  Cu14  1  0.000000  0.067837  0.850283  1
  Cu  Cu15  1  0.000000  0.566207  0.150508  1
  Cu  Cu16  1  0.500000  0.589566  0.736813  1
  Cu  Cu17  1  0.500000  0.089995  0.263750  1
  Cu  Cu18  1  0.000000  0.402761  0.767197  1
  Cu  Cu19  1  0.000000  0.902226  0.233012  1
  Cu  Cu20  1  0.745195  0.064523  0.057749  1
  Cu  Cu21  1  0.254710  0.564329  0.942370  1
  Cu  Cu22  1  0.245869  0.935653  0.439286  1
  Cu  Cu23  1  0.754460  0.432612  0.560985  1
  Cu  Cu24  1  0.754131  0.935653  0.439286  1
  Cu  Cu25  1  0.245540  0.432612  0.560985  1
  Cu  Cu26  1  0.254805  0.064523  0.057749  1
  Cu  Cu27  1  0.745290  0.564329  0.942370  1
