# generated using pymatgen
data_Gd16Er3TmPb16
_symmetry_space_group_name_H-M   'P 1'
_cell_length_a   8.19115800
_cell_length_b   8.27279600
_cell_length_c   15.63403900
_cell_angle_alpha   90.00000000
_cell_angle_beta   90.00000000
_cell_angle_gamma   89.99901654
_symmetry_Int_Tables_number   1
_chemical_formula_structural   Gd16Er3TmPb16
_chemical_formula_sum   'Gd16 Er3 Tm1 Pb16'
_cell_volume   1059.42156583
_cell_formula_units_Z   1
loop_
 _symmetry_equiv_pos_site_id
 _symmetry_equiv_pos_as_xyz
  1  'x, y, z'
loop_
 _atom_site_type_symbol
 _atom_site_label
 _atom_site_symmetry_multiplicity
 _atom_site_fract_x
 _atom_site_fract_y
 _atom_site_fract_z
 _atom_site_occupancy
  Gd  Gd0  1  0.375909  0.842288  0.879891  1
  Gd  Gd1  1  0.876018  0.657370  0.620493  1
  Gd  Gd2  1  0.623892  0.157756  0.380082  1
  Gd  Gd3  1  0.124134  0.342640  0.120210  1
  Gd  Gd4  1  0.623892  0.157756  0.119918  1
  Gd  Gd5  1  0.124134  0.342640  0.379790  1
  Gd  Gd6  1  0.375909  0.842288  0.620109  1
  Gd  Gd7  1  0.876018  0.657370  0.879507  1
  Gd  Gd8  1  0.533545  0.323168  0.901326  1
  Gd  Gd9  1  0.032425  0.178831  0.597551  1
  Gd  Gd10  1  0.466475  0.676777  0.401514  1
  Gd  Gd11  1  0.967667  0.821218  0.097505  1
  Gd  Gd12  1  0.466475  0.676777  0.098486  1
  Gd  Gd13  1  0.967667  0.821218  0.402495  1
  Gd  Gd14  1  0.533545  0.323168  0.598674  1
  Gd  Gd15  1  0.032425  0.178831  0.902449  1
  Er  Er16  1  0.707473  0.995619  0.750000  1
  Er  Er17  1  0.792644  0.494987  0.250000  1
  Er  Er18  1  0.292456  0.004465  0.250000  1
  Tm  Tm19  1  0.207516  0.505140  0.750000  1
  Pb  Pb20  1  0.283023  0.033110  0.044498  1
  Pb  Pb21  1  0.782689  0.466770  0.455637  1
  Pb  Pb22  1  0.716961  0.966754  0.544568  1
  Pb  Pb23  1  0.217251  0.533158  0.955269  1
  Pb  Pb24  1  0.716961  0.966754  0.955432  1
  Pb  Pb25  1  0.217251  0.533158  0.544731  1
  Pb  Pb26  1  0.283023  0.033110  0.455502  1
  Pb  Pb27  1  0.782689  0.466770  0.044363  1
  Pb  Pb28  1  0.569746  0.622064  0.750000  1
  Pb  Pb29  1  0.070386  0.878745  0.750000  1
  Pb  Pb30  1  0.429874  0.377777  0.250000  1
  Pb  Pb31  1  0.929652  0.121109  0.250000  1
  Pb  Pb32  1  0.341554  0.153794  0.750000  1
  Pb  Pb33  1  0.844268  0.345959  0.750000  1
  Pb  Pb34  1  0.658200  0.846638  0.250000  1
  Pb  Pb35  1  0.156248  0.654029  0.250000  1
