# generated using pymatgen
data_Y10GaSiPb6
_symmetry_space_group_name_H-M   'P 1'
_cell_length_a   9.31921700
_cell_length_b   9.31921567
_cell_length_c   6.62903400
_cell_angle_alpha   90.00000000
_cell_angle_beta   90.00000000
_cell_angle_gamma   119.99999406
_symmetry_Int_Tables_number   1
_chemical_formula_structural   Y10GaSiPb6
_chemical_formula_sum   'Y10 Ga1 Si1 Pb6'
_cell_volume   498.58555430
_cell_formula_units_Z   1
loop_
 _symmetry_equiv_pos_site_id
 _symmetry_equiv_pos_as_xyz
  1  'x, y, z'
loop_
 _atom_site_type_symbol
 _atom_site_label
 _atom_site_symmetry_multiplicity
 _atom_site_fract_x
 _atom_site_fract_y
 _atom_site_fract_z
 _atom_site_occupancy
  Y  Y0  1  0.000000  0.747534  0.760871  1
  Y  Y1  1  0.333333  0.666667  0.500000  1
  Y  Y2  1  0.333333  0.666667  0.000000  1
  Y  Y3  1  0.747534  0.747534  0.239129  1
  Y  Y4  1  0.252466  0.252466  0.760871  1
  Y  Y5  1  0.000000  0.252466  0.239129  1
  Y  Y6  1  0.666667  0.333333  0.500000  1
  Y  Y7  1  0.252466  0.000000  0.239129  1
  Y  Y8  1  0.747534  0.000000  0.760871  1
  Y  Y9  1  0.666667  0.333333  0.000000  1
  Ga  Ga10  1  0.000000  0.000000  0.500000  1
  Si  Si11  1  0.000000  0.000000  0.000000  1
  Pb  Pb12  1  0.394093  0.000000  0.751788  1
  Pb  Pb13  1  0.394093  0.394093  0.248212  1
  Pb  Pb14  1  0.605907  0.605907  0.751788  1
  Pb  Pb15  1  0.000000  0.605907  0.248212  1
  Pb  Pb16  1  0.000000  0.394093  0.751788  1
  Pb  Pb17  1  0.605907  0.000000  0.248212  1
