# generated using pymatgen
data_Th10Bi2Pb5Au
_symmetry_space_group_name_H-M   'P 1'
_cell_length_a   9.75855827
_cell_length_b   9.75855876
_cell_length_c   6.71763822
_cell_angle_alpha   89.98516454
_cell_angle_beta   89.98516341
_cell_angle_gamma   120.02220441
_symmetry_Int_Tables_number   1
_chemical_formula_structural   Th10Bi2Pb5Au
_chemical_formula_sum   'Th10 Bi2 Pb5 Au1'
_cell_volume   553.88717633
_cell_formula_units_Z   1
loop_
 _symmetry_equiv_pos_site_id
 _symmetry_equiv_pos_as_xyz
  1  'x, y, z'
loop_
 _atom_site_type_symbol
 _atom_site_label
 _atom_site_symmetry_multiplicity
 _atom_site_fract_x
 _atom_site_fract_y
 _atom_site_fract_z
 _atom_site_occupancy
  Th  Th0  1  0.667534  0.332871  0.500663  1
  Th  Th1  1  0.332871  0.667534  0.500663  1
  Th  Th2  1  0.333533  0.667916  0.999116  1
  Th  Th3  1  0.667916  0.333533  0.999116  1
  Th  Th4  1  0.724521  0.724521  0.261412  1
  Th  Th5  1  0.274628  0.998673  0.261112  1
  Th  Th6  1  0.998673  0.274628  0.261112  1
  Th  Th7  1  0.275734  0.275734  0.738164  1
  Th  Th8  1  0.724368  0.999890  0.739116  1
  Th  Th9  1  0.999890  0.724368  0.739116  1
  Bi  Bi10  1  0.000116  0.000116  0.999908  1
  Bi  Bi11  1  0.381380  0.381380  0.247431  1
  Pb  Pb12  1  0.619342  0.999652  0.247750  1
  Pb  Pb13  1  0.999652  0.619342  0.247750  1
  Pb  Pb14  1  0.619938  0.619938  0.752462  1
  Pb  Pb15  1  0.380154  0.999576  0.752198  1
  Pb  Pb16  1  0.999576  0.380154  0.752198  1
  Au  Au17  1  0.000174  0.000174  0.500713  1
