# generated using pymatgen
data_SrTb3Al18OsPd5
_symmetry_space_group_name_H-M   'P 1'
_cell_length_a   7.66546654
_cell_length_b   7.66623060
_cell_length_c   9.56312901
_cell_angle_alpha   90.02038196
_cell_angle_beta   90.10250982
_cell_angle_gamma   119.55715446
_symmetry_Int_Tables_number   1
_chemical_formula_structural   SrTb3Al18OsPd5
_chemical_formula_sum   'Sr1 Tb3 Al18 Os1 Pd5'
_cell_volume   488.84450175
_cell_formula_units_Z   1
loop_
 _symmetry_equiv_pos_site_id
 _symmetry_equiv_pos_as_xyz
  1  'x, y, z'
loop_
 _atom_site_type_symbol
 _atom_site_label
 _atom_site_symmetry_multiplicity
 _atom_site_fract_x
 _atom_site_fract_y
 _atom_site_fract_z
 _atom_site_occupancy
  Sr  Sr0  1  0.994839  0.670887  0.249701  1
  Tb  Tb1  1  0.004626  0.330770  0.750465  1
  Tb  Tb2  1  0.670430  0.996036  0.249044  1
  Tb  Tb3  1  0.329230  0.003031  0.751158  1
  Al  Al4  1  0.130871  0.137534  0.248982  1
  Al  Al5  1  0.869416  0.872228  0.750973  1
  Al  Al6  1  0.995904  0.332780  0.070762  1
  Al  Al7  1  0.994156  0.658638  0.922564  1
  Al  Al8  1  0.997954  0.665750  0.581174  1
  Al  Al9  1  0.336760  0.004854  0.425999  1
  Al  Al10  1  0.002227  0.332843  0.427437  1
  Al  Al11  1  0.665036  0.999388  0.577914  1
  Al  Al12  1  0.665954  0.003389  0.924012  1
  Al  Al13  1  0.341700  0.006092  0.071132  1
  Al  Al14  1  0.333568  0.333801  0.561419  1
  Al  Al15  1  0.662696  0.665711  0.447883  1
  Al  Al16  1  0.666054  0.661108  0.046037  1
  Al  Al17  1  0.336461  0.331211  0.945316  1
  Al  Al18  1  0.345607  0.547868  0.249191  1
  Al  Al19  1  0.658977  0.450942  0.753283  1
  Al  Al20  1  0.543658  0.334256  0.245107  1
  Al  Al21  1  0.455029  0.662518  0.750878  1
  Os  Os22  1  0.670019  0.325553  0.997505  1
  Pd  Pd23  1  0.328348  0.670761  0.997724  1
  Pd  Pd24  1  0.327576  0.671908  0.502300  1
  Pd  Pd25  1  0.670928  0.327742  0.501960  1
  Pd  Pd26  1  0.001348  0.001029  0.997992  1
  Pd  Pd27  1  0.000628  0.001373  0.502087  1
