# generated using pymatgen
data_Ta6Be15Co5Ni3
_symmetry_space_group_name_H-M   'P 1'
_cell_length_a   7.55411760
_cell_length_b   7.55356400
_cell_length_c   7.55690800
_cell_angle_alpha   59.98535434
_cell_angle_beta   59.98778001
_cell_angle_gamma   60.01821506
_symmetry_Int_Tables_number   1
_chemical_formula_structural   Ta6Be15Co5Ni3
_chemical_formula_sum   'Ta6 Be15 Co5 Ni3'
_cell_volume   304.88517613
_cell_formula_units_Z   1
loop_
 _symmetry_equiv_pos_site_id
 _symmetry_equiv_pos_as_xyz
  1  'x, y, z'
loop_
 _atom_site_type_symbol
 _atom_site_label
 _atom_site_symmetry_multiplicity
 _atom_site_fract_x
 _atom_site_fract_y
 _atom_site_fract_z
 _atom_site_occupancy
  Ta  Ta0  1  0.709913  0.291028  0.299520  1
  Ta  Ta1  1  0.287268  0.707516  0.706780  1
  Ta  Ta2  1  0.287268  0.707516  0.298436  1
  Ta  Ta3  1  0.709913  0.291028  0.699540  1
  Ta  Ta4  1  0.295096  0.297030  0.703937  1
  Ta  Ta5  1  0.711840  0.701558  0.293301  1
  Be  Be6  1  0.325619  0.327686  0.327119  1
  Be  Be7  1  0.673429  0.673680  0.671357  1
  Be  Be8  1  0.325619  0.327686  0.019577  1
  Be  Be9  1  0.324515  0.021527  0.326979  1
  Be  Be10  1  0.673429  0.673680  0.981533  1
  Be  Be11  1  0.675123  0.977579  0.673648  1
  Be  Be12  1  0.025709  0.324740  0.324776  1
  Be  Be13  1  0.975499  0.676483  0.674009  1
  Be  Be14  1  0.499845  0.000326  0.000012  1
  Be  Be15  1  0.000576  0.500034  0.499116  1
  Be  Be16  1  0.000576  0.500034  0.000274  1
  Be  Be17  1  0.499845  0.000326  0.499817  1
  Be  Be18  1  0.999304  0.000782  0.499957  1
  Be  Be19  1  0.499054  0.500458  0.000244  1
  Be  Be20  1  0.000173  0.998664  0.000582  1
  Co  Co21  1  0.124015  0.122125  0.120711  1
  Co  Co22  1  0.875550  0.877664  0.879061  1
  Co  Co23  1  0.124015  0.122125  0.633150  1
  Co  Co24  1  0.124889  0.632479  0.121316  1
  Co  Co25  1  0.875550  0.877664  0.367726  1
  Ni  Ni26  1  0.875536  0.368037  0.878213  1
  Ni  Ni27  1  0.631705  0.124065  0.122115  1
  Ni  Ni28  1  0.369128  0.876482  0.877194  1
