# generated using pymatgen
data_YTa2Nb3Co2(BRu2)4
_symmetry_space_group_name_H-M   'P 1'
_cell_length_a   9.36758122
_cell_length_b   9.36992316
_cell_length_c   3.05068300
_cell_angle_alpha   90.00000000
_cell_angle_beta   90.00000000
_cell_angle_gamma   90.41287011
_symmetry_Int_Tables_number   1
_chemical_formula_structural   YTa2Nb3Co2(BRu2)4
_chemical_formula_sum   'Y1 Ta2 Nb3 Co2 B4 Ru8'
_cell_volume   267.76222196
_cell_formula_units_Z   1
loop_
 _symmetry_equiv_pos_site_id
 _symmetry_equiv_pos_as_xyz
  1  'x, y, z'
loop_
 _atom_site_type_symbol
 _atom_site_label
 _atom_site_symmetry_multiplicity
 _atom_site_fract_x
 _atom_site_fract_y
 _atom_site_fract_z
 _atom_site_occupancy
  Y  Y0  1  0.823020  0.676909  0.000000  1
  Ta  Ta1  1  0.175500  0.324485  0.000000  1
  Ta  Ta2  1  0.999995  0.998610  0.000000  1
  Nb  Nb3  1  0.324013  0.826654  0.000000  1
  Nb  Nb4  1  0.673707  0.176073  0.000000  1
  Nb  Nb5  1  0.501389  0.500044  0.000000  1
  Co  Co6  1  0.495739  0.004543  0.500000  1
  Co  Co7  1  0.007496  0.492431  0.500000  1
  B  B8  1  0.607480  0.892467  0.000000  1
  B  B9  1  0.389151  0.111188  0.000000  1
  B  B10  1  0.115664  0.607706  0.000000  1
  B  B11  1  0.892188  0.384390  0.000000  1
  Ru  Ru12  1  0.552523  0.731573  0.500000  1
  Ru  Ru13  1  0.431970  0.276445  0.500000  1
  Ru  Ru14  1  0.077036  0.775874  0.500000  1
  Ru  Ru15  1  0.938785  0.221856  0.500000  1
  Ru  Ru16  1  0.277655  0.561073  0.500000  1
  Ru  Ru17  1  0.724530  0.422682  0.500000  1
  Ru  Ru18  1  0.223118  0.067973  0.500000  1
  Ru  Ru19  1  0.769044  0.947022  0.500000  1
