# generated using pymatgen
data_La20Co4Sn5Sb3
_symmetry_space_group_name_H-M   'P 1'
_cell_length_a   8.40497044
_cell_length_b   9.20329418
_cell_length_c   12.81065223
_cell_angle_alpha   90.06649652
_cell_angle_beta   90.11174983
_cell_angle_gamma   90.08679042
_symmetry_Int_Tables_number   1
_chemical_formula_structural   La20Co4Sn5Sb3
_chemical_formula_sum   'La20 Co4 Sn5 Sb3'
_cell_volume   990.94401257
_cell_formula_units_Z   1
loop_
 _symmetry_equiv_pos_site_id
 _symmetry_equiv_pos_as_xyz
  1  'x, y, z'
loop_
 _atom_site_type_symbol
 _atom_site_label
 _atom_site_symmetry_multiplicity
 _atom_site_fract_x
 _atom_site_fract_y
 _atom_site_fract_z
 _atom_site_occupancy
  La  La0  1  0.155309  0.750133  0.200211  1
  La  La1  1  0.654192  0.250603  0.300666  1
  La  La2  1  0.843215  0.249673  0.799021  1
  La  La3  1  0.343969  0.749910  0.701597  1
  La  La4  1  0.449319  0.749975  0.997561  1
  La  La5  1  0.949750  0.248863  0.503304  1
  La  La6  1  0.551140  0.250272  0.003621  1
  La  La7  1  0.051464  0.750649  0.496437  1
  La  La8  1  0.629968  0.750506  0.305611  1
  La  La9  1  0.128855  0.249540  0.192687  1
  La  La10  1  0.370946  0.249712  0.693148  1
  La  La11  1  0.872931  0.749521  0.807459  1
  La  La12  1  0.817877  0.971593  0.069793  1
  La  La13  1  0.320127  0.028718  0.431117  1
  La  La14  1  0.179938  0.469827  0.929686  1
  La  La15  1  0.679481  0.528587  0.570123  1
  La  La16  1  0.180976  0.028018  0.931806  1
  La  La17  1  0.683231  0.970535  0.567478  1
  La  La18  1  0.818723  0.528969  0.066257  1
  La  La19  1  0.318602  0.474163  0.433708  1
  Co  Co20  1  0.418448  0.748361  0.487571  1
  Co  Co21  1  0.918716  0.250927  0.010769  1
  Co  Co22  1  0.581738  0.252036  0.511571  1
  Co  Co23  1  0.082464  0.748526  0.990027  1
  Sn  Sn24  1  0.932361  0.994869  0.325722  1
  Sn  Sn25  1  0.432132  0.006359  0.173493  1
  Sn  Sn26  1  0.067573  0.494300  0.672373  1
  Sn  Sn27  1  0.567832  0.505986  0.827533  1
  Sn  Sn28  1  0.067483  0.005676  0.673689  1
  Sb  Sb29  1  0.568523  0.993838  0.826339  1
  Sb  Sb30  1  0.931333  0.505258  0.325199  1
  Sb  Sb31  1  0.431385  0.494098  0.174424  1
