# generated using pymatgen
data_Pr4Ho4Re3TcB24
_symmetry_space_group_name_H-M   'P 1'
_cell_length_a   3.73910200
_cell_length_b   9.25737773
_cell_length_c   11.73469807
_cell_angle_alpha   90.01661608
_cell_angle_beta   90.00000000
_cell_angle_gamma   90.00000000
_symmetry_Int_Tables_number   1
_chemical_formula_structural   Pr4Ho4Re3TcB24
_chemical_formula_sum   'Pr4 Ho4 Re3 Tc1 B24'
_cell_volume   406.18810286
_cell_formula_units_Z   1
loop_
 _symmetry_equiv_pos_site_id
 _symmetry_equiv_pos_as_xyz
  1  'x, y, z'
loop_
 _atom_site_type_symbol
 _atom_site_label
 _atom_site_symmetry_multiplicity
 _atom_site_fract_x
 _atom_site_fract_y
 _atom_site_fract_z
 _atom_site_occupancy
  Pr  Pr0  1  0.000000  0.322925  0.414080  1
  Pr  Pr1  1  0.000000  0.677425  0.585535  1
  Pr  Pr2  1  0.000000  0.822595  0.085904  1
  Pr  Pr3  1  0.000000  0.177555  0.914246  1
  Ho  Ho4  1  0.000000  0.941809  0.368763  1
  Ho  Ho5  1  0.000000  0.057181  0.630676  1
  Ho  Ho6  1  0.000000  0.443263  0.131612  1
  Ho  Ho7  1  0.000000  0.557182  0.869245  1
  Re  Re8  1  0.000000  0.360214  0.681260  1
  Re  Re9  1  0.000000  0.139687  0.181228  1
  Re  Re10  1  0.000000  0.860296  0.818810  1
  Tc  Tc11  1  0.000000  0.639978  0.318792  1
  B  B12  1  0.500000  0.555551  0.429778  1
  B  B13  1  0.500000  0.444622  0.569996  1
  B  B14  1  0.500000  0.055515  0.070013  1
  B  B15  1  0.500000  0.944657  0.929956  1
  B  B16  1  0.500000  0.749582  0.415332  1
  B  B17  1  0.500000  0.250122  0.584396  1
  B  B18  1  0.500000  0.250189  0.084587  1
  B  B19  1  0.500000  0.750126  0.915498  1
  B  B20  1  0.500000  0.790853  0.266324  1
  B  B21  1  0.500000  0.208697  0.733591  1
  B  B22  1  0.500000  0.291152  0.233792  1
  B  B23  1  0.500000  0.708721  0.766323  1
  B  B24  1  0.500000  0.629449  0.186965  1
  B  B25  1  0.500000  0.370714  0.813195  1
  B  B26  1  0.500000  0.129258  0.313321  1
  B  B27  1  0.500000  0.870587  0.686652  1
  B  B28  1  0.500000  0.984196  0.213270  1
  B  B29  1  0.500000  0.015842  0.786576  1
  B  B30  1  0.500000  0.484498  0.286806  1
  B  B31  1  0.500000  0.515865  0.713343  1
  B  B32  1  0.500000  0.595473  0.026497  1
  B  B33  1  0.500000  0.404677  0.973893  1
  B  B34  1  0.500000  0.095112  0.473406  1
  B  B35  1  0.500000  0.904435  0.526340  1
