# generated using pymatgen
data_RbTiPSe5
_symmetry_space_group_name_H-M   'P 1'
_cell_length_a   10.41959800
_cell_length_b   10.41959825
_cell_length_c   16.85001080
_cell_angle_alpha   59.94942607
_cell_angle_beta   59.94942591
_cell_angle_gamma   42.14393328
_symmetry_Int_Tables_number   1
_chemical_formula_structural   RbTiPSe5
_chemical_formula_sum   'Rb4 Ti4 P4 Se20'
_cell_volume   1035.77067295
_cell_formula_units_Z   4
loop_
 _symmetry_equiv_pos_site_id
 _symmetry_equiv_pos_as_xyz
  1  'x, y, z'
loop_
 _atom_site_type_symbol
 _atom_site_label
 _atom_site_symmetry_multiplicity
 _atom_site_fract_x
 _atom_site_fract_y
 _atom_site_fract_z
 _atom_site_occupancy
  Rb  Rb0  1  0.666563  0.666563  0.134906  1
  Rb  Rb1  1  0.706401  0.706401  0.636281  1
  Rb  Rb2  1  0.293599  0.293599  0.363719  1
  Rb  Rb3  1  0.333437  0.333437  0.865094  1
  Ti  Ti4  1  0.724761  0.275239  0.000000  1
  Ti  Ti5  1  0.275239  0.724761  0.000000  1
  Ti  Ti6  1  0.778057  0.221943  0.500000  1
  Ti  Ti7  1  0.221943  0.778057  0.500000  1
  P  P8  1  0.330229  0.330229  0.595329  1
  P  P9  1  0.078557  0.078557  0.099490  1
  P  P10  1  0.921443  0.921443  0.900510  1
  P  P11  1  0.669771  0.669771  0.404671  1
  Se  Se12  1  0.181126  0.181126  0.115263  1
  Se  Se13  1  0.598281  0.118844  0.653361  1
  Se  Se14  1  0.118844  0.598281  0.653361  1
  Se  Se15  1  0.979648  0.979648  0.408020  1
  Se  Se16  1  0.440977  0.440977  0.445502  1
  Se  Se17  1  0.108298  0.108298  0.949111  1
  Se  Se18  1  0.755156  0.239805  0.152979  1
  Se  Se19  1  0.239805  0.755156  0.152979  1
  Se  Se20  1  0.605306  0.605306  0.903906  1
  Se  Se21  1  0.212279  0.212279  0.612953  1
  Se  Se22  1  0.787721  0.787721  0.387047  1
  Se  Se23  1  0.394694  0.394694  0.096094  1
  Se  Se24  1  0.244844  0.760195  0.847021  1
  Se  Se25  1  0.760195  0.244844  0.847021  1
  Se  Se26  1  0.891702  0.891702  0.050889  1
  Se  Se27  1  0.559023  0.559023  0.554498  1
  Se  Se28  1  0.020352  0.020352  0.591980  1
  Se  Se29  1  0.881156  0.401719  0.346639  1
  Se  Se30  1  0.401719  0.881156  0.346639  1
  Se  Se31  1  0.818874  0.818874  0.884737  1
