# generated using pymatgen
data_Li4LaDy3Pt4
_symmetry_space_group_name_H-M   'P 1'
_cell_length_a   4.02036700
_cell_length_b   7.09349001
_cell_length_c   8.41389200
_cell_angle_alpha   90.03058849
_cell_angle_beta   90.00000000
_cell_angle_gamma   90.00000000
_symmetry_Int_Tables_number   1
_chemical_formula_structural   Li4LaDy3Pt4
_chemical_formula_sum   'Li4 La1 Dy3 Pt4'
_cell_volume   239.95098238
_cell_formula_units_Z   1
loop_
 _symmetry_equiv_pos_site_id
 _symmetry_equiv_pos_as_xyz
  1  'x, y, z'
loop_
 _atom_site_type_symbol
 _atom_site_label
 _atom_site_symmetry_multiplicity
 _atom_site_fract_x
 _atom_site_fract_y
 _atom_site_fract_z
 _atom_site_occupancy
  Li  Li0  1  0.250000  0.128358  0.059920  1
  Li  Li1  1  0.250000  0.625469  0.441205  1
  Li  Li2  1  0.750000  0.868352  0.945974  1
  Li  Li3  1  0.750000  0.376646  0.555460  1
  La  La4  1  0.250000  0.045368  0.685706  1
  Dy  Dy5  1  0.250000  0.547340  0.820867  1
  Dy  Dy6  1  0.750000  0.953950  0.311274  1
  Dy  Dy7  1  0.750000  0.454178  0.184058  1
  Pt  Pt8  1  0.250000  0.247588  0.371998  1
  Pt  Pt9  1  0.250000  0.744674  0.121895  1
  Pt  Pt10  1  0.750000  0.746413  0.618280  1
  Pt  Pt11  1  0.750000  0.261665  0.883365  1
