# generated using pymatgen
data_Rb6TbTe4Cl
_symmetry_space_group_name_H-M   'P 1'
_cell_length_a   12.04603800
_cell_length_b   12.04603807
_cell_length_c   8.66838100
_cell_angle_alpha   90.00000000
_cell_angle_beta   90.00000000
_cell_angle_gamma   119.99999982
_symmetry_Int_Tables_number   1
_chemical_formula_structural   Rb6TbTe4Cl
_chemical_formula_sum   'Rb12 Tb2 Te8 Cl2'
_cell_volume   1089.32403015
_cell_formula_units_Z   2
loop_
 _symmetry_equiv_pos_site_id
 _symmetry_equiv_pos_as_xyz
  1  'x, y, z'
loop_
 _atom_site_type_symbol
 _atom_site_label
 _atom_site_symmetry_multiplicity
 _atom_site_fract_x
 _atom_site_fract_y
 _atom_site_fract_z
 _atom_site_occupancy
  Rb  Rb0  1  0.121044  0.878956  0.509768  1
  Rb  Rb1  1  0.757910  0.878956  0.509768  1
  Rb  Rb2  1  0.943120  0.471560  0.318150  1
  Rb  Rb3  1  0.528440  0.471560  0.318150  1
  Rb  Rb4  1  0.878956  0.757910  0.009768  1
  Rb  Rb5  1  0.242090  0.121044  0.009768  1
  Rb  Rb6  1  0.528440  0.056880  0.318150  1
  Rb  Rb7  1  0.121044  0.242090  0.509768  1
  Rb  Rb8  1  0.878956  0.121044  0.009768  1
  Rb  Rb9  1  0.056880  0.528440  0.818150  1
  Rb  Rb10  1  0.471560  0.943120  0.818150  1
  Rb  Rb11  1  0.471560  0.528440  0.818150  1
  Tb  Tb12  1  0.666667  0.333333  0.714807  1
  Tb  Tb13  1  0.333333  0.666667  0.214807  1
  Te  Te14  1  0.399173  0.199587  0.605569  1
  Te  Te15  1  0.600827  0.800413  0.105569  1
  Te  Te16  1  0.666667  0.333333  0.054141  1
  Te  Te17  1  0.800413  0.600827  0.605569  1
  Te  Te18  1  0.199587  0.399173  0.105569  1
  Te  Te19  1  0.333333  0.666667  0.554141  1
  Te  Te20  1  0.199587  0.800413  0.105569  1
  Te  Te21  1  0.800413  0.199587  0.605569  1
  Cl  Cl22  1  0.000000  0.000000  0.271194  1
  Cl  Cl23  1  0.000000  0.000000  0.771194  1
