# generated using pymatgen
data_Tb6Fe4SiOs7
_symmetry_space_group_name_H-M   'P 1'
_cell_length_a   5.29383224
_cell_length_b   5.24649009
_cell_length_c   12.94089340
_cell_angle_alpha   90.25382192
_cell_angle_beta   89.75209805
_cell_angle_gamma   119.39847463
_symmetry_Int_Tables_number   1
_chemical_formula_structural   Tb6Fe4SiOs7
_chemical_formula_sum   'Tb6 Fe4 Si1 Os7'
_cell_volume   313.13309533
_cell_formula_units_Z   1
loop_
 _symmetry_equiv_pos_site_id
 _symmetry_equiv_pos_as_xyz
  1  'x, y, z'
loop_
 _atom_site_type_symbol
 _atom_site_label
 _atom_site_symmetry_multiplicity
 _atom_site_fract_x
 _atom_site_fract_y
 _atom_site_fract_z
 _atom_site_occupancy
  Tb  Tb0  1  0.333839  0.667263  0.917908  1
  Tb  Tb1  1  0.997232  0.997320  0.249768  1
  Tb  Tb2  1  0.663177  0.336205  0.581215  1
  Tb  Tb3  1  0.336823  0.663795  0.668785  1
  Tb  Tb4  1  0.002769  0.002680  0.000232  1
  Tb  Tb5  1  0.666161  0.332737  0.332092  1
  Fe  Fe6  1  0.500000  0.500000  0.125000  1
  Fe  Fe7  1  0.168165  0.833368  0.461672  1
  Fe  Fe8  1  0.831835  0.166632  0.788328  1
  Fe  Fe9  1  0.500000  0.000000  0.125000  1
  Si  Si10  1  0.000000  0.000000  0.625000  1
  Os  Os11  1  0.161790  0.332797  0.460502  1
  Os  Os12  1  0.838210  0.667203  0.789498  1
  Os  Os13  1  0.334048  0.666254  0.293708  1
  Os  Os14  1  0.665952  0.333746  0.956292  1
  Os  Os15  1  0.000000  0.500000  0.125000  1
  Os  Os16  1  0.672629  0.841404  0.461035  1
  Os  Os17  1  0.327371  0.158596  0.788965  1
