# generated using pymatgen
data_Dy5Co16(P4W)3
_symmetry_space_group_name_H-M   'P 1'
_cell_length_a   12.06819900
_cell_length_b   12.06819833
_cell_length_c   3.70517900
_cell_angle_alpha   90.00000000
_cell_angle_beta   90.00000000
_cell_angle_gamma   119.99999362
_symmetry_Int_Tables_number   1
_chemical_formula_structural   Dy5Co16(P4W)3
_chemical_formula_sum   'Dy5 Co16 P12 W3'
_cell_volume   467.33117709
_cell_formula_units_Z   1
loop_
 _symmetry_equiv_pos_site_id
 _symmetry_equiv_pos_as_xyz
  1  'x, y, z'
loop_
 _atom_site_type_symbol
 _atom_site_label
 _atom_site_symmetry_multiplicity
 _atom_site_fract_x
 _atom_site_fract_y
 _atom_site_fract_z
 _atom_site_occupancy
  Dy  Dy0  1  0.666667  0.333333  0.000000  1
  Dy  Dy1  1  0.333333  0.666667  0.000000  1
  Dy  Dy2  1  0.185086  0.185086  0.500000  1
  Dy  Dy3  1  0.814914  0.000000  0.500000  1
  Dy  Dy4  1  0.000000  0.814914  0.500000  1
  Co  Co5  1  0.823228  0.198691  0.000000  1
  Co  Co6  1  0.801309  0.624537  0.000000  1
  Co  Co7  1  0.375463  0.176772  0.000000  1
  Co  Co8  1  0.198691  0.823228  0.000000  1
  Co  Co9  1  0.624537  0.801309  0.000000  1
  Co  Co10  1  0.176772  0.375463  0.000000  1
  Co  Co11  1  0.644126  0.126966  0.500000  1
  Co  Co12  1  0.873034  0.517160  0.500000  1
  Co  Co13  1  0.482840  0.355874  0.500000  1
  Co  Co14  1  0.126966  0.644126  0.500000  1
  Co  Co15  1  0.517160  0.873034  0.500000  1
  Co  Co16  1  0.355874  0.482840  0.500000  1
  Co  Co17  1  0.718839  0.718839  0.500000  1
  Co  Co18  1  0.281161  0.000000  0.500000  1
  Co  Co19  1  0.000000  0.281161  0.500000  1
  Co  Co20  1  0.000000  0.000000  0.000000  1
  P  P21  1  0.359784  0.359784  0.000000  1
  P  P22  1  0.640216  0.000000  0.000000  1
  P  P23  1  0.000000  0.640216  0.000000  1
  P  P24  1  0.834148  0.313782  0.500000  1
  P  P25  1  0.686218  0.520366  0.500000  1
  P  P26  1  0.479634  0.165852  0.500000  1
  P  P27  1  0.313782  0.834148  0.500000  1
  P  P28  1  0.520366  0.686218  0.500000  1
  P  P29  1  0.165852  0.479634  0.500000  1
  P  P30  1  0.822014  0.822014  0.000000  1
  P  P31  1  0.177986  0.000000  0.000000  1
  P  P32  1  0.000000  0.177986  0.000000  1
  W  W33  1  0.553917  0.553917  0.000000  1
  W  W34  1  0.446083  0.000000  0.000000  1
  W  W35  1  0.000000  0.446083  0.000000  1
