# generated using pymatgen
data_K6ScInSb4
_symmetry_space_group_name_H-M   'P 1'
_cell_length_a   9.80769697
_cell_length_b   9.80769718
_cell_length_c   9.80769680
_cell_angle_alpha   137.14909078
_cell_angle_beta   128.82539593
_cell_angle_gamma   68.89519104
_symmetry_Int_Tables_number   1
_chemical_formula_structural   K6ScInSb4
_chemical_formula_sum   'K6 Sc1 In1 Sb4'
_cell_volume   490.94721267
_cell_formula_units_Z   1
loop_
 _symmetry_equiv_pos_site_id
 _symmetry_equiv_pos_as_xyz
  1  'x, y, z'
loop_
 _atom_site_type_symbol
 _atom_site_label
 _atom_site_symmetry_multiplicity
 _atom_site_fract_x
 _atom_site_fract_y
 _atom_site_fract_z
 _atom_site_occupancy
  K  K0  1  0.007381  0.805933  0.183217  1
  K  K1  1  0.500000  0.750000  0.250000  1
  K  K2  1  0.622717  0.324164  0.316783  1
  K  K3  1  0.377283  0.694067  0.701449  1
  K  K4  1  0.500000  0.250000  0.750000  1
  K  K5  1  0.992619  0.175836  0.798551  1
  Sc  Sc6  1  0.000000  0.250000  0.250000  1
  In  In7  1  0.000000  0.750000  0.750000  1
  Sb  Sb8  1  0.093524  0.394470  0.691550  1
  Sb  Sb9  1  0.906476  0.598025  0.300946  1
  Sb  Sb10  1  0.297079  0.105530  0.199054  1
  Sb  Sb11  1  0.702921  0.901975  0.808450  1
