# generated using pymatgen
data_Sr6Ga2Sn3GeAu6
_symmetry_space_group_name_H-M   'P 1'
_cell_length_a   4.77993500
_cell_length_b   8.30366300
_cell_length_c   23.42438000
_cell_angle_alpha   90.00000000
_cell_angle_beta   90.00000000
_cell_angle_gamma   90.00000000
_symmetry_Int_Tables_number   1
_chemical_formula_structural   Sr6Ga2Sn3GeAu6
_chemical_formula_sum   'Sr12 Ga4 Sn6 Ge2 Au12'
_cell_volume   929.73634984
_cell_formula_units_Z   2
loop_
 _symmetry_equiv_pos_site_id
 _symmetry_equiv_pos_as_xyz
  1  'x, y, z'
loop_
 _atom_site_type_symbol
 _atom_site_label
 _atom_site_symmetry_multiplicity
 _atom_site_fract_x
 _atom_site_fract_y
 _atom_site_fract_z
 _atom_site_occupancy
  Sr  Sr0  1  0.750000  0.212362  0.498616  1
  Sr  Sr1  1  0.250000  0.803687  0.167038  1
  Sr  Sr2  1  0.250000  0.794706  0.502031  1
  Sr  Sr3  1  0.250000  0.782059  0.834312  1
  Sr  Sr4  1  0.250000  0.717941  0.334312  1
  Sr  Sr5  1  0.750000  0.222200  0.834289  1
  Sr  Sr6  1  0.750000  0.287638  0.998616  1
  Sr  Sr7  1  0.750000  0.294824  0.666359  1
  Sr  Sr8  1  0.750000  0.277800  0.334289  1
  Sr  Sr9  1  0.250000  0.696313  0.667038  1
  Sr  Sr10  1  0.250000  0.705294  0.002031  1
  Sr  Sr11  1  0.750000  0.205176  0.166359  1
  Ga  Ga12  1  0.250000  0.421524  0.563995  1
  Ga  Ga13  1  0.250000  0.080267  0.396602  1
  Ga  Ga14  1  0.250000  0.078476  0.063995  1
  Ga  Ga15  1  0.250000  0.419733  0.896602  1
  Sn  Sn16  1  0.750000  0.585055  0.102418  1
  Sn  Sn17  1  0.750000  0.582714  0.231556  1
  Sn  Sn18  1  0.750000  0.584076  0.435958  1
  Sn  Sn19  1  0.750000  0.915924  0.935958  1
  Sn  Sn20  1  0.750000  0.914945  0.602418  1
  Sn  Sn21  1  0.750000  0.917286  0.731556  1
  Ge  Ge22  1  0.250000  0.416508  0.771425  1
  Ge  Ge23  1  0.250000  0.083492  0.271425  1
  Au  Au24  1  0.250000  0.103974  0.590674  1
  Au  Au25  1  0.250000  0.097291  0.741124  1
  Au  Au26  1  0.750000  0.575049  0.906542  1
  Au  Au27  1  0.750000  0.924951  0.406542  1
  Au  Au28  1  0.750000  0.570109  0.565681  1
  Au  Au29  1  0.750000  0.575254  0.762074  1
  Au  Au30  1  0.250000  0.400949  0.429304  1
  Au  Au31  1  0.250000  0.402709  0.241124  1
  Au  Au32  1  0.750000  0.929891  0.065681  1
  Au  Au33  1  0.250000  0.396026  0.090674  1
  Au  Au34  1  0.250000  0.099051  0.929304  1
  Au  Au35  1  0.750000  0.924746  0.262074  1
