# generated using pymatgen
data_Rb4Ho4Bi5Sb3Se20
_symmetry_space_group_name_H-M   'P 1'
_cell_length_a   4.13875900
_cell_length_b   12.38065190
_cell_length_c   22.26977994
_cell_angle_alpha   89.82838276
_cell_angle_beta   90.00000000
_cell_angle_gamma   90.00000000
_symmetry_Int_Tables_number   1
_chemical_formula_structural   Rb4Ho4Bi5Sb3Se20
_chemical_formula_sum   'Rb4 Ho4 Bi5 Sb3 Se20'
_cell_volume   1141.11030828
_cell_formula_units_Z   1
loop_
 _symmetry_equiv_pos_site_id
 _symmetry_equiv_pos_as_xyz
  1  'x, y, z'
loop_
 _atom_site_type_symbol
 _atom_site_label
 _atom_site_symmetry_multiplicity
 _atom_site_fract_x
 _atom_site_fract_y
 _atom_site_fract_z
 _atom_site_occupancy
  Rb  Rb0  1  0.250000  0.488780  0.208907  1
  Rb  Rb1  1  0.750000  0.511486  0.790472  1
  Rb  Rb2  1  0.750000  0.989049  0.290023  1
  Rb  Rb3  1  0.250000  0.010960  0.710119  1
  Ho  Ho4  1  0.250000  0.365401  0.023579  1
  Ho  Ho5  1  0.750000  0.634817  0.976413  1
  Ho  Ho6  1  0.750000  0.865249  0.475533  1
  Ho  Ho7  1  0.250000  0.136074  0.523261  1
  Bi  Bi8  1  0.250000  0.697740  0.626453  1
  Bi  Bi9  1  0.250000  0.594609  0.424036  1
  Bi  Bi10  1  0.750000  0.402964  0.575638  1
  Bi  Bi11  1  0.750000  0.095931  0.074642  1
  Bi  Bi12  1  0.250000  0.904149  0.925311  1
  Sb  Sb13  1  0.250000  0.805654  0.126022  1
  Sb  Sb14  1  0.750000  0.194317  0.873970  1
  Sb  Sb15  1  0.750000  0.304745  0.374132  1
  Se  Se16  1  0.250000  0.811768  0.389787  1
  Se  Se17  1  0.750000  0.186662  0.609654  1
  Se  Se18  1  0.750000  0.311552  0.109958  1
  Se  Se19  1  0.250000  0.688555  0.890148  1
  Se  Se20  1  0.250000  0.251466  0.298866  1
  Se  Se21  1  0.750000  0.754219  0.705248  1
  Se  Se22  1  0.750000  0.750848  0.201152  1
  Se  Se23  1  0.250000  0.248885  0.798905  1
  Se  Se24  1  0.250000  0.354890  0.479841  1
  Se  Se25  1  0.750000  0.644640  0.518344  1
  Se  Se26  1  0.750000  0.855208  0.019423  1
  Se  Se27  1  0.250000  0.144985  0.980744  1
  Se  Se28  1  0.250000  0.019838  0.159404  1
  Se  Se29  1  0.750000  0.980250  0.840756  1
  Se  Se30  1  0.750000  0.520588  0.340217  1
  Se  Se31  1  0.250000  0.473021  0.659710  1
  Se  Se32  1  0.250000  0.583495  0.060056  1
  Se  Se33  1  0.750000  0.416698  0.940009  1
  Se  Se34  1  0.750000  0.083678  0.439677  1
  Se  Se35  1  0.250000  0.916828  0.559590  1
