# generated using pymatgen
data_Hf9Th8Si16Mo3
_symmetry_space_group_name_H-M   'P 1'
_cell_length_a   7.32247904
_cell_length_b   7.32247867
_cell_length_c   13.45015957
_cell_angle_alpha   90.13948595
_cell_angle_beta   90.13948586
_cell_angle_gamma   89.97988001
_symmetry_Int_Tables_number   1
_chemical_formula_structural   Hf9Th8Si16Mo3
_chemical_formula_sum   'Hf9 Th8 Si16 Mo3'
_cell_volume   721.17570762
_cell_formula_units_Z   1
loop_
 _symmetry_equiv_pos_site_id
 _symmetry_equiv_pos_as_xyz
  1  'x, y, z'
loop_
 _atom_site_type_symbol
 _atom_site_label
 _atom_site_symmetry_multiplicity
 _atom_site_fract_x
 _atom_site_fract_y
 _atom_site_fract_z
 _atom_site_occupancy
  Hf  Hf0  1  0.672881  0.327119  0.750000  1
  Hf  Hf1  1  0.149898  0.994745  0.372825  1
  Hf  Hf2  1  0.850846  0.002339  0.875527  1
  Hf  Hf3  1  0.504112  0.652307  0.620907  1
  Hf  Hf4  1  0.347693  0.495888  0.879093  1
  Hf  Hf5  1  0.493467  0.349361  0.124238  1
  Hf  Hf6  1  0.650639  0.506533  0.375762  1
  Hf  Hf7  1  0.997661  0.149154  0.624473  1
  Hf  Hf8  1  0.005255  0.850102  0.127175  1
  Th  Th9  1  0.999844  0.343295  0.216220  1
  Th  Th10  1  0.002895  0.658298  0.715545  1
  Th  Th11  1  0.156435  0.500475  0.465147  1
  Th  Th12  1  0.499525  0.843565  0.034853  1
  Th  Th13  1  0.844576  0.503846  0.967825  1
  Th  Th14  1  0.496154  0.155424  0.532175  1
  Th  Th15  1  0.341702  0.997105  0.784455  1
  Th  Th16  1  0.656705  0.000156  0.283780  1
  Si  Si17  1  0.368117  0.299683  0.315297  1
  Si  Si18  1  0.633632  0.701399  0.814387  1
  Si  Si19  1  0.200310  0.866709  0.564003  1
  Si  Si20  1  0.133291  0.799690  0.935997  1
  Si  Si21  1  0.798166  0.133098  0.065551  1
  Si  Si22  1  0.866902  0.201834  0.434449  1
  Si  Si23  1  0.298601  0.366368  0.685613  1
  Si  Si24  1  0.700317  0.631883  0.184703  1
  Si  Si25  1  0.290740  0.049971  0.183809  1
  Si  Si26  1  0.709191  0.949665  0.682577  1
  Si  Si27  1  0.449545  0.789929  0.432510  1
  Si  Si28  1  0.210071  0.550455  0.067490  1
  Si  Si29  1  0.547361  0.208673  0.935300  1
  Si  Si30  1  0.791327  0.452639  0.564700  1
  Si  Si31  1  0.050335  0.290809  0.817423  1
  Si  Si32  1  0.950029  0.709260  0.316191  1
  Mo  Mo33  1  0.171271  0.168848  0.001499  1
  Mo  Mo34  1  0.831152  0.828729  0.498501  1
  Mo  Mo35  1  0.329354  0.670646  0.250000  1
