# generated using pymatgen
data_Th4IrAu3
_symmetry_space_group_name_H-M   'P 1'
_cell_length_a   4.59073600
_cell_length_b   5.95652696
_cell_length_c   7.60003396
_cell_angle_alpha   88.21174667
_cell_angle_beta   90.00000000
_cell_angle_gamma   90.00000000
_symmetry_Int_Tables_number   1
_chemical_formula_structural   Th4IrAu3
_chemical_formula_sum   'Th4 Ir1 Au3'
_cell_volume   207.72052005
_cell_formula_units_Z   1
loop_
 _symmetry_equiv_pos_site_id
 _symmetry_equiv_pos_as_xyz
  1  'x, y, z'
loop_
 _atom_site_type_symbol
 _atom_site_label
 _atom_site_symmetry_multiplicity
 _atom_site_fract_x
 _atom_site_fract_y
 _atom_site_fract_z
 _atom_site_occupancy
  Th  Th0  1  0.250000  0.366690  0.676164  1
  Th  Th1  1  0.250000  0.135470  0.184363  1
  Th  Th2  1  0.750000  0.658071  0.332155  1
  Th  Th3  1  0.750000  0.856169  0.802570  1
  Ir  Ir4  1  0.250000  0.828634  0.548034  1
  Au  Au5  1  0.250000  0.650394  0.042607  1
  Au  Au6  1  0.750000  0.160696  0.456243  1
  Au  Au7  1  0.750000  0.343875  0.957865  1
