# generated using pymatgen
data_CsRh(SeO3)2
_symmetry_space_group_name_H-M   'P 1'
_cell_length_a   7.69569005
_cell_length_b   7.69568994
_cell_length_c   18.61503300
_cell_angle_alpha   73.47201338
_cell_angle_beta   73.47201361
_cell_angle_gamma   42.63967103
_symmetry_Int_Tables_number   1
_chemical_formula_structural   CsRh(SeO3)2
_chemical_formula_sum   'Cs4 Rh4 Se8 O24'
_cell_volume   711.10968233
_cell_formula_units_Z   4
loop_
 _symmetry_equiv_pos_site_id
 _symmetry_equiv_pos_as_xyz
  1  'x, y, z'
loop_
 _atom_site_type_symbol
 _atom_site_label
 _atom_site_symmetry_multiplicity
 _atom_site_fract_x
 _atom_site_fract_y
 _atom_site_fract_z
 _atom_site_occupancy
  Cs  Cs0  1  0.948486  0.948486  0.707797  1
  Cs  Cs1  1  0.051514  0.051514  0.292203  1
  Cs  Cs2  1  0.000000  0.000000  0.000000  1
  Cs  Cs3  1  0.500000  0.500000  0.500000  1
  Rh  Rh4  1  0.344917  0.344917  0.873431  1
  Rh  Rh5  1  0.655083  0.655083  0.126569  1
  Rh  Rh6  1  0.701224  0.701224  0.634563  1
  Rh  Rh7  1  0.298776  0.298776  0.365437  1
  Se  Se8  1  0.757690  0.757690  0.943391  1
  Se  Se9  1  0.242310  0.242310  0.056609  1
  Se  Se10  1  0.555744  0.555744  0.820241  1
  Se  Se11  1  0.444256  0.444256  0.179759  1
  Se  Se12  1  0.243634  0.243634  0.734972  1
  Se  Se13  1  0.756366  0.756366  0.265028  1
  Se  Se14  1  0.792379  0.792379  0.453463  1
  Se  Se15  1  0.207621  0.207621  0.546537  1
  O  O16  1  0.647596  0.647596  0.017461  1
  O  O17  1  0.352404  0.352404  0.982539  1
  O  O18  1  0.489593  0.977884  0.893098  1
  O  O19  1  0.977884  0.489593  0.893098  1
  O  O20  1  0.510407  0.022116  0.106902  1
  O  O21  1  0.022116  0.510407  0.106902  1
  O  O22  1  0.241435  0.692747  0.849338  1
  O  O23  1  0.692747  0.241435  0.849338  1
  O  O24  1  0.758565  0.307253  0.150662  1
  O  O25  1  0.307253  0.758565  0.150662  1
  O  O26  1  0.575023  0.575023  0.723674  1
  O  O27  1  0.424977  0.424977  0.276326  1
  O  O28  1  0.039762  0.516269  0.671640  1
  O  O29  1  0.516269  0.039762  0.671640  1
  O  O30  1  0.960238  0.483731  0.328360  1
  O  O31  1  0.483731  0.960238  0.328360  1
  O  O32  1  0.350183  0.350183  0.761105  1
  O  O33  1  0.649817  0.649817  0.238895  1
  O  O34  1  0.892180  0.372891  0.589395  1
  O  O35  1  0.372891  0.892180  0.589395  1
  O  O36  1  0.107820  0.627109  0.410605  1
  O  O37  1  0.627109  0.107820  0.410605  1
  O  O38  1  0.821720  0.821720  0.538301  1
  O  O39  1  0.178280  0.178280  0.461699  1
