# generated using pymatgen
data_DyY5Al24Os7Ru
_symmetry_space_group_name_H-M   'P 1'
_cell_length_a   8.83025703
_cell_length_b   8.82900868
_cell_length_c   9.55389301
_cell_angle_alpha   89.99999749
_cell_angle_beta   90.00387075
_cell_angle_gamma   119.99531918
_symmetry_Int_Tables_number   1
_chemical_formula_structural   DyY5Al24Os7Ru
_chemical_formula_sum   'Dy1 Y5 Al24 Os7 Ru1'
_cell_volume   645.08475006
_cell_formula_units_Z   1
loop_
 _symmetry_equiv_pos_site_id
 _symmetry_equiv_pos_as_xyz
  1  'x, y, z'
loop_
 _atom_site_type_symbol
 _atom_site_label
 _atom_site_symmetry_multiplicity
 _atom_site_fract_x
 _atom_site_fract_y
 _atom_site_fract_z
 _atom_site_occupancy
  Dy  Dy0  1  0.386136  0.193068  0.750549  1
  Y  Y1  1  0.192902  0.806891  0.249468  1
  Y  Y2  1  0.192902  0.386011  0.249468  1
  Y  Y3  1  0.614131  0.807065  0.249470  1
  Y  Y4  1  0.806942  0.193105  0.750531  1
  Y  Y5  1  0.806942  0.613836  0.750531  1
  Al  Al6  1  0.560574  0.439443  0.249771  1
  Al  Al7  1  0.560574  0.121132  0.249771  1
  Al  Al8  1  0.878923  0.439462  0.249781  1
  Al  Al9  1  0.439331  0.560485  0.750223  1
  Al  Al10  1  0.439331  0.878846  0.750223  1
  Al  Al11  1  0.121106  0.560552  0.750223  1
  Al  Al12  1  0.324733  0.162366  0.423779  1
  Al  Al13  1  0.837636  0.162419  0.423734  1
  Al  Al14  1  0.837636  0.675216  0.423734  1
  Al  Al15  1  0.675241  0.837621  0.576257  1
  Al  Al16  1  0.162428  0.837661  0.576332  1
  Al  Al17  1  0.162428  0.324768  0.576332  1
  Al  Al18  1  0.675170  0.837585  0.923842  1
  Al  Al19  1  0.162439  0.837626  0.923763  1
  Al  Al20  1  0.162439  0.324813  0.923763  1
  Al  Al21  1  0.324800  0.162400  0.076127  1
  Al  Al22  1  0.837614  0.162444  0.076173  1
  Al  Al23  1  0.837614  0.675170  0.076173  1
  Al  Al24  1  0.666713  0.333356  0.515608  1
  Al  Al25  1  0.333211  0.666606  0.484488  1
  Al  Al26  1  0.333225  0.666613  0.015577  1
  Al  Al27  1  0.666723  0.333361  0.984331  1
  Al  Al28  1  0.000032  0.000016  0.248286  1
  Al  Al29  1  0.000208  0.000104  0.751712  1
  Os  Os30  1  0.000002  0.000001  0.499941  1
  Os  Os31  1  0.499969  0.499929  0.500047  1
  Os  Os32  1  0.499969  0.000040  0.500047  1
  Os  Os33  1  0.000002  0.500001  0.499994  1
  Os  Os34  1  0.499968  0.499910  0.999936  1
  Os  Os35  1  0.499968  0.000058  0.999936  1
  Os  Os36  1  0.000036  0.500018  0.000022  1
  Ru  Ru37  1  0.000004  0.000002  0.000057  1
