# generated using pymatgen
data_Nd2Y6Cd2CoNi
_symmetry_space_group_name_H-M   'P 1'
_cell_length_a   9.62848715
_cell_length_b   9.62848700
_cell_length_c   9.64357900
_cell_angle_alpha   59.94813277
_cell_angle_beta   59.94813330
_cell_angle_gamma   59.93795253
_symmetry_Int_Tables_number   1
_chemical_formula_structural   Nd2Y6Cd2CoNi
_chemical_formula_sum   'Nd4 Y12 Cd4 Co2 Ni2'
_cell_volume   631.38561735
_cell_formula_units_Z   2
loop_
 _symmetry_equiv_pos_site_id
 _symmetry_equiv_pos_as_xyz
  1  'x, y, z'
loop_
 _atom_site_type_symbol
 _atom_site_label
 _atom_site_symmetry_multiplicity
 _atom_site_fract_x
 _atom_site_fract_y
 _atom_site_fract_z
 _atom_site_occupancy
  Nd  Nd0  1  0.598261  0.598261  0.601957  1
  Nd  Nd1  1  0.598261  0.598261  0.201520  1
  Nd  Nd2  1  0.596754  0.204650  0.599298  1
  Nd  Nd3  1  0.204650  0.596754  0.599298  1
  Y  Y4  1  0.066481  0.436325  0.437723  1
  Y  Y5  1  0.436325  0.066481  0.059471  1
  Y  Y6  1  0.436325  0.066481  0.437723  1
  Y  Y7  1  0.066481  0.436325  0.059471  1
  Y  Y8  1  0.436903  0.436903  0.063097  1
  Y  Y9  1  0.062546  0.062546  0.437454  1
  Y  Y10  1  0.185468  0.812346  0.815809  1
  Y  Y11  1  0.812346  0.185468  0.186377  1
  Y  Y12  1  0.812346  0.185468  0.815809  1
  Y  Y13  1  0.185468  0.812346  0.186377  1
  Y  Y14  1  0.813430  0.813430  0.186570  1
  Y  Y15  1  0.185824  0.185824  0.814176  1
  Cd  Cd16  1  0.830738  0.830738  0.831163  1
  Cd  Cd17  1  0.830738  0.830738  0.507359  1
  Cd  Cd18  1  0.832132  0.504163  0.831852  1
  Cd  Cd19  1  0.504163  0.832132  0.831852  1
  Co  Co20  1  0.392166  0.392166  0.389928  1
  Co  Co21  1  0.392166  0.392166  0.825743  1
  Ni  Ni22  1  0.392029  0.827997  0.389987  1
  Ni  Ni23  1  0.827997  0.392029  0.389987  1
