# generated using pymatgen
data_LiLa5HoOsBr12
_symmetry_space_group_name_H-M   'P 1'
_cell_length_a   9.78262220
_cell_length_b   9.57023703
_cell_length_c   9.68561834
_cell_angle_alpha   108.47077553
_cell_angle_beta   108.56637805
_cell_angle_gamma   107.18326984
_symmetry_Int_Tables_number   1
_chemical_formula_structural   LiLa5HoOsBr12
_chemical_formula_sum   'Li1 La5 Ho1 Os1 Br12'
_cell_volume   731.84053552
_cell_formula_units_Z   1
loop_
 _symmetry_equiv_pos_site_id
 _symmetry_equiv_pos_as_xyz
  1  'x, y, z'
loop_
 _atom_site_type_symbol
 _atom_site_label
 _atom_site_symmetry_multiplicity
 _atom_site_fract_x
 _atom_site_fract_y
 _atom_site_fract_z
 _atom_site_occupancy
  Li  Li0  1  0.501672  0.499618  0.498414  1
  La  La1  1  0.029690  0.308387  0.114885  1
  La  La2  1  0.128987  0.038089  0.328236  1
  La  La3  1  0.879943  0.964911  0.676107  1
  La  La4  1  0.966819  0.691009  0.885729  1
  La  La5  1  0.658552  0.870676  0.962354  1
  Ho  Ho6  1  0.323195  0.123678  0.037583  1
  Os  Os7  1  0.999498  0.000951  0.002565  1
  Br  Br8  1  0.674049  0.210562  0.067243  1
  Br  Br9  1  0.382210  0.453814  0.170375  1
  Br  Br10  1  0.070074  0.683312  0.215686  1
  Br  Br11  1  0.794593  0.934339  0.318991  1
  Br  Br12  1  0.469625  0.179385  0.368622  1
  Br  Br13  1  0.185810  0.387678  0.471508  1
  Br  Br14  1  0.817332  0.613741  0.529549  1
  Br  Br15  1  0.532201  0.817425  0.613192  1
  Br  Br16  1  0.222203  0.073818  0.701952  1
  Br  Br17  1  0.931926  0.317548  0.785524  1
  Br  Br18  1  0.616850  0.527887  0.815517  1
  Br  Br19  1  0.314774  0.803175  0.935972  1
