# generated using pymatgen
data_Ho19LuBi12
_symmetry_space_group_name_H-M   'P 1'
_cell_length_a   8.22371284
_cell_length_b   9.49522104
_cell_length_c   11.99821118
_cell_angle_alpha   90.00022219
_cell_angle_beta   90.05085885
_cell_angle_gamma   90.01033389
_symmetry_Int_Tables_number   1
_chemical_formula_structural   Ho19LuBi12
_chemical_formula_sum   'Ho19 Lu1 Bi12'
_cell_volume   936.89158852
_cell_formula_units_Z   1
loop_
 _symmetry_equiv_pos_site_id
 _symmetry_equiv_pos_as_xyz
  1  'x, y, z'
loop_
 _atom_site_type_symbol
 _atom_site_label
 _atom_site_symmetry_multiplicity
 _atom_site_fract_x
 _atom_site_fract_y
 _atom_site_fract_z
 _atom_site_occupancy
  Ho  Ho0  1  0.353780  0.749606  0.216296  1
  Ho  Ho1  1  0.852848  0.749407  0.283211  1
  Ho  Ho2  1  0.646388  0.249759  0.783429  1
  Ho  Ho3  1  0.146579  0.249873  0.716462  1
  Ho  Ho4  1  0.191815  0.935741  0.440950  1
  Ho  Ho5  1  0.308461  0.064415  0.941130  1
  Ho  Ho6  1  0.808113  0.435765  0.558958  1
  Ho  Ho7  1  0.307948  0.435768  0.940946  1
  Ho  Ho8  1  0.808206  0.064326  0.559079  1
  Ho  Ho9  1  0.692001  0.935375  0.058923  1
  Ho  Ho10  1  0.191823  0.564296  0.440914  1
  Ho  Ho11  1  0.476095  0.249858  0.488579  1
  Ho  Ho12  1  0.975825  0.250087  0.011355  1
  Ho  Ho13  1  0.523882  0.749982  0.511271  1
  Ho  Ho14  1  0.023143  0.749581  0.988838  1
  Ho  Ho15  1  0.313949  0.250009  0.218159  1
  Ho  Ho16  1  0.814207  0.250001  0.281883  1
  Ho  Ho17  1  0.685797  0.749689  0.782070  1
  Ho  Ho18  1  0.185859  0.749975  0.718201  1
  Lu  Lu19  1  0.692156  0.565847  0.059061  1
  Bi  Bi20  1  0.405949  0.749432  0.957677  1
  Bi  Bi21  1  0.905592  0.750042  0.542445  1
  Bi  Bi22  1  0.594944  0.252146  0.042812  1
  Bi  Bi23  1  0.094326  0.250007  0.457473  1
  Bi  Bi24  1  0.566463  0.995929  0.325617  1
  Bi  Bi25  1  0.066133  0.503821  0.174128  1
  Bi  Bi26  1  0.433832  0.496013  0.674373  1
  Bi  Bi27  1  0.933513  0.003826  0.825831  1
  Bi  Bi28  1  0.433650  0.003838  0.674308  1
  Bi  Bi29  1  0.933773  0.495869  0.825914  1
  Bi  Bi30  1  0.566607  0.503818  0.325545  1
  Bi  Bi31  1  0.066343  0.995900  0.174159  1
