# generated using pymatgen
data_Tb4Dy12Cd3AgIr4
_symmetry_space_group_name_H-M   'P 1'
_cell_length_a   9.64028189
_cell_length_b   9.63754309
_cell_length_c   9.63754214
_cell_angle_alpha   59.93893056
_cell_angle_beta   59.92627307
_cell_angle_gamma   59.92627535
_symmetry_Int_Tables_number   1
_chemical_formula_structural   Tb4Dy12Cd3AgIr4
_chemical_formula_sum   'Tb4 Dy12 Cd3 Ag1 Ir4'
_cell_volume   632.15285207
_cell_formula_units_Z   1
loop_
 _symmetry_equiv_pos_site_id
 _symmetry_equiv_pos_as_xyz
  1  'x, y, z'
loop_
 _atom_site_type_symbol
 _atom_site_label
 _atom_site_symmetry_multiplicity
 _atom_site_fract_x
 _atom_site_fract_y
 _atom_site_fract_z
 _atom_site_occupancy
  Tb  Tb0  1  0.811789  0.186132  0.811740  1
  Tb  Tb1  1  0.187068  0.811725  0.187009  1
  Tb  Tb2  1  0.811789  0.811740  0.186132  1
  Tb  Tb3  1  0.187068  0.187009  0.811725  1
  Dy  Dy4  1  0.598516  0.598513  0.598513  1
  Dy  Dy5  1  0.599884  0.599999  0.202464  1
  Dy  Dy6  1  0.599884  0.202464  0.599999  1
  Dy  Dy7  1  0.202351  0.599943  0.599943  1
  Dy  Dy8  1  0.060189  0.439142  0.439142  1
  Dy  Dy9  1  0.437652  0.060405  0.060405  1
  Dy  Dy10  1  0.439335  0.060108  0.439216  1
  Dy  Dy11  1  0.060264  0.437691  0.060344  1
  Dy  Dy12  1  0.439335  0.439216  0.060108  1
  Dy  Dy13  1  0.060264  0.060344  0.437691  1
  Dy  Dy14  1  0.186468  0.811368  0.811368  1
  Dy  Dy15  1  0.811346  0.187434  0.187434  1
  Cd  Cd16  1  0.831220  0.831435  0.508322  1
  Cd  Cd17  1  0.831220  0.508322  0.831435  1
  Cd  Cd18  1  0.508487  0.831156  0.831156  1
  Ag  Ag19  1  0.833240  0.832819  0.832819  1
  Ir  Ir20  1  0.391978  0.391614  0.391614  1
  Ir  Ir21  1  0.392499  0.393061  0.825751  1
  Ir  Ir22  1  0.392499  0.825751  0.393061  1
  Ir  Ir23  1  0.825659  0.392611  0.392611  1
