# generated using pymatgen
data_CaYHo(GeRh2)3
_symmetry_space_group_name_H-M   'P 1'
_cell_length_a   5.61213300
_cell_length_b   5.61213260
_cell_length_c   15.50329700
_cell_angle_alpha   90.00000000
_cell_angle_beta   90.00000000
_cell_angle_gamma   120.00000824
_symmetry_Int_Tables_number   1
_chemical_formula_structural   CaYHo(GeRh2)3
_chemical_formula_sum   'Ca2 Y2 Ho2 Ge6 Rh12'
_cell_volume   422.87356909
_cell_formula_units_Z   2
loop_
 _symmetry_equiv_pos_site_id
 _symmetry_equiv_pos_as_xyz
  1  'x, y, z'
loop_
 _atom_site_type_symbol
 _atom_site_label
 _atom_site_symmetry_multiplicity
 _atom_site_fract_x
 _atom_site_fract_y
 _atom_site_fract_z
 _atom_site_occupancy
  Ca  Ca0  1  0.333333  0.666667  0.749859  1
  Ca  Ca1  1  0.666667  0.333333  0.250141  1
  Y  Y2  1  0.666667  0.333333  0.041905  1
  Y  Y3  1  0.333333  0.666667  0.958095  1
  Ho  Ho4  1  0.333333  0.666667  0.541656  1
  Ho  Ho5  1  0.666667  0.333333  0.458344  1
  Ge  Ge6  1  0.000000  0.000000  0.250110  1
  Ge  Ge7  1  0.000000  0.000000  0.749890  1
  Ge  Ge8  1  0.333333  0.666667  0.250052  1
  Ge  Ge9  1  0.666667  0.333333  0.749948  1
  Ge  Ge10  1  0.000000  0.000000  0.000000  1
  Ge  Ge11  1  0.000000  0.000000  0.500000  1
  Rh  Rh12  1  0.168559  0.337117  0.126600  1
  Rh  Rh13  1  0.831441  0.662883  0.873400  1
  Rh  Rh14  1  0.662883  0.831441  0.126600  1
  Rh  Rh15  1  0.831356  0.662712  0.626139  1
  Rh  Rh16  1  0.337117  0.168559  0.873400  1
  Rh  Rh17  1  0.168644  0.337288  0.373861  1
  Rh  Rh18  1  0.168559  0.831441  0.126600  1
  Rh  Rh19  1  0.337288  0.168644  0.626139  1
  Rh  Rh20  1  0.831441  0.168559  0.873400  1
  Rh  Rh21  1  0.662712  0.831356  0.373861  1
  Rh  Rh22  1  0.831356  0.168644  0.626139  1
  Rh  Rh23  1  0.168644  0.831356  0.373861  1
