# generated using pymatgen
data_Nb4Co6SiOs
_symmetry_space_group_name_H-M   'P 1'
_cell_length_a   4.85244000
_cell_length_b   4.85244060
_cell_length_c   7.79389000
_cell_angle_alpha   90.00000000
_cell_angle_beta   90.00000000
_cell_angle_gamma   119.99999593
_symmetry_Int_Tables_number   1
_chemical_formula_structural   Nb4Co6SiOs
_chemical_formula_sum   'Nb4 Co6 Si1 Os1'
_cell_volume   158.92979498
_cell_formula_units_Z   1
loop_
 _symmetry_equiv_pos_site_id
 _symmetry_equiv_pos_as_xyz
  1  'x, y, z'
loop_
 _atom_site_type_symbol
 _atom_site_label
 _atom_site_symmetry_multiplicity
 _atom_site_fract_x
 _atom_site_fract_y
 _atom_site_fract_z
 _atom_site_occupancy
  Nb  Nb0  1  0.666667  0.333333  0.920254  1
  Nb  Nb1  1  0.333333  0.666667  0.455106  1
  Nb  Nb2  1  0.666667  0.333333  0.544894  1
  Nb  Nb3  1  0.333333  0.666667  0.079746  1
  Co  Co4  1  0.170555  0.829445  0.760733  1
  Co  Co5  1  0.658891  0.829445  0.760733  1
  Co  Co6  1  0.829445  0.170555  0.239267  1
  Co  Co7  1  0.170555  0.341109  0.760733  1
  Co  Co8  1  0.829445  0.658891  0.239267  1
  Co  Co9  1  0.341109  0.170555  0.239267  1
  Si  Si10  1  0.000000  0.000000  0.000000  1
  Os  Os11  1  0.000000  0.000000  0.500000  1
