# generated using pymatgen
data_La4U(BN3)2
_symmetry_space_group_name_H-M   'P 1'
_cell_length_a   6.49414105
_cell_length_b   6.49414025
_cell_length_c   8.82107247
_cell_angle_alpha   74.62799583
_cell_angle_beta   74.62799675
_cell_angle_gamma   32.44754590
_symmetry_Int_Tables_number   1
_chemical_formula_structural   La4U(BN3)2
_chemical_formula_sum   'La4 U1 B2 N6'
_cell_volume   191.84077698
_cell_formula_units_Z   1
loop_
 _symmetry_equiv_pos_site_id
 _symmetry_equiv_pos_as_xyz
  1  'x, y, z'
loop_
 _atom_site_type_symbol
 _atom_site_label
 _atom_site_symmetry_multiplicity
 _atom_site_fract_x
 _atom_site_fract_y
 _atom_site_fract_z
 _atom_site_occupancy
  La  La0  1  0.622412  0.622412  0.623453  1
  La  La1  1  0.310510  0.310510  0.816351  1
  La  La2  1  0.689490  0.689490  0.183649  1
  La  La3  1  0.377588  0.377588  0.376547  1
  U  U4  1  0.000000  0.000000  0.000000  1
  B  B5  1  0.054146  0.054146  0.407822  1
  B  B6  1  0.945854  0.945854  0.592178  1
  N  N7  1  0.026413  0.026413  0.250118  1
  N  N8  1  0.373640  0.373640  0.070796  1
  N  N9  1  0.825814  0.825814  0.595675  1
  N  N10  1  0.973587  0.973587  0.749882  1
  N  N11  1  0.626360  0.626360  0.929204  1
  N  N12  1  0.174186  0.174186  0.404325  1
