# generated using pymatgen
data_Sr2Li(SnAs)6
_symmetry_space_group_name_H-M   'P 1'
_cell_length_a   7.20775915
_cell_length_b   7.20776006
_cell_length_c   9.47435887
_cell_angle_alpha   82.63730123
_cell_angle_beta   82.63730089
_cell_angle_gamma   119.97148068
_symmetry_Int_Tables_number   1
_chemical_formula_structural   Sr2Li(SnAs)6
_chemical_formula_sum   'Sr2 Li1 Sn6 As6'
_cell_volume   412.15874313
_cell_formula_units_Z   1
loop_
 _symmetry_equiv_pos_site_id
 _symmetry_equiv_pos_as_xyz
  1  'x, y, z'
loop_
 _atom_site_type_symbol
 _atom_site_label
 _atom_site_symmetry_multiplicity
 _atom_site_fract_x
 _atom_site_fract_y
 _atom_site_fract_z
 _atom_site_occupancy
  Sr  Sr0  1  0.666636  0.333364  0.000000  1
  Sr  Sr1  1  0.333364  0.666636  0.000000  1
  Li  Li2  1  0.000000  0.000000  0.000000  1
  Sn  Sn3  1  0.539587  0.875901  0.370273  1
  Sn  Sn4  1  0.213419  0.213419  0.370318  1
  Sn  Sn5  1  0.875901  0.539587  0.370273  1
  Sn  Sn6  1  0.460413  0.124099  0.629727  1
  Sn  Sn7  1  0.124099  0.460413  0.629727  1
  Sn  Sn8  1  0.786581  0.786581  0.629682  1
  As  As9  1  0.397143  0.397143  0.782781  1
  As  As10  1  0.072488  0.747255  0.782218  1
  As  As11  1  0.747255  0.072488  0.782218  1
  As  As12  1  0.602857  0.602857  0.217219  1
  As  As13  1  0.252745  0.927512  0.217782  1
  As  As14  1  0.927512  0.252745  0.217782  1
