# generated using pymatgen
data_Ho4MnAl18Pd5
_symmetry_space_group_name_H-M   'P 1'
_cell_length_a   7.59015068
_cell_length_b   7.59015063
_cell_length_c   9.47444723
_cell_angle_alpha   89.88894758
_cell_angle_beta   89.88894604
_cell_angle_gamma   119.45407414
_symmetry_Int_Tables_number   1
_chemical_formula_structural   Ho4MnAl18Pd5
_chemical_formula_sum   'Ho4 Mn1 Al18 Pd5'
_cell_volume   475.27504018
_cell_formula_units_Z   1
loop_
 _symmetry_equiv_pos_site_id
 _symmetry_equiv_pos_as_xyz
  1  'x, y, z'
loop_
 _atom_site_type_symbol
 _atom_site_label
 _atom_site_symmetry_multiplicity
 _atom_site_fract_x
 _atom_site_fract_y
 _atom_site_fract_z
 _atom_site_occupancy
  Ho  Ho0  1  0.995063  0.670324  0.248279  1
  Ho  Ho1  1  0.004937  0.329676  0.751721  1
  Ho  Ho2  1  0.670324  0.995063  0.248279  1
  Ho  Ho3  1  0.329676  0.004937  0.751721  1
  Mn  Mn4  1  0.000000  0.000000  0.000000  1
  Al  Al5  1  0.124323  0.124323  0.242063  1
  Al  Al6  1  0.875677  0.875677  0.757937  1
  Al  Al7  1  0.999008  0.324538  0.072371  1
  Al  Al8  1  0.000992  0.675462  0.927629  1
  Al  Al9  1  0.998531  0.664523  0.578430  1
  Al  Al10  1  0.335477  0.001469  0.421570  1
  Al  Al11  1  0.001469  0.335477  0.421570  1
  Al  Al12  1  0.664523  0.998531  0.578430  1
  Al  Al13  1  0.675462  0.000992  0.927629  1
  Al  Al14  1  0.324538  0.999008  0.072371  1
  Al  Al15  1  0.333838  0.333838  0.558270  1
  Al  Al16  1  0.666162  0.666163  0.441730  1
  Al  Al17  1  0.676368  0.676369  0.052499  1
  Al  Al18  1  0.323632  0.323632  0.947501  1
  Al  Al19  1  0.340174  0.546365  0.248442  1
  Al  Al20  1  0.659826  0.453635  0.751558  1
  Al  Al21  1  0.546365  0.340174  0.248442  1
  Al  Al22  1  0.453635  0.659826  0.751558  1
  Pd  Pd23  1  0.672055  0.327945  0.000000  1
  Pd  Pd24  1  0.327945  0.672055  0.000000  1
  Pd  Pd25  1  0.327893  0.672107  0.500000  1
  Pd  Pd26  1  0.672107  0.327893  0.500000  1
  Pd  Pd27  1  0.000000  0.000000  0.500000  1
