# generated using pymatgen
data_Y2Sc2CrCoB12
_symmetry_space_group_name_H-M   'P 1'
_cell_length_a   3.45479600
_cell_length_b   8.96218744
_cell_length_c   11.35591041
_cell_angle_alpha   89.76186799
_cell_angle_beta   90.00000000
_cell_angle_gamma   90.00000000
_symmetry_Int_Tables_number   1
_chemical_formula_structural   Y2Sc2CrCoB12
_chemical_formula_sum   'Y4 Sc4 Cr2 Co2 B24'
_cell_volume   351.60467214
_cell_formula_units_Z   2
loop_
 _symmetry_equiv_pos_site_id
 _symmetry_equiv_pos_as_xyz
  1  'x, y, z'
loop_
 _atom_site_type_symbol
 _atom_site_label
 _atom_site_symmetry_multiplicity
 _atom_site_fract_x
 _atom_site_fract_y
 _atom_site_fract_z
 _atom_site_occupancy
  Y  Y0  1  0.000000  0.821114  0.085651  1
  Y  Y1  1  0.000000  0.178886  0.914349  1
  Y  Y2  1  0.000000  0.322998  0.415686  1
  Y  Y3  1  0.000000  0.677002  0.584314  1
  Sc  Sc4  1  0.000000  0.445444  0.129365  1
  Sc  Sc5  1  0.000000  0.554556  0.870635  1
  Sc  Sc6  1  0.000000  0.942939  0.371201  1
  Sc  Sc7  1  0.000000  0.057061  0.628799  1
  Cr  Cr8  1  0.000000  0.641993  0.316606  1
  Cr  Cr9  1  0.000000  0.358007  0.683394  1
  Co  Co10  1  0.000000  0.141147  0.181858  1
  Co  Co11  1  0.000000  0.858853  0.818142  1
  B  B12  1  0.500000  0.056122  0.068354  1
  B  B13  1  0.500000  0.943878  0.931646  1
  B  B14  1  0.500000  0.554571  0.431450  1
  B  B15  1  0.500000  0.445429  0.568550  1
  B  B16  1  0.500000  0.251910  0.083079  1
  B  B17  1  0.500000  0.748090  0.916921  1
  B  B18  1  0.500000  0.752784  0.417298  1
  B  B19  1  0.500000  0.247216  0.582702  1
  B  B20  1  0.500000  0.292497  0.235111  1
  B  B21  1  0.500000  0.707503  0.764889  1
  B  B22  1  0.500000  0.795739  0.264506  1
  B  B23  1  0.500000  0.204261  0.735494  1
  B  B24  1  0.500000  0.129907  0.316397  1
  B  B25  1  0.500000  0.870093  0.683603  1
  B  B26  1  0.500000  0.630184  0.182749  1
  B  B27  1  0.500000  0.369816  0.817251  1
  B  B28  1  0.500000  0.482162  0.285430  1
  B  B29  1  0.500000  0.517838  0.714570  1
  B  B30  1  0.500000  0.985179  0.213260  1
  B  B31  1  0.500000  0.014821  0.786740  1
  B  B32  1  0.500000  0.097988  0.473124  1
  B  B33  1  0.500000  0.902012  0.526876  1
  B  B34  1  0.500000  0.598730  0.025585  1
  B  B35  1  0.500000  0.401270  0.974415  1
