# generated using pymatgen
data_Ca2DyPuO6
_symmetry_space_group_name_H-M   'P 1'
_cell_length_a   6.79824826
_cell_length_b   6.79045891
_cell_length_c   6.77253700
_cell_angle_alpha   91.52869401
_cell_angle_beta   91.28935163
_cell_angle_gamma   91.24228092
_symmetry_Int_Tables_number   1
_chemical_formula_structural   Ca2DyPuO6
_chemical_formula_sum   'Ca4 Dy2 Pu2 O12'
_cell_volume   312.37409226
_cell_formula_units_Z   2
loop_
 _symmetry_equiv_pos_site_id
 _symmetry_equiv_pos_as_xyz
  1  'x, y, z'
loop_
 _atom_site_type_symbol
 _atom_site_label
 _atom_site_symmetry_multiplicity
 _atom_site_fract_x
 _atom_site_fract_y
 _atom_site_fract_z
 _atom_site_occupancy
  Ca  Ca0  1  0.553083  0.249902  0.060863  1
  Ca  Ca1  1  0.250295  0.060987  0.554595  1
  Ca  Ca2  1  0.063462  0.556151  0.252253  1
  Ca  Ca3  1  0.443086  0.748998  0.939485  1
  Dy  Dy4  1  0.938439  0.440699  0.745320  1
  Dy  Dy5  1  0.752279  0.937012  0.441936  1
  Pu  Pu6  1  0.997080  0.997555  0.998173  1
  Pu  Pu7  1  0.499570  0.499165  0.500642  1
  O  O8  1  0.288459  0.061053  0.925361  1
  O  O9  1  0.056802  0.920619  0.303805  1
  O  O10  1  0.925432  0.298703  0.053435  1
  O  O11  1  0.703807  0.935249  0.089690  1
  O  O12  1  0.922873  0.089293  0.688527  1
  O  O13  1  0.069173  0.695162  0.926628  1
  O  O14  1  0.193726  0.408303  0.547275  1
  O  O15  1  0.414794  0.540676  0.206944  1
  O  O16  1  0.472296  0.802407  0.585646  1
  O  O17  1  0.597523  0.458202  0.794679  1
  O  O18  1  0.809483  0.600275  0.472550  1
  O  O19  1  0.548336  0.199590  0.412191  1
