# generated using pymatgen
data_Tb8Al(PdPt)12
_symmetry_space_group_name_H-M   'P 1'
_cell_length_a   8.37917901
_cell_length_b   8.37632400
_cell_length_c   8.39723501
_cell_angle_alpha   90.00000000
_cell_angle_beta   89.99349734
_cell_angle_gamma   90.00000000
_symmetry_Int_Tables_number   1
_chemical_formula_structural   Tb8Al(PdPt)12
_chemical_formula_sum   'Tb8 Al1 Pd12 Pt12'
_cell_volume   589.37436435
_cell_formula_units_Z   1
loop_
 _symmetry_equiv_pos_site_id
 _symmetry_equiv_pos_as_xyz
  1  'x, y, z'
loop_
 _atom_site_type_symbol
 _atom_site_label
 _atom_site_symmetry_multiplicity
 _atom_site_fract_x
 _atom_site_fract_y
 _atom_site_fract_z
 _atom_site_occupancy
  Tb  Tb0  1  0.251271  0.251286  0.250915  1
  Tb  Tb1  1  0.747908  0.747997  0.748484  1
  Tb  Tb2  1  0.748999  0.749381  0.250656  1
  Tb  Tb3  1  0.747908  0.252003  0.748484  1
  Tb  Tb4  1  0.252391  0.252612  0.748261  1
  Tb  Tb5  1  0.251271  0.748714  0.250915  1
  Tb  Tb6  1  0.252391  0.747388  0.748261  1
  Tb  Tb7  1  0.748999  0.250619  0.250656  1
  Al  Al8  1  0.999904  0.000000  0.005690  1
  Pd  Pd9  1  0.500136  0.000000  0.260599  1
  Pd  Pd10  1  0.262204  0.000000  0.500532  1
  Pd  Pd11  1  0.500088  0.000000  0.737762  1
  Pd  Pd12  1  0.737826  0.000000  0.500613  1
  Pd  Pd13  1  0.999607  0.500000  0.260522  1
  Pd  Pd14  1  0.999583  0.500000  0.737910  1
  Pd  Pd15  1  0.747637  0.500000  0.499596  1
  Pd  Pd16  1  0.500046  0.254144  0.499614  1
  Pd  Pd17  1  0.500046  0.745856  0.499614  1
  Pd  Pd18  1  0.500307  0.500000  0.253116  1
  Pd  Pd19  1  0.500340  0.500000  0.746938  1
  Pd  Pd20  1  0.999821  0.000000  0.709495  1
  Pt  Pt21  1  0.261323  0.500000  0.999924  1
  Pt  Pt22  1  0.738623  0.500000  0.999956  1
  Pt  Pt23  1  0.000036  0.262263  0.499816  1
  Pt  Pt24  1  0.500185  0.259749  0.000146  1
  Pt  Pt25  1  0.000036  0.737737  0.499816  1
  Pt  Pt26  1  0.500185  0.740251  0.000146  1
  Pt  Pt27  1  0.251694  0.500000  0.499622  1
  Pt  Pt28  1  0.291650  0.000000  0.998040  1
  Pt  Pt29  1  0.708194  0.000000  0.997962  1
  Pt  Pt30  1  0.999779  0.292556  0.998310  1
  Pt  Pt31  1  0.999779  0.707444  0.998310  1
  Pt  Pt32  1  0.999833  0.000000  0.299318  1
