# generated using pymatgen
data_Er2NbOs3
_symmetry_space_group_name_H-M   'P 1'
_cell_length_a   5.52737500
_cell_length_b   5.52737511
_cell_length_c   8.56939200
_cell_angle_alpha   90.00000000
_cell_angle_beta   90.00000000
_cell_angle_gamma   120.00000535
_symmetry_Int_Tables_number   1
_chemical_formula_structural   Er2NbOs3
_chemical_formula_sum   'Er4 Nb2 Os6'
_cell_volume   226.73495871
_cell_formula_units_Z   2
loop_
 _symmetry_equiv_pos_site_id
 _symmetry_equiv_pos_as_xyz
  1  'x, y, z'
loop_
 _atom_site_type_symbol
 _atom_site_label
 _atom_site_symmetry_multiplicity
 _atom_site_fract_x
 _atom_site_fract_y
 _atom_site_fract_z
 _atom_site_occupancy
  Er  Er0  1  0.333333  0.666667  0.433969  1
  Er  Er1  1  0.666667  0.333333  0.566031  1
  Er  Er2  1  0.666667  0.333333  0.933969  1
  Er  Er3  1  0.333333  0.666667  0.066031  1
  Nb  Nb4  1  0.000000  0.000000  0.500000  1
  Nb  Nb5  1  0.000000  0.000000  0.000000  1
  Os  Os6  1  0.825777  0.174223  0.250000  1
  Os  Os7  1  0.825777  0.651554  0.250000  1
  Os  Os8  1  0.348446  0.174223  0.250000  1
  Os  Os9  1  0.174223  0.825777  0.750000  1
  Os  Os10  1  0.174223  0.348446  0.750000  1
  Os  Os11  1  0.651554  0.825777  0.750000  1
