# generated using pymatgen
data_Ca6Al4Ga5Si
_symmetry_space_group_name_H-M   'P 1'
_cell_length_a   5.92046046
_cell_length_b   5.92046027
_cell_length_c   14.65123500
_cell_angle_alpha   90.00000000
_cell_angle_beta   90.00000000
_cell_angle_gamma   134.69893026
_symmetry_Int_Tables_number   1
_chemical_formula_structural   Ca6Al4Ga5Si
_chemical_formula_sum   'Ca6 Al4 Ga5 Si1'
_cell_volume   365.03987941
_cell_formula_units_Z   1
loop_
 _symmetry_equiv_pos_site_id
 _symmetry_equiv_pos_as_xyz
  1  'x, y, z'
loop_
 _atom_site_type_symbol
 _atom_site_label
 _atom_site_symmetry_multiplicity
 _atom_site_fract_x
 _atom_site_fract_y
 _atom_site_fract_z
 _atom_site_occupancy
  Ca  Ca0  1  0.867129  0.132871  0.750000  1
  Ca  Ca1  1  0.132330  0.867670  0.250000  1
  Ca  Ca2  1  0.414512  0.585488  0.111338  1
  Ca  Ca3  1  0.586869  0.413131  0.885100  1
  Ca  Ca4  1  0.586869  0.413131  0.614900  1
  Ca  Ca5  1  0.414512  0.585488  0.388662  1
  Al  Al6  1  0.709690  0.290310  0.407240  1
  Al  Al7  1  0.288495  0.711505  0.596387  1
  Al  Al8  1  0.288495  0.711505  0.903613  1
  Al  Al9  1  0.709690  0.290310  0.092760  1
  Ga  Ga10  1  0.835766  0.164234  0.250000  1
  Ga  Ga11  1  0.888126  0.111874  0.538161  1
  Ga  Ga12  1  0.110068  0.889932  0.465681  1
  Ga  Ga13  1  0.110068  0.889932  0.034319  1
  Ga  Ga14  1  0.888126  0.111874  0.961839  1
  Si  Si15  1  0.169255  0.830745  0.750000  1
