# generated using pymatgen
data_Sm2MgSi6(Pd3Pt)5
_symmetry_space_group_name_H-M   'P 1'
_cell_length_a   8.71519028
_cell_length_b   8.73191430
_cell_length_c   8.74853800
_cell_angle_alpha   59.93700324
_cell_angle_beta   59.87334309
_cell_angle_gamma   59.82747034
_symmetry_Int_Tables_number   1
_chemical_formula_structural   Sm2MgSi6(Pd3Pt)5
_chemical_formula_sum   'Sm2 Mg1 Si6 Pd15 Pt5'
_cell_volume   469.47744897
_cell_formula_units_Z   1
loop_
 _symmetry_equiv_pos_site_id
 _symmetry_equiv_pos_as_xyz
  1  'x, y, z'
loop_
 _atom_site_type_symbol
 _atom_site_label
 _atom_site_symmetry_multiplicity
 _atom_site_fract_x
 _atom_site_fract_y
 _atom_site_fract_z
 _atom_site_occupancy
  Sm  Sm0  1  0.249449  0.250291  0.250130  1
  Sm  Sm1  1  0.750292  0.750358  0.749675  1
  Mg  Mg2  1  0.000008  0.999978  0.000007  1
  Si  Si3  1  0.732145  0.267638  0.266351  1
  Si  Si4  1  0.268378  0.732137  0.732580  1
  Si  Si5  1  0.268378  0.732137  0.266905  1
  Si  Si6  1  0.732145  0.267638  0.733866  1
  Si  Si7  1  0.267324  0.266990  0.732843  1
  Si  Si8  1  0.731789  0.732928  0.267641  1
  Pd  Pd9  1  0.617506  0.152370  0.615062  1
  Pd  Pd10  1  0.847463  0.382678  0.384929  1
  Pd  Pd11  1  0.151767  0.616187  0.616023  1
  Pd  Pd12  1  0.342903  0.000581  0.999674  1
  Pd  Pd13  1  0.657043  0.000325  0.999587  1
  Pd  Pd14  1  0.999818  0.343568  0.656910  1
  Pd  Pd15  1  0.999760  0.657172  0.343225  1
  Pd  Pd16  1  0.999818  0.343568  0.999705  1
  Pd  Pd17  1  0.657043  0.000325  0.343045  1
  Pd  Pd18  1  0.999760  0.657172  0.999843  1
  Pd  Pd19  1  0.342903  0.000581  0.656842  1
  Pd  Pd20  1  0.999622  0.000567  0.343484  1
  Pd  Pd21  1  0.999622  0.000567  0.656327  1
  Pd  Pd22  1  0.657488  0.343304  0.999604  1
  Pd  Pd23  1  0.342764  0.657597  0.999820  1
  Pt  Pt24  1  0.383714  0.383947  0.386616  1
  Pt  Pt25  1  0.617464  0.614512  0.614329  1
  Pt  Pt26  1  0.383714  0.383947  0.845722  1
  Pt  Pt27  1  0.382455  0.846424  0.385560  1
  Pt  Pt28  1  0.617464  0.614512  0.153695  1
