# generated using pymatgen
data_Dy20OsPdRh10
_symmetry_space_group_name_H-M   'P 1'
_cell_length_a   10.88855700
_cell_length_b   10.88892717
_cell_length_c   6.39402600
_cell_angle_alpha   89.98637184
_cell_angle_beta   89.99831615
_cell_angle_gamma   90.04153656
_symmetry_Int_Tables_number   1
_chemical_formula_structural   Dy20OsPdRh10
_chemical_formula_sum   'Dy20 Os1 Pd1 Rh10'
_cell_volume   758.10558038
_cell_formula_units_Z   1
loop_
 _symmetry_equiv_pos_site_id
 _symmetry_equiv_pos_as_xyz
  1  'x, y, z'
loop_
 _atom_site_type_symbol
 _atom_site_label
 _atom_site_symmetry_multiplicity
 _atom_site_fract_x
 _atom_site_fract_y
 _atom_site_fract_z
 _atom_site_occupancy
  Dy  Dy0  1  0.292453  0.088404  0.376420  1
  Dy  Dy1  1  0.292909  0.916034  0.883211  1
  Dy  Dy2  1  0.706700  0.088058  0.882752  1
  Dy  Dy3  1  0.707696  0.912140  0.376485  1
  Dy  Dy4  1  0.590484  0.794549  0.883532  1
  Dy  Dy5  1  0.588384  0.206965  0.375630  1
  Dy  Dy6  1  0.413389  0.794609  0.371150  1
  Dy  Dy7  1  0.412410  0.207188  0.882521  1
  Dy  Dy8  1  0.208124  0.407149  0.620073  1
  Dy  Dy9  1  0.206810  0.586928  0.126511  1
  Dy  Dy10  1  0.791330  0.411125  0.121640  1
  Dy  Dy11  1  0.789926  0.589649  0.621649  1
  Dy  Dy12  1  0.911164  0.709151  0.120140  1
  Dy  Dy13  1  0.909970  0.290367  0.621293  1
  Dy  Dy14  1  0.085534  0.709945  0.620754  1
  Dy  Dy15  1  0.088309  0.290683  0.120269  1
  Dy  Dy16  1  0.999866  0.000423  0.497864  1
  Dy  Dy17  1  0.999681  0.000047  0.998235  1
  Dy  Dy18  1  0.502319  0.498215  0.999208  1
  Dy  Dy19  1  0.501870  0.497919  0.497416  1
  Os  Os20  1  0.499875  0.999966  0.128056  1
  Pd  Pd21  1  0.345190  0.653395  0.749814  1
  Rh  Rh22  1  0.848211  0.155606  0.249842  1
  Rh  Rh23  1  0.847742  0.845390  0.749389  1
  Rh  Rh24  1  0.152494  0.154452  0.749948  1
  Rh  Rh25  1  0.152308  0.843221  0.249927  1
  Rh  Rh26  1  0.655021  0.347151  0.749807  1
  Rh  Rh27  1  0.654514  0.651664  0.249644  1
  Rh  Rh28  1  0.344582  0.349492  0.250005  1
  Rh  Rh29  1  0.499850  0.999433  0.626671  1
  Rh  Rh30  1  0.000633  0.500160  0.873908  1
  Rh  Rh31  1  0.000253  0.500521  0.376235  1
