# generated using pymatgen
data_YTi2(ZnAu)2
_symmetry_space_group_name_H-M   'P 1'
_cell_length_a   5.59815193
_cell_length_b   5.59815269
_cell_length_c   5.59815290
_cell_angle_alpha   100.83152633
_cell_angle_beta   102.28382391
_cell_angle_gamma   126.82145580
_symmetry_Int_Tables_number   1
_chemical_formula_structural   YTi2(ZnAu)2
_chemical_formula_sum   'Y1 Ti2 Zn2 Au2'
_cell_volume   125.57412919
_cell_formula_units_Z   1
loop_
 _symmetry_equiv_pos_site_id
 _symmetry_equiv_pos_as_xyz
  1  'x, y, z'
loop_
 _atom_site_type_symbol
 _atom_site_label
 _atom_site_symmetry_multiplicity
 _atom_site_fract_x
 _atom_site_fract_y
 _atom_site_fract_z
 _atom_site_occupancy
  Y  Y0  1  0.996069  0.000000  0.996069  1
  Ti  Ti1  1  0.251148  0.750062  0.501086  1
  Ti  Ti2  1  0.751024  0.249938  0.501086  1
  Zn  Zn3  1  0.693818  0.308420  0.002238  1
  Zn  Zn4  1  0.693818  0.691580  0.385400  1
  Au  Au5  1  0.307061  0.299617  0.606676  1
  Au  Au6  1  0.307061  0.700383  0.007445  1
