# generated using pymatgen
data_NaTb6RhI12
_symmetry_space_group_name_H-M   'P 1'
_cell_length_a   9.83471054
_cell_length_b   9.83470898
_cell_length_c   9.83471011
_cell_angle_alpha   107.09163170
_cell_angle_beta   107.09162435
_cell_angle_gamma   107.09162056
_symmetry_Int_Tables_number   1
_chemical_formula_structural   NaTb6RhI12
_chemical_formula_sum   'Na1 Tb6 Rh1 I12'
_cell_volume   790.20344533
_cell_formula_units_Z   1
loop_
 _symmetry_equiv_pos_site_id
 _symmetry_equiv_pos_as_xyz
  1  'x, y, z'
loop_
 _atom_site_type_symbol
 _atom_site_label
 _atom_site_symmetry_multiplicity
 _atom_site_fract_x
 _atom_site_fract_y
 _atom_site_fract_z
 _atom_site_occupancy
  Na  Na0  1  0.500000  0.500000  0.500000  1
  Tb  Tb1  1  0.899596  0.971718  0.696121  1
  Tb  Tb2  1  0.971718  0.696121  0.899596  1
  Tb  Tb3  1  0.696121  0.899596  0.971718  1
  Tb  Tb4  1  0.100404  0.028282  0.303879  1
  Tb  Tb5  1  0.028282  0.303879  0.100404  1
  Tb  Tb6  1  0.303879  0.100404  0.028282  1
  Rh  Rh7  1  0.000000  0.000000  0.000000  1
  I  I8  1  0.548047  0.857374  0.626973  1
  I  I9  1  0.857374  0.626973  0.548047  1
  I  I10  1  0.626973  0.548047  0.857374  1
  I  I11  1  0.451953  0.142626  0.373027  1
  I  I12  1  0.142626  0.373027  0.451953  1
  I  I13  1  0.373027  0.451953  0.142626  1
  I  I14  1  0.679886  0.223867  0.072888  1
  I  I15  1  0.223867  0.072888  0.679886  1
  I  I16  1  0.072888  0.679886  0.223867  1
  I  I17  1  0.320114  0.776133  0.927112  1
  I  I18  1  0.776133  0.927112  0.320114  1
  I  I19  1  0.927112  0.320114  0.776133  1
