# generated using pymatgen
data_Er3Tl2Cd3Ag
_symmetry_space_group_name_H-M   'P 1'
_cell_length_a   7.56789600
_cell_length_b   7.56789534
_cell_length_c   4.53725800
_cell_angle_alpha   90.00000000
_cell_angle_beta   90.00000000
_cell_angle_gamma   119.99999416
_symmetry_Int_Tables_number   1
_chemical_formula_structural   Er3Tl2Cd3Ag
_chemical_formula_sum   'Er3 Tl2 Cd3 Ag1'
_cell_volume   225.04760979
_cell_formula_units_Z   1
loop_
 _symmetry_equiv_pos_site_id
 _symmetry_equiv_pos_as_xyz
  1  'x, y, z'
loop_
 _atom_site_type_symbol
 _atom_site_label
 _atom_site_symmetry_multiplicity
 _atom_site_fract_x
 _atom_site_fract_y
 _atom_site_fract_z
 _atom_site_occupancy
  Er  Er0  1  0.413909  0.413909  0.500000  1
  Er  Er1  1  0.586091  0.000000  0.500000  1
  Er  Er2  1  0.000000  0.586091  0.500000  1
  Tl  Tl3  1  0.666667  0.333333  0.000000  1
  Tl  Tl4  1  0.333333  0.666667  0.000000  1
  Cd  Cd5  1  0.762765  0.762765  0.000000  1
  Cd  Cd6  1  0.237235  0.000000  0.000000  1
  Cd  Cd7  1  0.000000  0.237235  0.000000  1
  Ag  Ag8  1  0.000000  0.000000  0.500000  1
