# generated using pymatgen
data_TbNp3(B6Mo)2
_symmetry_space_group_name_H-M   'P 1'
_cell_length_a   3.65535800
_cell_length_b   9.30362209
_cell_length_c   11.36134300
_cell_angle_alpha   89.99187702
_cell_angle_beta   90.00000000
_cell_angle_gamma   90.00000000
_symmetry_Int_Tables_number   1
_chemical_formula_structural   TbNp3(B6Mo)2
_chemical_formula_sum   'Tb2 Np6 B24 Mo4'
_cell_volume   386.37733789
_cell_formula_units_Z   2
loop_
 _symmetry_equiv_pos_site_id
 _symmetry_equiv_pos_as_xyz
  1  'x, y, z'
loop_
 _atom_site_type_symbol
 _atom_site_label
 _atom_site_symmetry_multiplicity
 _atom_site_fract_x
 _atom_site_fract_y
 _atom_site_fract_z
 _atom_site_occupancy
  Tb  Tb0  1  0.000000  0.338044  0.407669  1
  Tb  Tb1  1  0.000000  0.661956  0.592331  1
  Np  Np2  1  0.000000  0.838469  0.092802  1
  Np  Np3  1  0.000000  0.161531  0.907198  1
  Np  Np4  1  0.000000  0.958830  0.400023  1
  Np  Np5  1  0.000000  0.041170  0.599977  1
  Np  Np6  1  0.000000  0.458767  0.099826  1
  Np  Np7  1  0.000000  0.541233  0.900174  1
  B  B8  1  0.500000  0.552651  0.431313  1
  B  B9  1  0.500000  0.447349  0.568687  1
  B  B10  1  0.500000  0.051378  0.067568  1
  B  B11  1  0.500000  0.948622  0.932432  1
  B  B12  1  0.500000  0.745946  0.423393  1
  B  B13  1  0.500000  0.254054  0.576607  1
  B  B14  1  0.500000  0.245030  0.075786  1
  B  B15  1  0.500000  0.754970  0.924214  1
  B  B16  1  0.500000  0.806928  0.273733  1
  B  B17  1  0.500000  0.193072  0.726267  1
  B  B18  1  0.500000  0.305554  0.224445  1
  B  B19  1  0.500000  0.694446  0.775555  1
  B  B20  1  0.500000  0.645932  0.186566  1
  B  B21  1  0.500000  0.354068  0.813434  1
  B  B22  1  0.500000  0.144461  0.312529  1
  B  B23  1  0.500000  0.855539  0.687471  1
  B  B24  1  0.500000  0.987534  0.220910  1
  B  B25  1  0.500000  0.012466  0.779090  1
  B  B26  1  0.500000  0.489070  0.278433  1
  B  B27  1  0.500000  0.510930  0.721567  1
  B  B28  1  0.500000  0.641691  0.039093  1
  B  B29  1  0.500000  0.358309  0.960907  1
  B  B30  1  0.500000  0.137979  0.461530  1
  B  B31  1  0.500000  0.862021  0.538470  1
  Mo  Mo32  1  0.000000  0.649965  0.315616  1
  Mo  Mo33  1  0.000000  0.350035  0.684384  1
  Mo  Mo34  1  0.000000  0.144766  0.178670  1
  Mo  Mo35  1  0.000000  0.855234  0.821330  1
