# generated using pymatgen
data_Zr2Ga(Co2P)6
_symmetry_space_group_name_H-M   'P 1'
_cell_length_a   8.98611939
_cell_length_b   8.98272878
_cell_length_c   3.55776000
_cell_angle_alpha   90.00000000
_cell_angle_beta   90.00000000
_cell_angle_gamma   120.04608175
_symmetry_Int_Tables_number   1
_chemical_formula_structural   Zr2Ga(Co2P)6
_chemical_formula_sum   'Zr2 Ga1 Co12 P6'
_cell_volume   248.59128475
_cell_formula_units_Z   1
loop_
 _symmetry_equiv_pos_site_id
 _symmetry_equiv_pos_as_xyz
  1  'x, y, z'
loop_
 _atom_site_type_symbol
 _atom_site_label
 _atom_site_symmetry_multiplicity
 _atom_site_fract_x
 _atom_site_fract_y
 _atom_site_fract_z
 _atom_site_occupancy
  Zr  Zr0  1  0.333201  0.666682  0.000000  1
  Zr  Zr1  1  0.666625  0.333050  0.500000  1
  Ga  Ga2  1  0.000155  0.000160  0.000000  1
  Co  Co3  1  0.440280  0.064579  0.000000  1
  Co  Co4  1  0.935452  0.375828  0.000000  1
  Co  Co5  1  0.624166  0.559782  0.000000  1
  Co  Co6  1  0.388796  0.441722  0.500000  1
  Co  Co7  1  0.558368  0.947053  0.500000  1
  Co  Co8  1  0.052987  0.611294  0.500000  1
  Co  Co9  1  0.165954  0.294942  0.000000  1
  Co  Co10  1  0.705093  0.871107  0.000000  1
  Co  Co11  1  0.128752  0.833786  0.000000  1
  Co  Co12  1  0.250883  0.110788  0.500000  1
  Co  Co13  1  0.889287  0.140303  0.500000  1
  Co  Co14  1  0.860142  0.749135  0.500000  1
  P  P15  1  0.115912  0.406032  0.500000  1
  P  P16  1  0.593924  0.709854  0.500000  1
  P  P17  1  0.290022  0.884203  0.500000  1
  P  P18  1  0.408009  0.292017  0.000000  1
  P  P19  1  0.708139  0.115846  0.000000  1
  P  P20  1  0.883852  0.591838  0.000000  1
