# generated using pymatgen
data_DyY5Al24(CoOs3)2
_symmetry_space_group_name_H-M   'P 1'
_cell_length_a   8.77189600
_cell_length_b   8.77151428
_cell_length_c   9.52746800
_cell_angle_alpha   90.00000000
_cell_angle_beta   90.00000000
_cell_angle_gamma   120.00143958
_symmetry_Int_Tables_number   1
_chemical_formula_structural   DyY5Al24(CoOs3)2
_chemical_formula_sum   'Dy1 Y5 Al24 Co2 Os6'
_cell_volume   634.84818035
_cell_formula_units_Z   1
loop_
 _symmetry_equiv_pos_site_id
 _symmetry_equiv_pos_as_xyz
  1  'x, y, z'
loop_
 _atom_site_type_symbol
 _atom_site_label
 _atom_site_symmetry_multiplicity
 _atom_site_fract_x
 _atom_site_fract_y
 _atom_site_fract_z
 _atom_site_occupancy
  Dy  Dy0  1  0.193686  0.387373  0.250000  1
  Y  Y1  1  0.806333  0.612665  0.750000  1
  Y  Y2  1  0.612592  0.806274  0.250000  1
  Y  Y3  1  0.387339  0.193660  0.750000  1
  Y  Y4  1  0.193681  0.806274  0.250000  1
  Y  Y5  1  0.806322  0.193660  0.750000  1
  Al  Al6  1  0.333318  0.666637  0.015801  1
  Al  Al7  1  0.666660  0.333320  0.984241  1
  Al  Al8  1  0.666660  0.333320  0.515759  1
  Al  Al9  1  0.333318  0.666637  0.484199  1
  Al  Al10  1  0.159680  0.319361  0.575223  1
  Al  Al11  1  0.840326  0.680650  0.424734  1
  Al  Al12  1  0.680643  0.840326  0.575263  1
  Al  Al13  1  0.840326  0.680650  0.075266  1
  Al  Al14  1  0.319345  0.159696  0.424699  1
  Al  Al15  1  0.159680  0.319361  0.924777  1
  Al  Al16  1  0.159681  0.840326  0.575263  1
  Al  Al17  1  0.319345  0.159696  0.075301  1
  Al  Al18  1  0.840352  0.159696  0.424699  1
  Al  Al19  1  0.680643  0.840326  0.924737  1
  Al  Al20  1  0.840352  0.159696  0.075301  1
  Al  Al21  1  0.159681  0.840326  0.924737  1
  Al  Al22  1  0.561577  0.123154  0.250000  1
  Al  Al23  1  0.438426  0.876850  0.750000  1
  Al  Al24  1  0.876871  0.438399  0.250000  1
  Al  Al25  1  0.123148  0.561572  0.750000  1
  Al  Al26  1  0.561527  0.438399  0.250000  1
  Al  Al27  1  0.438425  0.561572  0.750000  1
  Al  Al28  1  0.000079  0.000159  0.250000  1
  Al  Al29  1  0.000002  0.000005  0.750000  1
  Co  Co30  1  0.000000  0.999999  0.999982  1
  Co  Co31  1  0.000000  0.999999  0.500018  1
  Os  Os32  1  0.500001  0.000002  0.999983  1
  Os  Os33  1  0.000028  0.499989  0.000038  1
  Os  Os34  1  0.500001  0.000002  0.500017  1
  Os  Os35  1  0.499960  0.499989  0.000038  1
  Os  Os36  1  0.000028  0.499989  0.499962  1
  Os  Os37  1  0.499960  0.499989  0.499962  1
