# generated using pymatgen
data_Dy2Sc3S7
_symmetry_space_group_name_H-M   'P 1'
_cell_length_a   6.37989686
_cell_length_b   6.37989633
_cell_length_c   11.25998200
_cell_angle_alpha   76.20680366
_cell_angle_beta   76.20679559
_cell_angle_gamma   33.59047397
_symmetry_Int_Tables_number   1
_chemical_formula_structural   Dy2Sc3S7
_chemical_formula_sum   'Dy2 Sc3 S7'
_cell_volume   245.57559831
_cell_formula_units_Z   1
loop_
 _symmetry_equiv_pos_site_id
 _symmetry_equiv_pos_as_xyz
  1  'x, y, z'
loop_
 _atom_site_type_symbol
 _atom_site_label
 _atom_site_symmetry_multiplicity
 _atom_site_fract_x
 _atom_site_fract_y
 _atom_site_fract_z
 _atom_site_occupancy
  Dy  Dy0  1  0.299955  0.299955  0.808763  1
  Dy  Dy1  1  0.700045  0.700045  0.191237  1
  Sc  Sc2  1  0.000000  0.000000  0.000000  1
  Sc  Sc3  1  0.111360  0.111360  0.574932  1
  Sc  Sc4  1  0.888640  0.888640  0.425068  1
  S  S5  1  0.500000  0.500000  0.500000  1
  S  S6  1  0.653572  0.653572  0.950873  1
  S  S7  1  0.346428  0.346428  0.049127  1
  S  S8  1  0.969315  0.969315  0.783551  1
  S  S9  1  0.030685  0.030685  0.216449  1
  S  S10  1  0.261723  0.261723  0.360104  1
  S  S11  1  0.738277  0.738277  0.639896  1
