# generated using pymatgen
data_PrDy2Pa(Al3Rh)6
_symmetry_space_group_name_H-M   'P 1'
_cell_length_a   7.60269873
_cell_length_b   7.58601691
_cell_length_c   9.46328700
_cell_angle_alpha   90.00000000
_cell_angle_beta   90.00000000
_cell_angle_gamma   119.44016524
_symmetry_Int_Tables_number   1
_chemical_formula_structural   PrDy2Pa(Al3Rh)6
_chemical_formula_sum   'Pr1 Dy2 Pa1 Al18 Rh6'
_cell_volume   475.30968383
_cell_formula_units_Z   1
loop_
 _symmetry_equiv_pos_site_id
 _symmetry_equiv_pos_as_xyz
  1  'x, y, z'
loop_
 _atom_site_type_symbol
 _atom_site_label
 _atom_site_symmetry_multiplicity
 _atom_site_fract_x
 _atom_site_fract_y
 _atom_site_fract_z
 _atom_site_occupancy
  Pr  Pr0  1  0.672356  0.994606  0.750000  1
  Dy  Dy1  1  0.005686  0.328655  0.250000  1
  Dy  Dy2  1  0.327780  0.003983  0.250000  1
  Pa  Pa3  1  0.995481  0.672158  0.750000  1
  Al  Al4  1  0.134500  0.130694  0.750000  1
  Al  Al5  1  0.873956  0.873883  0.250000  1
  Al  Al6  1  0.002896  0.335526  0.572632  1
  Al  Al7  1  0.999190  0.664124  0.420999  1
  Al  Al8  1  0.999190  0.664124  0.079001  1
  Al  Al9  1  0.336305  0.003157  0.927145  1
  Al  Al10  1  0.002896  0.335526  0.927368  1
  Al  Al11  1  0.664579  0.000182  0.079701  1
  Al  Al12  1  0.664579  0.000182  0.420299  1
  Al  Al13  1  0.336305  0.003157  0.572855  1
  Al  Al14  1  0.332270  0.332149  0.054886  1
  Al  Al15  1  0.664150  0.664587  0.954809  1
  Al  Al16  1  0.664150  0.664587  0.545191  1
  Al  Al17  1  0.332270  0.332149  0.445114  1
  Al  Al18  1  0.335737  0.545690  0.750000  1
  Al  Al19  1  0.658951  0.447980  0.250000  1
  Al  Al20  1  0.549175  0.345854  0.750000  1
  Al  Al21  1  0.448495  0.658896  0.250000  1
  Rh  Rh22  1  0.673201  0.329796  0.500788  1
  Rh  Rh23  1  0.325762  0.671333  0.500624  1
  Rh  Rh24  1  0.325762  0.671333  0.999376  1
  Rh  Rh25  1  0.673201  0.329796  0.999212  1
  Rh  Rh26  1  0.000589  0.997945  0.501344  1
  Rh  Rh27  1  0.000589  0.997945  0.998656  1
