# generated using pymatgen
data_Sc3GaSn2Pt2Rh
_symmetry_space_group_name_H-M   'P 1'
_cell_length_a   7.50681900
_cell_length_b   7.48584673
_cell_length_c   6.94305984
_cell_angle_alpha   90.05853825
_cell_angle_beta   90.00000000
_cell_angle_gamma   120.09272359
_symmetry_Int_Tables_number   1
_chemical_formula_structural   Sc3GaSn2Pt2Rh
_chemical_formula_sum   'Sc6 Ga2 Sn4 Pt4 Rh2'
_cell_volume   337.57600850
_cell_formula_units_Z   2
loop_
 _symmetry_equiv_pos_site_id
 _symmetry_equiv_pos_as_xyz
  1  'x, y, z'
loop_
 _atom_site_type_symbol
 _atom_site_label
 _atom_site_symmetry_multiplicity
 _atom_site_fract_x
 _atom_site_fract_y
 _atom_site_fract_z
 _atom_site_occupancy
  Sc  Sc0  1  0.390089  0.005463  0.243451  1
  Sc  Sc1  1  0.606402  0.594552  0.242592  1
  Sc  Sc2  1  0.999585  0.399268  0.243270  1
  Sc  Sc3  1  0.384626  0.994537  0.756549  1
  Sc  Sc4  1  0.600317  0.600732  0.756730  1
  Sc  Sc5  1  0.011850  0.405448  0.757408  1
  Ga  Ga6  1  0.278821  0.279358  0.999918  1
  Ga  Ga7  1  0.999462  0.720642  0.000082  1
  Sn  Sn8  1  0.998255  0.735962  0.500009  1
  Sn  Sn9  1  0.739796  0.000000  0.500000  1
  Sn  Sn10  1  0.262294  0.264038  0.499991  1
  Sn  Sn11  1  0.721656  0.000000  0.000000  1
  Pt  Pt12  1  0.665786  0.339570  0.991403  1
  Pt  Pt13  1  0.334160  0.668875  0.491049  1
  Pt  Pt14  1  0.326214  0.660430  0.008597  1
  Pt  Pt15  1  0.665285  0.331125  0.508951  1
  Rh  Rh16  1  0.007633  0.999864  0.777679  1
  Rh  Rh17  1  0.007769  0.000136  0.222321  1
