# generated using pymatgen
data_HoTm4(In2Pt)2
_symmetry_space_group_name_H-M   'P 1'
_cell_length_a   3.57970300
_cell_length_b   8.10402100
_cell_length_c   18.12920500
_cell_angle_alpha   90.00000000
_cell_angle_beta   90.00000000
_cell_angle_gamma   90.00000000
_symmetry_Int_Tables_number   1
_chemical_formula_structural   HoTm4(In2Pt)2
_chemical_formula_sum   'Ho2 Tm8 In8 Pt4'
_cell_volume   525.92802468
_cell_formula_units_Z   2
loop_
 _symmetry_equiv_pos_site_id
 _symmetry_equiv_pos_as_xyz
  1  'x, y, z'
loop_
 _atom_site_type_symbol
 _atom_site_label
 _atom_site_symmetry_multiplicity
 _atom_site_fract_x
 _atom_site_fract_y
 _atom_site_fract_z
 _atom_site_occupancy
  Ho  Ho0  1  0.000000  0.000000  0.000000  1
  Ho  Ho1  1  0.000000  0.500000  0.500000  1
  Tm  Tm2  1  0.000000  0.116670  0.414633  1
  Tm  Tm3  1  0.000000  0.883330  0.585367  1
  Tm  Tm4  1  0.000000  0.383330  0.914633  1
  Tm  Tm5  1  0.000000  0.616670  0.085367  1
  Tm  Tm6  1  0.000000  0.243380  0.220675  1
  Tm  Tm7  1  0.000000  0.756620  0.779325  1
  Tm  Tm8  1  0.000000  0.256620  0.720675  1
  Tm  Tm9  1  0.000000  0.743380  0.279325  1
  In  In10  1  0.500000  0.423327  0.350930  1
  In  In11  1  0.500000  0.576673  0.649070  1
  In  In12  1  0.500000  0.076673  0.850930  1
  In  In13  1  0.500000  0.923327  0.149070  1
  In  In14  1  0.500000  0.293233  0.066410  1
  In  In15  1  0.500000  0.706767  0.933590  1
  In  In16  1  0.500000  0.206767  0.566410  1
  In  In17  1  0.500000  0.793233  0.433590  1
  Pt  Pt18  1  0.500000  0.025425  0.303356  1
  Pt  Pt19  1  0.500000  0.974575  0.696644  1
  Pt  Pt20  1  0.500000  0.474575  0.803356  1
  Pt  Pt21  1  0.500000  0.525425  0.196644  1
