# generated using pymatgen
data_Y6In(Ga3Co8)2
_symmetry_space_group_name_H-M   'P 1'
_cell_length_a   8.56803100
_cell_length_b   8.56739694
_cell_length_c   8.56718000
_cell_angle_alpha   119.99917009
_cell_angle_beta   90.00000000
_cell_angle_gamma   119.99415081
_symmetry_Int_Tables_number   1
_chemical_formula_structural   Y6In(Ga3Co8)2
_chemical_formula_sum   'Y6 In1 Ga6 Co16'
_cell_volume   444.73022805
_cell_formula_units_Z   1
loop_
 _symmetry_equiv_pos_site_id
 _symmetry_equiv_pos_as_xyz
  1  'x, y, z'
loop_
 _atom_site_type_symbol
 _atom_site_label
 _atom_site_symmetry_multiplicity
 _atom_site_fract_x
 _atom_site_fract_y
 _atom_site_fract_z
 _atom_site_occupancy
  Y  Y0  1  0.281027  0.999948  0.281119  1
  Y  Y1  1  0.281051  0.562068  0.281165  1
  Y  Y2  1  0.718776  0.999948  0.281009  1
  Y  Y3  1  0.718973  0.000052  0.718881  1
  Y  Y4  1  0.281225  0.000052  0.718992  1
  Y  Y5  1  0.718950  0.437933  0.718836  1
  In  In6  1  0.000000  0.000000  0.000000  1
  Ga  Ga7  1  0.500000  0.000000  0.000000  1
  Ga  Ga8  1  0.000000  0.500000  0.000000  1
  Ga  Ga9  1  0.500000  0.500000  0.000000  1
  Ga  Ga10  1  0.000000  0.000000  0.500000  1
  Ga  Ga11  1  0.000000  0.500000  0.500000  1
  Ga  Ga12  1  0.500000  0.500000  0.500000  1
  Co  Co13  1  0.679277  0.358533  0.037849  1
  Co  Co14  1  0.389554  0.259733  0.129922  1
  Co  Co15  1  0.870194  0.259709  0.129857  1
  Co  Co16  1  0.870132  0.740311  0.129920  1
  Co  Co17  1  0.679332  0.358635  0.320660  1
  Co  Co18  1  0.679279  0.641427  0.320656  1
  Co  Co19  1  0.962239  0.641543  0.320815  1
  Co  Co20  1  0.129935  0.259724  0.389543  1
  Co  Co21  1  0.870065  0.740275  0.610456  1
  Co  Co22  1  0.037762  0.358456  0.679185  1
  Co  Co23  1  0.320721  0.358572  0.679344  1
  Co  Co24  1  0.320668  0.641364  0.679340  1
  Co  Co25  1  0.129868  0.259688  0.870080  1
  Co  Co26  1  0.129806  0.740290  0.870143  1
  Co  Co27  1  0.610445  0.740266  0.870078  1
  Co  Co28  1  0.320723  0.641466  0.962152  1
