# generated using pymatgen
data_DyHoAs4O9
_symmetry_space_group_name_H-M   'P 1'
_cell_length_a   6.73198258
_cell_length_b   7.53695600
_cell_length_c   9.80296927
_cell_angle_alpha   94.91563696
_cell_angle_beta   104.13419500
_cell_angle_gamma   104.73782712
_symmetry_Int_Tables_number   1
_chemical_formula_structural   DyHoAs4O9
_chemical_formula_sum   'Dy2 Ho2 As8 O18'
_cell_volume   460.63286181
_cell_formula_units_Z   2
loop_
 _symmetry_equiv_pos_site_id
 _symmetry_equiv_pos_as_xyz
  1  'x, y, z'
loop_
 _atom_site_type_symbol
 _atom_site_label
 _atom_site_symmetry_multiplicity
 _atom_site_fract_x
 _atom_site_fract_y
 _atom_site_fract_z
 _atom_site_occupancy
  Dy  Dy0  1  0.244058  0.939123  0.615235  1
  Dy  Dy1  1  0.755942  0.060877  0.384765  1
  Ho  Ho2  1  0.721020  0.529926  0.409465  1
  Ho  Ho3  1  0.278980  0.470074  0.590535  1
  As  As4  1  0.682358  0.774298  0.077797  1
  As  As5  1  0.317642  0.225702  0.922203  1
  As  As6  1  0.170918  0.752436  0.912689  1
  As  As7  1  0.829082  0.247564  0.087311  1
  As  As8  1  0.744713  0.915070  0.709512  1
  As  As9  1  0.255287  0.084930  0.290488  1
  As  As10  1  0.809829  0.351312  0.701624  1
  As  As11  1  0.190171  0.648688  0.298376  1
  O  O12  1  0.723491  0.748966  0.258652  1
  O  O13  1  0.276509  0.251034  0.741348  1
  O  O14  1  0.316042  0.978712  0.870198  1
  O  O15  1  0.683958  0.021288  0.129802  1
  O  O16  1  0.608221  0.324989  0.985298  1
  O  O17  1  0.391779  0.675011  0.014702  1
  O  O18  1  0.128002  0.646297  0.737486  1
  O  O19  1  0.871998  0.353703  0.262514  1
  O  O20  1  0.847262  0.874419  0.558979  1
  O  O21  1  0.152738  0.125581  0.441021  1
  O  O22  1  0.483662  0.767830  0.666413  1
  O  O23  1  0.516338  0.232170  0.333587  1
  O  O24  1  0.373081  0.533746  0.379898  1
  O  O25  1  0.626919  0.466254  0.620102  1
  O  O26  1  0.089001  0.668986  0.453691  1
  O  O27  1  0.910999  0.331014  0.546309  1
  O  O28  1  0.376121  0.899308  0.359250  1
  O  O29  1  0.623879  0.100692  0.640750  1
