# generated using pymatgen
data_Dy8Y12Cd6IrRu
_symmetry_space_group_name_H-M   'P 1'
_cell_length_a   9.64921300
_cell_length_b   9.64921274
_cell_length_c   9.87043300
_cell_angle_alpha   90.00000000
_cell_angle_beta   90.00000000
_cell_angle_gamma   120.00000431
_symmetry_Int_Tables_number   1
_chemical_formula_structural   Dy8Y12Cd6IrRu
_chemical_formula_sum   'Dy8 Y12 Cd6 Ir1 Ru1'
_cell_volume   795.88550047
_cell_formula_units_Z   1
loop_
 _symmetry_equiv_pos_site_id
 _symmetry_equiv_pos_as_xyz
  1  'x, y, z'
loop_
 _atom_site_type_symbol
 _atom_site_label
 _atom_site_symmetry_multiplicity
 _atom_site_fract_x
 _atom_site_fract_y
 _atom_site_fract_z
 _atom_site_occupancy
  Dy  Dy0  1  0.000000  0.000000  0.499692  1
  Dy  Dy1  1  0.000000  0.000000  0.000398  1
  Dy  Dy2  1  0.209594  0.790406  0.440350  1
  Dy  Dy3  1  0.209594  0.419188  0.440350  1
  Dy  Dy4  1  0.580812  0.790406  0.440350  1
  Dy  Dy5  1  0.790195  0.209805  0.560363  1
  Dy  Dy6  1  0.790195  0.580389  0.560363  1
  Dy  Dy7  1  0.419611  0.209805  0.560363  1
  Y  Y8  1  0.790492  0.209508  0.939985  1
  Y  Y9  1  0.790492  0.580983  0.939985  1
  Y  Y10  1  0.419017  0.209508  0.939985  1
  Y  Y11  1  0.209269  0.790731  0.059365  1
  Y  Y12  1  0.209269  0.418539  0.059365  1
  Y  Y13  1  0.581461  0.790731  0.059365  1
  Y  Y14  1  0.541359  0.458641  0.250384  1
  Y  Y15  1  0.541359  0.082719  0.250384  1
  Y  Y16  1  0.917281  0.458641  0.250384  1
  Y  Y17  1  0.458668  0.541332  0.749648  1
  Y  Y18  1  0.458668  0.917335  0.749648  1
  Y  Y19  1  0.082665  0.541332  0.749648  1
  Cd  Cd20  1  0.885392  0.114608  0.249887  1
  Cd  Cd21  1  0.885392  0.770784  0.249887  1
  Cd  Cd22  1  0.229216  0.114608  0.249887  1
  Cd  Cd23  1  0.114643  0.885357  0.750136  1
  Cd  Cd24  1  0.114643  0.229285  0.750136  1
  Cd  Cd25  1  0.770715  0.885357  0.750136  1
  Ir  Ir26  1  0.333333  0.666667  0.251379  1
  Ru  Ru27  1  0.666667  0.333333  0.748174  1
