# generated using pymatgen
data_Eu2AlCdPd2
_symmetry_space_group_name_H-M   'P 1'
_cell_length_a   4.38350400
_cell_length_b   7.48282805
_cell_length_c   8.43597161
_cell_angle_alpha   89.04004088
_cell_angle_beta   90.00000000
_cell_angle_gamma   90.00000000
_symmetry_Int_Tables_number   1
_chemical_formula_structural   Eu2AlCdPd2
_chemical_formula_sum   'Eu4 Al2 Cd2 Pd4'
_cell_volume   276.66952471
_cell_formula_units_Z   2
loop_
 _symmetry_equiv_pos_site_id
 _symmetry_equiv_pos_as_xyz
  1  'x, y, z'
loop_
 _atom_site_type_symbol
 _atom_site_label
 _atom_site_symmetry_multiplicity
 _atom_site_fract_x
 _atom_site_fract_y
 _atom_site_fract_z
 _atom_site_occupancy
  Eu  Eu0  1  0.250000  0.535798  0.822661  1
  Eu  Eu1  1  0.750000  0.464202  0.177339  1
  Eu  Eu2  1  0.250000  0.033219  0.684006  1
  Eu  Eu3  1  0.750000  0.966781  0.315994  1
  Al  Al4  1  0.250000  0.138959  0.059972  1
  Al  Al5  1  0.750000  0.861041  0.940028  1
  Cd  Cd6  1  0.250000  0.641390  0.432794  1
  Cd  Cd7  1  0.750000  0.358610  0.567206  1
  Pd  Pd8  1  0.750000  0.743910  0.647610  1
  Pd  Pd9  1  0.250000  0.256090  0.352390  1
  Pd  Pd10  1  0.750000  0.207064  0.900241  1
  Pd  Pd11  1  0.250000  0.792936  0.099759  1
