# generated using pymatgen
data_Ho4ScIn4CuRh
_symmetry_space_group_name_H-M   'P 1'
_cell_length_a   3.57971200
_cell_length_b   7.97864195
_cell_length_c   18.00235318
_cell_angle_alpha   89.82764506
_cell_angle_beta   90.00000000
_cell_angle_gamma   90.00000000
_symmetry_Int_Tables_number   1
_chemical_formula_structural   Ho4ScIn4CuRh
_chemical_formula_sum   'Ho8 Sc2 In8 Cu2 Rh2'
_cell_volume   514.16720907
_cell_formula_units_Z   2
loop_
 _symmetry_equiv_pos_site_id
 _symmetry_equiv_pos_as_xyz
  1  'x, y, z'
loop_
 _atom_site_type_symbol
 _atom_site_label
 _atom_site_symmetry_multiplicity
 _atom_site_fract_x
 _atom_site_fract_y
 _atom_site_fract_z
 _atom_site_occupancy
  Ho  Ho0  1  0.000000  0.000000  0.000000  1
  Ho  Ho1  1  0.000000  0.500000  0.500000  1
  Ho  Ho2  1  0.000000  0.737182  0.782515  1
  Ho  Ho3  1  0.000000  0.262818  0.217485  1
  Ho  Ho4  1  0.000000  0.258691  0.721856  1
  Ho  Ho5  1  0.000000  0.741309  0.278144  1
  Ho  Ho6  1  0.000000  0.876646  0.583868  1
  Ho  Ho7  1  0.000000  0.123354  0.416132  1
  Sc  Sc8  1  0.000000  0.377011  0.912904  1
  Sc  Sc9  1  0.000000  0.622989  0.087096  1
  In  In10  1  0.500000  0.795808  0.431391  1
  In  In11  1  0.500000  0.204192  0.568609  1
  In  In12  1  0.500000  0.307440  0.063411  1
  In  In13  1  0.500000  0.692560  0.936589  1
  In  In14  1  0.500000  0.924200  0.150130  1
  In  In15  1  0.500000  0.075800  0.849870  1
  In  In16  1  0.500000  0.429814  0.349636  1
  In  In17  1  0.500000  0.570186  0.650364  1
  Cu  Cu18  1  0.500000  0.965871  0.698092  1
  Cu  Cu19  1  0.500000  0.034129  0.301908  1
  Rh  Rh20  1  0.500000  0.461350  0.808836  1
  Rh  Rh21  1  0.500000  0.538650  0.191164  1
