# generated using pymatgen
data_YbPrB2Pd3Pt3Au2
_symmetry_space_group_name_H-M   'P 1'
_cell_length_a   5.55534600
_cell_length_b   5.55534707
_cell_length_c   7.66121400
_cell_angle_alpha   90.00000000
_cell_angle_beta   90.00000000
_cell_angle_gamma   119.99999362
_symmetry_Int_Tables_number   1
_chemical_formula_structural   YbPrB2Pd3Pt3Au2
_chemical_formula_sum   'Yb1 Pr1 B2 Pd3 Pt3 Au2'
_cell_volume   204.76256585
_cell_formula_units_Z   1
loop_
 _symmetry_equiv_pos_site_id
 _symmetry_equiv_pos_as_xyz
  1  'x, y, z'
loop_
 _atom_site_type_symbol
 _atom_site_label
 _atom_site_symmetry_multiplicity
 _atom_site_fract_x
 _atom_site_fract_y
 _atom_site_fract_z
 _atom_site_occupancy
  Yb  Yb0  1  0.000000  0.000000  0.499969  1
  Pr  Pr1  1  0.000000  0.000000  0.997891  1
  B  B2  1  0.667894  0.333946  0.500782  1
  B  B3  1  0.332106  0.666054  0.500782  1
  Pd  Pd4  1  0.500000  0.500000  0.306485  1
  Pd  Pd5  1  0.500000  0.000000  0.306485  1
  Pd  Pd6  1  0.000000  0.500000  0.695636  1
  Pt  Pt7  1  0.500000  0.000000  0.688472  1
  Pt  Pt8  1  0.500000  0.500000  0.688472  1
  Pt  Pt9  1  0.000000  0.500000  0.312837  1
  Au  Au10  1  0.666880  0.333439  0.001094  1
  Au  Au11  1  0.333120  0.666561  0.001094  1
