# generated using pymatgen
data_Sc3FeNi4(BO4)4
_symmetry_space_group_name_H-M   'P 1'
_cell_length_a   4.55235248
_cell_length_b   5.93402600
_cell_length_c   10.08253398
_cell_angle_alpha   90.00000000
_cell_angle_beta   90.05160964
_cell_angle_gamma   90.00000000
_symmetry_Int_Tables_number   1
_chemical_formula_structural   Sc3FeNi4(BO4)4
_chemical_formula_sum   'Sc3 Fe1 Ni4 B4 O16'
_cell_volume   272.36722397
_cell_formula_units_Z   1
loop_
 _symmetry_equiv_pos_site_id
 _symmetry_equiv_pos_as_xyz
  1  'x, y, z'
loop_
 _atom_site_type_symbol
 _atom_site_label
 _atom_site_symmetry_multiplicity
 _atom_site_fract_x
 _atom_site_fract_y
 _atom_site_fract_z
 _atom_site_occupancy
  Sc  Sc0  1  0.510105  0.249999  0.220612  1
  Sc  Sc1  1  0.007644  0.750001  0.277559  1
  Sc  Sc2  1  0.991058  0.249999  0.723104  1
  Fe  Fe3  1  0.490615  0.750001  0.778011  1
  Ni  Ni4  1  0.000739  0.998248  0.996808  1
  Ni  Ni5  1  0.000739  0.501752  0.996808  1
  Ni  Ni6  1  0.499872  0.999288  0.502447  1
  Ni  Ni7  1  0.499872  0.500712  0.502447  1
  B  B8  1  0.573272  0.750001  0.088726  1
  B  B9  1  0.076369  0.249999  0.408086  1
  B  B10  1  0.922604  0.750001  0.597126  1
  B  B11  1  0.428692  0.249999  0.906726  1
  O  O12  1  0.288545  0.249999  0.041740  1
  O  O13  1  0.257173  0.750001  0.093276  1
  O  O14  1  0.712621  0.549598  0.159098  1
  O  O15  1  0.712621  0.950402  0.159098  1
  O  O16  1  0.213893  0.048718  0.338169  1
  O  O17  1  0.213893  0.451282  0.338169  1
  O  O18  1  0.759034  0.249999  0.405747  1
  O  O19  1  0.793153  0.750001  0.459239  1
  O  O20  1  0.210471  0.249999  0.544366  1
  O  O21  1  0.241830  0.750001  0.601395  1
  O  O22  1  0.780380  0.550977  0.666345  1
  O  O23  1  0.780380  0.949023  0.666345  1
  O  O24  1  0.291743  0.046441  0.835914  1
  O  O25  1  0.291743  0.453559  0.835914  1
  O  O26  1  0.744218  0.249999  0.905493  1
  O  O27  1  0.706723  0.750001  0.951238  1
