# generated using pymatgen
data_SmTh3(TcB2)6
_symmetry_space_group_name_H-M   'P 1'
_cell_length_a   6.32784807
_cell_length_b   6.32150190
_cell_length_c   7.64999300
_cell_angle_alpha   90.68003323
_cell_angle_beta   90.92525164
_cell_angle_gamma   114.93247096
_symmetry_Int_Tables_number   1
_chemical_formula_structural   SmTh3(TcB2)6
_chemical_formula_sum   'Sm1 Th3 Tc6 B12'
_cell_volume   277.39753986
_cell_formula_units_Z   1
loop_
 _symmetry_equiv_pos_site_id
 _symmetry_equiv_pos_as_xyz
  1  'x, y, z'
loop_
 _atom_site_type_symbol
 _atom_site_label
 _atom_site_symmetry_multiplicity
 _atom_site_fract_x
 _atom_site_fract_y
 _atom_site_fract_z
 _atom_site_occupancy
  Sm  Sm0  1  0.437904  0.097665  0.822072  1
  Th  Th1  1  0.095439  0.438615  0.326173  1
  Th  Th2  1  0.562360  0.906855  0.172891  1
  Th  Th3  1  0.905646  0.561879  0.675153  1
  Tc  Tc4  1  0.588074  0.412477  0.250722  1
  Tc  Tc5  1  0.411689  0.587410  0.749676  1
  Tc  Tc6  1  0.989916  0.802892  0.087456  1
  Tc  Tc7  1  0.195937  0.009715  0.411742  1
  Tc  Tc8  1  0.009515  0.196241  0.913033  1
  Tc  Tc9  1  0.804885  0.991448  0.588226  1
  B  B10  1  0.246138  0.151604  0.129230  1
  B  B11  1  0.847270  0.754549  0.367705  1
  B  B12  1  0.754785  0.847855  0.867004  1
  B  B13  1  0.154594  0.245570  0.633961  1
  B  B14  1  0.580870  0.159422  0.484439  1
  B  B15  1  0.838246  0.414980  0.017631  1
  B  B16  1  0.417935  0.839870  0.519010  1
  B  B17  1  0.160618  0.582381  0.982793  1
  B  B18  1  0.443382  0.349473  0.534524  1
  B  B19  1  0.649145  0.555106  0.966733  1
  B  B20  1  0.555807  0.650645  0.467099  1
  B  B21  1  0.349846  0.443347  0.032727  1
