# generated using pymatgen
data_Hf8Co2MoRu
_symmetry_space_group_name_H-M   'P 1'
_cell_length_a   8.63503105
_cell_length_b   8.63503015
_cell_length_c   8.61084400
_cell_angle_alpha   60.09261864
_cell_angle_beta   60.09262207
_cell_angle_gamma   60.02157013
_symmetry_Int_Tables_number   1
_chemical_formula_structural   Hf8Co2MoRu
_chemical_formula_sum   'Hf16 Co4 Mo2 Ru2'
_cell_volume   454.71157196
_cell_formula_units_Z   2
loop_
 _symmetry_equiv_pos_site_id
 _symmetry_equiv_pos_as_xyz
  1  'x, y, z'
loop_
 _atom_site_type_symbol
 _atom_site_label
 _atom_site_symmetry_multiplicity
 _atom_site_fract_x
 _atom_site_fract_y
 _atom_site_fract_z
 _atom_site_occupancy
  Hf  Hf0  1  0.697297  0.100698  0.101133  1
  Hf  Hf1  1  0.100710  0.697256  0.101150  1
  Hf  Hf2  1  0.100267  0.100277  0.698965  1
  Hf  Hf3  1  0.100152  0.100157  0.100636  1
  Hf  Hf4  1  0.314033  0.313995  0.685977  1
  Hf  Hf5  1  0.685214  0.685210  0.314800  1
  Hf  Hf6  1  0.314534  0.685968  0.314423  1
  Hf  Hf7  1  0.685943  0.314568  0.685022  1
  Hf  Hf8  1  0.685953  0.314535  0.314458  1
  Hf  Hf9  1  0.314566  0.685958  0.685045  1
  Hf  Hf10  1  0.952814  0.952829  0.547023  1
  Hf  Hf11  1  0.547006  0.547019  0.952996  1
  Hf  Hf12  1  0.950171  0.549144  0.950660  1
  Hf  Hf13  1  0.549315  0.950180  0.549876  1
  Hf  Hf14  1  0.549147  0.950181  0.950645  1
  Hf  Hf15  1  0.950170  0.549311  0.549872  1
  Co  Co16  1  0.328110  0.888585  0.891660  1
  Co  Co17  1  0.888588  0.328095  0.891667  1
  Co  Co18  1  0.890123  0.890122  0.328010  1
  Co  Co19  1  0.890109  0.890107  0.891744  1
  Mo  Mo20  1  0.004139  0.331976  0.331952  1
  Mo  Mo21  1  0.331972  0.004146  0.331950  1
  Ru  Ru22  1  0.334831  0.334839  0.994662  1
  Ru  Ru23  1  0.334830  0.334837  0.335673  1
