# generated using pymatgen
data_Ho4Tm4Re3OsC8
_symmetry_space_group_name_H-M   'P 1'
_cell_length_a   5.05873400
_cell_length_b   6.52758283
_cell_length_c   9.74862110
_cell_angle_alpha   89.83080509
_cell_angle_beta   90.00000000
_cell_angle_gamma   90.00000000
_symmetry_Int_Tables_number   1
_chemical_formula_structural   Ho4Tm4Re3OsC8
_chemical_formula_sum   'Ho4 Tm4 Re3 Os1 C8'
_cell_volume   321.91078897
_cell_formula_units_Z   1
loop_
 _symmetry_equiv_pos_site_id
 _symmetry_equiv_pos_as_xyz
  1  'x, y, z'
loop_
 _atom_site_type_symbol
 _atom_site_label
 _atom_site_symmetry_multiplicity
 _atom_site_fract_x
 _atom_site_fract_y
 _atom_site_fract_z
 _atom_site_occupancy
  Ho  Ho0  1  0.250000  0.531979  0.216428  1
  Ho  Ho1  1  0.750000  0.466059  0.784471  1
  Ho  Ho2  1  0.750000  0.968512  0.713182  1
  Ho  Ho3  1  0.250000  0.031949  0.284106  1
  Tm  Tm4  1  0.250000  0.674995  0.556107  1
  Tm  Tm5  1  0.750000  0.322155  0.442707  1
  Tm  Tm6  1  0.750000  0.822876  0.057102  1
  Tm  Tm7  1  0.250000  0.177302  0.942910  1
  Re  Re8  1  0.250000  0.720500  0.866884  1
  Re  Re9  1  0.750000  0.279439  0.131794  1
  Re  Re10  1  0.750000  0.778589  0.367856  1
  Os  Os11  1  0.250000  0.221240  0.633529  1
  C  C12  1  0.250000  0.454197  0.759694  1
  C  C13  1  0.750000  0.546749  0.240286  1
  C  C14  1  0.750000  0.046468  0.259730  1
  C  C15  1  0.250000  0.954119  0.741669  1
  C  C16  1  0.250000  0.826938  0.052129  1
  C  C17  1  0.750000  0.173860  0.946831  1
  C  C18  1  0.750000  0.673934  0.553728  1
  C  C19  1  0.250000  0.328141  0.448858  1
