# generated using pymatgen
data_V3ZnGaN
_symmetry_space_group_name_H-M   'P 1'
_cell_length_a   6.59433700
_cell_length_b   6.59433700
_cell_length_c   6.59433700
_cell_angle_alpha   90.00000000
_cell_angle_beta   90.00000000
_cell_angle_gamma   90.00000000
_symmetry_Int_Tables_number   1
_chemical_formula_structural   V3ZnGaN
_chemical_formula_sum   'V12 Zn4 Ga4 N4'
_cell_volume   286.75659396
_cell_formula_units_Z   4
loop_
 _symmetry_equiv_pos_site_id
 _symmetry_equiv_pos_as_xyz
  1  'x, y, z'
loop_
 _atom_site_type_symbol
 _atom_site_label
 _atom_site_symmetry_multiplicity
 _atom_site_fract_x
 _atom_site_fract_y
 _atom_site_fract_z
 _atom_site_occupancy
  V  V0  1  0.789925  0.960708  0.375170  1
  V  V1  1  0.710075  0.039292  0.875170  1
  V  V2  1  0.210075  0.460708  0.124830  1
  V  V3  1  0.289925  0.539292  0.624830  1
  V  V4  1  0.960708  0.375170  0.789925  1
  V  V5  1  0.039292  0.875170  0.710075  1
  V  V6  1  0.460708  0.124830  0.210075  1
  V  V7  1  0.539292  0.624830  0.289925  1
  V  V8  1  0.375170  0.789925  0.960708  1
  V  V9  1  0.875170  0.710075  0.039292  1
  V  V10  1  0.124830  0.210075  0.460708  1
  V  V11  1  0.624830  0.289925  0.539292  1
  Zn  Zn12  1  0.570764  0.429236  0.929236  1
  Zn  Zn13  1  0.429236  0.929236  0.570764  1
  Zn  Zn14  1  0.929236  0.570764  0.429236  1
  Zn  Zn15  1  0.070764  0.070764  0.070764  1
  Ga  Ga16  1  0.177347  0.822653  0.322653  1
  Ga  Ga17  1  0.322653  0.177347  0.822653  1
  Ga  Ga18  1  0.822653  0.322653  0.177347  1
  Ga  Ga19  1  0.677347  0.677347  0.677347  1
  N  N20  1  0.874185  0.125815  0.625815  1
  N  N21  1  0.625815  0.874185  0.125815  1
  N  N22  1  0.125815  0.625815  0.874185  1
  N  N23  1  0.374185  0.374185  0.374185  1
