# generated using pymatgen
data_SnBi3TeI3
_symmetry_space_group_name_H-M   'P 1'
_cell_length_a   25.57021304
_cell_length_b   25.57021363
_cell_length_c   6.96946989
_cell_angle_alpha   73.57999664
_cell_angle_beta   73.57999572
_cell_angle_gamma   13.16279023
_symmetry_Int_Tables_number   1
_chemical_formula_structural   SnBi3TeI3
_chemical_formula_sum   'Sn3 Bi9 Te3 I9'
_cell_volume   994.79088306
_cell_formula_units_Z   3
loop_
 _symmetry_equiv_pos_site_id
 _symmetry_equiv_pos_as_xyz
  1  'x, y, z'
loop_
 _atom_site_type_symbol
 _atom_site_label
 _atom_site_symmetry_multiplicity
 _atom_site_fract_x
 _atom_site_fract_y
 _atom_site_fract_z
 _atom_site_occupancy
  Sn  Sn0  1  0.932662  0.932662  0.166223  1
  Sn  Sn1  1  0.469679  0.469679  0.641057  1
  Sn  Sn2  1  0.598227  0.598227  0.510331  1
  Bi  Bi3  1  0.090316  0.090316  0.022395  1
  Bi  Bi4  1  0.730881  0.730881  0.992636  1
  Bi  Bi5  1  0.248760  0.248760  0.459296  1
  Bi  Bi6  1  0.229403  0.229403  0.046557  1
  Bi  Bi7  1  0.747239  0.747239  0.502774  1
  Bi  Bi8  1  0.878924  0.878924  0.934811  1
  Bi  Bi9  1  0.311688  0.311688  0.217853  1
  Bi  Bi10  1  0.167287  0.167287  0.334936  1
  Bi  Bi11  1  0.685394  0.685394  0.760720  1
  Te  Te12  1  0.816386  0.816386  0.179252  1
  Te  Te13  1  0.179228  0.179228  0.760737  1
  Te  Te14  1  0.660476  0.660476  0.338190  1
  I  I15  1  0.092754  0.092754  0.530357  1
  I  I16  1  0.593794  0.593794  0.000558  1
  I  I17  1  0.879465  0.879465  0.465390  1
  I  I18  1  0.381236  0.381236  0.911215  1
  I  I19  1  0.438902  0.438902  0.159789  1
  I  I20  1  0.965844  0.965844  0.626387  1
  I  I21  1  0.523653  0.523653  0.676739  1
  I  I22  1  0.032082  0.032082  0.115703  1
  I  I23  1  0.313806  0.313806  0.646097  1
