# generated using pymatgen
data_Yb5Pa3CuPd24
_symmetry_space_group_name_H-M   'P 1'
_cell_length_a   8.33278792
_cell_length_b   8.33278803
_cell_length_c   8.31612000
_cell_angle_alpha   89.70570145
_cell_angle_beta   89.70570145
_cell_angle_gamma   89.26323999
_symmetry_Int_Tables_number   1
_chemical_formula_structural   Yb5Pa3CuPd24
_chemical_formula_sum   'Yb5 Pa3 Cu1 Pd24'
_cell_volume   577.36996965
_cell_formula_units_Z   1
loop_
 _symmetry_equiv_pos_site_id
 _symmetry_equiv_pos_as_xyz
  1  'x, y, z'
loop_
 _atom_site_type_symbol
 _atom_site_label
 _atom_site_symmetry_multiplicity
 _atom_site_fract_x
 _atom_site_fract_y
 _atom_site_fract_z
 _atom_site_occupancy
  Yb  Yb0  1  0.751244  0.246688  0.750978  1
  Yb  Yb1  1  0.250575  0.250575  0.752292  1
  Yb  Yb2  1  0.247573  0.752896  0.249548  1
  Yb  Yb3  1  0.246688  0.751244  0.750978  1
  Yb  Yb4  1  0.752896  0.247573  0.249548  1
  Pa  Pa5  1  0.253397  0.253397  0.252786  1
  Pa  Pa6  1  0.745914  0.745914  0.748435  1
  Pa  Pa7  1  0.747990  0.747990  0.249548  1
  Cu  Cu8  1  0.003722  0.003722  0.995663  1
  Pd  Pd9  1  0.260276  0.500421  0.007805  1
  Pd  Pd10  1  0.740132  0.502278  0.001427  1
  Pd  Pd11  1  0.006611  0.260102  0.495861  1
  Pd  Pd12  1  0.500421  0.260276  0.007805  1
  Pd  Pd13  1  0.990472  0.738636  0.497125  1
  Pd  Pd14  1  0.502278  0.740132  0.001427  1
  Pd  Pd15  1  0.502651  0.998068  0.260302  1
  Pd  Pd16  1  0.260102  0.006611  0.495861  1
  Pd  Pd17  1  0.503175  0.992551  0.740321  1
  Pd  Pd18  1  0.738636  0.990472  0.497125  1
  Pd  Pd19  1  0.998068  0.502651  0.260302  1
  Pd  Pd20  1  0.992551  0.503175  0.740321  1
  Pd  Pd21  1  0.252328  0.498218  0.495979  1
  Pd  Pd22  1  0.745947  0.502640  0.498325  1
  Pd  Pd23  1  0.498218  0.252328  0.495979  1
  Pd  Pd24  1  0.502640  0.745947  0.498325  1
  Pd  Pd25  1  0.502397  0.502397  0.254243  1
  Pd  Pd26  1  0.503906  0.503906  0.748415  1
  Pd  Pd27  1  0.294389  0.006292  0.005314  1
  Pd  Pd28  1  0.711688  0.992155  0.000009  1
  Pd  Pd29  1  0.006292  0.294389  0.005314  1
  Pd  Pd30  1  0.992155  0.711688  0.000009  1
  Pd  Pd31  1  0.999799  0.999799  0.288860  1
  Pd  Pd32  1  0.994871  0.994871  0.703773  1
