# generated using pymatgen
data_Ho8Sc11Si16Tc
_symmetry_space_group_name_H-M   'P 1'
_cell_length_a   7.00894754
_cell_length_b   7.34608322
_cell_length_c   13.87305900
_cell_angle_alpha   90.00000000
_cell_angle_beta   90.00000000
_cell_angle_gamma   90.15684686
_symmetry_Int_Tables_number   1
_chemical_formula_structural   Ho8Sc11Si16Tc
_chemical_formula_sum   'Ho8 Sc11 Si16 Tc1'
_cell_volume   714.29771240
_cell_formula_units_Z   1
loop_
 _symmetry_equiv_pos_site_id
 _symmetry_equiv_pos_as_xyz
  1  'x, y, z'
loop_
 _atom_site_type_symbol
 _atom_site_label
 _atom_site_symmetry_multiplicity
 _atom_site_fract_x
 _atom_site_fract_y
 _atom_site_fract_z
 _atom_site_occupancy
  Ho  Ho0  1  0.012157  0.178129  0.092864  1
  Ho  Ho1  1  0.993583  0.818689  0.900680  1
  Ho  Ho2  1  0.488822  0.672683  0.902456  1
  Ho  Ho3  1  0.993583  0.818689  0.599320  1
  Ho  Ho4  1  0.511548  0.323286  0.094747  1
  Ho  Ho5  1  0.012157  0.178129  0.407136  1
  Ho  Ho6  1  0.511548  0.323286  0.405253  1
  Ho  Ho7  1  0.488822  0.672683  0.597544  1
  Sc  Sc8  1  0.841521  0.496136  0.250000  1
  Sc  Sc9  1  0.341924  0.003862  0.250000  1
  Sc  Sc10  1  0.656993  0.995122  0.750000  1
  Sc  Sc11  1  0.325852  0.177018  0.627657  1
  Sc  Sc12  1  0.672210  0.824309  0.374434  1
  Sc  Sc13  1  0.172418  0.673825  0.377075  1
  Sc  Sc14  1  0.672210  0.824309  0.125566  1
  Sc  Sc15  1  0.825910  0.331494  0.628739  1
  Sc  Sc16  1  0.325852  0.177018  0.872343  1
  Sc  Sc17  1  0.825910  0.331494  0.871261  1
  Sc  Sc18  1  0.172418  0.673825  0.122925  1
  Si  Si19  1  0.028388  0.119784  0.750000  1
  Si  Si20  1  0.972793  0.886294  0.250000  1
  Si  Si21  1  0.468699  0.615151  0.250000  1
  Si  Si22  1  0.516272  0.395505  0.750000  1
  Si  Si23  1  0.285679  0.859985  0.750000  1
  Si  Si24  1  0.717255  0.130217  0.250000  1
  Si  Si25  1  0.214835  0.370578  0.250000  1
  Si  Si26  1  0.794669  0.630366  0.750000  1
  Si  Si27  1  0.156015  0.466169  0.548938  1
  Si  Si28  1  0.842467  0.536180  0.463733  1
  Si  Si29  1  0.345650  0.964644  0.463144  1
  Si  Si30  1  0.842467  0.536180  0.036267  1
  Si  Si31  1  0.658735  0.034362  0.539963  1
  Si  Si32  1  0.156015  0.466169  0.951062  1
  Si  Si33  1  0.658735  0.034362  0.960037  1
  Si  Si34  1  0.345650  0.964644  0.036856  1
  Tc  Tc35  1  0.150232  0.495425  0.750000  1
