# generated using pymatgen
data_Tb3Er(LuPb)6
_symmetry_space_group_name_H-M   'P 1'
_cell_length_a   6.54245200
_cell_length_b   8.94819976
_cell_length_c   8.97887450
_cell_angle_alpha   119.92319052
_cell_angle_beta   89.99963082
_cell_angle_gamma   90.00241193
_symmetry_Int_Tables_number   1
_chemical_formula_structural   Tb3Er(LuPb)6
_chemical_formula_sum   'Tb3 Er1 Lu6 Pb6'
_cell_volume   455.57970104
_cell_formula_units_Z   1
loop_
 _symmetry_equiv_pos_site_id
 _symmetry_equiv_pos_as_xyz
  1  'x, y, z'
loop_
 _atom_site_type_symbol
 _atom_site_label
 _atom_site_symmetry_multiplicity
 _atom_site_fract_x
 _atom_site_fract_y
 _atom_site_fract_z
 _atom_site_occupancy
  Tb  Tb0  1  0.750014  0.235994  0.000621  1
  Tb  Tb1  1  0.750011  0.762780  0.762021  1
  Tb  Tb2  1  0.250004  0.764004  0.999835  1
  Er  Er3  1  0.750093  0.001050  0.237733  1
  Lu  Lu4  1  0.249997  0.235991  0.236084  1
  Lu  Lu5  1  0.249989  0.999723  0.763454  1
  Lu  Lu6  1  0.499752  0.333203  0.667056  1
  Lu  Lu7  1  0.499763  0.666727  0.333002  1
  Lu  Lu8  1  0.000224  0.666746  0.332977  1
  Lu  Lu9  1  0.000257  0.333259  0.667079  1
  Pb  Pb10  1  0.749987  0.604807  0.000918  1
  Pb  Pb11  1  0.749986  0.395195  0.396131  1
  Pb  Pb12  1  0.749980  0.999966  0.602272  1
  Pb  Pb13  1  0.249996  0.393500  0.000118  1
  Pb  Pb14  1  0.249965  0.605143  0.603200  1
  Pb  Pb15  1  0.249982  0.001911  0.397500  1
