# generated using pymatgen
data_Rb4Mg3Mn3Te8
_symmetry_space_group_name_H-M   'P 1'
_cell_length_a   10.58895788
_cell_length_b   10.56869459
_cell_length_c   10.58895886
_cell_angle_alpha   143.94060266
_cell_angle_beta   104.55358795
_cell_angle_gamma   86.66022772
_symmetry_Int_Tables_number   1
_chemical_formula_structural   Rb4Mg3Mn3Te8
_chemical_formula_sum   'Rb4 Mg3 Mn3 Te8'
_cell_volume   652.95712034
_cell_formula_units_Z   1
loop_
 _symmetry_equiv_pos_site_id
 _symmetry_equiv_pos_as_xyz
  1  'x, y, z'
loop_
 _atom_site_type_symbol
 _atom_site_label
 _atom_site_symmetry_multiplicity
 _atom_site_fract_x
 _atom_site_fract_y
 _atom_site_fract_z
 _atom_site_occupancy
  Rb  Rb0  1  0.123697  0.263676  0.387988  1
  Rb  Rb1  1  0.877097  0.736723  0.611200  1
  Rb  Rb2  1  0.624312  0.236324  0.860020  1
  Rb  Rb3  1  0.374477  0.763277  0.140375  1
  Mg  Mg4  1  0.249527  0.250000  0.999527  1
  Mg  Mg5  1  0.750813  0.750000  0.000813  1
  Mg  Mg6  1  0.515824  0.250000  0.265824  1
  Mn  Mn7  1  0.487274  0.750000  0.737274  1
  Mn  Mn8  1  0.987519  0.250000  0.737519  1
  Mn  Mn9  1  0.012589  0.750000  0.262589  1
  Te  Te10  1  0.487036  0.592601  0.368246  1
  Te  Te11  1  0.508292  0.418791  0.645398  1
  Te  Te12  1  0.222363  0.125240  0.634684  1
  Te  Te13  1  0.275646  0.907399  0.894435  1
  Te  Te14  1  0.777412  0.875309  0.365380  1
  Te  Te15  1  0.726607  0.081209  0.089501  1
  Te  Te16  1  0.009444  0.374760  0.097123  1
  Te  Te17  1  0.990071  0.624691  0.902103  1
