# generated using pymatgen
data_Ac3Nd(GaPd)4
_symmetry_space_group_name_H-M   'P 1'
_cell_length_a   4.60887100
_cell_length_b   7.40504329
_cell_length_c   8.16569290
_cell_angle_alpha   89.61217111
_cell_angle_beta   90.00000000
_cell_angle_gamma   90.00000000
_symmetry_Int_Tables_number   1
_chemical_formula_structural   Ac3Nd(GaPd)4
_chemical_formula_sum   'Ac3 Nd1 Ga4 Pd4'
_cell_volume   278.67964444
_cell_formula_units_Z   1
loop_
 _symmetry_equiv_pos_site_id
 _symmetry_equiv_pos_as_xyz
  1  'x, y, z'
loop_
 _atom_site_type_symbol
 _atom_site_label
 _atom_site_symmetry_multiplicity
 _atom_site_fract_x
 _atom_site_fract_y
 _atom_site_fract_z
 _atom_site_occupancy
  Ac  Ac0  1  0.250000  0.024990  0.698321  1
  Ac  Ac1  1  0.250000  0.522910  0.807495  1
  Ac  Ac2  1  0.750000  0.975500  0.301507  1
  Nd  Nd3  1  0.750000  0.475088  0.200937  1
  Ga  Ga4  1  0.250000  0.175807  0.075386  1
  Ga  Ga5  1  0.250000  0.656351  0.422328  1
  Ga  Ga6  1  0.750000  0.828019  0.930149  1
  Ga  Ga7  1  0.750000  0.339321  0.565582  1
  Pd  Pd8  1  0.250000  0.287142  0.395791  1
  Pd  Pd9  1  0.250000  0.779561  0.100480  1
  Pd  Pd10  1  0.750000  0.714067  0.596677  1
  Pd  Pd11  1  0.750000  0.221243  0.905345  1
