# generated using pymatgen
data_LaPrSi2Ag2Sn
_symmetry_space_group_name_H-M   'P 1'
_cell_length_a   9.90036535
_cell_length_b   9.90036672
_cell_length_c   7.11637100
_cell_angle_alpha   90.00000000
_cell_angle_beta   90.00000000
_cell_angle_gamma   152.85012569
_symmetry_Int_Tables_number   1
_chemical_formula_structural   LaPrSi2Ag2Sn
_chemical_formula_sum   'La2 Pr2 Si4 Ag4 Sn2'
_cell_volume   318.29531369
_cell_formula_units_Z   2
loop_
 _symmetry_equiv_pos_site_id
 _symmetry_equiv_pos_as_xyz
  1  'x, y, z'
loop_
 _atom_site_type_symbol
 _atom_site_label
 _atom_site_symmetry_multiplicity
 _atom_site_fract_x
 _atom_site_fract_y
 _atom_site_fract_z
 _atom_site_occupancy
  La  La0  1  0.547635  0.452365  0.250000  1
  La  La1  1  0.452365  0.547635  0.750000  1
  Pr  Pr2  1  0.349914  0.650086  0.250000  1
  Pr  Pr3  1  0.650086  0.349914  0.750000  1
  Si  Si4  1  0.945688  0.054312  0.079826  1
  Si  Si5  1  0.054312  0.945688  0.920174  1
  Si  Si6  1  0.054312  0.945688  0.579826  1
  Si  Si7  1  0.945688  0.054312  0.420174  1
  Ag  Ag8  1  0.822784  0.177216  0.551901  1
  Ag  Ag9  1  0.177216  0.822784  0.448099  1
  Ag  Ag10  1  0.177216  0.822784  0.051901  1
  Ag  Ag11  1  0.822784  0.177216  0.948099  1
  Sn  Sn12  1  0.722117  0.277883  0.250000  1
  Sn  Sn13  1  0.277883  0.722117  0.750000  1
