# generated using pymatgen
data_TbFe2(PRu)3
_symmetry_space_group_name_H-M   'P 1'
_cell_length_a   3.80757700
_cell_length_b   10.59792400
_cell_length_c   12.19519000
_cell_angle_alpha   90.00000000
_cell_angle_beta   90.00000000
_cell_angle_gamma   90.00000000
_symmetry_Int_Tables_number   1
_chemical_formula_structural   TbFe2(PRu)3
_chemical_formula_sum   'Tb4 Fe8 P12 Ru12'
_cell_volume   492.10532728
_cell_formula_units_Z   4
loop_
 _symmetry_equiv_pos_site_id
 _symmetry_equiv_pos_as_xyz
  1  'x, y, z'
loop_
 _atom_site_type_symbol
 _atom_site_label
 _atom_site_symmetry_multiplicity
 _atom_site_fract_x
 _atom_site_fract_y
 _atom_site_fract_z
 _atom_site_occupancy
  Tb  Tb0  1  0.250000  0.582298  0.707856  1
  Tb  Tb1  1  0.250000  0.917702  0.207856  1
  Tb  Tb2  1  0.750000  0.417702  0.292144  1
  Tb  Tb3  1  0.750000  0.082298  0.792144  1
  Fe  Fe4  1  0.250000  0.882030  0.697807  1
  Fe  Fe5  1  0.250000  0.617970  0.197807  1
  Fe  Fe6  1  0.750000  0.117970  0.302193  1
  Fe  Fe7  1  0.750000  0.382030  0.802193  1
  Fe  Fe8  1  0.250000  0.463170  0.935438  1
  Fe  Fe9  1  0.250000  0.036830  0.435438  1
  Fe  Fe10  1  0.750000  0.536830  0.064562  1
  Fe  Fe11  1  0.750000  0.963170  0.564562  1
  P  P12  1  0.250000  0.430941  0.111894  1
  P  P13  1  0.250000  0.069059  0.611894  1
  P  P14  1  0.750000  0.569059  0.888106  1
  P  P15  1  0.750000  0.930941  0.388106  1
  P  P16  1  0.250000  0.272998  0.869038  1
  P  P17  1  0.250000  0.227002  0.369038  1
  P  P18  1  0.750000  0.727002  0.130962  1
  P  P19  1  0.750000  0.772998  0.630962  1
  P  P20  1  0.250000  0.604440  0.388420  1
  P  P21  1  0.250000  0.895560  0.888420  1
  P  P22  1  0.750000  0.395560  0.611580  1
  P  P23  1  0.750000  0.104440  0.111580  1
  Ru  Ru24  1  0.250000  0.703550  0.988634  1
  Ru  Ru25  1  0.250000  0.796450  0.488634  1
  Ru  Ru26  1  0.750000  0.296450  0.011366  1
  Ru  Ru27  1  0.750000  0.203550  0.511366  1
  Ru  Ru28  1  0.250000  0.404696  0.485135  1
  Ru  Ru29  1  0.250000  0.095304  0.985135  1
  Ru  Ru30  1  0.750000  0.595304  0.514865  1
  Ru  Ru31  1  0.750000  0.904696  0.014865  1
  Ru  Ru32  1  0.250000  0.226183  0.178024  1
  Ru  Ru33  1  0.250000  0.273817  0.678024  1
  Ru  Ru34  1  0.750000  0.773817  0.821976  1
  Ru  Ru35  1  0.750000  0.726183  0.321976  1
