# generated using pymatgen
data_Ho4FeTc2Os5
_symmetry_space_group_name_H-M   'P 1'
_cell_length_a   5.30013625
_cell_length_b   5.22250547
_cell_length_c   8.87815200
_cell_angle_alpha   90.00000000
_cell_angle_beta   90.00000000
_cell_angle_gamma   119.21049028
_symmetry_Int_Tables_number   1
_chemical_formula_structural   Ho4FeTc2Os5
_chemical_formula_sum   'Ho4 Fe1 Tc2 Os5'
_cell_volume   214.49616990
_cell_formula_units_Z   1
loop_
 _symmetry_equiv_pos_site_id
 _symmetry_equiv_pos_as_xyz
  1  'x, y, z'
loop_
 _atom_site_type_symbol
 _atom_site_label
 _atom_site_symmetry_multiplicity
 _atom_site_fract_x
 _atom_site_fract_y
 _atom_site_fract_z
 _atom_site_occupancy
  Ho  Ho0  1  0.329860  0.666447  0.438853  1
  Ho  Ho1  1  0.668522  0.334498  0.566640  1
  Ho  Ho2  1  0.668522  0.334498  0.933360  1
  Ho  Ho3  1  0.329860  0.666447  0.061147  1
  Fe  Fe4  1  0.168599  0.831254  0.750000  1
  Tc  Tc5  1  0.830633  0.169193  0.250000  1
  Tc  Tc6  1  0.828808  0.657758  0.250000  1
  Os  Os7  1  0.998631  0.001028  0.502932  1
  Os  Os8  1  0.998631  0.001028  0.997068  1
  Os  Os9  1  0.345620  0.172298  0.250000  1
  Os  Os10  1  0.176156  0.342970  0.750000  1
  Os  Os11  1  0.656157  0.822582  0.750000  1
