# generated using pymatgen
data_Lu4GaS3
_symmetry_space_group_name_H-M   'P 1'
_cell_length_a   6.73484026
_cell_length_b   6.73484117
_cell_length_c   6.73484024
_cell_angle_alpha   131.74660135
_cell_angle_beta   131.74659171
_cell_angle_gamma   70.62954561
_symmetry_Int_Tables_number   1
_chemical_formula_structural   Lu4GaS3
_chemical_formula_sum   'Lu4 Ga1 S3'
_cell_volume   166.59192122
_cell_formula_units_Z   1
loop_
 _symmetry_equiv_pos_site_id
 _symmetry_equiv_pos_as_xyz
  1  'x, y, z'
loop_
 _atom_site_type_symbol
 _atom_site_label
 _atom_site_symmetry_multiplicity
 _atom_site_fract_x
 _atom_site_fract_y
 _atom_site_fract_z
 _atom_site_occupancy
  Lu  Lu0  1  0.748223  0.748223  0.000000  1
  Lu  Lu1  1  0.251778  0.251778  0.000000  1
  Lu  Lu2  1  0.000000  0.500000  0.500000  1
  Lu  Lu3  1  0.500000  0.000000  0.500000  1
  Ga  Ga4  1  0.000000  0.000000  0.000000  1
  S  S5  1  0.500000  0.500000  0.000000  1
  S  S6  1  0.250000  0.750000  0.500000  1
  S  S7  1  0.750000  0.250000  0.500000  1
