# generated using pymatgen
data_Nd4Er12Cd4IrPd3
_symmetry_space_group_name_H-M   'P 1'
_cell_length_a   9.69317609
_cell_length_b   9.66949914
_cell_length_c   9.66949996
_cell_angle_alpha   60.23828687
_cell_angle_beta   60.17131988
_cell_angle_gamma   60.17132267
_symmetry_Int_Tables_number   1
_chemical_formula_structural   Nd4Er12Cd4IrPd3
_chemical_formula_sum   'Nd4 Er12 Cd4 Ir1 Pd3'
_cell_volume   643.66355100
_cell_formula_units_Z   1
loop_
 _symmetry_equiv_pos_site_id
 _symmetry_equiv_pos_as_xyz
  1  'x, y, z'
loop_
 _atom_site_type_symbol
 _atom_site_label
 _atom_site_symmetry_multiplicity
 _atom_site_fract_x
 _atom_site_fract_y
 _atom_site_fract_z
 _atom_site_occupancy
  Nd  Nd0  1  0.568051  0.933450  0.565254  1
  Nd  Nd1  1  0.937239  0.562816  0.933811  1
  Nd  Nd2  1  0.568051  0.565254  0.933450  1
  Nd  Nd3  1  0.937239  0.933811  0.562816  1
  Er  Er4  1  0.354897  0.345624  0.345624  1
  Er  Er5  1  0.355777  0.352052  0.946034  1
  Er  Er6  1  0.355777  0.946034  0.352052  1
  Er  Er7  1  0.933041  0.356319  0.356319  1
  Er  Er8  1  0.808019  0.187157  0.187157  1
  Er  Er9  1  0.188357  0.812344  0.812344  1
  Er  Er10  1  0.191745  0.811579  0.187382  1
  Er  Er11  1  0.809059  0.186046  0.816625  1
  Er  Er12  1  0.191745  0.187382  0.811579  1
  Er  Er13  1  0.809059  0.816625  0.186046  1
  Er  Er14  1  0.943785  0.557661  0.557661  1
  Er  Er15  1  0.559760  0.944311  0.944311  1
  Cd  Cd16  1  0.583615  0.578480  0.578480  1
  Cd  Cd17  1  0.576591  0.584554  0.258139  1
  Cd  Cd18  1  0.576591  0.258139  0.584554  1
  Cd  Cd19  1  0.259421  0.578546  0.578546  1
  Ir  Ir20  1  0.571170  0.139552  0.139552  1
  Pd  Pd21  1  0.143277  0.145236  0.145236  1
  Pd  Pd22  1  0.138866  0.147475  0.569550  1
  Pd  Pd23  1  0.138866  0.569550  0.147475  1
