# generated using pymatgen
data_ReIr7Rh
_symmetry_space_group_name_H-M   'P 1'
_cell_length_a   6.12969302
_cell_length_b   6.12976348
_cell_length_c   6.13159047
_cell_angle_alpha   95.73078840
_cell_angle_beta   95.70587119
_cell_angle_gamma   143.19230481
_symmetry_Int_Tables_number   1
_chemical_formula_structural   ReIr7Rh
_chemical_formula_sum   'Re1 Ir7 Rh1'
_cell_volume   130.97693173
_cell_formula_units_Z   1
loop_
 _symmetry_equiv_pos_site_id
 _symmetry_equiv_pos_as_xyz
  1  'x, y, z'
loop_
 _atom_site_type_symbol
 _atom_site_label
 _atom_site_symmetry_multiplicity
 _atom_site_fract_x
 _atom_site_fract_y
 _atom_site_fract_z
 _atom_site_occupancy
  Re  Re0  1  0.001515  0.001523  0.003045  1
  Ir  Ir1  1  0.662512  0.337232  0.999743  1
  Ir  Ir2  1  0.337239  0.662520  0.999744  1
  Ir  Ir3  1  0.661598  0.661586  0.323200  1
  Ir  Ir4  1  0.330972  0.000104  0.331066  1
  Ir  Ir5  1  0.000118  0.330965  0.331079  1
  Ir  Ir6  1  0.667310  0.001691  0.669015  1
  Ir  Ir7  1  0.001701  0.667316  0.669016  1
  Rh  Rh8  1  0.337032  0.337063  0.674091  1
