# generated using pymatgen
data_Pa2B8MoW
_symmetry_space_group_name_H-M   'P 1'
_cell_length_a   5.99339626
_cell_length_b   11.63199819
_cell_length_c   3.71238400
_cell_angle_alpha   90.00000000
_cell_angle_beta   90.00000000
_cell_angle_gamma   90.02710234
_symmetry_Int_Tables_number   1
_chemical_formula_structural   Pa2B8MoW
_chemical_formula_sum   'Pa4 B16 Mo2 W2'
_cell_volume   258.80946906
_cell_formula_units_Z   2
loop_
 _symmetry_equiv_pos_site_id
 _symmetry_equiv_pos_as_xyz
  1  'x, y, z'
loop_
 _atom_site_type_symbol
 _atom_site_label
 _atom_site_symmetry_multiplicity
 _atom_site_fract_x
 _atom_site_fract_y
 _atom_site_fract_z
 _atom_site_occupancy
  Pa  Pa0  1  0.626200  0.350293  0.000000  1
  Pa  Pa1  1  0.373800  0.649707  0.000000  1
  Pa  Pa2  1  0.126402  0.151718  0.000000  1
  Pa  Pa3  1  0.873598  0.848282  0.000000  1
  B  B4  1  0.788731  0.187457  0.500000  1
  B  B5  1  0.211269  0.812543  0.500000  1
  B  B6  1  0.288830  0.313076  0.500000  1
  B  B7  1  0.711170  0.686924  0.500000  1
  B  B8  1  0.865722  0.031576  0.500000  1
  B  B9  1  0.134278  0.968424  0.500000  1
  B  B10  1  0.365468  0.468324  0.500000  1
  B  B11  1  0.634532  0.531676  0.500000  1
  B  B12  1  0.886576  0.453738  0.500000  1
  B  B13  1  0.113424  0.546262  0.500000  1
  B  B14  1  0.385929  0.046540  0.500000  1
  B  B15  1  0.614071  0.953460  0.500000  1
  B  B16  1  0.973526  0.307615  0.500000  1
  B  B17  1  0.026474  0.692385  0.500000  1
  B  B18  1  0.473514  0.192720  0.500000  1
  B  B19  1  0.526486  0.807280  0.500000  1
  Mo  Mo20  1  0.133563  0.409254  0.000000  1
  Mo  Mo21  1  0.866437  0.590746  0.000000  1
  W  W22  1  0.633419  0.090200  0.000000  1
  W  W23  1  0.366581  0.909800  0.000000  1
