# generated using pymatgen
data_Tm2PaIn3Rh2
_symmetry_space_group_name_H-M   'P 1'
_cell_length_a   7.83819100
_cell_length_b   7.58533903
_cell_length_c   3.59448000
_cell_angle_alpha   90.00000000
_cell_angle_beta   90.00000000
_cell_angle_gamma   121.10895044
_symmetry_Int_Tables_number   1
_chemical_formula_structural   Tm2PaIn3Rh2
_chemical_formula_sum   'Tm2 Pa1 In3 Rh2'
_cell_volume   182.97646262
_cell_formula_units_Z   1
loop_
 _symmetry_equiv_pos_site_id
 _symmetry_equiv_pos_as_xyz
  1  'x, y, z'
loop_
 _atom_site_type_symbol
 _atom_site_label
 _atom_site_symmetry_multiplicity
 _atom_site_fract_x
 _atom_site_fract_y
 _atom_site_fract_z
 _atom_site_occupancy
  Tm  Tm0  1  0.420650  0.417395  0.500000  1
  Tm  Tm1  1  0.003254  0.582606  0.500000  1
  Pa  Pa2  1  0.567013  0.000000  0.500000  1
  In  In3  1  0.219765  0.000000  0.000000  1
  In  In4  1  0.002908  0.237597  0.000000  1
  In  In5  1  0.765310  0.762402  0.000000  1
  Rh  Rh6  1  0.662091  0.303082  0.000000  1
  Rh  Rh7  1  0.359010  0.696919  0.000000  1
