# generated using pymatgen
data_Tb7Co6Sn22Pd
_symmetry_space_group_name_H-M   'P 1'
_cell_length_a   9.68494900
_cell_length_b   9.68494850
_cell_length_c   9.91903000
_cell_angle_alpha   90.00000000
_cell_angle_beta   90.00000000
_cell_angle_gamma   120.00000513
_symmetry_Int_Tables_number   1
_chemical_formula_structural   Tb7Co6Sn22Pd
_chemical_formula_sum   'Tb7 Co6 Sn22 Pd1'
_cell_volume   805.73915125
_cell_formula_units_Z   1
loop_
 _symmetry_equiv_pos_site_id
 _symmetry_equiv_pos_as_xyz
  1  'x, y, z'
loop_
 _atom_site_type_symbol
 _atom_site_label
 _atom_site_symmetry_multiplicity
 _atom_site_fract_x
 _atom_site_fract_y
 _atom_site_fract_z
 _atom_site_occupancy
  Tb  Tb0  1  0.000000  0.000000  0.000000  1
  Tb  Tb1  1  0.479066  0.520934  0.306638  1
  Tb  Tb2  1  0.520934  0.479066  0.693362  1
  Tb  Tb3  1  0.479066  0.958132  0.306638  1
  Tb  Tb4  1  0.520934  0.041868  0.693362  1
  Tb  Tb5  1  0.041868  0.520934  0.306638  1
  Tb  Tb6  1  0.958132  0.479066  0.693362  1
  Co  Co7  1  0.831841  0.168159  0.196455  1
  Co  Co8  1  0.168159  0.831841  0.803545  1
  Co  Co9  1  0.831841  0.663682  0.196455  1
  Co  Co10  1  0.168159  0.336318  0.803545  1
  Co  Co11  1  0.336318  0.168159  0.196455  1
  Co  Co12  1  0.663682  0.831841  0.803545  1
  Sn  Sn13  1  0.346340  0.000000  0.000000  1
  Sn  Sn14  1  0.653660  0.000000  0.000000  1
  Sn  Sn15  1  0.000000  0.346340  0.000000  1
  Sn  Sn16  1  0.000000  0.653660  0.000000  1
  Sn  Sn17  1  0.653660  0.653660  0.000000  1
  Sn  Sn18  1  0.346340  0.346340  0.000000  1
  Sn  Sn19  1  0.333333  0.666667  0.815219  1
  Sn  Sn20  1  0.666667  0.333333  0.184781  1
  Sn  Sn21  1  0.785161  0.214839  0.453135  1
  Sn  Sn22  1  0.214839  0.785161  0.546865  1
  Sn  Sn23  1  0.785161  0.570322  0.453135  1
  Sn  Sn24  1  0.214839  0.429678  0.546865  1
  Sn  Sn25  1  0.429678  0.214839  0.453135  1
  Sn  Sn26  1  0.570322  0.785161  0.546865  1
  Sn  Sn27  1  0.333333  0.666667  0.117987  1
  Sn  Sn28  1  0.666667  0.333333  0.882013  1
  Sn  Sn29  1  0.110852  0.889148  0.283381  1
  Sn  Sn30  1  0.889148  0.110852  0.716619  1
  Sn  Sn31  1  0.110852  0.221705  0.283381  1
  Sn  Sn32  1  0.889148  0.778295  0.716619  1
  Sn  Sn33  1  0.778295  0.889148  0.283381  1
  Sn  Sn34  1  0.221705  0.110852  0.716619  1
  Pd  Pd35  1  0.000000  0.000000  0.500000  1
