# generated using pymatgen
data_Tb5Pr3CdHgIr2
_symmetry_space_group_name_H-M   'P 1'
_cell_length_a   9.78072557
_cell_length_b   9.78072566
_cell_length_c   9.78211700
_cell_angle_alpha   59.99529756
_cell_angle_beta   59.99529727
_cell_angle_gamma   60.12045974
_symmetry_Int_Tables_number   1
_chemical_formula_structural   Tb5Pr3CdHgIr2
_chemical_formula_sum   'Tb10 Pr6 Cd2 Hg2 Ir4'
_cell_volume   662.25140440
_cell_formula_units_Z   2
loop_
 _symmetry_equiv_pos_site_id
 _symmetry_equiv_pos_as_xyz
  1  'x, y, z'
loop_
 _atom_site_type_symbol
 _atom_site_label
 _atom_site_symmetry_multiplicity
 _atom_site_fract_x
 _atom_site_fract_y
 _atom_site_fract_z
 _atom_site_occupancy
  Tb  Tb0  1  0.348085  0.348085  0.347094  1
  Tb  Tb1  1  0.348085  0.348085  0.956736  1
  Tb  Tb2  1  0.348938  0.954698  0.348182  1
  Tb  Tb3  1  0.954698  0.348938  0.348182  1
  Tb  Tb4  1  0.811174  0.187442  0.189355  1
  Tb  Tb5  1  0.187442  0.811174  0.812029  1
  Tb  Tb6  1  0.187442  0.811174  0.189355  1
  Tb  Tb7  1  0.811174  0.187442  0.812029  1
  Tb  Tb8  1  0.187915  0.187915  0.812085  1
  Tb  Tb9  1  0.811184  0.811184  0.188816  1
  Pr  Pr10  1  0.940661  0.558064  0.558803  1
  Pr  Pr11  1  0.558064  0.940661  0.942472  1
  Pr  Pr12  1  0.558064  0.940661  0.558803  1
  Pr  Pr13  1  0.940661  0.558064  0.942472  1
  Pr  Pr14  1  0.558724  0.558724  0.941276  1
  Pr  Pr15  1  0.941840  0.941840  0.558160  1
  Cd  Cd16  1  0.579172  0.261329  0.579748  1
  Cd  Cd17  1  0.261329  0.579172  0.579748  1
  Hg  Hg18  1  0.581596  0.581596  0.582804  1
  Hg  Hg19  1  0.581596  0.581596  0.254002  1
  Ir  Ir20  1  0.141932  0.141932  0.140439  1
  Ir  Ir21  1  0.141932  0.141932  0.575695  1
  Ir  Ir22  1  0.142193  0.576093  0.140856  1
  Ir  Ir23  1  0.576093  0.142193  0.140856  1
