# generated using pymatgen
data_Ho5NbCo5
_symmetry_space_group_name_H-M   'P 1'
_cell_length_a   5.63194009
_cell_length_b   5.63194105
_cell_length_c   20.74369900
_cell_angle_alpha   90.00000000
_cell_angle_beta   90.00000000
_cell_angle_gamma   139.29643952
_symmetry_Int_Tables_number   1
_chemical_formula_structural   Ho5NbCo5
_chemical_formula_sum   'Ho10 Nb2 Co10'
_cell_volume   429.08846543
_cell_formula_units_Z   2
loop_
 _symmetry_equiv_pos_site_id
 _symmetry_equiv_pos_as_xyz
  1  'x, y, z'
loop_
 _atom_site_type_symbol
 _atom_site_label
 _atom_site_symmetry_multiplicity
 _atom_site_fract_x
 _atom_site_fract_y
 _atom_site_fract_z
 _atom_site_occupancy
  Ho  Ho0  1  0.284044  0.715956  0.250000  1
  Ho  Ho1  1  0.288553  0.711447  0.067973  1
  Ho  Ho2  1  0.997852  0.002148  0.840300  1
  Ho  Ho3  1  0.715956  0.284044  0.750000  1
  Ho  Ho4  1  0.711447  0.288553  0.567973  1
  Ho  Ho5  1  0.002148  0.997852  0.340300  1
  Ho  Ho6  1  0.997852  0.002148  0.659700  1
  Ho  Ho7  1  0.711447  0.288553  0.932027  1
  Ho  Ho8  1  0.002148  0.997852  0.159700  1
  Ho  Ho9  1  0.288553  0.711447  0.432027  1
  Nb  Nb10  1  0.000000  0.000000  0.500000  1
  Nb  Nb11  1  0.000000  0.000000  0.000000  1
  Co  Co12  1  0.300563  0.699437  0.654155  1
  Co  Co13  1  0.575497  0.424503  0.439286  1
  Co  Co14  1  0.412134  0.587866  0.750000  1
  Co  Co15  1  0.424503  0.575497  0.939286  1
  Co  Co16  1  0.587866  0.412134  0.250000  1
  Co  Co17  1  0.424503  0.575497  0.560714  1
  Co  Co18  1  0.699437  0.300563  0.345845  1
  Co  Co19  1  0.699437  0.300563  0.154155  1
  Co  Co20  1  0.575497  0.424503  0.060714  1
  Co  Co21  1  0.300563  0.699437  0.845845  1
