# generated using pymatgen
data_Ho3Er17(Cd3Ru)2
_symmetry_space_group_name_H-M   'P 1'
_cell_length_a   9.51231500
_cell_length_b   9.51231574
_cell_length_c   9.79178400
_cell_angle_alpha   90.00000000
_cell_angle_beta   90.00000000
_cell_angle_gamma   120.00000092
_symmetry_Int_Tables_number   1
_chemical_formula_structural   Ho3Er17(Cd3Ru)2
_chemical_formula_sum   'Ho3 Er17 Cd6 Ru2'
_cell_volume   767.29953135
_cell_formula_units_Z   1
loop_
 _symmetry_equiv_pos_site_id
 _symmetry_equiv_pos_as_xyz
  1  'x, y, z'
loop_
 _atom_site_type_symbol
 _atom_site_label
 _atom_site_symmetry_multiplicity
 _atom_site_fract_x
 _atom_site_fract_y
 _atom_site_fract_z
 _atom_site_occupancy
  Ho  Ho0  1  0.541038  0.458962  0.250000  1
  Ho  Ho1  1  0.541038  0.082076  0.250000  1
  Ho  Ho2  1  0.917924  0.458962  0.250000  1
  Er  Er3  1  0.000000  0.000000  0.499992  1
  Er  Er4  1  0.000000  0.000000  0.000008  1
  Er  Er5  1  0.209924  0.790076  0.440715  1
  Er  Er6  1  0.209924  0.419849  0.440715  1
  Er  Er7  1  0.580151  0.790076  0.440715  1
  Er  Er8  1  0.790088  0.209912  0.559470  1
  Er  Er9  1  0.790088  0.580176  0.559470  1
  Er  Er10  1  0.419824  0.209912  0.559470  1
  Er  Er11  1  0.790088  0.209912  0.940530  1
  Er  Er12  1  0.790088  0.580176  0.940530  1
  Er  Er13  1  0.419824  0.209912  0.940530  1
  Er  Er14  1  0.209924  0.790076  0.059285  1
  Er  Er15  1  0.209924  0.419849  0.059285  1
  Er  Er16  1  0.580151  0.790076  0.059285  1
  Er  Er17  1  0.458894  0.541106  0.750000  1
  Er  Er18  1  0.458894  0.917789  0.750000  1
  Er  Er19  1  0.082211  0.541106  0.750000  1
  Cd  Cd20  1  0.885436  0.114564  0.250000  1
  Cd  Cd21  1  0.885436  0.770873  0.250000  1
  Cd  Cd22  1  0.229127  0.114564  0.250000  1
  Cd  Cd23  1  0.114666  0.885334  0.750000  1
  Cd  Cd24  1  0.114666  0.229332  0.750000  1
  Cd  Cd25  1  0.770668  0.885334  0.750000  1
  Ru  Ru26  1  0.333333  0.666667  0.250000  1
  Ru  Ru27  1  0.666667  0.333333  0.750000  1
