# generated using pymatgen
data_NdMg2(H6Rh)2
_symmetry_space_group_name_H-M   'P 1'
_cell_length_a   4.69682800
_cell_length_b   4.69682942
_cell_length_c   8.05205900
_cell_angle_alpha   90.00000000
_cell_angle_beta   90.00000000
_cell_angle_gamma   119.99999003
_symmetry_Int_Tables_number   1
_chemical_formula_structural   NdMg2(H6Rh)2
_chemical_formula_sum   'Nd1 Mg2 H12 Rh2'
_cell_volume   153.83213498
_cell_formula_units_Z   1
loop_
 _symmetry_equiv_pos_site_id
 _symmetry_equiv_pos_as_xyz
  1  'x, y, z'
loop_
 _atom_site_type_symbol
 _atom_site_label
 _atom_site_symmetry_multiplicity
 _atom_site_fract_x
 _atom_site_fract_y
 _atom_site_fract_z
 _atom_site_occupancy
  Nd  Nd0  1  0.000000  0.000000  0.000000  1
  Mg  Mg1  1  0.666667  0.333333  0.368438  1
  Mg  Mg2  1  0.333333  0.666667  0.631562  1
  H  H3  1  0.165906  0.834094  0.381897  1
  H  H4  1  0.668186  0.834094  0.381897  1
  H  H5  1  0.165906  0.331814  0.381897  1
  H  H6  1  0.834094  0.165906  0.618103  1
  H  H7  1  0.331814  0.165906  0.618103  1
  H  H8  1  0.834094  0.668186  0.618103  1
  H  H9  1  0.498487  0.996975  0.859746  1
  H  H10  1  0.498487  0.501513  0.859746  1
  H  H11  1  0.003025  0.501513  0.859746  1
  H  H12  1  0.501513  0.003025  0.140254  1
  H  H13  1  0.501513  0.498487  0.140254  1
  H  H14  1  0.996975  0.498487  0.140254  1
  Rh  Rh15  1  0.666667  0.333333  0.733511  1
  Rh  Rh16  1  0.333333  0.666667  0.266489  1
