# generated using pymatgen
data_Ta2Be5Nb4SiRu6
_symmetry_space_group_name_H-M   'P 1'
_cell_length_a   7.36962709
_cell_length_b   7.36499987
_cell_length_c   7.36808357
_cell_angle_alpha   126.19888118
_cell_angle_beta   129.32494852
_cell_angle_gamma   77.02988672
_symmetry_Int_Tables_number   1
_chemical_formula_structural   Ta2Be5Nb4SiRu6
_chemical_formula_sum   'Ta2 Be5 Nb4 Si1 Ru6'
_cell_volume   242.35067216
_cell_formula_units_Z   1
loop_
 _symmetry_equiv_pos_site_id
 _symmetry_equiv_pos_as_xyz
  1  'x, y, z'
loop_
 _atom_site_type_symbol
 _atom_site_label
 _atom_site_symmetry_multiplicity
 _atom_site_fract_x
 _atom_site_fract_y
 _atom_site_fract_z
 _atom_site_occupancy
  Ta  Ta0  1  0.556825  0.089824  0.043007  1
  Ta  Ta1  1  0.458476  0.506433  0.558375  1
  Be  Be2  1  0.750289  0.497536  0.247077  1
  Be  Be3  1  0.249969  0.496800  0.747436  1
  Be  Be4  1  0.331718  0.829887  0.498802  1
  Be  Be5  1  0.665175  0.163801  0.495574  1
  Be  Be6  1  0.834921  0.830413  0.994777  1
  Nb  Nb7  1  0.948719  0.505088  0.046158  1
  Nb  Nb8  1  0.045746  0.088831  0.533511  1
  Nb  Nb9  1  0.739423  0.895272  0.643883  1
  Nb  Nb10  1  0.251148  0.894776  0.155360  1
  Si  Si11  1  0.167142  0.163016  0.997226  1
  Ru  Ru12  1  0.499519  0.245785  0.746131  1
  Ru  Ru13  1  0.999622  0.247350  0.248050  1
  Ru  Ru14  1  0.126542  0.746546  0.622079  1
  Ru  Ru15  1  0.873201  0.495497  0.620446  1
  Ru  Ru16  1  0.625410  0.747002  0.119985  1
  Ru  Ru17  1  0.376154  0.498341  0.124325  1
