# generated using pymatgen
data_YHo3Al17GaRh6
_symmetry_space_group_name_H-M   'P 1'
_cell_length_a   7.53457224
_cell_length_b   7.53795727
_cell_length_c   9.47753200
_cell_angle_alpha   90.00000000
_cell_angle_beta   90.00000000
_cell_angle_gamma   119.25104819
_symmetry_Int_Tables_number   1
_chemical_formula_structural   YHo3Al17GaRh6
_chemical_formula_sum   'Y1 Ho3 Al17 Ga1 Rh6'
_cell_volume   469.64156860
_cell_formula_units_Z   1
loop_
 _symmetry_equiv_pos_site_id
 _symmetry_equiv_pos_as_xyz
  1  'x, y, z'
loop_
 _atom_site_type_symbol
 _atom_site_label
 _atom_site_symmetry_multiplicity
 _atom_site_fract_x
 _atom_site_fract_y
 _atom_site_fract_z
 _atom_site_occupancy
  Y  Y0  1  0.993880  0.674109  0.250000  1
  Ho  Ho1  1  0.004612  0.327242  0.750000  1
  Ho  Ho2  1  0.674491  0.994170  0.250000  1
  Ho  Ho3  1  0.327506  0.004824  0.750000  1
  Al  Al4  1  0.871148  0.871524  0.750000  1
  Al  Al5  1  0.001552  0.335786  0.073743  1
  Al  Al6  1  0.999009  0.663898  0.923970  1
  Al  Al7  1  0.999009  0.663898  0.576030  1
  Al  Al8  1  0.336997  0.001961  0.426139  1
  Al  Al9  1  0.001552  0.335786  0.426257  1
  Al  Al10  1  0.663958  0.999183  0.575132  1
  Al  Al11  1  0.663958  0.999183  0.924868  1
  Al  Al12  1  0.336997  0.001961  0.073861  1
  Al  Al13  1  0.332708  0.332691  0.554390  1
  Al  Al14  1  0.665670  0.666209  0.451052  1
  Al  Al15  1  0.665670  0.666209  0.048948  1
  Al  Al16  1  0.332708  0.332691  0.945610  1
  Al  Al17  1  0.339308  0.551326  0.250000  1
  Al  Al18  1  0.660850  0.449053  0.750000  1
  Al  Al19  1  0.550433  0.337413  0.250000  1
  Al  Al20  1  0.449288  0.661283  0.750000  1
  Ga  Ga21  1  0.131295  0.132039  0.250000  1
  Rh  Rh22  1  0.671464  0.327627  0.999780  1
  Rh  Rh23  1  0.327649  0.671452  0.999775  1
  Rh  Rh24  1  0.327649  0.671452  0.500225  1
  Rh  Rh25  1  0.671464  0.327627  0.500220  1
  Rh  Rh26  1  0.999587  0.999700  0.997119  1
  Rh  Rh27  1  0.999587  0.999700  0.502881  1
