# generated using pymatgen
data_Dy8Re3B24Os
_symmetry_space_group_name_H-M   'P 1'
_cell_length_a   3.68035400
_cell_length_b   9.17715413
_cell_length_c   11.56052569
_cell_angle_alpha   90.07816845
_cell_angle_beta   90.00000000
_cell_angle_gamma   90.00000000
_symmetry_Int_Tables_number   1
_chemical_formula_structural   Dy8Re3B24Os
_chemical_formula_sum   'Dy8 Re3 B24 Os1'
_cell_volume   390.45842563
_cell_formula_units_Z   1
loop_
 _symmetry_equiv_pos_site_id
 _symmetry_equiv_pos_as_xyz
  1  'x, y, z'
loop_
 _atom_site_type_symbol
 _atom_site_label
 _atom_site_symmetry_multiplicity
 _atom_site_fract_x
 _atom_site_fract_y
 _atom_site_fract_z
 _atom_site_occupancy
  Dy  Dy0  1  0.000000  0.322375  0.414071  1
  Dy  Dy1  1  0.000000  0.676985  0.587588  1
  Dy  Dy2  1  0.000000  0.824771  0.084602  1
  Dy  Dy3  1  0.000000  0.176236  0.913629  1
  Dy  Dy4  1  0.000000  0.942836  0.369876  1
  Dy  Dy5  1  0.000000  0.056369  0.629524  1
  Dy  Dy6  1  0.000000  0.442893  0.129975  1
  Dy  Dy7  1  0.000000  0.556708  0.870740  1
  Re  Re8  1  0.000000  0.361994  0.678002  1
  Re  Re9  1  0.000000  0.138591  0.179539  1
  Re  Re10  1  0.000000  0.861363  0.820916  1
  B  B11  1  0.500000  0.553945  0.432719  1
  B  B12  1  0.500000  0.446887  0.566860  1
  B  B13  1  0.500000  0.053247  0.066914  1
  B  B14  1  0.500000  0.946737  0.932969  1
  B  B15  1  0.500000  0.748526  0.418480  1
  B  B16  1  0.500000  0.250826  0.581148  1
  B  B17  1  0.500000  0.249006  0.081200  1
  B  B18  1  0.500000  0.751412  0.918856  1
  B  B19  1  0.500000  0.791074  0.265794  1
  B  B20  1  0.500000  0.207995  0.734146  1
  B  B21  1  0.500000  0.291848  0.234501  1
  B  B22  1  0.500000  0.707864  0.766005  1
  B  B23  1  0.500000  0.631738  0.186104  1
  B  B24  1  0.500000  0.368867  0.813799  1
  B  B25  1  0.500000  0.131580  0.314578  1
  B  B26  1  0.500000  0.868398  0.685888  1
  B  B27  1  0.500000  0.983142  0.211839  1
  B  B28  1  0.500000  0.016986  0.787912  1
  B  B29  1  0.500000  0.483976  0.288152  1
  B  B30  1  0.500000  0.517431  0.711954  1
  B  B31  1  0.500000  0.602275  0.028981  1
  B  B32  1  0.500000  0.397887  0.971752  1
  B  B33  1  0.500000  0.101401  0.471358  1
  B  B34  1  0.500000  0.897387  0.528326  1
  Os  Os35  1  0.000000  0.638444  0.321301  1
