# generated using pymatgen
data_Dy2Y2V3B16Os
_symmetry_space_group_name_H-M   'P 1'
_cell_length_a   3.50141700
_cell_length_b   5.98869154
_cell_length_c   11.58152117
_cell_angle_alpha   89.98549864
_cell_angle_beta   90.00000000
_cell_angle_gamma   90.00000000
_symmetry_Int_Tables_number   1
_chemical_formula_structural   Dy2Y2V3B16Os
_chemical_formula_sum   'Dy2 Y2 V3 B16 Os1'
_cell_volume   242.85182546
_cell_formula_units_Z   1
loop_
 _symmetry_equiv_pos_site_id
 _symmetry_equiv_pos_as_xyz
  1  'x, y, z'
loop_
 _atom_site_type_symbol
 _atom_site_label
 _atom_site_symmetry_multiplicity
 _atom_site_fract_x
 _atom_site_fract_y
 _atom_site_fract_z
 _atom_site_occupancy
  Dy  Dy0  1  0.000000  0.126518  0.152687  1
  Dy  Dy1  1  0.000000  0.873700  0.846615  1
  Y  Y2  1  0.000000  0.623824  0.352060  1
  Y  Y3  1  0.000000  0.375725  0.649231  1
  V  V4  1  0.000000  0.369101  0.917523  1
  V  V5  1  0.000000  0.126409  0.415560  1
  V  V6  1  0.000000  0.873540  0.582286  1
  B  B7  1  0.500000  0.784185  0.185603  1
  B  B8  1  0.500000  0.215045  0.814467  1
  B  B9  1  0.500000  0.286001  0.314135  1
  B  B10  1  0.500000  0.714651  0.685437  1
  B  B11  1  0.500000  0.864501  0.031647  1
  B  B12  1  0.500000  0.135057  0.968674  1
  B  B13  1  0.500000  0.364258  0.467315  1
  B  B14  1  0.500000  0.635984  0.532899  1
  B  B15  1  0.500000  0.886763  0.453050  1
  B  B16  1  0.500000  0.113945  0.546563  1
  B  B17  1  0.500000  0.387101  0.048320  1
  B  B18  1  0.500000  0.615061  0.952948  1
  B  B19  1  0.500000  0.975341  0.307183  1
  B  B20  1  0.500000  0.023724  0.692126  1
  B  B21  1  0.500000  0.476009  0.192495  1
  B  B22  1  0.500000  0.523877  0.807681  1
  Os  Os23  1  0.000000  0.629684  0.083495  1
