# generated using pymatgen
data_DyLuZr2(Al3Rh)6
_symmetry_space_group_name_H-M   'P 1'
_cell_length_a   7.51579905
_cell_length_b   7.50149343
_cell_length_c   9.34264400
_cell_angle_alpha   90.00000000
_cell_angle_beta   90.00000000
_cell_angle_gamma   119.64899423
_symmetry_Int_Tables_number   1
_chemical_formula_structural   DyLuZr2(Al3Rh)6
_chemical_formula_sum   'Dy1 Lu1 Zr2 Al18 Rh6'
_cell_volume   457.77130912
_cell_formula_units_Z   1
loop_
 _symmetry_equiv_pos_site_id
 _symmetry_equiv_pos_as_xyz
  1  'x, y, z'
loop_
 _atom_site_type_symbol
 _atom_site_label
 _atom_site_symmetry_multiplicity
 _atom_site_fract_x
 _atom_site_fract_y
 _atom_site_fract_z
 _atom_site_occupancy
  Dy  Dy0  1  0.670749  0.993573  0.250000  1
  Lu  Lu1  1  0.328590  0.006290  0.750000  1
  Zr  Zr2  1  0.995045  0.671995  0.250000  1
  Zr  Zr3  1  0.005403  0.328293  0.750000  1
  Al  Al4  1  0.125884  0.124079  0.250000  1
  Al  Al5  1  0.875516  0.876476  0.750000  1
  Al  Al6  1  0.999384  0.337545  0.074398  1
  Al  Al7  1  0.001523  0.663070  0.923689  1
  Al  Al8  1  0.001523  0.663070  0.576311  1
  Al  Al9  1  0.332238  0.998222  0.422603  1
  Al  Al10  1  0.999384  0.337545  0.425602  1
  Al  Al11  1  0.666964  0.002025  0.579908  1
  Al  Al12  1  0.666964  0.002025  0.920092  1
  Al  Al13  1  0.332238  0.998222  0.077397  1
  Al  Al14  1  0.330901  0.332889  0.556240  1
  Al  Al15  1  0.669144  0.666425  0.445883  1
  Al  Al16  1  0.669144  0.666425  0.054117  1
  Al  Al17  1  0.330901  0.332889  0.943760  1
  Al  Al18  1  0.334102  0.548705  0.250000  1
  Al  Al19  1  0.664657  0.449814  0.750000  1
  Al  Al20  1  0.556200  0.344259  0.250000  1
  Al  Al21  1  0.443208  0.656351  0.750000  1
  Rh  Rh22  1  0.671845  0.327111  0.998866  1
  Rh  Rh23  1  0.327815  0.672800  0.000291  1
  Rh  Rh24  1  0.327815  0.672800  0.499709  1
  Rh  Rh25  1  0.671845  0.327111  0.501134  1
  Rh  Rh26  1  0.000510  0.999994  0.999480  1
  Rh  Rh27  1  0.000510  0.999994  0.500520  1
