# generated using pymatgen
data_Tb4Gd2RuO12
_symmetry_space_group_name_H-M   'P 1'
_cell_length_a   6.52814504
_cell_length_b   6.52036852
_cell_length_c   6.52351280
_cell_angle_alpha   98.56907958
_cell_angle_beta   98.53486390
_cell_angle_gamma   98.36431020
_symmetry_Int_Tables_number   1
_chemical_formula_structural   Tb4Gd2RuO12
_chemical_formula_sum   'Tb4 Gd2 Ru1 O12'
_cell_volume   267.52181167
_cell_formula_units_Z   1
loop_
 _symmetry_equiv_pos_site_id
 _symmetry_equiv_pos_as_xyz
  1  'x, y, z'
loop_
 _atom_site_type_symbol
 _atom_site_label
 _atom_site_symmetry_multiplicity
 _atom_site_fract_x
 _atom_site_fract_y
 _atom_site_fract_z
 _atom_site_occupancy
  Tb  Tb0  1  0.855905  0.386427  0.687839  1
  Tb  Tb1  1  0.612043  0.310658  0.144062  1
  Tb  Tb2  1  0.313241  0.143348  0.611010  1
  Tb  Tb3  1  0.688742  0.856927  0.389719  1
  Gd  Gd4  1  0.390412  0.687825  0.856835  1
  Gd  Gd5  1  0.142689  0.610276  0.311385  1
  Ru  Ru6  1  0.999906  0.000412  0.999495  1
  O  O7  1  0.927363  0.035296  0.702433  1
  O  O8  1  0.961758  0.295993  0.068565  1
  O  O9  1  0.591549  0.177398  0.435908  1
  O  O10  1  0.821922  0.563789  0.410336  1
  O  O11  1  0.294813  0.075131  0.964437  1
  O  O12  1  0.565169  0.406420  0.822376  1
  O  O13  1  0.437444  0.590262  0.179061  1
  O  O14  1  0.704904  0.930414  0.038906  1
  O  O15  1  0.176485  0.433394  0.591109  1
  O  O16  1  0.410483  0.822945  0.564413  1
  O  O17  1  0.032401  0.705893  0.925920  1
  O  O18  1  0.072772  0.967193  0.296191  1
