# generated using pymatgen
data_Dy6Y14Co3Bi8Ru
_symmetry_space_group_name_H-M   'P 1'
_cell_length_a   8.02549296
_cell_length_b   8.90221609
_cell_length_c   12.46049931
_cell_angle_alpha   89.98670711
_cell_angle_beta   90.20894021
_cell_angle_gamma   90.00954045
_symmetry_Int_Tables_number   1
_chemical_formula_structural   Dy6Y14Co3Bi8Ru
_chemical_formula_sum   'Dy6 Y14 Co3 Bi8 Ru1'
_cell_volume   890.23033791
_cell_formula_units_Z   1
loop_
 _symmetry_equiv_pos_site_id
 _symmetry_equiv_pos_as_xyz
  1  'x, y, z'
loop_
 _atom_site_type_symbol
 _atom_site_label
 _atom_site_symmetry_multiplicity
 _atom_site_fract_x
 _atom_site_fract_y
 _atom_site_fract_z
 _atom_site_occupancy
  Dy  Dy0  1  0.174687  0.965297  0.937031  1
  Dy  Dy1  1  0.324848  0.534380  0.436449  1
  Dy  Dy2  1  0.824214  0.036384  0.063059  1
  Dy  Dy3  1  0.677010  0.458156  0.564784  1
  Dy  Dy4  1  0.824154  0.463634  0.063081  1
  Dy  Dy5  1  0.174753  0.534665  0.937009  1
  Y  Y6  1  0.846755  0.749831  0.799456  1
  Y  Y7  1  0.152405  0.250156  0.199316  1
  Y  Y8  1  0.347291  0.250317  0.700419  1
  Y  Y9  1  0.654054  0.749606  0.295330  1
  Y  Y10  1  0.377882  0.749757  0.693973  1
  Y  Y11  1  0.619451  0.250263  0.309085  1
  Y  Y12  1  0.880180  0.250164  0.810114  1
  Y  Y13  1  0.119094  0.749835  0.188401  1
  Y  Y14  1  0.950186  0.749068  0.503385  1
  Y  Y15  1  0.049618  0.251034  0.497100  1
  Y  Y16  1  0.452121  0.250041  0.997522  1
  Y  Y17  1  0.548179  0.749966  0.002215  1
  Y  Y18  1  0.677869  0.042682  0.565354  1
  Y  Y19  1  0.323790  0.965217  0.435717  1
  Co  Co20  1  0.433329  0.251768  0.490583  1
  Co  Co21  1  0.060640  0.250031  0.992062  1
  Co  Co22  1  0.937613  0.749964  0.007372  1
  Bi  Bi23  1  0.570908  0.491727  0.826938  1
  Bi  Bi24  1  0.428505  0.507906  0.173228  1
  Bi  Bi25  1  0.070979  0.507712  0.674353  1
  Bi  Bi26  1  0.428663  0.992057  0.173286  1
  Bi  Bi27  1  0.930207  0.492183  0.325943  1
  Bi  Bi28  1  0.570722  0.008288  0.826860  1
  Bi  Bi29  1  0.930221  0.007785  0.326383  1
  Bi  Bi30  1  0.070906  0.992350  0.673920  1
  Ru  Ru31  1  0.568764  0.747776  0.510270  1
