# generated using pymatgen
data_Dy15LuMgIn3Rh4
_symmetry_space_group_name_H-M   'P 1'
_cell_length_a   9.64479454
_cell_length_b   9.64910752
_cell_length_c   9.66837703
_cell_angle_alpha   60.02607373
_cell_angle_beta   60.08065677
_cell_angle_gamma   60.01478760
_symmetry_Int_Tables_number   1
_chemical_formula_structural   Dy15LuMgIn3Rh4
_chemical_formula_sum   'Dy15 Lu1 Mg1 In3 Rh4'
_cell_volume   636.82035638
_cell_formula_units_Z   1
loop_
 _symmetry_equiv_pos_site_id
 _symmetry_equiv_pos_as_xyz
  1  'x, y, z'
loop_
 _atom_site_type_symbol
 _atom_site_label
 _atom_site_symmetry_multiplicity
 _atom_site_fract_x
 _atom_site_fract_y
 _atom_site_fract_z
 _atom_site_occupancy
  Dy  Dy0  1  0.686903  0.687262  0.313742  1
  Dy  Dy1  1  0.312093  0.687262  0.313742  1
  Dy  Dy2  1  0.935780  0.937282  0.562729  1
  Dy  Dy3  1  0.150391  0.149741  0.549476  1
  Dy  Dy4  1  0.564208  0.937282  0.562729  1
  Dy  Dy5  1  0.151397  0.151451  0.150565  1
  Dy  Dy6  1  0.310544  0.310321  0.689876  1
  Dy  Dy7  1  0.936900  0.562980  0.563220  1
  Dy  Dy8  1  0.563180  0.562037  0.937526  1
  Dy  Dy9  1  0.563169  0.937461  0.936202  1
  Dy  Dy10  1  0.937256  0.562037  0.937526  1
  Dy  Dy11  1  0.151256  0.547460  0.150027  1
  Dy  Dy12  1  0.309739  0.690059  0.690463  1
  Dy  Dy13  1  0.689259  0.310321  0.689876  1
  Dy  Dy14  1  0.546586  0.151451  0.150565  1
  Lu  Lu15  1  0.687853  0.311746  0.312548  1
  Mg  Mg16  1  0.921710  0.922545  0.234036  1
  In  In17  1  0.247934  0.917123  0.917817  1
  In  In18  1  0.916943  0.248212  0.917902  1
  In  In19  1  0.917125  0.917123  0.917817  1
  Rh  Rh20  1  0.359783  0.356753  0.357766  1
  Rh  Rh21  1  0.925699  0.356753  0.357766  1
  Rh  Rh22  1  0.357183  0.357925  0.927711  1
  Rh  Rh23  1  0.357112  0.927409  0.358370  1
