# generated using pymatgen
data_LaTbCdSi6(Pd9Pt)2
_symmetry_space_group_name_H-M   'P 1'
_cell_length_a   8.73237187
_cell_length_b   8.73220267
_cell_length_c   8.73218000
_cell_angle_alpha   59.99991918
_cell_angle_beta   60.00021164
_cell_angle_gamma   59.99991715
_symmetry_Int_Tables_number   1
_chemical_formula_structural   LaTbCdSi6(Pd9Pt)2
_chemical_formula_sum   'La1 Tb1 Cd1 Si6 Pd18 Pt2'
_cell_volume   470.82971858
_cell_formula_units_Z   1
loop_
 _symmetry_equiv_pos_site_id
 _symmetry_equiv_pos_as_xyz
  1  'x, y, z'
loop_
 _atom_site_type_symbol
 _atom_site_label
 _atom_site_symmetry_multiplicity
 _atom_site_fract_x
 _atom_site_fract_y
 _atom_site_fract_z
 _atom_site_occupancy
  La  La0  1  0.249747  0.249741  0.249728  1
  Tb  Tb1  1  0.749891  0.749896  0.749908  1
  Cd  Cd2  1  0.000015  0.000015  0.000016  1
  Si  Si3  1  0.732718  0.732714  0.268080  1
  Si  Si4  1  0.267290  0.267296  0.731908  1
  Si  Si5  1  0.732707  0.268093  0.732717  1
  Si  Si6  1  0.267304  0.731894  0.267292  1
  Si  Si7  1  0.268089  0.732707  0.732724  1
  Si  Si8  1  0.731903  0.267301  0.267285  1
  Pd  Pd9  1  0.150148  0.617220  0.617216  1
  Pd  Pd10  1  0.617215  0.150159  0.617209  1
  Pd  Pd11  1  0.843476  0.384923  0.384928  1
  Pd  Pd12  1  0.384925  0.843462  0.384932  1
  Pd  Pd13  1  0.617209  0.617207  0.150179  1
  Pd  Pd14  1  0.384935  0.384934  0.843446  1
  Pd  Pd15  1  0.998848  0.998847  0.656864  1
  Pd  Pd16  1  0.998947  0.998946  0.345375  1
  Pd  Pd17  1  0.345126  0.657005  0.998964  1
  Pd  Pd18  1  0.657011  0.345133  0.998959  1
  Pd  Pd19  1  0.998847  0.656861  0.998842  1
  Pd  Pd20  1  0.657023  0.998960  0.345126  1
  Pd  Pd21  1  0.998945  0.345380  0.998952  1
  Pd  Pd22  1  0.345117  0.998962  0.657014  1
  Pd  Pd23  1  0.656860  0.998851  0.998839  1
  Pd  Pd24  1  0.345376  0.998946  0.998958  1
  Pd  Pd25  1  0.998966  0.657023  0.345118  1
  Pd  Pd26  1  0.998957  0.345116  0.657021  1
  Pt  Pt27  1  0.616085  0.616092  0.616088  1
  Pt  Pt28  1  0.386323  0.386313  0.386314  1
