# generated using pymatgen
data_La7Pr5(PBr3)4
_symmetry_space_group_name_H-M   'P 1'
_cell_length_a   10.44104375
_cell_length_b   10.44439480
_cell_length_c   10.44068741
_cell_angle_alpha   109.59166642
_cell_angle_beta   109.51252514
_cell_angle_gamma   109.29551065
_symmetry_Int_Tables_number   1
_chemical_formula_structural   La7Pr5(PBr3)4
_chemical_formula_sum   'La7 Pr5 P4 Br12'
_cell_volume   876.61089573
_cell_formula_units_Z   1
loop_
 _symmetry_equiv_pos_site_id
 _symmetry_equiv_pos_as_xyz
  1  'x, y, z'
loop_
 _atom_site_type_symbol
 _atom_site_label
 _atom_site_symmetry_multiplicity
 _atom_site_fract_x
 _atom_site_fract_y
 _atom_site_fract_z
 _atom_site_occupancy
  La  La0  1  0.475149  0.486083  0.236220  1
  La  La1  1  0.748677  0.237622  0.262646  1
  La  La2  1  0.750681  0.013763  0.488584  1
  La  La3  1  0.239364  0.475471  0.490494  1
  La  La4  1  0.261932  0.751232  0.236156  1
  La  La5  1  0.025249  0.261832  0.010251  1
  La  La6  1  0.013806  0.024575  0.262683  1
  Pr  Pr7  1  0.482421  0.748549  0.012865  1
  Pr  Pr8  1  0.485114  0.234603  0.469824  1
  Pr  Pr9  1  0.016123  0.486073  0.750691  1
  Pr  Pr10  1  0.265289  0.014195  0.029758  1
  Pr  Pr11  1  0.236020  0.265744  0.750035  1
  P  P12  1  0.249407  0.250754  0.249866  1
  P  P13  1  0.501153  0.999841  0.250475  1
  P  P14  1  0.999430  0.249334  0.498556  1
  P  P15  1  0.250300  0.499972  0.001221  1
  Br  Br16  1  0.249536  0.755803  0.746968  1
  Br  Br17  1  0.511035  0.504129  0.757282  1
  Br  Br18  1  0.989235  0.744249  0.990683  1
  Br  Br19  1  0.744871  0.253590  0.755096  1
  Br  Br20  1  0.998501  0.989764  0.744664  1
  Br  Br21  1  0.253380  0.998117  0.508721  1
  Br  Br22  1  0.755214  0.510225  0.508516  1
  Br  Br23  1  0.501999  0.246501  0.990979  1
  Br  Br24  1  0.753467  0.743779  0.246902  1
  Br  Br25  1  0.742186  0.991913  0.987925  1
  Br  Br26  1  0.994225  0.505975  0.250139  1
  Br  Br27  1  0.506234  0.756312  0.511799  1
