# generated using pymatgen
data_Pa3(Be3Pd10)2
_symmetry_space_group_name_H-M   'P 1'
_cell_length_a   8.48612336
_cell_length_b   8.48611053
_cell_length_c   8.48609100
_cell_angle_alpha   60.00017472
_cell_angle_beta   60.00002821
_cell_angle_gamma   60.00025031
_symmetry_Int_Tables_number   1
_chemical_formula_structural   Pa3(Be3Pd10)2
_chemical_formula_sum   'Pa3 Be6 Pd20'
_cell_volume   432.12779279
_cell_formula_units_Z   1
loop_
 _symmetry_equiv_pos_site_id
 _symmetry_equiv_pos_as_xyz
  1  'x, y, z'
loop_
 _atom_site_type_symbol
 _atom_site_label
 _atom_site_symmetry_multiplicity
 _atom_site_fract_x
 _atom_site_fract_y
 _atom_site_fract_z
 _atom_site_occupancy
  Pa  Pa0  1  0.250002  0.250002  0.249998  1
  Pa  Pa1  1  0.749998  0.749998  0.750002  1
  Pa  Pa2  1  0.000000  0.000000  0.000000  1
  Be  Be3  1  0.726516  0.273484  0.273485  1
  Be  Be4  1  0.273485  0.726515  0.273485  1
  Be  Be5  1  0.273484  0.726516  0.726515  1
  Be  Be6  1  0.726515  0.726515  0.273485  1
  Be  Be7  1  0.726515  0.273485  0.726515  1
  Be  Be8  1  0.273485  0.273485  0.726515  1
  Pd  Pd9  1  0.000000  0.660997  0.000000  1
  Pd  Pd10  1  0.381372  0.855884  0.381373  1
  Pd  Pd11  1  0.000000  0.660997  0.339002  1
  Pd  Pd12  1  0.339003  0.000000  0.999999  1
  Pd  Pd13  1  0.660997  0.339003  0.000001  1
  Pd  Pd14  1  0.618628  0.144116  0.618627  1
  Pd  Pd15  1  0.660997  0.000000  0.339003  1
  Pd  Pd16  1  0.855884  0.381372  0.381371  1
  Pd  Pd17  1  0.339003  0.000000  0.660997  1
  Pd  Pd18  1  0.381373  0.381371  0.381371  1
  Pd  Pd19  1  0.000001  0.999999  0.660998  1
  Pd  Pd20  1  0.999999  0.000001  0.339002  1
  Pd  Pd21  1  0.618627  0.618629  0.618629  1
  Pd  Pd22  1  0.144116  0.618628  0.618629  1
  Pd  Pd23  1  0.618629  0.618627  0.144115  1
  Pd  Pd24  1  0.339003  0.660997  0.999999  1
  Pd  Pd25  1  0.000000  0.339003  0.000000  1
  Pd  Pd26  1  0.381371  0.381373  0.855885  1
  Pd  Pd27  1  0.000000  0.339003  0.660998  1
  Pd  Pd28  1  0.660997  0.000000  0.000001  1
