# generated using pymatgen
data_Nd2B10Pt
_symmetry_space_group_name_H-M   'P 1'
_cell_length_a   4.22587000
_cell_length_b   5.75821300
_cell_length_c   11.50917700
_cell_angle_alpha   90.00000000
_cell_angle_beta   90.00000000
_cell_angle_gamma   90.00000000
_symmetry_Int_Tables_number   1
_chemical_formula_structural   Nd2B10Pt
_chemical_formula_sum   'Nd4 B20 Pt2'
_cell_volume   280.05809322
_cell_formula_units_Z   2
loop_
 _symmetry_equiv_pos_site_id
 _symmetry_equiv_pos_as_xyz
  1  'x, y, z'
loop_
 _atom_site_type_symbol
 _atom_site_label
 _atom_site_symmetry_multiplicity
 _atom_site_fract_x
 _atom_site_fract_y
 _atom_site_fract_z
 _atom_site_occupancy
  Nd  Nd0  1  0.500000  0.308670  0.860811  1
  Nd  Nd1  1  0.500000  0.691330  0.139189  1
  Nd  Nd2  1  0.500000  0.808670  0.639189  1
  Nd  Nd3  1  0.500000  0.191330  0.360811  1
  B  B4  1  0.000000  0.117127  0.544065  1
  B  B5  1  0.000000  0.882873  0.455935  1
  B  B6  1  0.000000  0.617127  0.955935  1
  B  B7  1  0.000000  0.382873  0.044065  1
  B  B8  1  0.000000  0.139952  0.697067  1
  B  B9  1  0.000000  0.860048  0.302933  1
  B  B10  1  0.301917  0.216948  0.119790  1
  B  B11  1  0.301917  0.783052  0.880210  1
  B  B12  1  0.698083  0.716948  0.380210  1
  B  B13  1  0.698083  0.283052  0.619790  1
  B  B14  1  0.698083  0.783052  0.880210  1
  B  B15  1  0.698083  0.216948  0.119790  1
  B  B16  1  0.301917  0.283052  0.619790  1
  B  B17  1  0.301917  0.716948  0.380210  1
  B  B18  1  0.000000  0.053845  0.193966  1
  B  B19  1  0.000000  0.946155  0.806034  1
  B  B20  1  0.000000  0.553845  0.306034  1
  B  B21  1  0.000000  0.446155  0.693966  1
  B  B22  1  0.000000  0.360048  0.197067  1
  B  B23  1  0.000000  0.639952  0.802933  1
  Pt  Pt24  1  0.000000  0.500000  0.500000  1
  Pt  Pt25  1  0.000000  0.000000  0.000000  1
