# generated using pymatgen
data_KTl2V3F12
_symmetry_space_group_name_H-M   'P 1'
_cell_length_a   7.78348489
_cell_length_b   7.78348523
_cell_length_c   7.78348400
_cell_angle_alpha   59.30970993
_cell_angle_beta   59.30971700
_cell_angle_gamma   59.30970999
_symmetry_Int_Tables_number   1
_chemical_formula_structural   KTl2V3F12
_chemical_formula_sum   'K1 Tl2 V3 F12'
_cell_volume   328.19141555
_cell_formula_units_Z   1
loop_
 _symmetry_equiv_pos_site_id
 _symmetry_equiv_pos_as_xyz
  1  'x, y, z'
loop_
 _atom_site_type_symbol
 _atom_site_label
 _atom_site_symmetry_multiplicity
 _atom_site_fract_x
 _atom_site_fract_y
 _atom_site_fract_z
 _atom_site_occupancy
  K  K0  1  0.000000  0.000000  0.000000  1
  Tl  Tl1  1  0.642585  0.642585  0.642585  1
  Tl  Tl2  1  0.357415  0.357415  0.357415  1
  V  V3  1  0.500000  0.000000  0.000000  1
  V  V4  1  0.000000  0.000000  0.500000  1
  V  V5  1  0.000000  0.500000  0.000000  1
  F  F6  1  0.116541  0.116541  0.568890  1
  F  F7  1  0.568890  0.116541  0.116541  1
  F  F8  1  0.116541  0.568890  0.116541  1
  F  F9  1  0.883459  0.431110  0.883459  1
  F  F10  1  0.883459  0.883459  0.431110  1
  F  F11  1  0.431110  0.883459  0.883459  1
  F  F12  1  0.909195  0.280897  0.280897  1
  F  F13  1  0.280897  0.280897  0.909195  1
  F  F14  1  0.280897  0.909195  0.280897  1
  F  F15  1  0.719103  0.090805  0.719103  1
  F  F16  1  0.090805  0.719103  0.719103  1
  F  F17  1  0.719103  0.719103  0.090805  1
