# generated using pymatgen
data_Ac9Tb4Pr7Pb16
_symmetry_space_group_name_H-M   'P 1'
_cell_length_a   8.65607551
_cell_length_b   16.61319436
_cell_length_c   8.68632600
_cell_angle_alpha   90.17256500
_cell_angle_beta   90.21424222
_cell_angle_gamma   90.11006089
_symmetry_Int_Tables_number   1
_chemical_formula_structural   Ac9Tb4Pr7Pb16
_chemical_formula_sum   'Ac9 Tb4 Pr7 Pb16'
_cell_volume   1249.12094452
_cell_formula_units_Z   1
loop_
 _symmetry_equiv_pos_site_id
 _symmetry_equiv_pos_as_xyz
  1  'x, y, z'
loop_
 _atom_site_type_symbol
 _atom_site_label
 _atom_site_symmetry_multiplicity
 _atom_site_fract_x
 _atom_site_fract_y
 _atom_site_fract_z
 _atom_site_occupancy
  Ac  Ac0  1  0.126254  0.617996  0.343150  1
  Ac  Ac1  1  0.469381  0.598576  0.679401  1
  Ac  Ac2  1  0.970542  0.902884  0.821745  1
  Ac  Ac3  1  0.529592  0.098436  0.321523  1
  Ac  Ac4  1  0.030948  0.399642  0.177280  1
  Ac  Ac5  1  0.529832  0.400732  0.321477  1
  Ac  Ac6  1  0.029568  0.098578  0.178173  1
  Ac  Ac7  1  0.470696  0.902281  0.678620  1
  Ac  Ac8  1  0.968944  0.598925  0.822331  1
  Tb  Tb9  1  0.789155  0.750898  0.495686  1
  Tb  Tb10  1  0.292045  0.750935  0.004548  1
  Tb  Tb11  1  0.209489  0.249142  0.504674  1
  Tb  Tb12  1  0.709608  0.250045  0.995001  1
  Pr  Pr13  1  0.627846  0.620291  0.155574  1
  Pr  Pr14  1  0.128281  0.880086  0.344136  1
  Pr  Pr15  1  0.371696  0.119871  0.844968  1
  Pr  Pr16  1  0.872532  0.379351  0.655248  1
  Pr  Pr17  1  0.374400  0.378191  0.845666  1
  Pr  Pr18  1  0.872253  0.120555  0.655963  1
  Pr  Pr19  1  0.628072  0.881359  0.155139  1
  Pb  Pb20  1  0.711946  0.452480  0.962871  1
  Pb  Pb21  1  0.209348  0.047664  0.537595  1
  Pb  Pb22  1  0.290225  0.952694  0.038214  1
  Pb  Pb23  1  0.781266  0.546836  0.466010  1
  Pb  Pb24  1  0.293988  0.546335  0.030063  1
  Pb  Pb25  1  0.790871  0.952578  0.462640  1
  Pb  Pb26  1  0.709974  0.048206  0.961660  1
  Pb  Pb27  1  0.210935  0.447937  0.541090  1
  Pb  Pb28  1  0.435932  0.752838  0.368122  1
  Pb  Pb29  1  0.928375  0.752418  0.126043  1
  Pb  Pb30  1  0.567769  0.249464  0.631634  1
  Pb  Pb31  1  0.068192  0.249830  0.868760  1
  Pb  Pb32  1  0.661019  0.750753  0.853608  1
  Pb  Pb33  1  0.161758  0.752040  0.651324  1
  Pb  Pb34  1  0.338642  0.249428  0.147323  1
  Pb  Pb35  1  0.838626  0.249724  0.352736  1
