# generated using pymatgen
data_Rb2TlBi(AsS2)6
_symmetry_space_group_name_H-M   'P 1'
_cell_length_a   9.62883500
_cell_length_b   9.62883413
_cell_length_c   8.02355800
_cell_angle_alpha   90.00000000
_cell_angle_beta   90.00000000
_cell_angle_gamma   119.99999956
_symmetry_Int_Tables_number   1
_chemical_formula_structural   Rb2TlBi(AsS2)6
_chemical_formula_sum   'Rb2 Tl1 Bi1 As6 S12'
_cell_volume   644.23613408
_cell_formula_units_Z   1
loop_
 _symmetry_equiv_pos_site_id
 _symmetry_equiv_pos_as_xyz
  1  'x, y, z'
loop_
 _atom_site_type_symbol
 _atom_site_label
 _atom_site_symmetry_multiplicity
 _atom_site_fract_x
 _atom_site_fract_y
 _atom_site_fract_z
 _atom_site_occupancy
  Rb  Rb0  1  0.333333  0.666667  0.861770  1
  Rb  Rb1  1  0.666667  0.333333  0.138230  1
  Tl  Tl2  1  0.000000  0.000000  0.000000  1
  Bi  Bi3  1  0.000000  0.000000  0.500000  1
  As  As4  1  0.290900  0.838876  0.389005  1
  As  As5  1  0.161124  0.452026  0.389005  1
  As  As6  1  0.547974  0.709100  0.389005  1
  As  As7  1  0.709100  0.161124  0.610995  1
  As  As8  1  0.838876  0.547974  0.610995  1
  As  As9  1  0.452026  0.290900  0.610995  1
  S  S10  1  0.258135  0.037045  0.290936  1
  S  S11  1  0.962955  0.221091  0.290936  1
  S  S12  1  0.778909  0.741865  0.290936  1
  S  S13  1  0.741865  0.962955  0.709064  1
  S  S14  1  0.037045  0.778909  0.709064  1
  S  S15  1  0.221091  0.258135  0.709064  1
  S  S16  1  0.520690  0.900306  0.236182  1
  S  S17  1  0.099694  0.620384  0.236182  1
  S  S18  1  0.379616  0.479310  0.236182  1
  S  S19  1  0.479310  0.099694  0.763818  1
  S  S20  1  0.900306  0.379616  0.763818  1
  S  S21  1  0.620384  0.520690  0.763818  1
