# generated using pymatgen
data_Tb4Lu3Mg(B6Ru)4
_symmetry_space_group_name_H-M   'P 1'
_cell_length_a   3.61379500
_cell_length_b   9.04574925
_cell_length_c   11.43747432
_cell_angle_alpha   89.97307345
_cell_angle_beta   90.00000000
_cell_angle_gamma   90.00000000
_symmetry_Int_Tables_number   1
_chemical_formula_structural   Tb4Lu3Mg(B6Ru)4
_chemical_formula_sum   'Tb4 Lu3 Mg1 B24 Ru4'
_cell_volume   373.88508561
_cell_formula_units_Z   1
loop_
 _symmetry_equiv_pos_site_id
 _symmetry_equiv_pos_as_xyz
  1  'x, y, z'
loop_
 _atom_site_type_symbol
 _atom_site_label
 _atom_site_symmetry_multiplicity
 _atom_site_fract_x
 _atom_site_fract_y
 _atom_site_fract_z
 _atom_site_occupancy
  Tb  Tb0  1  0.000000  0.321282  0.412760  1
  Tb  Tb1  1  0.000000  0.679063  0.582904  1
  Tb  Tb2  1  0.000000  0.822887  0.088571  1
  Tb  Tb3  1  0.000000  0.177461  0.915996  1
  Lu  Lu4  1  0.000000  0.055194  0.625298  1
  Lu  Lu5  1  0.000000  0.443589  0.128989  1
  Lu  Lu6  1  0.000000  0.556462  0.872061  1
  Mg  Mg7  1  0.000000  0.945580  0.375154  1
  B  B8  1  0.500000  0.556294  0.431966  1
  B  B9  1  0.500000  0.444946  0.566856  1
  B  B10  1  0.500000  0.053991  0.068798  1
  B  B11  1  0.500000  0.945351  0.932444  1
  B  B12  1  0.500000  0.752873  0.418291  1
  B  B13  1  0.500000  0.248936  0.580018  1
  B  B14  1  0.500000  0.249368  0.081996  1
  B  B15  1  0.500000  0.750011  0.918871  1
  B  B16  1  0.500000  0.794410  0.266136  1
  B  B17  1  0.500000  0.207639  0.733612  1
  B  B18  1  0.500000  0.289922  0.234971  1
  B  B19  1  0.500000  0.708546  0.765031  1
  B  B20  1  0.500000  0.631305  0.185379  1
  B  B21  1  0.500000  0.369210  0.815558  1
  B  B22  1  0.500000  0.127280  0.316755  1
  B  B23  1  0.500000  0.869665  0.682819  1
  B  B24  1  0.500000  0.981351  0.214626  1
  B  B25  1  0.500000  0.016950  0.785875  1
  B  B26  1  0.500000  0.483646  0.287264  1
  B  B27  1  0.500000  0.516786  0.712993  1
  B  B28  1  0.500000  0.603834  0.028544  1
  B  B29  1  0.500000  0.396355  0.972101  1
  B  B30  1  0.500000  0.099276  0.470454  1
  B  B31  1  0.500000  0.898551  0.525434  1
  Ru  Ru32  1  0.000000  0.642228  0.319707  1
  Ru  Ru33  1  0.000000  0.360574  0.680314  1
  Ru  Ru34  1  0.000000  0.137524  0.181749  1
  Ru  Ru35  1  0.000000  0.861659  0.819705  1
