# generated using pymatgen
data_Ho2TmHf(Co4P3)2
_symmetry_space_group_name_H-M   'P 1'
_cell_length_a   3.70012600
_cell_length_b   10.63754200
_cell_length_c   12.32581500
_cell_angle_alpha   90.00000000
_cell_angle_beta   90.00000000
_cell_angle_gamma   90.00000000
_symmetry_Int_Tables_number   1
_chemical_formula_structural   Ho2TmHf(Co4P3)2
_chemical_formula_sum   'Ho4 Tm2 Hf2 Co16 P12'
_cell_volume   485.14710723
_cell_formula_units_Z   2
loop_
 _symmetry_equiv_pos_site_id
 _symmetry_equiv_pos_as_xyz
  1  'x, y, z'
loop_
 _atom_site_type_symbol
 _atom_site_label
 _atom_site_symmetry_multiplicity
 _atom_site_fract_x
 _atom_site_fract_y
 _atom_site_fract_z
 _atom_site_occupancy
  Ho  Ho0  1  0.000000  0.500000  0.529026  1
  Ho  Ho1  1  0.500000  0.000000  0.470554  1
  Ho  Ho2  1  0.000000  0.677957  0.795457  1
  Ho  Ho3  1  0.000000  0.322043  0.795457  1
  Tm  Tm4  1  0.500000  0.822289  0.204447  1
  Tm  Tm5  1  0.500000  0.177711  0.204447  1
  Hf  Hf6  1  0.500000  0.500000  0.157795  1
  Hf  Hf7  1  0.000000  0.000000  0.842306  1
  Co  Co8  1  0.000000  0.500000  0.987507  1
  Co  Co9  1  0.500000  0.000000  0.013702  1
  Co  Co10  1  0.500000  0.295087  0.432436  1
  Co  Co11  1  0.500000  0.704913  0.432436  1
  Co  Co12  1  0.000000  0.204640  0.566320  1
  Co  Co13  1  0.000000  0.795360  0.566320  1
  Co  Co14  1  0.500000  0.877660  0.702569  1
  Co  Co15  1  0.500000  0.122340  0.702569  1
  Co  Co16  1  0.000000  0.622844  0.296829  1
  Co  Co17  1  0.000000  0.377156  0.296829  1
  Co  Co18  1  0.500000  0.331769  0.994209  1
  Co  Co19  1  0.500000  0.668231  0.994209  1
  Co  Co20  1  0.000000  0.167881  0.007170  1
  Co  Co21  1  0.000000  0.832119  0.007170  1
  Co  Co22  1  0.500000  0.500000  0.703196  1
  Co  Co23  1  0.000000  0.000000  0.296235  1
  P  P24  1  0.500000  0.310415  0.615565  1
  P  P25  1  0.500000  0.689585  0.615565  1
  P  P26  1  0.000000  0.189098  0.383202  1
  P  P27  1  0.000000  0.810902  0.383202  1
  P  P28  1  0.500000  0.500000  0.883875  1
  P  P29  1  0.000000  0.000000  0.117339  1
  P  P30  1  0.500000  0.838377  0.892809  1
  P  P31  1  0.500000  0.161623  0.892809  1
  P  P32  1  0.000000  0.662400  0.108277  1
  P  P33  1  0.000000  0.337600  0.108277  1
  P  P34  1  0.500000  0.500000  0.362650  1
  P  P35  1  0.000000  0.000000  0.637238  1
