# generated using pymatgen
data_TbEr4Hf5(Si5Ir2)4
_symmetry_space_group_name_H-M   'P 1'
_cell_length_a   12.47476102
_cell_length_b   12.47512202
_cell_length_c   4.16125200
_cell_angle_alpha   90.00000000
_cell_angle_beta   90.00000000
_cell_angle_gamma   90.04623183
_symmetry_Int_Tables_number   1
_chemical_formula_structural   TbEr4Hf5(Si5Ir2)4
_chemical_formula_sum   'Tb1 Er4 Hf5 Si20 Ir8'
_cell_volume   647.59116027
_cell_formula_units_Z   1
loop_
 _symmetry_equiv_pos_site_id
 _symmetry_equiv_pos_as_xyz
  1  'x, y, z'
loop_
 _atom_site_type_symbol
 _atom_site_label
 _atom_site_symmetry_multiplicity
 _atom_site_fract_x
 _atom_site_fract_y
 _atom_site_fract_z
 _atom_site_occupancy
  Tb  Tb0  1  0.884116  0.384484  0.500000  1
  Er  Er1  1  0.000006  0.999955  0.000000  1
  Er  Er2  1  0.115880  0.615565  0.500000  1
  Er  Er3  1  0.384438  0.115876  0.500000  1
  Er  Er4  1  0.615573  0.884138  0.500000  1
  Hf  Hf5  1  0.499970  0.500000  0.000000  1
  Hf  Hf6  1  0.673399  0.174921  0.500000  1
  Hf  Hf7  1  0.326534  0.825002  0.500000  1
  Hf  Hf8  1  0.175132  0.326525  0.500000  1
  Hf  Hf9  1  0.824999  0.673615  0.500000  1
  Si  Si10  1  0.565618  0.067518  0.000000  1
  Si  Si11  1  0.434379  0.932477  0.000000  1
  Si  Si12  1  0.067735  0.434379  0.000000  1
  Si  Si13  1  0.932474  0.565870  0.000000  1
  Si  Si14  1  0.665758  0.701435  0.000000  1
  Si  Si15  1  0.334206  0.298609  0.000000  1
  Si  Si16  1  0.164173  0.800754  0.000000  1
  Si  Si17  1  0.835804  0.199047  0.000000  1
  Si  Si18  1  0.298635  0.665785  0.000000  1
  Si  Si19  1  0.701157  0.334203  0.000000  1
  Si  Si20  1  0.199317  0.164135  0.000000  1
  Si  Si21  1  0.800725  0.835821  0.000000  1
  Si  Si22  1  0.651126  0.507624  0.500000  1
  Si  Si23  1  0.348777  0.492356  0.500000  1
  Si  Si24  1  0.156137  0.992824  0.500000  1
  Si  Si25  1  0.843889  0.007167  0.500000  1
  Si  Si26  1  0.492384  0.651243  0.500000  1
  Si  Si27  1  0.507599  0.348767  0.500000  1
  Si  Si28  1  0.007200  0.155987  0.500000  1
  Si  Si29  1  0.992791  0.843882  0.500000  1
  Ir  Ir30  1  0.741828  0.521813  0.000000  1
  Ir  Ir31  1  0.257730  0.478739  0.000000  1
  Ir  Ir32  1  0.246552  0.978320  0.000000  1
  Ir  Ir33  1  0.753428  0.021615  0.000000  1
  Ir  Ir34  1  0.478712  0.742339  0.000000  1
  Ir  Ir35  1  0.521227  0.257638  0.000000  1
  Ir  Ir36  1  0.022231  0.246031  0.000000  1
  Ir  Ir37  1  0.978358  0.753541  0.000000  1
