# generated using pymatgen
data_Sm8Lu11ScSi15Ru
_symmetry_space_group_name_H-M   'P 1'
_cell_length_a   7.30724530
_cell_length_b   7.71487070
_cell_length_c   14.43411800
_cell_angle_alpha   90.00000000
_cell_angle_beta   90.00000000
_cell_angle_gamma   90.13438260
_symmetry_Int_Tables_number   1
_chemical_formula_structural   Sm8Lu11ScSi15Ru
_chemical_formula_sum   'Sm8 Lu11 Sc1 Si15 Ru1'
_cell_volume   813.71326382
_cell_formula_units_Z   1
loop_
 _symmetry_equiv_pos_site_id
 _symmetry_equiv_pos_as_xyz
  1  'x, y, z'
loop_
 _atom_site_type_symbol
 _atom_site_label
 _atom_site_symmetry_multiplicity
 _atom_site_fract_x
 _atom_site_fract_y
 _atom_site_fract_z
 _atom_site_occupancy
  Sm  Sm0  1  0.014802  0.179733  0.097920  1
  Sm  Sm1  1  0.988355  0.826236  0.903305  1
  Sm  Sm2  1  0.486389  0.677039  0.903789  1
  Sm  Sm3  1  0.988355  0.826236  0.596695  1
  Sm  Sm4  1  0.512064  0.320937  0.097423  1
  Sm  Sm5  1  0.014802  0.179733  0.402080  1
  Sm  Sm6  1  0.512064  0.320937  0.402577  1
  Sm  Sm7  1  0.486389  0.677039  0.596211  1
  Lu  Lu8  1  0.156222  0.504100  0.750000  1
  Lu  Lu9  1  0.838749  0.490494  0.250000  1
  Lu  Lu10  1  0.669782  0.994812  0.750000  1
  Lu  Lu11  1  0.314307  0.172013  0.626735  1
  Lu  Lu12  1  0.673770  0.826765  0.374003  1
  Lu  Lu13  1  0.174861  0.679302  0.374509  1
  Lu  Lu14  1  0.673770  0.826765  0.125997  1
  Lu  Lu15  1  0.836095  0.316610  0.626393  1
  Lu  Lu16  1  0.314307  0.172013  0.873265  1
  Lu  Lu17  1  0.836095  0.316610  0.873607  1
  Lu  Lu18  1  0.174861  0.679302  0.125491  1
  Sc  Sc19  1  0.338662  0.010531  0.250000  1
  Si  Si20  1  0.973566  0.889663  0.250000  1
  Si  Si21  1  0.470656  0.612201  0.250000  1
  Si  Si22  1  0.529469  0.391502  0.750000  1
  Si  Si23  1  0.282401  0.869026  0.750000  1
  Si  Si24  1  0.710330  0.128614  0.250000  1
  Si  Si25  1  0.217064  0.368069  0.250000  1
  Si  Si26  1  0.774955  0.624317  0.750000  1
  Si  Si27  1  0.156695  0.471157  0.536547  1
  Si  Si28  1  0.847240  0.534894  0.461946  1
  Si  Si29  1  0.347487  0.967435  0.459513  1
  Si  Si30  1  0.847240  0.534894  0.038054  1
  Si  Si31  1  0.651536  0.033142  0.537537  1
  Si  Si32  1  0.156695  0.471157  0.963453  1
  Si  Si33  1  0.651536  0.033142  0.962463  1
  Si  Si34  1  0.347487  0.967435  0.040487  1
  Ru  Ru35  1  0.030940  0.106142  0.750000  1
