# generated using pymatgen
data_Y6Cd6Hg11Au
_symmetry_space_group_name_H-M   'P 1'
_cell_length_a   5.10757001
_cell_length_b   7.08491400
_cell_length_c   15.49850604
_cell_angle_alpha   89.99886736
_cell_angle_beta   90.00803434
_cell_angle_gamma   90.00027213
_symmetry_Int_Tables_number   1
_chemical_formula_structural   Y6Cd6Hg11Au
_chemical_formula_sum   'Y6 Cd6 Hg11 Au1'
_cell_volume   560.83969435
_cell_formula_units_Z   1
loop_
 _symmetry_equiv_pos_site_id
 _symmetry_equiv_pos_as_xyz
  1  'x, y, z'
loop_
 _atom_site_type_symbol
 _atom_site_label
 _atom_site_symmetry_multiplicity
 _atom_site_fract_x
 _atom_site_fract_y
 _atom_site_fract_z
 _atom_site_occupancy
  Y  Y0  1  0.000001  0.995483  0.996875  1
  Y  Y1  1  0.499969  0.499732  0.166892  1
  Y  Y2  1  0.999971  0.000436  0.333402  1
  Y  Y3  1  0.500001  0.499722  0.499803  1
  Y  Y4  1  0.000022  0.995468  0.669740  1
  Y  Y5  1  0.500034  0.509122  0.833308  1
  Cd  Cd6  1  0.000003  0.503481  0.997374  1
  Cd  Cd7  1  0.499972  0.000238  0.165790  1
  Cd  Cd8  1  0.999969  0.500310  0.333370  1
  Cd  Cd9  1  0.500000  0.000239  0.500948  1
  Cd  Cd10  1  0.000026  0.503505  0.669266  1
  Cd  Cd11  1  0.500029  0.992740  0.833251  1
  Hg  Hg12  1  0.500003  0.250750  0.999060  1
  Hg  Hg13  1  0.499998  0.750170  0.000382  1
  Hg  Hg14  1  0.999972  0.249243  0.165196  1
  Hg  Hg15  1  0.999976  0.749596  0.165949  1
  Hg  Hg16  1  0.499967  0.250075  0.333352  1
  Hg  Hg17  1  0.499964  0.750537  0.333350  1
  Hg  Hg18  1  0.999999  0.249324  0.501501  1
  Hg  Hg19  1  0.000003  0.749528  0.500759  1
  Hg  Hg20  1  0.500038  0.250773  0.667574  1
  Hg  Hg21  1  0.500032  0.750109  0.666246  1
  Hg  Hg22  1  0.000031  0.251741  0.833314  1
  Au  Au23  1  0.000013  0.747677  0.833298  1
