# generated using pymatgen
data_Er5Al3Si4Rh3
_symmetry_space_group_name_H-M   'P 1'
_cell_length_a   4.17690900
_cell_length_b   19.13983100
_cell_length_c   6.87010100
_cell_angle_alpha   90.00000000
_cell_angle_beta   90.00000000
_cell_angle_gamma   90.00000000
_symmetry_Int_Tables_number   1
_chemical_formula_structural   Er5Al3Si4Rh3
_chemical_formula_sum   'Er10 Al6 Si8 Rh6'
_cell_volume   549.23250781
_cell_formula_units_Z   2
loop_
 _symmetry_equiv_pos_site_id
 _symmetry_equiv_pos_as_xyz
  1  'x, y, z'
loop_
 _atom_site_type_symbol
 _atom_site_label
 _atom_site_symmetry_multiplicity
 _atom_site_fract_x
 _atom_site_fract_y
 _atom_site_fract_z
 _atom_site_occupancy
  Er  Er0  1  0.750000  0.122926  0.997525  1
  Er  Er1  1  0.750000  0.377074  0.997525  1
  Er  Er2  1  0.750000  0.250000  0.365871  1
  Er  Er3  1  0.750000  0.072892  0.491398  1
  Er  Er4  1  0.750000  0.427107  0.491398  1
  Er  Er5  1  0.250001  0.572892  0.508602  1
  Er  Er6  1  0.250001  0.927108  0.508602  1
  Er  Er7  1  0.250001  0.750000  0.634129  1
  Er  Er8  1  0.250001  0.622926  0.002475  1
  Er  Er9  1  0.250001  0.877074  0.002475  1
  Al  Al10  1  0.250001  0.250000  0.022772  1
  Al  Al11  1  0.750000  0.677725  0.333207  1
  Al  Al12  1  0.750000  0.822275  0.333207  1
  Al  Al13  1  0.250001  0.177725  0.666793  1
  Al  Al14  1  0.250001  0.322275  0.666793  1
  Al  Al15  1  0.750000  0.750000  0.977228  1
  Si  Si16  1  0.750000  0.540066  0.205919  1
  Si  Si17  1  0.750000  0.959934  0.205919  1
  Si  Si18  1  0.250001  0.145594  0.281768  1
  Si  Si19  1  0.250001  0.354406  0.281768  1
  Si  Si20  1  0.750000  0.645594  0.718232  1
  Si  Si21  1  0.750000  0.854406  0.718232  1
  Si  Si22  1  0.250001  0.040067  0.794081  1
  Si  Si23  1  0.250001  0.459933  0.794081  1
  Rh  Rh24  1  0.250001  0.022344  0.152023  1
  Rh  Rh25  1  0.250001  0.477656  0.152023  1
  Rh  Rh26  1  0.250001  0.750000  0.218983  1
  Rh  Rh27  1  0.750000  0.250000  0.781017  1
  Rh  Rh28  1  0.750000  0.522344  0.847977  1
  Rh  Rh29  1  0.750000  0.977656  0.847977  1
