# generated using pymatgen
data_PrNd11(SiI3)4
_symmetry_space_group_name_H-M   'P 1'
_cell_length_a   10.83550611
_cell_length_b   10.83529765
_cell_length_c   10.84547262
_cell_angle_alpha   109.44686325
_cell_angle_beta   109.45066573
_cell_angle_gamma   109.51666806
_symmetry_Int_Tables_number   1
_chemical_formula_structural   PrNd11(SiI3)4
_chemical_formula_sum   'Pr1 Nd11 Si4 I12'
_cell_volume   980.19756127
_cell_formula_units_Z   1
loop_
 _symmetry_equiv_pos_site_id
 _symmetry_equiv_pos_as_xyz
  1  'x, y, z'
loop_
 _atom_site_type_symbol
 _atom_site_label
 _atom_site_symmetry_multiplicity
 _atom_site_fract_x
 _atom_site_fract_y
 _atom_site_fract_z
 _atom_site_occupancy
  Pr  Pr0  1  0.233789  0.266186  0.750032  1
  Nd  Nd1  1  0.464220  0.482658  0.232577  1
  Nd  Nd2  1  0.750673  0.232225  0.268827  1
  Nd  Nd3  1  0.749329  0.017633  0.481369  1
  Nd  Nd4  1  0.231741  0.464134  0.481194  1
  Nd  Nd5  1  0.267790  0.749293  0.231157  1
  Nd  Nd6  1  0.035844  0.268248  0.018763  1
  Nd  Nd7  1  0.017311  0.035818  0.267443  1
  Nd  Nd8  1  0.482396  0.750714  0.018685  1
  Nd  Nd9  1  0.481720  0.232348  0.464013  1
  Nd  Nd10  1  0.018328  0.481612  0.749966  1
  Nd  Nd11  1  0.267645  0.018343  0.035973  1
  Si  Si12  1  0.249899  0.250100  0.250001  1
  Si  Si13  1  0.499582  0.000424  0.249998  1
  Si  Si14  1  0.000472  0.249817  0.500151  1
  Si  Si15  1  0.250195  0.499527  0.999861  1
  I  I16  1  0.250234  0.757171  0.743591  1
  I  I17  1  0.515952  0.510816  0.755973  1
  I  I18  1  0.986202  0.742820  0.993233  1
  I  I19  1  0.742825  0.249722  0.756371  1
  I  I20  1  0.989150  0.984046  0.744051  1
  I  I21  1  0.248902  0.990093  0.503877  1
  I  I22  1  0.757196  0.513776  0.506733  1
  I  I23  1  0.509919  0.251145  0.996148  1
  I  I24  1  0.756816  0.743234  0.250067  1
  I  I25  1  0.742690  0.993738  0.986529  1
  I  I26  1  0.992855  0.507096  0.249945  1
  I  I27  1  0.506321  0.757266  0.513472  1
