# generated using pymatgen
data_RbSm(AuO2)4
_symmetry_space_group_name_H-M   'P 1'
_cell_length_a   6.81161554
_cell_length_b   6.81161562
_cell_length_c   6.81161500
_cell_angle_alpha   125.01710698
_cell_angle_beta   125.01710741
_cell_angle_gamma   81.50968896
_symmetry_Int_Tables_number   1
_chemical_formula_structural   RbSm(AuO2)4
_chemical_formula_sum   'Rb1 Sm1 Au4 O8'
_cell_volume   204.06130257
_cell_formula_units_Z   1
loop_
 _symmetry_equiv_pos_site_id
 _symmetry_equiv_pos_as_xyz
  1  'x, y, z'
loop_
 _atom_site_type_symbol
 _atom_site_label
 _atom_site_symmetry_multiplicity
 _atom_site_fract_x
 _atom_site_fract_y
 _atom_site_fract_z
 _atom_site_occupancy
  Rb  Rb0  1  0.750000  0.250000  0.500000  1
  Sm  Sm1  1  0.000000  0.000000  0.000000  1
  Au  Au2  1  0.371216  0.643152  0.764374  1
  Au  Au3  1  0.356848  0.121222  0.728064  1
  Au  Au4  1  0.878778  0.606841  0.235626  1
  Au  Au5  1  0.393159  0.628784  0.271936  1
  O  O6  1  0.078459  0.406646  0.092054  1
  O  O7  1  0.728774  0.271007  0.085303  1
  O  O8  1  0.185703  0.643469  0.914697  1
  O  O9  1  0.314592  0.986406  0.907946  1
  O  O10  1  0.728993  0.814297  0.457766  1
  O  O11  1  0.013594  0.921541  0.328187  1
  O  O12  1  0.356531  0.271226  0.542234  1
  O  O13  1  0.593354  0.685408  0.671813  1
