# generated using pymatgen
data_NdYLuTaO7
_symmetry_space_group_name_H-M   'P 1'
_cell_length_a   6.47259599
_cell_length_b   6.47259671
_cell_length_c   7.56767900
_cell_angle_alpha   90.00000000
_cell_angle_beta   90.00000000
_cell_angle_gamma   109.19433689
_symmetry_Int_Tables_number   1
_chemical_formula_structural   NdYLuTaO7
_chemical_formula_sum   'Nd2 Y2 Lu2 Ta2 O14'
_cell_volume   299.41931201
_cell_formula_units_Z   2
loop_
 _symmetry_equiv_pos_site_id
 _symmetry_equiv_pos_as_xyz
  1  'x, y, z'
loop_
 _atom_site_type_symbol
 _atom_site_label
 _atom_site_symmetry_multiplicity
 _atom_site_fract_x
 _atom_site_fract_y
 _atom_site_fract_z
 _atom_site_occupancy
  Nd  Nd0  1  0.507007  0.507007  0.500000  1
  Nd  Nd1  1  0.507007  0.507007  0.000000  1
  Y  Y2  1  0.467043  0.000190  0.250000  1
  Y  Y3  1  0.000190  0.467043  0.750000  1
  Lu  Lu4  1  0.530780  0.002788  0.750000  1
  Lu  Lu5  1  0.002788  0.530780  0.250000  1
  Ta  Ta6  1  0.000518  0.000518  0.500000  1
  Ta  Ta7  1  0.000518  0.000518  0.000000  1
  O  O8  1  0.675695  0.928924  0.473244  1
  O  O9  1  0.928924  0.675695  0.526756  1
  O  O10  1  0.675695  0.928924  0.026756  1
  O  O11  1  0.928924  0.675695  0.973244  1
  O  O12  1  0.317876  0.065927  0.539647  1
  O  O13  1  0.065927  0.317876  0.460353  1
  O  O14  1  0.317876  0.065927  0.960353  1
  O  O15  1  0.065927  0.317876  0.039647  1
  O  O16  1  0.935427  0.066007  0.750000  1
  O  O17  1  0.066007  0.935427  0.250000  1
  O  O18  1  0.366689  0.643385  0.750000  1
  O  O19  1  0.643385  0.366689  0.250000  1
  O  O20  1  0.642588  0.353211  0.750000  1
  O  O21  1  0.353211  0.642588  0.250000  1
