# generated using pymatgen
data_Er4Al18OsPt5
_symmetry_space_group_name_H-M   'P 1'
_cell_length_a   7.59560515
_cell_length_b   7.59551351
_cell_length_c   9.40753655
_cell_angle_alpha   89.90151564
_cell_angle_beta   89.90171334
_cell_angle_gamma   119.62022155
_symmetry_Int_Tables_number   1
_chemical_formula_structural   Er4Al18OsPt5
_chemical_formula_sum   'Er4 Al18 Os1 Pt5'
_cell_volume   471.81619959
_cell_formula_units_Z   1
loop_
 _symmetry_equiv_pos_site_id
 _symmetry_equiv_pos_as_xyz
  1  'x, y, z'
loop_
 _atom_site_type_symbol
 _atom_site_label
 _atom_site_symmetry_multiplicity
 _atom_site_fract_x
 _atom_site_fract_y
 _atom_site_fract_z
 _atom_site_occupancy
  Er  Er0  1  0.994561  0.670689  0.248560  1
  Er  Er1  1  0.005439  0.329311  0.751440  1
  Er  Er2  1  0.670672  0.994555  0.248550  1
  Er  Er3  1  0.329328  0.005445  0.751450  1
  Al  Al4  1  0.128663  0.128663  0.246705  1
  Al  Al5  1  0.871337  0.871337  0.753295  1
  Al  Al6  1  0.999124  0.329613  0.074904  1
  Al  Al7  1  0.000876  0.670387  0.925096  1
  Al  Al8  1  0.999670  0.664537  0.578694  1
  Al  Al9  1  0.335466  0.000331  0.421306  1
  Al  Al10  1  0.000330  0.335463  0.421306  1
  Al  Al11  1  0.664534  0.999669  0.578694  1
  Al  Al12  1  0.670388  0.000877  0.925094  1
  Al  Al13  1  0.329612  0.999123  0.074906  1
  Al  Al14  1  0.333431  0.333431  0.559883  1
  Al  Al15  1  0.666569  0.666569  0.440117  1
  Al  Al16  1  0.671784  0.671783  0.056021  1
  Al  Al17  1  0.328216  0.328217  0.943979  1
  Al  Al18  1  0.340104  0.547837  0.249163  1
  Al  Al19  1  0.659896  0.452163  0.750837  1
  Al  Al20  1  0.547838  0.340104  0.249163  1
  Al  Al21  1  0.452162  0.659896  0.750837  1
  Os  Os22  1  0.000000  0.000000  0.000000  1
  Pt  Pt23  1  0.672263  0.327744  0.000000  1
  Pt  Pt24  1  0.327737  0.672256  0.000000  1
  Pt  Pt25  1  0.327615  0.672390  0.499997  1
  Pt  Pt26  1  0.672385  0.327610  0.500003  1
  Pt  Pt27  1  0.000000  0.000000  0.500000  1
