# generated using pymatgen
data_SmH5Pt
_symmetry_space_group_name_H-M   'P 1'
_cell_length_a   4.70903600
_cell_length_b   4.56750300
_cell_length_c   12.74846100
_cell_angle_alpha   90.00000000
_cell_angle_beta   90.00000000
_cell_angle_gamma   90.00000000
_symmetry_Int_Tables_number   1
_chemical_formula_structural   SmH5Pt
_chemical_formula_sum   'Sm4 H20 Pt4'
_cell_volume   274.20073309
_cell_formula_units_Z   4
loop_
 _symmetry_equiv_pos_site_id
 _symmetry_equiv_pos_as_xyz
  1  'x, y, z'
loop_
 _atom_site_type_symbol
 _atom_site_label
 _atom_site_symmetry_multiplicity
 _atom_site_fract_x
 _atom_site_fract_y
 _atom_site_fract_z
 _atom_site_occupancy
  Sm  Sm0  1  0.283965  0.012641  0.632527  1
  Sm  Sm1  1  0.783965  0.487359  0.367473  1
  Sm  Sm2  1  0.216035  0.987359  0.132527  1
  Sm  Sm3  1  0.716035  0.512641  0.867473  1
  H  H4  1  0.748558  0.219364  0.548160  1
  H  H5  1  0.248558  0.280636  0.451840  1
  H  H6  1  0.751442  0.780636  0.048160  1
  H  H7  1  0.251442  0.719364  0.951840  1
  H  H8  1  0.020540  0.896832  0.798109  1
  H  H9  1  0.520540  0.603168  0.201891  1
  H  H10  1  0.479460  0.103168  0.298109  1
  H  H11  1  0.979460  0.396832  0.701891  1
  H  H12  1  0.210099  0.358201  0.830761  1
  H  H13  1  0.710099  0.141799  0.169239  1
  H  H14  1  0.289901  0.641799  0.330761  1
  H  H15  1  0.789901  0.858201  0.669239  1
  H  H16  1  0.560858  0.993068  0.806223  1
  H  H17  1  0.060858  0.506932  0.193777  1
  H  H18  1  0.939142  0.006932  0.306223  1
  H  H19  1  0.439142  0.493068  0.693777  1
  H  H20  1  0.936382  0.302243  0.020129  1
  H  H21  1  0.436382  0.197757  0.979871  1
  H  H22  1  0.563618  0.697757  0.520129  1
  H  H23  1  0.063618  0.802243  0.479871  1
  Pt  Pt24  1  0.250691  0.030227  0.884771  1
  Pt  Pt25  1  0.750691  0.469773  0.115229  1
  Pt  Pt26  1  0.249309  0.969773  0.384771  1
  Pt  Pt27  1  0.749309  0.530227  0.615229  1
