# generated using pymatgen
data_YHoBe25Co
_symmetry_space_group_name_H-M   'P 1'
_cell_length_a   7.20741624
_cell_length_b   7.25004121
_cell_length_c   7.19114503
_cell_angle_alpha   59.87546082
_cell_angle_beta   59.92247906
_cell_angle_gamma   59.66169936
_symmetry_Int_Tables_number   1
_chemical_formula_structural   YHoBe25Co
_chemical_formula_sum   'Y1 Ho1 Be25 Co1'
_cell_volume   264.61764301
_cell_formula_units_Z   1
loop_
 _symmetry_equiv_pos_site_id
 _symmetry_equiv_pos_as_xyz
  1  'x, y, z'
loop_
 _atom_site_type_symbol
 _atom_site_label
 _atom_site_symmetry_multiplicity
 _atom_site_fract_x
 _atom_site_fract_y
 _atom_site_fract_z
 _atom_site_occupancy
  Y  Y0  1  0.246852  0.254883  0.250280  1
  Ho  Ho1  1  0.749736  0.751914  0.753411  1
  Be  Be2  1  0.502711  0.501553  0.497284  1
  Be  Be3  1  0.998746  0.003006  0.001253  1
  Be  Be4  1  0.203135  0.440378  0.796706  1
  Be  Be5  1  0.566493  0.787951  0.433635  1
  Be  Be6  1  0.434690  0.207826  0.565455  1
  Be  Be7  1  0.291182  0.933996  0.708950  1
  Be  Be8  1  0.707205  0.064083  0.292931  1
  Be  Be9  1  0.934047  0.289410  0.065804  1
  Be  Be10  1  0.065968  0.714190  0.933883  1
  Be  Be11  1  0.206334  0.795671  0.561993  1
  Be  Be12  1  0.791613  0.207208  0.436247  1
  Be  Be13  1  0.438141  0.564137  0.793523  1
  Be  Be14  1  0.563900  0.435211  0.208242  1
  Be  Be15  1  0.710607  0.284909  0.934478  1
  Be  Be16  1  0.288664  0.712034  0.064111  1
  Be  Be17  1  0.065401  0.929877  0.289526  1
  Be  Be18  1  0.935744  0.064678  0.711470  1
  Be  Be19  1  0.559953  0.208730  0.793822  1
  Be  Be20  1  0.439142  0.791037  0.206495  1
  Be  Be21  1  0.793343  0.436807  0.561017  1
  Be  Be22  1  0.206034  0.562641  0.440199  1
  Be  Be23  1  0.936172  0.709572  0.289351  1
  Be  Be24  1  0.065017  0.289447  0.708839  1
  Be  Be25  1  0.291299  0.063167  0.934851  1
  Be  Be26  1  0.710775  0.934964  0.063684  1
  Co  Co27  1  0.797098  0.560722  0.202557  1
