# generated using pymatgen
data_Li6In12IrPt5
_symmetry_space_group_name_H-M   'P 1'
_cell_length_a   4.67946000
_cell_length_b   6.65543600
_cell_length_c   13.79603800
_cell_angle_alpha   90.00003383
_cell_angle_beta   89.99855912
_cell_angle_gamma   90.00000000
_symmetry_Int_Tables_number   1
_chemical_formula_structural   Li6In12IrPt5
_chemical_formula_sum   'Li6 In12 Ir1 Pt5'
_cell_volume   429.66169033
_cell_formula_units_Z   1
loop_
 _symmetry_equiv_pos_site_id
 _symmetry_equiv_pos_as_xyz
  1  'x, y, z'
loop_
 _atom_site_type_symbol
 _atom_site_label
 _atom_site_symmetry_multiplicity
 _atom_site_fract_x
 _atom_site_fract_y
 _atom_site_fract_z
 _atom_site_occupancy
  Li  Li0  1  0.000032  0.500000  0.998754  1
  Li  Li1  1  0.499590  0.000000  0.165880  1
  Li  Li2  1  0.999583  0.500000  0.333345  1
  Li  Li3  1  0.500025  0.000000  0.500784  1
  Li  Li4  1  0.000420  0.500000  0.667917  1
  Li  Li5  1  0.500449  0.000000  0.833341  1
  In  In6  1  0.500057  0.249931  0.997720  1
  In  In7  1  0.500056  0.750070  0.997720  1
  In  In8  1  0.999681  0.252931  0.166075  1
  In  In9  1  0.999681  0.747070  0.166075  1
  In  In10  1  0.499653  0.247643  0.333327  1
  In  In11  1  0.499653  0.752357  0.333328  1
  In  In12  1  0.999996  0.252949  0.500600  1
  In  In13  1  0.999996  0.747051  0.500600  1
  In  In14  1  0.500329  0.249956  0.668919  1
  In  In15  1  0.500330  0.750044  0.668919  1
  In  In16  1  0.000231  0.256073  0.833337  1
  In  In17  1  0.000230  0.743927  0.833337  1
  Ir  Ir18  1  0.500367  0.500000  0.833341  1
  Pt  Pt19  1  0.000034  0.000000  0.000940  1
  Pt  Pt20  1  0.499612  0.500000  0.167582  1
  Pt  Pt21  1  0.999600  0.000000  0.333346  1
  Pt  Pt22  1  0.500013  0.500000  0.499078  1
  Pt  Pt23  1  0.000387  0.000000  0.665734  1
