# generated using pymatgen
data_Ac4Zn51
_symmetry_space_group_name_H-M   'P 1'
_cell_length_a   8.60652200
_cell_length_b   8.60652169
_cell_length_c   14.80378300
_cell_angle_alpha   73.10093745
_cell_angle_beta   90.00000000
_cell_angle_gamma   120.00000119
_symmetry_Int_Tables_number   1
_chemical_formula_structural   Ac4Zn51
_chemical_formula_sum   'Ac4 Zn51'
_cell_volume   894.54567714
_cell_formula_units_Z   1
loop_
 _symmetry_equiv_pos_site_id
 _symmetry_equiv_pos_as_xyz
  1  'x, y, z'
loop_
 _atom_site_type_symbol
 _atom_site_label
 _atom_site_symmetry_multiplicity
 _atom_site_fract_x
 _atom_site_fract_y
 _atom_site_fract_z
 _atom_site_occupancy
  Ac  Ac0  1  0.875286  0.750571  0.374143  1
  Ac  Ac1  1  0.374593  0.749186  0.876221  1
  Ac  Ac2  1  0.624714  0.249429  0.125857  1
  Ac  Ac3  1  0.125407  0.250814  0.623779  1
  Zn  Zn4  1  0.337533  0.442510  0.104122  1
  Zn  Zn5  1  0.843738  0.443120  0.598956  1
  Zn  Zn6  1  0.162467  0.557490  0.395878  1
  Zn  Zn7  1  0.656262  0.556880  0.901044  1
  Zn  Zn8  1  0.986307  0.207612  0.220931  1
  Zn  Zn9  1  0.479499  0.198993  0.720742  1
  Zn  Zn10  1  0.513693  0.792389  0.279069  1
  Zn  Zn11  1  0.020501  0.801007  0.779258  1
  Zn  Zn12  1  0.708477  0.056915  0.349145  1
  Zn  Zn13  1  0.208202  0.058564  0.850549  1
  Zn  Zn14  1  0.791523  0.943085  0.150855  1
  Zn  Zn15  1  0.291798  0.941436  0.649451  1
  Zn  Zn16  1  0.670052  0.699303  0.029972  1
  Zn  Zn17  1  0.171419  0.700670  0.528432  1
  Zn  Zn18  1  0.829948  0.300697  0.470028  1
  Zn  Zn19  1  0.328581  0.299330  0.971568  1
  Zn  Zn20  1  0.046631  0.209097  0.395878  1
  Zn  Zn21  1  0.542076  0.198338  0.901044  1
  Zn  Zn22  1  0.453369  0.790903  0.104122  1
  Zn  Zn23  1  0.957924  0.801662  0.598956  1
  Zn  Zn24  1  0.928543  0.442236  0.279069  1
  Zn  Zn25  1  0.419735  0.440236  0.779258  1
  Zn  Zn26  1  0.571457  0.557764  0.220931  1
  Zn  Zn27  1  0.080265  0.559764  0.720742  1
  Zn  Zn28  1  0.906060  0.697583  0.150855  1
  Zn  Zn29  1  0.409113  0.700911  0.649451  1
  Zn  Zn30  1  0.593940  0.302417  0.349145  1
  Zn  Zn31  1  0.090887  0.299089  0.850549  1
  Zn  Zn32  1  0.229275  0.059223  0.470028  1
  Zn  Zn33  1  0.729102  0.057683  0.971568  1
  Zn  Zn34  1  0.270725  0.940777  0.029972  1
  Zn  Zn35  1  0.770898  0.942317  0.528432  1
  Zn  Zn36  1  0.221304  0.792762  0.220931  1
  Zn  Zn37  1  0.719493  0.799758  0.720742  1
  Zn  Zn38  1  0.278696  0.207238  0.279069  1
  Zn  Zn39  1  0.780507  0.200242  0.779258  1
  Zn  Zn40  1  0.104976  0.558345  0.104122  1
  Zn  Zn41  1  0.599381  0.557306  0.598956  1
  Zn  Zn42  1  0.395024  0.441655  0.395878  1
  Zn  Zn43  1  0.900619  0.442694  0.901044  1
  Zn  Zn44  1  0.029250  0.299975  0.029972  1
  Zn  Zn45  1  0.529251  0.300149  0.528432  1
  Zn  Zn46  1  0.470750  0.700025  0.470028  1
  Zn  Zn47  1  0.970749  0.699851  0.971568  1
  Zn  Zn48  1  0.348438  0.942378  0.349145  1
  Zn  Zn49  1  0.850362  0.941249  0.850549  1
  Zn  Zn50  1  0.151562  0.057622  0.150855  1
  Zn  Zn51  1  0.649638  0.058751  0.649451  1
  Zn  Zn52  1  0.750000  0.500000  0.750000  1
  Zn  Zn53  1  0.999686  0.999371  0.000943  1
  Zn  Zn54  1  0.500314  0.000629  0.499057  1
