# generated using pymatgen
data_Zn5FeMo12(IrN2)2
_symmetry_space_group_name_H-M   'P 1'
_cell_length_a   6.81893547
_cell_length_b   6.81951559
_cell_length_c   6.79956275
_cell_angle_alpha   89.90638218
_cell_angle_beta   89.84037675
_cell_angle_gamma   90.50431588
_symmetry_Int_Tables_number   1
_chemical_formula_structural   Zn5FeMo12(IrN2)2
_chemical_formula_sum   'Zn5 Fe1 Mo12 Ir2 N4'
_cell_volume   316.17824640
_cell_formula_units_Z   1
loop_
 _symmetry_equiv_pos_site_id
 _symmetry_equiv_pos_as_xyz
  1  'x, y, z'
loop_
 _atom_site_type_symbol
 _atom_site_label
 _atom_site_symmetry_multiplicity
 _atom_site_fract_x
 _atom_site_fract_y
 _atom_site_fract_z
 _atom_site_occupancy
  Zn  Zn0  1  0.821837  0.682547  0.568856  1
  Zn  Zn1  1  0.318851  0.320548  0.432975  1
  Zn  Zn2  1  0.069212  0.563275  0.322463  1
  Zn  Zn3  1  0.433016  0.072138  0.188977  1
  Zn  Zn4  1  0.567805  0.433003  0.678056  1
  Fe  Fe5  1  0.936727  0.934885  0.812299  1
  Mo  Mo6  1  0.631757  0.040247  0.548734  1
  Mo  Mo7  1  0.123777  0.953323  0.462775  1
  Mo  Mo8  1  0.879910  0.556424  0.957250  1
  Mo  Mo9  1  0.375556  0.450778  0.041367  1
  Mo  Mo10  1  0.203482  0.626467  0.711177  1
  Mo  Mo11  1  0.284516  0.124381  0.804239  1
  Mo  Mo12  1  0.795816  0.875792  0.188548  1
  Mo  Mo13  1  0.707546  0.378388  0.289785  1
  Mo  Mo14  1  0.041819  0.198054  0.120927  1
  Mo  Mo15  1  0.946719  0.283420  0.629896  1
  Mo  Mo16  1  0.551018  0.795838  0.869245  1
  Mo  Mo17  1  0.452293  0.711630  0.374942  1
  Ir  Ir18  1  0.688243  0.181760  0.933060  1
  Ir  Ir19  1  0.183881  0.816990  0.065627  1
  N  N20  1  0.371725  0.877228  0.628026  1
  N  N21  1  0.872703  0.122659  0.373067  1
  N  N22  1  0.119783  0.374501  0.876865  1
  N  N23  1  0.622004  0.625723  0.120844  1
