# generated using pymatgen
data_Y3VFe6(CoP3)2
_symmetry_space_group_name_H-M   'P 1'
_cell_length_a   3.73021100
_cell_length_b   10.55146700
_cell_length_c   12.23202100
_cell_angle_alpha   90.00000000
_cell_angle_beta   90.00000000
_cell_angle_gamma   90.00000000
_symmetry_Int_Tables_number   1
_chemical_formula_structural   Y3VFe6(CoP3)2
_chemical_formula_sum   'Y6 V2 Fe12 Co4 P12'
_cell_volume   481.44253978
_cell_formula_units_Z   2
loop_
 _symmetry_equiv_pos_site_id
 _symmetry_equiv_pos_as_xyz
  1  'x, y, z'
loop_
 _atom_site_type_symbol
 _atom_site_label
 _atom_site_symmetry_multiplicity
 _atom_site_fract_x
 _atom_site_fract_y
 _atom_site_fract_z
 _atom_site_occupancy
  Y  Y0  1  0.000000  0.500000  0.524072  1
  Y  Y1  1  0.500000  0.000000  0.472280  1
  Y  Y2  1  0.500000  0.821736  0.207235  1
  Y  Y3  1  0.500000  0.178264  0.207235  1
  Y  Y4  1  0.000000  0.677487  0.794112  1
  Y  Y5  1  0.000000  0.322513  0.794112  1
  V  V6  1  0.500000  0.500000  0.151281  1
  V  V7  1  0.000000  0.000000  0.849342  1
  Fe  Fe8  1  0.000000  0.500000  0.990183  1
  Fe  Fe9  1  0.500000  0.000000  0.010937  1
  Fe  Fe10  1  0.500000  0.326647  0.998175  1
  Fe  Fe11  1  0.500000  0.673353  0.998175  1
  Fe  Fe12  1  0.000000  0.172858  0.002306  1
  Fe  Fe13  1  0.000000  0.827142  0.002306  1
  Fe  Fe14  1  0.500000  0.298131  0.430311  1
  Fe  Fe15  1  0.500000  0.701869  0.430311  1
  Fe  Fe16  1  0.000000  0.202013  0.571058  1
  Fe  Fe17  1  0.000000  0.797987  0.571058  1
  Fe  Fe18  1  0.500000  0.883619  0.705248  1
  Fe  Fe19  1  0.500000  0.116381  0.705248  1
  Co  Co20  1  0.500000  0.500000  0.702390  1
  Co  Co21  1  0.000000  0.000000  0.297987  1
  Co  Co22  1  0.000000  0.619722  0.292908  1
  Co  Co23  1  0.000000  0.380278  0.292908  1
  P  P24  1  0.500000  0.500000  0.888068  1
  P  P25  1  0.000000  0.000000  0.112943  1
  P  P26  1  0.500000  0.500000  0.346446  1
  P  P27  1  0.000000  0.000000  0.650447  1
  P  P28  1  0.500000  0.308733  0.613504  1
  P  P29  1  0.500000  0.691267  0.613504  1
  P  P30  1  0.000000  0.193308  0.386687  1
  P  P31  1  0.000000  0.806692  0.386687  1
  P  P32  1  0.500000  0.847118  0.889230  1
  P  P33  1  0.500000  0.152882  0.889230  1
  P  P34  1  0.000000  0.652685  0.111039  1
  P  P35  1  0.000000  0.347315  0.111039  1
