# generated using pymatgen
data_Tm12Fe2OsAu2
_symmetry_space_group_name_H-M   'P 1'
_cell_length_a   8.13910623
_cell_length_b   8.13910707
_cell_length_c   8.13910618
_cell_angle_alpha   108.63574639
_cell_angle_beta   108.63573870
_cell_angle_gamma   111.15541986
_symmetry_Int_Tables_number   1
_chemical_formula_structural   Tm12Fe2OsAu2
_chemical_formula_sum   'Tm12 Fe2 Os1 Au2'
_cell_volume   414.78766148
_cell_formula_units_Z   1
loop_
 _symmetry_equiv_pos_site_id
 _symmetry_equiv_pos_as_xyz
  1  'x, y, z'
loop_
 _atom_site_type_symbol
 _atom_site_label
 _atom_site_symmetry_multiplicity
 _atom_site_fract_x
 _atom_site_fract_y
 _atom_site_fract_z
 _atom_site_occupancy
  Tm  Tm0  1  0.189868  0.434722  0.244853  1
  Tm  Tm1  1  0.810132  0.565278  0.755147  1
  Tm  Tm2  1  0.189868  0.945016  0.755147  1
  Tm  Tm3  1  0.945016  0.189868  0.755147  1
  Tm  Tm4  1  0.810132  0.054984  0.244853  1
  Tm  Tm5  1  0.054984  0.810132  0.244853  1
  Tm  Tm6  1  0.434722  0.189868  0.244853  1
  Tm  Tm7  1  0.565278  0.810132  0.755147  1
  Tm  Tm8  1  0.310318  0.310318  0.620635  1
  Tm  Tm9  1  0.689682  0.689682  0.379365  1
  Tm  Tm10  1  0.689682  0.310318  0.000000  1
  Tm  Tm11  1  0.310318  0.689682  0.000000  1
  Fe  Fe12  1  0.379799  0.379799  0.000000  1
  Fe  Fe13  1  0.620201  0.620201  0.000000  1
  Os  Os14  1  0.000000  0.000000  0.000000  1
  Au  Au15  1  0.000000  0.500000  0.500000  1
  Au  Au16  1  0.500000  0.000000  0.500000  1
