# generated using pymatgen
data_HoErZn14Pd3
_symmetry_space_group_name_H-M   'P 1'
_cell_length_a   6.83045235
_cell_length_b   6.83045222
_cell_length_c   6.83045300
_cell_angle_alpha   82.73077960
_cell_angle_beta   82.73077974
_cell_angle_gamma   82.73078179
_symmetry_Int_Tables_number   1
_chemical_formula_structural   HoErZn14Pd3
_chemical_formula_sum   'Ho1 Er1 Zn14 Pd3'
_cell_volume   311.58898630
_cell_formula_units_Z   1
loop_
 _symmetry_equiv_pos_site_id
 _symmetry_equiv_pos_as_xyz
  1  'x, y, z'
loop_
 _atom_site_type_symbol
 _atom_site_label
 _atom_site_symmetry_multiplicity
 _atom_site_fract_x
 _atom_site_fract_y
 _atom_site_fract_z
 _atom_site_occupancy
  Ho  Ho0  1  0.662702  0.662702  0.662702  1
  Er  Er1  1  0.337444  0.337444  0.337444  1
  Zn  Zn2  1  0.351543  0.351543  0.838929  1
  Zn  Zn3  1  0.838929  0.351543  0.351543  1
  Zn  Zn4  1  0.103097  0.103097  0.103097  1
  Zn  Zn5  1  0.896549  0.896549  0.896549  1
  Zn  Zn6  1  0.299229  0.700867  0.999814  1
  Zn  Zn7  1  0.700867  0.999814  0.299229  1
  Zn  Zn8  1  0.999814  0.299229  0.700867  1
  Zn  Zn9  1  0.700867  0.299229  0.999814  1
  Zn  Zn10  1  0.299229  0.999814  0.700867  1
  Zn  Zn11  1  0.999814  0.700867  0.299229  1
  Zn  Zn12  1  0.160554  0.648709  0.648709  1
  Zn  Zn13  1  0.648709  0.648709  0.160554  1
  Zn  Zn14  1  0.648709  0.160554  0.648709  1
  Zn  Zn15  1  0.351543  0.838929  0.351543  1
  Pd  Pd16  1  0.000392  0.000392  0.499618  1
  Pd  Pd17  1  0.000392  0.499618  0.000392  1
  Pd  Pd18  1  0.499618  0.000392  0.000392  1
