# generated using pymatgen
data_K2Ba2InSb7Au8
_symmetry_space_group_name_H-M   'P 1'
_cell_length_a   4.86683300
_cell_length_b   9.05668410
_cell_length_c   12.40319924
_cell_angle_alpha   90.00715562
_cell_angle_beta   90.00000000
_cell_angle_gamma   90.00000000
_symmetry_Int_Tables_number   1
_chemical_formula_structural   K2Ba2InSb7Au8
_chemical_formula_sum   'K2 Ba2 In1 Sb7 Au8'
_cell_volume   546.70038620
_cell_formula_units_Z   1
loop_
 _symmetry_equiv_pos_site_id
 _symmetry_equiv_pos_as_xyz
  1  'x, y, z'
loop_
 _atom_site_type_symbol
 _atom_site_label
 _atom_site_symmetry_multiplicity
 _atom_site_fract_x
 _atom_site_fract_y
 _atom_site_fract_z
 _atom_site_occupancy
  K  K0  1  0.750000  0.745568  0.334513  1
  K  K1  1  0.250000  0.763623  0.837872  1
  Ba  Ba2  1  0.250000  0.253024  0.661470  1
  Ba  Ba3  1  0.750000  0.239847  0.164782  1
  In  In4  1  0.250000  0.393223  0.950787  1
  Sb  Sb5  1  0.250000  0.403663  0.346490  1
  Sb  Sb6  1  0.250000  0.900925  0.157090  1
  Sb  Sb7  1  0.750000  0.602626  0.040821  1
  Sb  Sb8  1  0.750000  0.603685  0.654200  1
  Sb  Sb9  1  0.750000  0.101856  0.849527  1
  Sb  Sb10  1  0.250000  0.893109  0.542755  1
  Sb  Sb11  1  0.750000  0.108889  0.459219  1
  Au  Au12  1  0.250000  0.085741  0.972497  1
  Au  Au13  1  0.750000  0.425264  0.836306  1
  Au  Au14  1  0.750000  0.925563  0.661510  1
  Au  Au15  1  0.250000  0.561465  0.154553  1
  Au  Au16  1  0.250000  0.081577  0.339612  1
  Au  Au17  1  0.750000  0.907447  0.036252  1
  Au  Au18  1  0.250000  0.584039  0.535054  1
  Au  Au19  1  0.750000  0.418868  0.464690  1
