# generated using pymatgen
data_Y2Tm3(OsO6)2
_symmetry_space_group_name_H-M   'P 1'
_cell_length_a   6.82751507
_cell_length_b   6.82751579
_cell_length_c   7.42536454
_cell_angle_alpha   74.15573394
_cell_angle_beta   74.15573343
_cell_angle_gamma   48.79667255
_symmetry_Int_Tables_number   1
_chemical_formula_structural   Y2Tm3(OsO6)2
_chemical_formula_sum   'Y2 Tm3 Os2 O12'
_cell_volume   248.44385573
_cell_formula_units_Z   1
loop_
 _symmetry_equiv_pos_site_id
 _symmetry_equiv_pos_as_xyz
  1  'x, y, z'
loop_
 _atom_site_type_symbol
 _atom_site_label
 _atom_site_symmetry_multiplicity
 _atom_site_fract_x
 _atom_site_fract_y
 _atom_site_fract_z
 _atom_site_occupancy
  Y  Y0  1  0.801162  0.801162  0.357926  1
  Y  Y1  1  0.198838  0.198838  0.642074  1
  Tm  Tm2  1  0.500000  0.500000  0.500000  1
  Tm  Tm3  1  0.187946  0.187946  0.171036  1
  Tm  Tm4  1  0.812054  0.812054  0.828964  1
  Os  Os5  1  0.719294  0.280706  0.000000  1
  Os  Os6  1  0.280706  0.719294  0.000000  1
  O  O7  1  0.000344  0.000344  0.176205  1
  O  O8  1  0.999656  0.999656  0.823795  1
  O  O9  1  0.499391  0.499391  0.794633  1
  O  O10  1  0.500609  0.500609  0.205367  1
  O  O11  1  0.600944  0.097406  0.574948  1
  O  O12  1  0.902594  0.399056  0.425052  1
  O  O13  1  0.399056  0.902594  0.425052  1
  O  O14  1  0.415339  0.919722  0.915659  1
  O  O15  1  0.080278  0.584661  0.084341  1
  O  O16  1  0.584661  0.080278  0.084341  1
  O  O17  1  0.919722  0.415339  0.915659  1
  O  O18  1  0.097406  0.600944  0.574948  1
