# generated using pymatgen
data_FeNi(BMo)6
_symmetry_space_group_name_H-M   'P 1'
_cell_length_a   3.16638700
_cell_length_b   4.52998709
_cell_length_c   10.80514615
_cell_angle_alpha   89.90603114
_cell_angle_beta   90.00000000
_cell_angle_gamma   110.45622985
_symmetry_Int_Tables_number   1
_chemical_formula_structural   FeNi(BMo)6
_chemical_formula_sum   'Fe1 Ni1 B6 Mo6'
_cell_volume   145.21198581
_cell_formula_units_Z   1
loop_
 _symmetry_equiv_pos_site_id
 _symmetry_equiv_pos_as_xyz
  1  'x, y, z'
loop_
 _atom_site_type_symbol
 _atom_site_label
 _atom_site_symmetry_multiplicity
 _atom_site_fract_x
 _atom_site_fract_y
 _atom_site_fract_z
 _atom_site_occupancy
  Fe  Fe0  1  0.500000  0.000000  0.500000  1
  Ni  Ni1  1  0.500000  0.000000  0.000000  1
  B  B2  1  0.912609  0.825218  0.397360  1
  B  B3  1  0.087391  0.174782  0.602640  1
  B  B4  1  0.910899  0.821797  0.104716  1
  B  B5  1  0.089101  0.178203  0.895284  1
  B  B6  1  0.792235  0.584470  0.250359  1
  B  B7  1  0.207765  0.415530  0.749641  1
  Mo  Mo8  1  0.211419  0.422837  0.393043  1
  Mo  Mo9  1  0.788581  0.577163  0.606957  1
  Mo  Mo10  1  0.212364  0.424727  0.108790  1
  Mo  Mo11  1  0.787636  0.575273  0.891210  1
  Mo  Mo12  1  0.498218  0.996435  0.250737  1
  Mo  Mo13  1  0.501782  0.003565  0.749263  1
