# generated using pymatgen
data_Sr2YCu4Ni9B2
_symmetry_space_group_name_H-M   'P 1'
_cell_length_a   5.12009201
_cell_length_b   5.11928985
_cell_length_c   10.98008300
_cell_angle_alpha   89.99935742
_cell_angle_beta   90.00129618
_cell_angle_gamma   120.01086747
_symmetry_Int_Tables_number   1
_chemical_formula_structural   Sr2YCu4Ni9B2
_chemical_formula_sum   'Sr2 Y1 Cu4 Ni9 B2'
_cell_volume   249.21614310
_cell_formula_units_Z   1
loop_
 _symmetry_equiv_pos_site_id
 _symmetry_equiv_pos_as_xyz
  1  'x, y, z'
loop_
 _atom_site_type_symbol
 _atom_site_label
 _atom_site_symmetry_multiplicity
 _atom_site_fract_x
 _atom_site_fract_y
 _atom_site_fract_z
 _atom_site_occupancy
  Sr  Sr0  1  0.999996  0.000000  0.331051  1
  Sr  Sr1  1  0.999990  0.000000  0.668966  1
  Y  Y2  1  0.999998  0.000000  0.000009  1
  Cu  Cu3  1  0.333270  0.666546  0.316051  1
  Cu  Cu4  1  0.666723  0.333454  0.316051  1
  Cu  Cu5  1  0.666704  0.333428  0.683936  1
  Cu  Cu6  1  0.333276  0.666572  0.683936  1
  Ni  Ni7  1  0.499998  0.000000  0.499991  1
  Ni  Ni8  1  0.499976  0.499990  0.499999  1
  Ni  Ni9  1  0.999986  0.500010  0.499999  1
  Ni  Ni10  1  0.500011  0.000000  0.126273  1
  Ni  Ni11  1  0.500011  0.500002  0.126330  1
  Ni  Ni12  1  0.000010  0.499998  0.126330  1
  Ni  Ni13  1  0.499984  0.000000  0.873716  1
  Ni  Ni14  1  0.499986  0.499999  0.873682  1
  Ni  Ni15  1  0.999987  0.500001  0.873681  1
  B  B16  1  0.333365  0.666736  0.999997  1
  B  B17  1  0.666630  0.333264  0.999997  1
