# generated using pymatgen
data_NdDyCuPd5
_symmetry_space_group_name_H-M   'P 1'
_cell_length_a   4.18748300
_cell_length_b   4.18748300
_cell_length_c   8.12076100
_cell_angle_alpha   90.00000000
_cell_angle_beta   90.00000000
_cell_angle_gamma   90.00000000
_symmetry_Int_Tables_number   1
_chemical_formula_structural   NdDyCuPd5
_chemical_formula_sum   'Nd1 Dy1 Cu1 Pd5'
_cell_volume   142.39765681
_cell_formula_units_Z   1
loop_
 _symmetry_equiv_pos_site_id
 _symmetry_equiv_pos_as_xyz
  1  'x, y, z'
loop_
 _atom_site_type_symbol
 _atom_site_label
 _atom_site_symmetry_multiplicity
 _atom_site_fract_x
 _atom_site_fract_y
 _atom_site_fract_z
 _atom_site_occupancy
  Nd  Nd0  1  0.000000  0.000000  0.500000  1
  Dy  Dy1  1  0.000000  0.000000  0.000000  1
  Cu  Cu2  1  0.500000  0.500000  0.000000  1
  Pd  Pd3  1  0.500000  0.500000  0.500000  1
  Pd  Pd4  1  0.500000  0.000000  0.234755  1
  Pd  Pd5  1  0.500000  0.000000  0.765245  1
  Pd  Pd6  1  0.000000  0.500000  0.234755  1
  Pd  Pd7  1  0.000000  0.500000  0.765245  1
