# generated using pymatgen
data_TbGd5AuO12
_symmetry_space_group_name_H-M   'P 1'
_cell_length_a   6.58607792
_cell_length_b   6.56780582
_cell_length_c   6.57241202
_cell_angle_alpha   98.70113213
_cell_angle_beta   98.84894644
_cell_angle_gamma   98.89996450
_symmetry_Int_Tables_number   1
_chemical_formula_structural   TbGd5AuO12
_chemical_formula_sum   'Tb1 Gd5 Au1 O12'
_cell_volume   273.03073968
_cell_formula_units_Z   1
loop_
 _symmetry_equiv_pos_site_id
 _symmetry_equiv_pos_as_xyz
  1  'x, y, z'
loop_
 _atom_site_type_symbol
 _atom_site_label
 _atom_site_symmetry_multiplicity
 _atom_site_fract_x
 _atom_site_fract_y
 _atom_site_fract_z
 _atom_site_occupancy
  Tb  Tb0  1  0.859934  0.390002  0.699006  1
  Gd  Gd1  1  0.608619  0.301701  0.139432  1
  Gd  Gd2  1  0.301951  0.142084  0.609208  1
  Gd  Gd3  1  0.699021  0.859794  0.391652  1
  Gd  Gd4  1  0.391418  0.696503  0.859105  1
  Gd  Gd5  1  0.139584  0.607776  0.301656  1
  Au  Au6  1  0.999692  0.999638  0.999476  1
  O  O7  1  0.938706  0.047461  0.693973  1
  O  O8  1  0.954282  0.306313  0.059058  1
  O  O9  1  0.591796  0.177748  0.438654  1
  O  O10  1  0.822657  0.561685  0.410760  1
  O  O11  1  0.305665  0.060659  0.954441  1
  O  O12  1  0.562897  0.409474  0.823328  1
  O  O13  1  0.437591  0.591287  0.177958  1
  O  O14  1  0.694070  0.939220  0.045589  1
  O  O15  1  0.176986  0.437869  0.590492  1
  O  O16  1  0.410121  0.823893  0.562370  1
  O  O17  1  0.044416  0.692671  0.938060  1
  O  O18  1  0.060596  0.954222  0.305780  1
