# generated using pymatgen
data_Dy2Er3Pb4
_symmetry_space_group_name_H-M   'P 1'
_cell_length_a   8.16608400
_cell_length_b   8.23852000
_cell_length_c   15.56820200
_cell_angle_alpha   90.00000000
_cell_angle_beta   90.00000000
_cell_angle_gamma   90.00000000
_symmetry_Int_Tables_number   1
_chemical_formula_structural   Dy2Er3Pb4
_chemical_formula_sum   'Dy8 Er12 Pb16'
_cell_volume   1047.37330671
_cell_formula_units_Z   4
loop_
 _symmetry_equiv_pos_site_id
 _symmetry_equiv_pos_as_xyz
  1  'x, y, z'
loop_
 _atom_site_type_symbol
 _atom_site_label
 _atom_site_symmetry_multiplicity
 _atom_site_fract_x
 _atom_site_fract_y
 _atom_site_fract_z
 _atom_site_occupancy
  Dy  Dy0  1  0.536422  0.323096  0.899894  1
  Dy  Dy1  1  0.036422  0.176904  0.600106  1
  Dy  Dy2  1  0.463578  0.676904  0.399894  1
  Dy  Dy3  1  0.963578  0.823096  0.100106  1
  Dy  Dy4  1  0.463578  0.676904  0.100106  1
  Dy  Dy5  1  0.963578  0.823096  0.399894  1
  Dy  Dy6  1  0.536422  0.323096  0.600106  1
  Dy  Dy7  1  0.036422  0.176904  0.899894  1
  Er  Er8  1  0.376438  0.841096  0.879248  1
  Er  Er9  1  0.876438  0.658904  0.620752  1
  Er  Er10  1  0.623562  0.158904  0.379248  1
  Er  Er11  1  0.123562  0.341096  0.120752  1
  Er  Er12  1  0.623562  0.158904  0.120752  1
  Er  Er13  1  0.123562  0.341096  0.379248  1
  Er  Er14  1  0.376438  0.841096  0.620752  1
  Er  Er15  1  0.876438  0.658904  0.879248  1
  Er  Er16  1  0.208248  0.504391  0.750000  1
  Er  Er17  1  0.708248  0.995609  0.750000  1
  Er  Er18  1  0.791752  0.495609  0.250000  1
  Er  Er19  1  0.291752  0.004391  0.250000  1
  Pb  Pb20  1  0.281459  0.033035  0.042853  1
  Pb  Pb21  1  0.781459  0.466965  0.457147  1
  Pb  Pb22  1  0.718541  0.966965  0.542853  1
  Pb  Pb23  1  0.218541  0.533035  0.957147  1
  Pb  Pb24  1  0.718541  0.966965  0.957147  1
  Pb  Pb25  1  0.218541  0.533035  0.542853  1
  Pb  Pb26  1  0.281459  0.033035  0.457147  1
  Pb  Pb27  1  0.781459  0.466965  0.042853  1
  Pb  Pb28  1  0.571016  0.627139  0.750000  1
  Pb  Pb29  1  0.071016  0.872861  0.750000  1
  Pb  Pb30  1  0.428984  0.372861  0.250000  1
  Pb  Pb31  1  0.928984  0.127139  0.250000  1
  Pb  Pb32  1  0.347321  0.153408  0.750000  1
  Pb  Pb33  1  0.847321  0.346592  0.750000  1
  Pb  Pb34  1  0.652679  0.846592  0.250000  1
  Pb  Pb35  1  0.152679  0.653408  0.250000  1
