# generated using pymatgen
data_Cs3TcS4
_symmetry_space_group_name_H-M   'P 1'
_cell_length_a   10.00317100
_cell_length_b   9.96015500
_cell_length_c   11.85444000
_cell_angle_alpha   90.00000000
_cell_angle_beta   90.00000000
_cell_angle_gamma   90.00000000
_symmetry_Int_Tables_number   1
_chemical_formula_structural   Cs3TcS4
_chemical_formula_sum   'Cs12 Tc4 S16'
_cell_volume   1181.09500488
_cell_formula_units_Z   4
loop_
 _symmetry_equiv_pos_site_id
 _symmetry_equiv_pos_as_xyz
  1  'x, y, z'
loop_
 _atom_site_type_symbol
 _atom_site_label
 _atom_site_symmetry_multiplicity
 _atom_site_fract_x
 _atom_site_fract_y
 _atom_site_fract_z
 _atom_site_occupancy
  Cs  Cs0  1  0.414639  0.850921  0.750000  1
  Cs  Cs1  1  0.585361  0.149079  0.250000  1
  Cs  Cs2  1  0.085361  0.350921  0.750000  1
  Cs  Cs3  1  0.709511  0.547527  0.956931  1
  Cs  Cs4  1  0.290489  0.452473  0.043069  1
  Cs  Cs5  1  0.914639  0.649079  0.250000  1
  Cs  Cs6  1  0.209511  0.952473  0.043069  1
  Cs  Cs7  1  0.290489  0.452473  0.456931  1
  Cs  Cs8  1  0.209511  0.952473  0.456931  1
  Cs  Cs9  1  0.709511  0.547527  0.543069  1
  Cs  Cs10  1  0.790489  0.047527  0.543069  1
  Cs  Cs11  1  0.790489  0.047527  0.956931  1
  Tc  Tc12  1  0.984315  0.775192  0.750000  1
  Tc  Tc13  1  0.515685  0.275192  0.750000  1
  Tc  Tc14  1  0.015685  0.224808  0.250000  1
  Tc  Tc15  1  0.484315  0.724808  0.250000  1
  S  S16  1  0.569029  0.517644  0.250000  1
  S  S17  1  0.069029  0.982356  0.750000  1
  S  S18  1  0.451825  0.168275  0.905604  1
  S  S19  1  0.048175  0.668275  0.594396  1
  S  S20  1  0.430971  0.482356  0.750000  1
  S  S21  1  0.951825  0.331725  0.094396  1
  S  S22  1  0.548175  0.831725  0.405604  1
  S  S23  1  0.761982  0.791675  0.750000  1
  S  S24  1  0.048175  0.668275  0.905604  1
  S  S25  1  0.261982  0.708325  0.250000  1
  S  S26  1  0.548175  0.831725  0.094396  1
  S  S27  1  0.238018  0.208325  0.250000  1
  S  S28  1  0.738018  0.291675  0.750000  1
  S  S29  1  0.451825  0.168275  0.594396  1
  S  S30  1  0.930971  0.017644  0.250000  1
  S  S31  1  0.951825  0.331725  0.405604  1
