# generated using pymatgen
data_TbMgScCu9
_symmetry_space_group_name_H-M   'P 1'
_cell_length_a   5.04029401
_cell_length_b   5.04002499
_cell_length_c   16.10113200
_cell_angle_alpha   90.00000000
_cell_angle_beta   90.00000000
_cell_angle_gamma   120.00871146
_symmetry_Int_Tables_number   1
_chemical_formula_structural   TbMgScCu9
_chemical_formula_sum   'Tb2 Mg2 Sc2 Cu18'
_cell_volume   354.19095983
_cell_formula_units_Z   2
loop_
 _symmetry_equiv_pos_site_id
 _symmetry_equiv_pos_as_xyz
  1  'x, y, z'
loop_
 _atom_site_type_symbol
 _atom_site_label
 _atom_site_symmetry_multiplicity
 _atom_site_fract_x
 _atom_site_fract_y
 _atom_site_fract_z
 _atom_site_occupancy
  Tb  Tb0  1  0.666670  0.333339  0.242880  1
  Tb  Tb1  1  0.333330  0.666661  0.742880  1
  Mg  Mg2  1  0.666667  0.333338  0.034498  1
  Mg  Mg3  1  0.333333  0.666662  0.534498  1
  Sc  Sc4  1  0.666657  0.333337  0.468936  1
  Sc  Sc5  1  0.333343  0.666663  0.968936  1
  Cu  Cu6  1  0.333335  0.666668  0.250509  1
  Cu  Cu7  1  0.666665  0.333332  0.750509  1
  Cu  Cu8  1  0.168594  0.831402  0.377096  1
  Cu  Cu9  1  0.168590  0.337193  0.377095  1
  Cu  Cu10  1  0.000000  0.000000  0.751471  1
  Cu  Cu11  1  0.000000  0.000000  0.251471  1
  Cu  Cu12  1  0.000001  0.999998  0.000493  1
  Cu  Cu13  1  0.999999  0.000002  0.500493  1
  Cu  Cu14  1  0.167591  0.335176  0.123309  1
  Cu  Cu15  1  0.832417  0.167596  0.623308  1
  Cu  Cu16  1  0.335182  0.167601  0.623308  1
  Cu  Cu17  1  0.664818  0.832399  0.123308  1
  Cu  Cu18  1  0.167583  0.832404  0.123308  1
  Cu  Cu19  1  0.831410  0.662807  0.877095  1
  Cu  Cu20  1  0.831406  0.168598  0.877096  1
  Cu  Cu21  1  0.832409  0.664824  0.623309  1
  Cu  Cu22  1  0.337191  0.168592  0.877096  1
  Cu  Cu23  1  0.662809  0.831408  0.377096  1
