# generated using pymatgen
data_DyHo2Zr(Si3Ni5)4
_symmetry_space_group_name_H-M   'P 1'
_cell_length_a   3.77495700
_cell_length_b   6.60964627
_cell_length_c   18.66209005
_cell_angle_alpha   89.97966828
_cell_angle_beta   90.00000000
_cell_angle_gamma   90.00000000
_symmetry_Int_Tables_number   1
_chemical_formula_structural   DyHo2Zr(Si3Ni5)4
_chemical_formula_sum   'Dy1 Ho2 Zr1 Si12 Ni20'
_cell_volume   465.64021369
_cell_formula_units_Z   1
loop_
 _symmetry_equiv_pos_site_id
 _symmetry_equiv_pos_as_xyz
  1  'x, y, z'
loop_
 _atom_site_type_symbol
 _atom_site_label
 _atom_site_symmetry_multiplicity
 _atom_site_fract_x
 _atom_site_fract_y
 _atom_site_fract_z
 _atom_site_occupancy
  Dy  Dy0  1  0.250000  0.623969  0.856472  1
  Ho  Ho1  1  0.750000  0.123672  0.642342  1
  Ho  Ho2  1  0.750000  0.375956  0.144301  1
  Zr  Zr3  1  0.250000  0.878072  0.356438  1
  Si  Si4  1  0.250000  0.079322  0.087733  1
  Si  Si5  1  0.750000  0.920960  0.913863  1
  Si  Si6  1  0.750000  0.592037  0.412260  1
  Si  Si7  1  0.250000  0.417449  0.583413  1
  Si  Si8  1  0.250000  0.656719  0.075650  1
  Si  Si9  1  0.750000  0.343872  0.926442  1
  Si  Si10  1  0.750000  0.146691  0.423933  1
  Si  Si11  1  0.250000  0.843949  0.573983  1
  Si  Si12  1  0.250000  0.378027  0.263366  1
  Si  Si13  1  0.750000  0.621692  0.737285  1
  Si  Si14  1  0.750000  0.878829  0.240645  1
  Si  Si15  1  0.250000  0.122645  0.761425  1
  Ni  Ni16  1  0.250000  0.069169  0.208821  1
  Ni  Ni17  1  0.750000  0.931456  0.792899  1
  Ni  Ni18  1  0.750000  0.570566  0.293393  1
  Ni  Ni19  1  0.250000  0.431057  0.704944  1
  Ni  Ni20  1  0.250000  0.619433  0.482577  1
  Ni  Ni21  1  0.750000  0.384333  0.511713  1
  Ni  Ni22  1  0.750000  0.113757  0.016529  1
  Ni  Ni23  1  0.250000  0.885463  0.984790  1
  Ni  Ni24  1  0.250000  0.685091  0.201483  1
  Ni  Ni25  1  0.750000  0.314718  0.800377  1
  Ni  Ni26  1  0.750000  0.181864  0.301553  1
  Ni  Ni27  1  0.250000  0.815655  0.698805  1
  Ni  Ni28  1  0.250000  0.352844  0.385695  1
  Ni  Ni29  1  0.750000  0.642239  0.614463  1
  Ni  Ni30  1  0.750000  0.855186  0.117598  1
  Ni  Ni31  1  0.250000  0.145926  0.884532  1
  Ni  Ni32  1  0.250000  0.365611  0.006671  1
  Ni  Ni33  1  0.750000  0.634950  0.995452  1
  Ni  Ni34  1  0.750000  0.865902  0.494003  1
  Ni  Ni35  1  0.250000  0.130920  0.504155  1
