# generated using pymatgen
data_Tb3Er3ReSb2
_symmetry_space_group_name_H-M   'P 1'
_cell_length_a   8.13105900
_cell_length_b   8.13105868
_cell_length_c   4.30850300
_cell_angle_alpha   90.00000000
_cell_angle_beta   90.00000000
_cell_angle_gamma   120.00000535
_symmetry_Int_Tables_number   1
_chemical_formula_structural   Tb3Er3ReSb2
_chemical_formula_sum   'Tb3 Er3 Re1 Sb2'
_cell_volume   246.68981302
_cell_formula_units_Z   1
loop_
 _symmetry_equiv_pos_site_id
 _symmetry_equiv_pos_as_xyz
  1  'x, y, z'
loop_
 _atom_site_type_symbol
 _atom_site_label
 _atom_site_symmetry_multiplicity
 _atom_site_fract_x
 _atom_site_fract_y
 _atom_site_fract_z
 _atom_site_occupancy
  Tb  Tb0  1  0.605290  0.000000  0.000000  1
  Tb  Tb1  1  0.000000  0.605290  0.000000  1
  Tb  Tb2  1  0.394710  0.394710  0.000000  1
  Er  Er3  1  0.234883  0.000000  0.500000  1
  Er  Er4  1  0.000000  0.234883  0.500000  1
  Er  Er5  1  0.765117  0.765117  0.500000  1
  Re  Re6  1  0.000000  0.000000  0.000000  1
  Sb  Sb7  1  0.333333  0.666667  0.500000  1
  Sb  Sb8  1  0.666667  0.333333  0.500000  1
