# generated using pymatgen
data_Pr7Th(MgIr)2
_symmetry_space_group_name_H-M   'P 1'
_cell_length_a   10.09239290
_cell_length_b   10.09239283
_cell_length_c   10.13789500
_cell_angle_alpha   59.85074888
_cell_angle_beta   59.85074911
_cell_angle_gamma   59.91143715
_symmetry_Int_Tables_number   1
_chemical_formula_structural   Pr7Th(MgIr)2
_chemical_formula_sum   'Pr14 Th2 Mg4 Ir4'
_cell_volume   728.02694248
_cell_formula_units_Z   2
loop_
 _symmetry_equiv_pos_site_id
 _symmetry_equiv_pos_as_xyz
  1  'x, y, z'
loop_
 _atom_site_type_symbol
 _atom_site_label
 _atom_site_symmetry_multiplicity
 _atom_site_fract_x
 _atom_site_fract_y
 _atom_site_fract_z
 _atom_site_occupancy
  Pr  Pr0  1  0.346905  0.957124  0.347986  1
  Pr  Pr1  1  0.957124  0.346905  0.347986  1
  Pr  Pr2  1  0.810857  0.188961  0.189390  1
  Pr  Pr3  1  0.188961  0.810857  0.810792  1
  Pr  Pr4  1  0.188961  0.810857  0.189390  1
  Pr  Pr5  1  0.810857  0.188961  0.810792  1
  Pr  Pr6  1  0.189354  0.189354  0.810646  1
  Pr  Pr7  1  0.810603  0.810603  0.189397  1
  Pr  Pr8  1  0.940331  0.561238  0.562691  1
  Pr  Pr9  1  0.561238  0.940331  0.935740  1
  Pr  Pr10  1  0.561238  0.940331  0.562691  1
  Pr  Pr11  1  0.940331  0.561238  0.935740  1
  Pr  Pr12  1  0.562062  0.562062  0.937938  1
  Pr  Pr13  1  0.937933  0.937933  0.562067  1
  Th  Th14  1  0.343119  0.343119  0.345229  1
  Th  Th15  1  0.343119  0.343119  0.968534  1
  Mg  Mg16  1  0.577967  0.577967  0.580495  1
  Mg  Mg17  1  0.577967  0.577967  0.263570  1
  Mg  Mg18  1  0.577429  0.262595  0.579988  1
  Mg  Mg19  1  0.262595  0.577429  0.579988  1
  Ir  Ir20  1  0.146707  0.146707  0.136423  1
  Ir  Ir21  1  0.146707  0.146707  0.570164  1
  Ir  Ir22  1  0.151650  0.565985  0.141182  1
  Ir  Ir23  1  0.565985  0.151650  0.141182  1
