# generated using pymatgen
data_Sm2CoSiI
_symmetry_space_group_name_H-M   'P 1'
_cell_length_a   4.14186100
_cell_length_b   4.14186088
_cell_length_c   16.82021000
_cell_angle_alpha   90.00000000
_cell_angle_beta   90.00000000
_cell_angle_gamma   119.99999294
_symmetry_Int_Tables_number   1
_chemical_formula_structural   Sm2CoSiI
_chemical_formula_sum   'Sm4 Co2 Si2 I2'
_cell_volume   249.89243221
_cell_formula_units_Z   2
loop_
 _symmetry_equiv_pos_site_id
 _symmetry_equiv_pos_as_xyz
  1  'x, y, z'
loop_
 _atom_site_type_symbol
 _atom_site_label
 _atom_site_symmetry_multiplicity
 _atom_site_fract_x
 _atom_site_fract_y
 _atom_site_fract_z
 _atom_site_occupancy
  Sm  Sm0  1  0.000000  0.000000  0.603288  1
  Sm  Sm1  1  0.000000  0.000000  0.399036  1
  Sm  Sm2  1  0.000000  0.000000  0.103288  1
  Sm  Sm3  1  0.000000  0.000000  0.899036  1
  Co  Co4  1  0.666667  0.333333  0.996552  1
  Co  Co5  1  0.333333  0.666667  0.496552  1
  Si  Si6  1  0.666667  0.333333  0.502803  1
  Si  Si7  1  0.333333  0.666667  0.002803  1
  I  I8  1  0.666667  0.333333  0.248320  1
  I  I9  1  0.333333  0.666667  0.748320  1
