# generated using pymatgen
data_Cs2CrP3O10
_symmetry_space_group_name_H-M   'P 1'
_cell_length_a   9.16220300
_cell_length_b   9.68903906
_cell_length_c   12.50495600
_cell_angle_alpha   84.81765676
_cell_angle_beta   90.00000000
_cell_angle_gamma   90.00000000
_symmetry_Int_Tables_number   1
_chemical_formula_structural   Cs2CrP3O10
_chemical_formula_sum   'Cs8 Cr4 P12 O40'
_cell_volume   1105.56396004
_cell_formula_units_Z   4
loop_
 _symmetry_equiv_pos_site_id
 _symmetry_equiv_pos_as_xyz
  1  'x, y, z'
loop_
 _atom_site_type_symbol
 _atom_site_label
 _atom_site_symmetry_multiplicity
 _atom_site_fract_x
 _atom_site_fract_y
 _atom_site_fract_z
 _atom_site_occupancy
  Cs  Cs0  1  0.395978  0.265267  0.539421  1
  Cs  Cs1  1  0.104022  0.765267  0.539421  1
  Cs  Cs2  1  0.604022  0.734733  0.460579  1
  Cs  Cs3  1  0.879857  0.995009  0.147507  1
  Cs  Cs4  1  0.120143  0.004991  0.852493  1
  Cs  Cs5  1  0.379857  0.504991  0.852493  1
  Cs  Cs6  1  0.620143  0.495009  0.147507  1
  Cs  Cs7  1  0.895978  0.234733  0.460579  1
  Cr  Cr8  1  0.852685  0.641590  0.847475  1
  Cr  Cr9  1  0.647315  0.141590  0.847475  1
  Cr  Cr10  1  0.352685  0.858410  0.152525  1
  Cr  Cr11  1  0.147315  0.358410  0.152525  1
  P  P12  1  0.917518  0.320152  0.951583  1
  P  P13  1  0.285646  0.569149  0.312104  1
  P  P14  1  0.466487  0.917703  0.740585  1
  P  P15  1  0.033513  0.417703  0.740585  1
  P  P16  1  0.214354  0.069149  0.312104  1
  P  P17  1  0.966487  0.582297  0.259415  1
  P  P18  1  0.082482  0.679848  0.048417  1
  P  P19  1  0.417518  0.179848  0.048417  1
  P  P20  1  0.714354  0.430851  0.687896  1
  P  P21  1  0.533513  0.082297  0.259415  1
  P  P22  1  0.785646  0.930851  0.687896  1
  P  P23  1  0.582482  0.820152  0.951583  1
  O  O24  1  0.002709  0.279707  0.053944  1
  O  O25  1  0.281688  0.431204  0.260021  1
  O  O26  1  0.127935  0.178556  0.241510  1
  O  O27  1  0.372065  0.678556  0.241510  1
  O  O28  1  0.114542  0.628383  0.313272  1
  O  O29  1  0.522835  0.930704  0.235577  1
  O  O30  1  0.816651  0.199075  0.933786  1
  O  O31  1  0.497291  0.779707  0.053944  1
  O  O32  1  0.316651  0.300925  0.066214  1
  O  O33  1  0.459181  0.824448  0.855229  1
  O  O34  1  0.872065  0.821444  0.758490  1
  O  O35  1  0.332844  0.555382  0.427548  1
  O  O36  1  0.718312  0.568796  0.739979  1
  O  O37  1  0.627935  0.321444  0.758490  1
  O  O38  1  0.667156  0.444618  0.572452  1
  O  O39  1  0.022835  0.569296  0.764423  1
  O  O40  1  0.343147  0.038563  0.055742  1
  O  O41  1  0.656853  0.961437  0.944258  1
  O  O42  1  0.843147  0.461437  0.944258  1
  O  O43  1  0.040819  0.324448  0.855229  1
  O  O44  1  0.385458  0.128383  0.313272  1
  O  O45  1  0.781688  0.068796  0.739979  1
  O  O46  1  0.540819  0.175552  0.144771  1
  O  O47  1  0.977165  0.430704  0.235577  1
  O  O48  1  0.218312  0.931204  0.260021  1
  O  O49  1  0.661562  0.121230  0.323372  1
  O  O50  1  0.885458  0.371617  0.686728  1
  O  O51  1  0.832844  0.944618  0.572452  1
  O  O52  1  0.502709  0.220293  0.946056  1
  O  O53  1  0.161562  0.378770  0.676628  1
  O  O54  1  0.997291  0.720293  0.946056  1
  O  O55  1  0.614542  0.871617  0.686728  1
  O  O56  1  0.838438  0.621230  0.323372  1
  O  O57  1  0.959181  0.675552  0.144771  1
  O  O58  1  0.167156  0.055382  0.427548  1
  O  O59  1  0.183349  0.800925  0.066214  1
  O  O60  1  0.477165  0.069296  0.764423  1
  O  O61  1  0.338438  0.878770  0.676628  1
  O  O62  1  0.683349  0.699075  0.933786  1
  O  O63  1  0.156853  0.538563  0.055742  1
