# generated using pymatgen
data_YHg4S2Cl5
_symmetry_space_group_name_H-M   'P 1'
_cell_length_a   8.30741931
_cell_length_b   10.51164600
_cell_length_c   9.07178880
_cell_angle_alpha   90.00000000
_cell_angle_beta   113.09482483
_cell_angle_gamma   90.00000000
_symmetry_Int_Tables_number   1
_chemical_formula_structural   YHg4S2Cl5
_chemical_formula_sum   'Y2 Hg8 S4 Cl10'
_cell_volume   728.70218874
_cell_formula_units_Z   2
loop_
 _symmetry_equiv_pos_site_id
 _symmetry_equiv_pos_as_xyz
  1  'x, y, z'
loop_
 _atom_site_type_symbol
 _atom_site_label
 _atom_site_symmetry_multiplicity
 _atom_site_fract_x
 _atom_site_fract_y
 _atom_site_fract_z
 _atom_site_occupancy
  Y  Y0  1  0.500794  0.431291  0.504379  1
  Y  Y1  1  0.499206  0.931291  0.495621  1
  Hg  Hg2  1  0.926381  0.183791  0.329896  1
  Hg  Hg3  1  0.073619  0.683791  0.670104  1
  Hg  Hg4  1  0.950405  0.666609  0.356970  1
  Hg  Hg5  1  0.049595  0.166609  0.643030  1
  Hg  Hg6  1  0.497210  0.181624  0.986244  1
  Hg  Hg7  1  0.502790  0.681624  0.013756  1
  Hg  Hg8  1  0.807410  0.432094  0.018471  1
  Hg  Hg9  1  0.192590  0.932094  0.981529  1
  S  S10  1  0.801274  0.200444  0.029121  1
  S  S11  1  0.198726  0.700444  0.970879  1
  S  S12  1  0.193581  0.161582  0.943024  1
  S  S13  1  0.806419  0.661582  0.056976  1
  Cl  Cl14  1  0.835244  0.925084  0.682175  1
  Cl  Cl15  1  0.164756  0.425084  0.317825  1
  Cl  Cl16  1  0.837005  0.438699  0.702934  1
  Cl  Cl17  1  0.162995  0.938699  0.297066  1
  Cl  Cl18  1  0.411207  0.457261  0.756084  1
  Cl  Cl19  1  0.588793  0.957261  0.243916  1
  Cl  Cl20  1  0.594607  0.394702  0.262464  1
  Cl  Cl21  1  0.405393  0.894702  0.737536  1
  Cl  Cl22  1  0.496791  0.180421  0.553252  1
  Cl  Cl23  1  0.503209  0.680421  0.446748  1
