# generated using pymatgen
data_Lu12Co8Se
_symmetry_space_group_name_H-M   'P 1'
_cell_length_a   4.05038400
_cell_length_b   11.05811022
_cell_length_c   11.05664575
_cell_angle_alpha   59.92440957
_cell_angle_beta   89.99521715
_cell_angle_gamma   90.00050036
_symmetry_Int_Tables_number   1
_chemical_formula_structural   Lu12Co8Se
_chemical_formula_sum   'Lu12 Co8 Se1'
_cell_volume   428.54835434
_cell_formula_units_Z   1
loop_
 _symmetry_equiv_pos_site_id
 _symmetry_equiv_pos_as_xyz
  1  'x, y, z'
loop_
 _atom_site_type_symbol
 _atom_site_label
 _atom_site_symmetry_multiplicity
 _atom_site_fract_x
 _atom_site_fract_y
 _atom_site_fract_z
 _atom_site_occupancy
  Lu  Lu0  1  0.751667  0.619729  0.864104  1
  Lu  Lu1  1  0.751623  0.516286  0.619673  1
  Lu  Lu2  1  0.751713  0.864476  0.515958  1
  Lu  Lu3  1  0.248333  0.380271  0.135896  1
  Lu  Lu4  1  0.248377  0.483714  0.380327  1
  Lu  Lu5  1  0.248287  0.135524  0.484042  1
  Lu  Lu6  1  0.743424  0.764032  0.259558  1
  Lu  Lu7  1  0.743221  0.976321  0.763987  1
  Lu  Lu8  1  0.743243  0.259881  0.976268  1
  Lu  Lu9  1  0.256576  0.235968  0.740442  1
  Lu  Lu10  1  0.256779  0.023679  0.236013  1
  Lu  Lu11  1  0.256757  0.740119  0.023732  1
  Co  Co12  1  0.745828  0.332936  0.333609  1
  Co  Co13  1  0.254172  0.667064  0.666391  1
  Co  Co14  1  0.750145  0.276365  0.562405  1
  Co  Co15  1  0.750334  0.161183  0.276537  1
  Co  Co16  1  0.750515  0.562319  0.161462  1
  Co  Co17  1  0.249855  0.723635  0.437595  1
  Co  Co18  1  0.249666  0.838817  0.723463  1
  Co  Co19  1  0.249485  0.437681  0.838538  1
  Se  Se20  1  0.500000  0.000000  0.000000  1
