# generated using pymatgen
data_Lu2TaNb(SbRh)4
_symmetry_space_group_name_H-M   'P 1'
_cell_length_a   6.32592817
_cell_length_b   4.47430800
_cell_length_c   8.94291324
_cell_angle_alpha   90.00000000
_cell_angle_beta   89.97317399
_cell_angle_gamma   90.00000000
_symmetry_Int_Tables_number   1
_chemical_formula_structural   Lu2TaNb(SbRh)4
_chemical_formula_sum   'Lu2 Ta1 Nb1 Sb4 Rh4'
_cell_volume   253.12153942
_cell_formula_units_Z   1
loop_
 _symmetry_equiv_pos_site_id
 _symmetry_equiv_pos_as_xyz
  1  'x, y, z'
loop_
 _atom_site_type_symbol
 _atom_site_label
 _atom_site_symmetry_multiplicity
 _atom_site_fract_x
 _atom_site_fract_y
 _atom_site_fract_z
 _atom_site_occupancy
  Lu  Lu0  1  0.005381  0.500000  0.376030  1
  Lu  Lu1  1  0.505527  0.000000  0.624048  1
  Ta  Ta2  1  0.995347  0.500000  0.877506  1
  Nb  Nb3  1  0.495302  0.000000  0.122850  1
  Sb  Sb4  1  0.986882  0.000000  0.126102  1
  Sb  Sb5  1  0.509739  0.500000  0.373613  1
  Sb  Sb6  1  0.009493  0.000000  0.626329  1
  Sb  Sb7  1  0.487279  0.500000  0.873881  1
  Rh  Rh8  1  0.737884  0.500000  0.110702  1
  Rh  Rh9  1  0.266274  0.000000  0.357105  1
  Rh  Rh10  1  0.767593  0.500000  0.644222  1
  Rh  Rh11  1  0.233308  0.000000  0.887606  1
