# generated using pymatgen
data_TbY15(AlNi)4
_symmetry_space_group_name_H-M   'P 1'
_cell_length_a   9.50855829
_cell_length_b   9.49483141
_cell_length_c   9.50325002
_cell_angle_alpha   59.97935065
_cell_angle_beta   60.02644984
_cell_angle_gamma   60.00289580
_symmetry_Int_Tables_number   1
_chemical_formula_structural   TbY15(AlNi)4
_chemical_formula_sum   'Tb1 Y15 Al4 Ni4'
_cell_volume   606.71884300
_cell_formula_units_Z   1
loop_
 _symmetry_equiv_pos_site_id
 _symmetry_equiv_pos_as_xyz
  1  'x, y, z'
loop_
 _atom_site_type_symbol
 _atom_site_label
 _atom_site_symmetry_multiplicity
 _atom_site_fract_x
 _atom_site_fract_y
 _atom_site_fract_z
 _atom_site_occupancy
  Tb  Tb0  1  0.198913  0.599141  0.600948  1
  Y  Y1  1  0.186545  0.813693  0.813342  1
  Y  Y2  1  0.814717  0.185760  0.185737  1
  Y  Y3  1  0.814800  0.185740  0.813826  1
  Y  Y4  1  0.186580  0.813719  0.186484  1
  Y  Y5  1  0.814432  0.813711  0.185957  1
  Y  Y6  1  0.186536  0.186430  0.813558  1
  Y  Y7  1  0.058437  0.442988  0.441366  1
  Y  Y8  1  0.442567  0.058835  0.057550  1
  Y  Y9  1  0.442526  0.058808  0.441074  1
  Y  Y10  1  0.058379  0.443023  0.057263  1
  Y  Y11  1  0.441636  0.441885  0.058244  1
  Y  Y12  1  0.057755  0.057922  0.442186  1
  Y  Y13  1  0.599990  0.599734  0.601580  1
  Y  Y14  1  0.600042  0.599713  0.198599  1
  Y  Y15  1  0.600416  0.196552  0.601521  1
  Al  Al16  1  0.826818  0.827844  0.827534  1
  Al  Al17  1  0.826812  0.827824  0.517833  1
  Al  Al18  1  0.826287  0.519304  0.827203  1
  Al  Al19  1  0.518826  0.827105  0.827032  1
  Ni  Ni20  1  0.391318  0.393185  0.393995  1
  Ni  Ni21  1  0.391349  0.392860  0.821713  1
  Ni  Ni22  1  0.391439  0.822326  0.392852  1
  Ni  Ni23  1  0.822882  0.391897  0.392600  1
