# generated using pymatgen
data_V12FeOsPt2
_symmetry_space_group_name_H-M   'P 1'
_cell_length_a   4.77309500
_cell_length_b   4.77945400
_cell_length_c   9.53831600
_cell_angle_alpha   90.00000000
_cell_angle_beta   90.00000000
_cell_angle_gamma   90.00000000
_symmetry_Int_Tables_number   1
_chemical_formula_structural   V12FeOsPt2
_chemical_formula_sum   'V12 Fe1 Os1 Pt2'
_cell_volume   217.59558069
_cell_formula_units_Z   1
loop_
 _symmetry_equiv_pos_site_id
 _symmetry_equiv_pos_as_xyz
  1  'x, y, z'
loop_
 _atom_site_type_symbol
 _atom_site_label
 _atom_site_symmetry_multiplicity
 _atom_site_fract_x
 _atom_site_fract_y
 _atom_site_fract_z
 _atom_site_occupancy
  V  V0  1  0.500000  0.000000  0.620430  1
  V  V1  1  0.500000  0.000000  0.124875  1
  V  V2  1  0.745285  0.500000  0.253952  1
  V  V3  1  0.745285  0.500000  0.746048  1
  V  V4  1  0.000000  0.743895  0.500000  1
  V  V5  1  0.000000  0.747591  0.000000  1
  V  V6  1  0.500000  0.000000  0.379570  1
  V  V7  1  0.500000  0.000000  0.875125  1
  V  V8  1  0.254715  0.500000  0.253952  1
  V  V9  1  0.254715  0.500000  0.746048  1
  V  V10  1  0.000000  0.256105  0.500000  1
  V  V11  1  0.000000  0.252409  0.000000  1
  Fe  Fe12  1  0.500000  0.500000  0.500000  1
  Os  Os13  1  0.500000  0.500000  0.000000  1
  Pt  Pt14  1  0.000000  0.000000  0.251339  1
  Pt  Pt15  1  0.000000  0.000000  0.748661  1
