# generated using pymatgen
data_Th4Zn10InSn
_symmetry_space_group_name_H-M   'P 1'
_cell_length_a   8.58650294
_cell_length_b   8.58650242
_cell_length_c   9.05891600
_cell_angle_alpha   90.00000000
_cell_angle_beta   90.00000000
_cell_angle_gamma   149.68368578
_symmetry_Int_Tables_number   1
_chemical_formula_structural   Th4Zn10InSn
_chemical_formula_sum   'Th4 Zn10 In1 Sn1'
_cell_volume   337.13617188
_cell_formula_units_Z   1
loop_
 _symmetry_equiv_pos_site_id
 _symmetry_equiv_pos_as_xyz
  1  'x, y, z'
loop_
 _atom_site_type_symbol
 _atom_site_label
 _atom_site_symmetry_multiplicity
 _atom_site_fract_x
 _atom_site_fract_y
 _atom_site_fract_z
 _atom_site_occupancy
  Th  Th0  1  0.204954  0.795046  0.250000  1
  Th  Th1  1  0.794703  0.205297  0.750000  1
  Th  Th2  1  0.000220  0.999780  0.499658  1
  Th  Th3  1  0.000220  0.999780  0.000342  1
  Zn  Zn4  1  0.815428  0.184572  0.392739  1
  Zn  Zn5  1  0.184616  0.815384  0.607538  1
  Zn  Zn6  1  0.815428  0.184572  0.107261  1
  Zn  Zn7  1  0.184616  0.815384  0.892462  1
  Zn  Zn8  1  0.656245  0.343755  0.481784  1
  Zn  Zn9  1  0.342678  0.657322  0.516406  1
  Zn  Zn10  1  0.656245  0.343755  0.018216  1
  Zn  Zn11  1  0.342678  0.657322  0.983594  1
  Zn  Zn12  1  0.396415  0.603585  0.250000  1
  Zn  Zn13  1  0.604972  0.395028  0.750000  1
  In  In14  1  0.555191  0.444809  0.250000  1
  Sn  Sn15  1  0.445389  0.554611  0.750000  1
