# generated using pymatgen
data_Ba10TcSb3O20
_symmetry_space_group_name_H-M   'P 1'
_cell_length_a   6.18338607
_cell_length_b   6.18338627
_cell_length_c   18.27751897
_cell_angle_alpha   90.39685543
_cell_angle_beta   89.60314331
_cell_angle_gamma   120.41935272
_symmetry_Int_Tables_number   1
_chemical_formula_structural   Ba10TcSb3O20
_chemical_formula_sum   'Ba10 Tc1 Sb3 O20'
_cell_volume   602.60959450
_cell_formula_units_Z   1
loop_
 _symmetry_equiv_pos_site_id
 _symmetry_equiv_pos_as_xyz
  1  'x, y, z'
loop_
 _atom_site_type_symbol
 _atom_site_label
 _atom_site_symmetry_multiplicity
 _atom_site_fract_x
 _atom_site_fract_y
 _atom_site_fract_z
 _atom_site_occupancy
  Ba  Ba0  1  0.841951  0.158049  0.757505  1
  Ba  Ba1  1  0.813222  0.186778  0.980414  1
  Ba  Ba2  1  0.502579  0.497421  0.867753  1
  Ba  Ba3  1  0.498333  0.501667  0.636572  1
  Ba  Ba4  1  0.497881  0.502119  0.371211  1
  Ba  Ba5  1  0.501655  0.498345  0.130977  1
  Ba  Ba6  1  0.846055  0.153945  0.519778  1
  Ba  Ba7  1  0.181982  0.818018  0.481718  1
  Ba  Ba8  1  0.168611  0.831389  0.249088  1
  Ba  Ba9  1  0.154024  0.845976  0.017887  1
  Tc  Tc10  1  0.165913  0.834087  0.668428  1
  Sb  Sb11  1  0.829959  0.170041  0.329436  1
  Sb  Sb12  1  0.836844  0.163156  0.170756  1
  Sb  Sb13  1  0.171371  0.828629  0.825677  1
  O  O14  1  0.565743  0.434257  0.999592  1
  O  O15  1  0.972195  0.490848  0.381573  1
  O  O16  1  0.013256  0.475622  0.114512  1
  O  O17  1  0.690581  0.309419  0.245557  1
  O  O18  1  0.121081  0.311332  0.252715  1
  O  O19  1  0.509152  0.027805  0.381573  1
  O  O20  1  0.524378  0.986744  0.114512  1
  O  O21  1  0.688668  0.878919  0.252715  1
  O  O22  1  0.981488  0.018512  0.389323  1
  O  O23  1  0.999531  0.000469  0.121458  1
  O  O24  1  0.009197  0.990803  0.614228  1
  O  O25  1  0.017729  0.982271  0.886746  1
  O  O26  1  0.304652  0.120346  0.750563  1
  O  O27  1  0.490386  0.975277  0.879466  1
  O  O28  1  0.879654  0.695348  0.750563  1
  O  O29  1  0.467276  0.010725  0.616932  1
  O  O30  1  0.313167  0.686833  0.745606  1
  O  O31  1  0.024723  0.509614  0.879466  1
  O  O32  1  0.989275  0.532724  0.616932  1
  O  O33  1  0.427489  0.572511  0.503333  1
