# generated using pymatgen
data_Nd3ScAu5
_symmetry_space_group_name_H-M   'P 1'
_cell_length_a   8.12514656
_cell_length_b   8.12514677
_cell_length_c   8.12514700
_cell_angle_alpha   66.13377586
_cell_angle_beta   66.13377373
_cell_angle_gamma   66.13375520
_symmetry_Int_Tables_number   1
_chemical_formula_structural   Nd3ScAu5
_chemical_formula_sum   'Nd6 Sc2 Au10'
_cell_volume   429.58039320
_cell_formula_units_Z   2
loop_
 _symmetry_equiv_pos_site_id
 _symmetry_equiv_pos_as_xyz
  1  'x, y, z'
loop_
 _atom_site_type_symbol
 _atom_site_label
 _atom_site_symmetry_multiplicity
 _atom_site_fract_x
 _atom_site_fract_y
 _atom_site_fract_z
 _atom_site_occupancy
  Nd  Nd0  1  0.892251  0.187824  0.620520  1
  Nd  Nd1  1  0.620520  0.892251  0.187824  1
  Nd  Nd2  1  0.187824  0.620520  0.892251  1
  Nd  Nd3  1  0.107749  0.812176  0.379480  1
  Nd  Nd4  1  0.379480  0.107749  0.812176  1
  Nd  Nd5  1  0.812176  0.379480  0.107749  1
  Sc  Sc6  1  0.656560  0.656560  0.656560  1
  Sc  Sc7  1  0.343440  0.343440  0.343440  1
  Au  Au8  1  0.000000  0.000000  0.000000  1
  Au  Au9  1  0.500000  0.500000  0.500000  1
  Au  Au10  1  0.801451  0.801451  0.801451  1
  Au  Au11  1  0.198549  0.198549  0.198549  1
  Au  Au12  1  0.940242  0.548675  0.322761  1
  Au  Au13  1  0.322761  0.940242  0.548675  1
  Au  Au14  1  0.548675  0.322761  0.940242  1
  Au  Au15  1  0.059758  0.451325  0.677239  1
  Au  Au16  1  0.677239  0.059758  0.451325  1
  Au  Au17  1  0.451325  0.677239  0.059758  1
