# generated using pymatgen
data_Tb4Tm4B24IrRh3
_symmetry_space_group_name_H-M   'P 1'
_cell_length_a   3.64410600
_cell_length_b   9.14556633
_cell_length_c   11.49904242
_cell_angle_alpha   90.03081297
_cell_angle_beta   90.00000000
_cell_angle_gamma   90.00000000
_symmetry_Int_Tables_number   1
_chemical_formula_structural   Tb4Tm4B24IrRh3
_chemical_formula_sum   'Tb4 Tm4 B24 Ir1 Rh3'
_cell_volume   383.23328187
_cell_formula_units_Z   1
loop_
 _symmetry_equiv_pos_site_id
 _symmetry_equiv_pos_as_xyz
  1  'x, y, z'
loop_
 _atom_site_type_symbol
 _atom_site_label
 _atom_site_symmetry_multiplicity
 _atom_site_fract_x
 _atom_site_fract_y
 _atom_site_fract_z
 _atom_site_occupancy
  Tb  Tb0  1  0.500000  0.322602  0.414241  1
  Tb  Tb1  1  0.500000  0.677555  0.586270  1
  Tb  Tb2  1  0.500000  0.178048  0.913118  1
  Tb  Tb3  1  0.500000  0.821596  0.086143  1
  Tm  Tm4  1  0.500000  0.445225  0.126677  1
  Tm  Tm5  1  0.500000  0.555641  0.872952  1
  Tm  Tm6  1  0.500000  0.055857  0.626933  1
  Tm  Tm7  1  0.500000  0.943688  0.373816  1
  B  B8  1  0.000000  0.106755  0.471118  1
  B  B9  1  0.000000  0.893029  0.528909  1
  B  B10  1  0.000000  0.393238  0.971171  1
  B  B11  1  0.000000  0.606905  0.028795  1
  B  B12  1  0.000000  0.132011  0.316651  1
  B  B13  1  0.000000  0.867710  0.683379  1
  B  B14  1  0.000000  0.367560  0.816551  1
  B  B15  1  0.000000  0.632531  0.183271  1
  B  B16  1  0.000000  0.054515  0.066192  1
  B  B17  1  0.000000  0.945530  0.933774  1
  B  B18  1  0.000000  0.445683  0.565981  1
  B  B19  1  0.000000  0.554154  0.434077  1
  B  B20  1  0.000000  0.483245  0.286276  1
  B  B21  1  0.000000  0.516786  0.713837  1
  B  B22  1  0.000000  0.016936  0.786115  1
  B  B23  1  0.000000  0.983173  0.214097  1
  B  B24  1  0.000000  0.250745  0.080134  1
  B  B25  1  0.000000  0.749315  0.919743  1
  B  B26  1  0.000000  0.249606  0.580210  1
  B  B27  1  0.000000  0.750426  0.419776  1
  B  B28  1  0.000000  0.294443  0.235216  1
  B  B29  1  0.000000  0.705563  0.764447  1
  B  B30  1  0.000000  0.205514  0.735534  1
  B  B31  1  0.000000  0.794322  0.264434  1
  Ir  Ir32  1  0.500000  0.140038  0.179820  1
  Rh  Rh33  1  0.500000  0.860220  0.820558  1
  Rh  Rh34  1  0.500000  0.359707  0.680197  1
  Rh  Rh35  1  0.500000  0.640128  0.319586  1
