# generated using pymatgen
data_Y4In3Ag
_symmetry_space_group_name_H-M   'P 1'
_cell_length_a   3.63189000
_cell_length_b   3.63189000
_cell_length_c   15.89666600
_cell_angle_alpha   90.00000000
_cell_angle_beta   90.00000000
_cell_angle_gamma   90.00000000
_symmetry_Int_Tables_number   1
_chemical_formula_structural   Y4In3Ag
_chemical_formula_sum   'Y4 In3 Ag1'
_cell_volume   209.68695951
_cell_formula_units_Z   1
loop_
 _symmetry_equiv_pos_site_id
 _symmetry_equiv_pos_as_xyz
  1  'x, y, z'
loop_
 _atom_site_type_symbol
 _atom_site_label
 _atom_site_symmetry_multiplicity
 _atom_site_fract_x
 _atom_site_fract_y
 _atom_site_fract_z
 _atom_site_occupancy
  Y  Y0  1  0.500000  0.500000  0.114726  1
  Y  Y1  1  0.500000  0.500000  0.371232  1
  Y  Y2  1  0.500000  0.500000  0.628768  1
  Y  Y3  1  0.500000  0.500000  0.885274  1
  In  In4  1  0.000000  0.000000  0.242440  1
  In  In5  1  0.000000  0.000000  0.500000  1
  In  In6  1  0.000000  0.000000  0.757560  1
  Ag  Ag7  1  0.000000  0.000000  0.000000  1
