# generated using pymatgen
data_ScNb3Ge2(B2Ru5)2
_symmetry_space_group_name_H-M   'P 1'
_cell_length_a   9.36662740
_cell_length_b   9.36662740
_cell_length_c   2.98943800
_cell_angle_alpha   90.00000000
_cell_angle_beta   90.00000000
_cell_angle_gamma   89.93734955
_symmetry_Int_Tables_number   1
_chemical_formula_structural   ScNb3Ge2(B2Ru5)2
_chemical_formula_sum   'Sc1 Nb3 Ge2 B4 Ru10'
_cell_volume   262.27432632
_cell_formula_units_Z   1
loop_
 _symmetry_equiv_pos_site_id
 _symmetry_equiv_pos_as_xyz
  1  'x, y, z'
loop_
 _atom_site_type_symbol
 _atom_site_label
 _atom_site_symmetry_multiplicity
 _atom_site_fract_x
 _atom_site_fract_y
 _atom_site_fract_z
 _atom_site_occupancy
  Sc  Sc0  1  0.824784  0.675216  0.000000  1
  Nb  Nb1  1  0.175484  0.324516  0.000000  1
  Nb  Nb2  1  0.324392  0.824054  0.000000  1
  Nb  Nb3  1  0.675946  0.175608  0.000000  1
  Ge  Ge4  1  0.502202  0.501284  0.000000  1
  Ge  Ge5  1  0.998716  0.997798  0.000000  1
  B  B6  1  0.624282  0.875718  0.000000  1
  B  B7  1  0.375209  0.124791  0.000000  1
  B  B8  1  0.122972  0.622859  0.000000  1
  B  B9  1  0.877141  0.377028  0.000000  1
  Ru  Ru10  1  0.561872  0.716593  0.500000  1
  Ru  Ru11  1  0.431767  0.286714  0.500000  1
  Ru  Ru12  1  0.076172  0.787985  0.500000  1
  Ru  Ru13  1  0.932930  0.212826  0.500000  1
  Ru  Ru14  1  0.287174  0.567070  0.500000  1
  Ru  Ru15  1  0.712015  0.423828  0.500000  1
  Ru  Ru16  1  0.213286  0.068233  0.500000  1
  Ru  Ru17  1  0.783407  0.938128  0.500000  1
  Ru  Ru18  1  0.498938  0.001062  0.500000  1
  Ru  Ru19  1  0.001309  0.498691  0.500000  1
