# generated using pymatgen
data_TbDy9(Bi2Pb)2
_symmetry_space_group_name_H-M   'P 1'
_cell_length_a   9.18636876
_cell_length_b   9.16358910
_cell_length_c   6.45874400
_cell_angle_alpha   90.00000000
_cell_angle_beta   90.00000000
_cell_angle_gamma   119.91800938
_symmetry_Int_Tables_number   1
_chemical_formula_structural   TbDy9(Bi2Pb)2
_chemical_formula_sum   'Tb1 Dy9 Bi4 Pb2'
_cell_volume   471.24461746
_cell_formula_units_Z   1
loop_
 _symmetry_equiv_pos_site_id
 _symmetry_equiv_pos_as_xyz
  1  'x, y, z'
loop_
 _atom_site_type_symbol
 _atom_site_label
 _atom_site_symmetry_multiplicity
 _atom_site_fract_x
 _atom_site_fract_y
 _atom_site_fract_z
 _atom_site_occupancy
  Tb  Tb0  1  0.000000  0.758022  0.250000  1
  Dy  Dy1  1  0.664702  0.331850  0.999434  1
  Dy  Dy2  1  0.335298  0.667149  0.999434  1
  Dy  Dy3  1  0.335298  0.667149  0.500566  1
  Dy  Dy4  1  0.664702  0.331850  0.500566  1
  Dy  Dy5  1  0.755711  0.759062  0.750000  1
  Dy  Dy6  1  0.244289  0.003351  0.750000  1
  Dy  Dy7  1  0.000000  0.239548  0.750000  1
  Dy  Dy8  1  0.242314  0.241669  0.250000  1
  Dy  Dy9  1  0.757686  0.999354  0.250000  1
  Bi  Bi10  1  0.000000  0.610546  0.750000  1
  Bi  Bi11  1  0.610343  0.609521  0.250000  1
  Bi  Bi12  1  0.389657  0.999178  0.250000  1
  Bi  Bi13  1  0.000000  0.389810  0.250000  1
  Pb  Pb14  1  0.389973  0.390957  0.750000  1
  Pb  Pb15  1  0.610027  0.000984  0.750000  1
