# generated using pymatgen
data_La4CdOs
_symmetry_space_group_name_H-M   'P 1'
_cell_length_a   10.10682731
_cell_length_b   10.10682761
_cell_length_c   10.10682800
_cell_angle_alpha   59.99999871
_cell_angle_beta   59.99999773
_cell_angle_gamma   59.99999758
_symmetry_Int_Tables_number   1
_chemical_formula_structural   La4CdOs
_chemical_formula_sum   'La16 Cd4 Os4'
_cell_volume   730.01126254
_cell_formula_units_Z   4
loop_
 _symmetry_equiv_pos_site_id
 _symmetry_equiv_pos_as_xyz
  1  'x, y, z'
loop_
 _atom_site_type_symbol
 _atom_site_label
 _atom_site_symmetry_multiplicity
 _atom_site_fract_x
 _atom_site_fract_y
 _atom_site_fract_z
 _atom_site_occupancy
  La  La0  1  0.942170  0.942170  0.557830  1
  La  La1  1  0.557830  0.942170  0.557830  1
  La  La2  1  0.557830  0.942170  0.942170  1
  La  La3  1  0.689232  0.689232  0.310768  1
  La  La4  1  0.154416  0.154416  0.536752  1
  La  La5  1  0.310768  0.689232  0.689232  1
  La  La6  1  0.154416  0.154416  0.154416  1
  La  La7  1  0.536752  0.154416  0.154416  1
  La  La8  1  0.310768  0.689232  0.310768  1
  La  La9  1  0.310768  0.310768  0.689232  1
  La  La10  1  0.689232  0.310768  0.689232  1
  La  La11  1  0.942170  0.557830  0.557830  1
  La  La12  1  0.557830  0.557830  0.942170  1
  La  La13  1  0.154416  0.536752  0.154416  1
  La  La14  1  0.689232  0.310768  0.310768  1
  La  La15  1  0.942170  0.557830  0.942170  1
  Cd  Cd16  1  0.236688  0.921104  0.921104  1
  Cd  Cd17  1  0.921104  0.921104  0.921104  1
  Cd  Cd18  1  0.921104  0.921104  0.236688  1
  Cd  Cd19  1  0.921104  0.236688  0.921104  1
  Os  Os20  1  0.912206  0.362598  0.362598  1
  Os  Os21  1  0.362598  0.362598  0.912206  1
  Os  Os22  1  0.362598  0.912206  0.362598  1
  Os  Os23  1  0.362598  0.362598  0.362598  1
