# generated using pymatgen
data_Hf6CuAuC2
_symmetry_space_group_name_H-M   'P 1'
_cell_length_a   6.00134000
_cell_length_b   6.00133986
_cell_length_c   9.00734800
_cell_angle_alpha   90.00000000
_cell_angle_beta   90.00000000
_cell_angle_gamma   147.69405926
_symmetry_Int_Tables_number   1
_chemical_formula_structural   Hf6CuAuC2
_chemical_formula_sum   'Hf6 Cu1 Au1 C2'
_cell_volume   173.37734221
_cell_formula_units_Z   1
loop_
 _symmetry_equiv_pos_site_id
 _symmetry_equiv_pos_as_xyz
  1  'x, y, z'
loop_
 _atom_site_type_symbol
 _atom_site_label
 _atom_site_symmetry_multiplicity
 _atom_site_fract_x
 _atom_site_fract_y
 _atom_site_fract_z
 _atom_site_occupancy
  Hf  Hf0  1  0.627546  0.372454  0.952517  1
  Hf  Hf1  1  0.371089  0.628911  0.441941  1
  Hf  Hf2  1  0.371089  0.628911  0.058059  1
  Hf  Hf3  1  0.627546  0.372454  0.547483  1
  Hf  Hf4  1  0.952510  0.047490  0.750000  1
  Hf  Hf5  1  0.054141  0.945859  0.250000  1
  Cu  Cu6  1  0.747856  0.252144  0.250000  1
  Au  Au7  1  0.250856  0.749144  0.750000  1
  C  C8  1  0.998683  0.001317  0.001917  1
  C  C9  1  0.998683  0.001317  0.498083  1
