# generated using pymatgen
data_Tb3Er(GaSi)2
_symmetry_space_group_name_H-M   'P 1'
_cell_length_a   3.95972100
_cell_length_b   5.78957092
_cell_length_c   8.01361813
_cell_angle_alpha   89.93201110
_cell_angle_beta   90.00000000
_cell_angle_gamma   90.00000000
_symmetry_Int_Tables_number   1
_chemical_formula_structural   Tb3Er(GaSi)2
_chemical_formula_sum   'Tb3 Er1 Ga2 Si2'
_cell_volume   183.71275198
_cell_formula_units_Z   1
loop_
 _symmetry_equiv_pos_site_id
 _symmetry_equiv_pos_as_xyz
  1  'x, y, z'
loop_
 _atom_site_type_symbol
 _atom_site_label
 _atom_site_symmetry_multiplicity
 _atom_site_fract_x
 _atom_site_fract_y
 _atom_site_fract_z
 _atom_site_occupancy
  Tb  Tb0  1  0.250000  0.380811  0.679296  1
  Tb  Tb1  1  0.250000  0.118701  0.178358  1
  Tb  Tb2  1  0.750000  0.610583  0.322009  1
  Er  Er3  1  0.750000  0.889260  0.821217  1
  Ga  Ga4  1  0.250000  0.869573  0.538859  1
  Ga  Ga5  1  0.250000  0.631543  0.035961  1
  Si  Si6  1  0.750000  0.126350  0.462931  1
  Si  Si7  1  0.750000  0.373179  0.961367  1
