# generated using pymatgen
data_Rb3LiTl2(TcH9)3
_symmetry_space_group_name_H-M   'P 1'
_cell_length_a   9.35295000
_cell_length_b   9.52281555
_cell_length_c   5.91324400
_cell_angle_alpha   90.00000000
_cell_angle_beta   90.00000000
_cell_angle_gamma   119.41165887
_symmetry_Int_Tables_number   1
_chemical_formula_structural   Rb3LiTl2(TcH9)3
_chemical_formula_sum   'Rb3 Li1 Tl2 Tc3 H27'
_cell_volume   458.79082999
_cell_formula_units_Z   1
loop_
 _symmetry_equiv_pos_site_id
 _symmetry_equiv_pos_as_xyz
  1  'x, y, z'
loop_
 _atom_site_type_symbol
 _atom_site_label
 _atom_site_symmetry_multiplicity
 _atom_site_fract_x
 _atom_site_fract_y
 _atom_site_fract_z
 _atom_site_occupancy
  Rb  Rb0  1  0.587172  0.000000  0.000000  1
  Rb  Rb1  1  0.995841  0.589198  0.000000  1
  Rb  Rb2  1  0.406644  0.410802  0.000000  1
  Li  Li3  1  0.348057  0.000000  0.500000  1
  Tl  Tl4  1  0.008051  0.250001  0.500000  1
  Tl  Tl5  1  0.758051  0.749999  0.500000  1
  Tc  Tc6  1  0.015495  0.000000  0.000000  1
  Tc  Tc7  1  0.329151  0.689175  0.500000  1
  Tc  Tc8  1  0.639977  0.310825  0.500000  1
  H  H9  1  0.882420  0.000000  0.199268  1
  H  H10  1  0.028376  0.883100  0.203866  1
  H  H11  1  0.882420  0.000000  0.800732  1
  H  H12  1  0.028376  0.883100  0.796134  1
  H  H13  1  0.145276  0.116900  0.203866  1
  H  H14  1  0.145276  0.116900  0.796134  1
  H  H15  1  0.192196  0.000000  0.000000  1
  H  H16  1  0.027503  0.181511  0.000000  1
  H  H17  1  0.845991  0.818489  0.000000  1
  H  H18  1  0.224007  0.552766  0.295730  1
  H  H19  1  0.461652  0.712547  0.290210  1
  H  H20  1  0.224007  0.552766  0.704270  1
  H  H21  1  0.494089  0.198704  0.696254  1
  H  H22  1  0.295386  0.801296  0.303746  1
  H  H23  1  0.461652  0.712547  0.709790  1
  H  H24  1  0.671240  0.447234  0.704270  1
  H  H25  1  0.494089  0.198704  0.303746  1
  H  H26  1  0.295386  0.801296  0.696254  1
  H  H27  1  0.671240  0.447234  0.295730  1
  H  H28  1  0.749105  0.287453  0.709790  1
  H  H29  1  0.749105  0.287453  0.290210  1
  H  H30  1  0.374537  0.540349  0.500000  1
  H  H31  1  0.491096  0.873568  0.500000  1
  H  H32  1  0.492144  0.358867  0.500000  1
  H  H33  1  0.133276  0.641133  0.500000  1
  H  H34  1  0.834188  0.459651  0.500000  1
  H  H35  1  0.617528  0.126432  0.500000  1
