# generated using pymatgen
data_Rb8Ho6BeBr20
_symmetry_space_group_name_H-M   'P 1'
_cell_length_a   12.33235549
_cell_length_b   12.33235543
_cell_length_c   12.33235400
_cell_angle_alpha   59.99999848
_cell_angle_beta   59.99999864
_cell_angle_gamma   60.00000048
_symmetry_Int_Tables_number   1
_chemical_formula_structural   Rb8Ho6BeBr20
_chemical_formula_sum   'Rb8 Ho6 Be1 Br20'
_cell_volume   1326.24281856
_cell_formula_units_Z   1
loop_
 _symmetry_equiv_pos_site_id
 _symmetry_equiv_pos_as_xyz
  1  'x, y, z'
loop_
 _atom_site_type_symbol
 _atom_site_label
 _atom_site_symmetry_multiplicity
 _atom_site_fract_x
 _atom_site_fract_y
 _atom_site_fract_z
 _atom_site_occupancy
  Rb  Rb0  1  0.358590  0.358590  0.358590  1
  Rb  Rb1  1  0.641410  0.641410  0.641410  1
  Rb  Rb2  1  0.358590  0.358590  0.924230  1
  Rb  Rb3  1  0.358590  0.924230  0.358590  1
  Rb  Rb4  1  0.641410  0.641410  0.075770  1
  Rb  Rb5  1  0.641410  0.075770  0.641410  1
  Rb  Rb6  1  0.924230  0.358590  0.358590  1
  Rb  Rb7  1  0.075770  0.641410  0.641410  1
  Ho  Ho8  1  0.845354  0.154646  0.154646  1
  Ho  Ho9  1  0.154646  0.845354  0.845354  1
  Ho  Ho10  1  0.154646  0.845354  0.154646  1
  Ho  Ho11  1  0.845354  0.154646  0.845354  1
  Ho  Ho12  1  0.154646  0.154646  0.845354  1
  Ho  Ho13  1  0.845354  0.845354  0.154646  1
  Be  Be14  1  0.000000  0.000000  0.000000  1
  Br  Br15  1  0.329126  0.000000  0.000000  1
  Br  Br16  1  0.670874  0.000000  0.000000  1
  Br  Br17  1  0.000000  0.329126  0.670874  1
  Br  Br18  1  0.000000  0.670874  0.329126  1
  Br  Br19  1  0.000000  0.329126  0.000000  1
  Br  Br20  1  0.670874  0.000000  0.329126  1
  Br  Br21  1  0.000000  0.670874  0.000000  1
  Br  Br22  1  0.329126  0.000000  0.670874  1
  Br  Br23  1  0.000000  0.000000  0.329126  1
  Br  Br24  1  0.000000  0.000000  0.670874  1
  Br  Br25  1  0.670874  0.329126  0.000000  1
  Br  Br26  1  0.329126  0.670874  0.000000  1
  Br  Br27  1  0.679582  0.320418  0.320418  1
  Br  Br28  1  0.320418  0.679582  0.679582  1
  Br  Br29  1  0.320418  0.679582  0.320418  1
  Br  Br30  1  0.679582  0.320418  0.679582  1
  Br  Br31  1  0.320418  0.320418  0.679582  1
  Br  Br32  1  0.679582  0.679582  0.320418  1
  Br  Br33  1  0.250000  0.250000  0.250000  1
  Br  Br34  1  0.750000  0.750000  0.750000  1
