# generated using pymatgen
data_Ta7Nb3(Si2Ge)2
_symmetry_space_group_name_H-M   'P 1'
_cell_length_a   7.59544704
_cell_length_b   7.58189468
_cell_length_c   7.58795898
_cell_angle_alpha   128.16875218
_cell_angle_beta   128.21845737
_cell_angle_gamma   76.31846357
_symmetry_Int_Tables_number   1
_chemical_formula_structural   Ta7Nb3(Si2Ge)2
_chemical_formula_sum   'Ta7 Nb3 Si4 Ge2'
_cell_volume   262.28354120
_cell_formula_units_Z   1
loop_
 _symmetry_equiv_pos_site_id
 _symmetry_equiv_pos_as_xyz
  1  'x, y, z'
loop_
 _atom_site_type_symbol
 _atom_site_label
 _atom_site_symmetry_multiplicity
 _atom_site_fract_x
 _atom_site_fract_y
 _atom_site_fract_z
 _atom_site_occupancy
  Ta  Ta0  1  0.485031  0.985407  0.173585  1
  Ta  Ta1  1  0.687210  0.514726  0.500000  1
  Ta  Ta2  1  0.984852  0.811926  0.500000  1
  Ta  Ta3  1  0.311419  0.484775  0.500000  1
  Ta  Ta4  1  0.811445  0.311821  0.826415  1
  Ta  Ta5  1  0.500779  0.500735  0.000462  1
  Ta  Ta6  1  0.000317  0.000272  0.999538  1
  Nb  Nb7  1  0.016099  0.187745  0.500000  1
  Nb  Nb8  1  0.516311  0.016107  0.828949  1
  Nb  Nb9  1  0.187363  0.687159  0.171051  1
  Si  Si10  1  0.130358  0.630516  0.761114  1
  Si  Si11  1  0.630641  0.869213  0.500000  1
  Si  Si12  1  0.369298  0.130365  0.500000  1
  Si  Si13  1  0.869245  0.369403  0.238886  1
  Ge  Ge14  1  0.749786  0.749885  0.999939  1
  Ge  Ge15  1  0.249847  0.249945  0.000061  1
