# generated using pymatgen
data_Zr4Al18FeCo5
_symmetry_space_group_name_H-M   'P 1'
_cell_length_a   7.27400878
_cell_length_b   7.27401048
_cell_length_c   9.04727778
_cell_angle_alpha   89.97592701
_cell_angle_beta   89.97593127
_cell_angle_gamma   119.38848932
_symmetry_Int_Tables_number   1
_chemical_formula_structural   Zr4Al18FeCo5
_chemical_formula_sum   'Zr4 Al18 Fe1 Co5'
_cell_volume   417.09926089
_cell_formula_units_Z   1
loop_
 _symmetry_equiv_pos_site_id
 _symmetry_equiv_pos_as_xyz
  1  'x, y, z'
loop_
 _atom_site_type_symbol
 _atom_site_label
 _atom_site_symmetry_multiplicity
 _atom_site_fract_x
 _atom_site_fract_y
 _atom_site_fract_z
 _atom_site_occupancy
  Zr  Zr0  1  0.991748  0.673294  0.249830  1
  Zr  Zr1  1  0.008252  0.326706  0.750170  1
  Zr  Zr2  1  0.673294  0.991748  0.249830  1
  Zr  Zr3  1  0.326706  0.008252  0.750170  1
  Al  Al4  1  0.994701  0.334332  0.072854  1
  Al  Al5  1  0.005299  0.665668  0.927146  1
  Al  Al6  1  0.005422  0.664615  0.573523  1
  Al  Al7  1  0.335385  0.994578  0.426477  1
  Al  Al8  1  0.994578  0.335385  0.426477  1
  Al  Al9  1  0.664615  0.005422  0.573523  1
  Al  Al10  1  0.665668  0.005299  0.927146  1
  Al  Al11  1  0.334332  0.994701  0.072854  1
  Al  Al12  1  0.339326  0.560911  0.250019  1
  Al  Al13  1  0.660674  0.439089  0.749981  1
  Al  Al14  1  0.560911  0.339326  0.250019  1
  Al  Al15  1  0.439089  0.660674  0.749981  1
  Al  Al16  1  0.330378  0.330378  0.547529  1
  Al  Al17  1  0.669622  0.669622  0.452471  1
  Al  Al18  1  0.669896  0.669896  0.047116  1
  Al  Al19  1  0.330104  0.330104  0.952884  1
  Al  Al20  1  0.119739  0.119739  0.249742  1
  Al  Al21  1  0.880261  0.880261  0.750258  1
  Fe  Fe22  1  0.000000  0.000000  0.000000  1
  Co  Co23  1  0.671891  0.328109  0.000000  1
  Co  Co24  1  0.328109  0.671891  0.000000  1
  Co  Co25  1  0.328229  0.671771  0.500000  1
  Co  Co26  1  0.671771  0.328229  0.500000  1
  Co  Co27  1  0.000000  0.000000  0.500000  1
