# generated using pymatgen
data_Y7Lu(Sc3Pt4)4
_symmetry_space_group_name_H-M   'P 1'
_cell_length_a   7.30185658
_cell_length_b   7.29821752
_cell_length_c   14.14245800
_cell_angle_alpha   90.01483774
_cell_angle_beta   90.02292818
_cell_angle_gamma   89.98429276
_symmetry_Int_Tables_number   1
_chemical_formula_structural   Y7Lu(Sc3Pt4)4
_chemical_formula_sum   'Y7 Lu1 Sc12 Pt16'
_cell_volume   753.65907653
_cell_formula_units_Z   1
loop_
 _symmetry_equiv_pos_site_id
 _symmetry_equiv_pos_as_xyz
  1  'x, y, z'
loop_
 _atom_site_type_symbol
 _atom_site_label
 _atom_site_symmetry_multiplicity
 _atom_site_fract_x
 _atom_site_fract_y
 _atom_site_fract_z
 _atom_site_occupancy
  Y  Y0  1  0.503855  0.676398  0.093463  1
  Y  Y1  1  0.496650  0.323689  0.593244  1
  Y  Y2  1  0.996149  0.176277  0.906636  1
  Y  Y3  1  0.996158  0.175412  0.592844  1
  Y  Y4  1  0.496236  0.323838  0.906608  1
  Y  Y5  1  0.503704  0.676563  0.406676  1
  Y  Y6  1  0.003995  0.823647  0.093175  1
  Lu  Lu7  1  0.002695  0.822480  0.406274  1
  Sc  Sc8  1  0.678920  0.998834  0.250321  1
  Sc  Sc9  1  0.178576  0.501295  0.250384  1
  Sc  Sc10  1  0.821392  0.498844  0.749902  1
  Sc  Sc11  1  0.321433  0.000997  0.749920  1
  Sc  Sc12  1  0.654906  0.833768  0.624159  1
  Sc  Sc13  1  0.154853  0.666251  0.875667  1
  Sc  Sc14  1  0.845207  0.333499  0.375930  1
  Sc  Sc15  1  0.344984  0.166333  0.124248  1
  Sc  Sc16  1  0.344298  0.165899  0.376172  1
  Sc  Sc17  1  0.845197  0.333562  0.124353  1
  Sc  Sc18  1  0.154260  0.666809  0.623820  1
  Sc  Sc19  1  0.654938  0.833529  0.875824  1
  Pt  Pt20  1  0.814537  0.644383  0.251582  1
  Pt  Pt21  1  0.311575  0.856759  0.250853  1
  Pt  Pt22  1  0.687254  0.143091  0.749854  1
  Pt  Pt23  1  0.187178  0.357024  0.749833  1
  Pt  Pt24  1  0.543754  0.376904  0.250203  1
  Pt  Pt25  1  0.042944  0.122201  0.250942  1
  Pt  Pt26  1  0.956484  0.876485  0.749940  1
  Pt  Pt27  1  0.456473  0.623392  0.749854  1
  Pt  Pt28  1  0.821771  0.544975  0.541017  1
  Pt  Pt29  1  0.321143  0.956826  0.958209  1
  Pt  Pt30  1  0.681387  0.041190  0.458218  1
  Pt  Pt31  1  0.178763  0.456922  0.041339  1
  Pt  Pt32  1  0.178237  0.459270  0.458087  1
  Pt  Pt33  1  0.678807  0.043281  0.041265  1
  Pt  Pt34  1  0.320258  0.956023  0.540932  1
  Pt  Pt35  1  0.821031  0.543349  0.958252  1
