# generated using pymatgen
data_Dy5Y4LuRu4
_symmetry_space_group_name_H-M   'P 1'
_cell_length_a   6.31971337
_cell_length_b   7.29126523
_cell_length_c   8.48323307
_cell_angle_alpha   96.84417623
_cell_angle_beta   111.86879990
_cell_angle_gamma   89.99999095
_symmetry_Int_Tables_number   1
_chemical_formula_structural   Dy5Y4LuRu4
_chemical_formula_sum   'Dy5 Y4 Lu1 Ru4'
_cell_volume   359.76391041
_cell_formula_units_Z   1
loop_
 _symmetry_equiv_pos_site_id
 _symmetry_equiv_pos_as_xyz
  1  'x, y, z'
loop_
 _atom_site_type_symbol
 _atom_site_label
 _atom_site_symmetry_multiplicity
 _atom_site_fract_x
 _atom_site_fract_y
 _atom_site_fract_z
 _atom_site_occupancy
  Dy  Dy0  1  0.298216  0.313903  0.433411  1
  Dy  Dy1  1  0.701887  0.686781  0.567446  1
  Dy  Dy2  1  0.864806  0.186097  0.566589  1
  Dy  Dy3  1  0.134440  0.813219  0.432554  1
  Dy  Dy4  1  0.080128  0.250000  0.000000  1
  Y  Y5  1  0.522423  0.082231  0.812593  1
  Y  Y6  1  0.478511  0.915743  0.187312  1
  Y  Y7  1  0.709830  0.417769  0.187407  1
  Y  Y8  1  0.291199  0.584257  0.812688  1
  Lu  Lu9  1  0.921697  0.750000  0.000000  1
  Ru  Ru10  1  0.316705  0.576186  0.220869  1
  Ru  Ru11  1  0.682110  0.426046  0.779896  1
  Ru  Ru12  1  0.095838  0.923814  0.779131  1
  Ru  Ru13  1  0.902211  0.073954  0.220104  1
