# generated using pymatgen
data_LiEr8Zn(Si6Rh)2
_symmetry_space_group_name_H-M   'P 1'
_cell_length_a   8.13852900
_cell_length_b   8.13852850
_cell_length_c   7.84937200
_cell_angle_alpha   90.00000000
_cell_angle_beta   90.00000000
_cell_angle_gamma   120.00000609
_symmetry_Int_Tables_number   1
_chemical_formula_structural   LiEr8Zn(Si6Rh)2
_chemical_formula_sum   'Li1 Er8 Zn1 Si12 Rh2'
_cell_volume   450.25373174
_cell_formula_units_Z   1
loop_
 _symmetry_equiv_pos_site_id
 _symmetry_equiv_pos_as_xyz
  1  'x, y, z'
loop_
 _atom_site_type_symbol
 _atom_site_label
 _atom_site_symmetry_multiplicity
 _atom_site_fract_x
 _atom_site_fract_y
 _atom_site_fract_z
 _atom_site_occupancy
  Li  Li0  1  0.333333  0.666667  0.048547  1
  Er  Er1  1  0.978281  0.489142  0.255795  1
  Er  Er2  1  0.510858  0.489142  0.255795  1
  Er  Er3  1  0.490836  0.981670  0.744551  1
  Er  Er4  1  0.018330  0.509164  0.744551  1
  Er  Er5  1  0.490836  0.509164  0.744551  1
  Er  Er6  1  0.510858  0.021719  0.255795  1
  Er  Er7  1  0.000000  0.000000  0.752394  1
  Er  Er8  1  0.000000  0.000000  0.248264  1
  Zn  Zn9  1  0.666667  0.333333  0.952952  1
  Si  Si10  1  0.167178  0.832822  0.489993  1
  Si  Si11  1  0.167178  0.334357  0.489993  1
  Si  Si12  1  0.665643  0.832822  0.489993  1
  Si  Si13  1  0.330594  0.165297  0.008362  1
  Si  Si14  1  0.833766  0.667534  0.508414  1
  Si  Si15  1  0.834703  0.165297  0.008362  1
  Si  Si16  1  0.834703  0.669406  0.008362  1
  Si  Si17  1  0.168013  0.336025  0.991235  1
  Si  Si18  1  0.663975  0.831987  0.991235  1
  Si  Si19  1  0.332466  0.166234  0.508414  1
  Si  Si20  1  0.833766  0.166234  0.508414  1
  Si  Si21  1  0.168013  0.831987  0.991235  1
  Rh  Rh22  1  0.666667  0.333333  0.530418  1
  Rh  Rh23  1  0.333333  0.666667  0.472375  1
