# generated using pymatgen
data_Tb4Y4Re3B24Ir
_symmetry_space_group_name_H-M   'P 1'
_cell_length_a   3.68542400
_cell_length_b   9.19392396
_cell_length_c   11.58375108
_cell_angle_alpha   89.86556013
_cell_angle_beta   90.00000000
_cell_angle_gamma   90.00000000
_symmetry_Int_Tables_number   1
_chemical_formula_structural   Tb4Y4Re3B24Ir
_chemical_formula_sum   'Tb4 Y4 Re3 B24 Ir1'
_cell_volume   392.49704239
_cell_formula_units_Z   1
loop_
 _symmetry_equiv_pos_site_id
 _symmetry_equiv_pos_as_xyz
  1  'x, y, z'
loop_
 _atom_site_type_symbol
 _atom_site_label
 _atom_site_symmetry_multiplicity
 _atom_site_fract_x
 _atom_site_fract_y
 _atom_site_fract_z
 _atom_site_occupancy
  Tb  Tb0  1  0.000000  0.818537  0.084512  1
  Tb  Tb1  1  0.000000  0.178406  0.908836  1
  Tb  Tb2  1  0.000000  0.327080  0.418490  1
  Tb  Tb3  1  0.000000  0.677155  0.587407  1
  Y  Y4  1  0.000000  0.443947  0.129520  1
  Y  Y5  1  0.000000  0.556162  0.871180  1
  Y  Y6  1  0.000000  0.940595  0.371794  1
  Y  Y7  1  0.000000  0.056991  0.628317  1
  Re  Re8  1  0.000000  0.862857  0.822435  1
  Re  Re9  1  0.000000  0.638415  0.320067  1
  Re  Re10  1  0.000000  0.361730  0.679146  1
  B  B11  1  0.500000  0.053791  0.066581  1
  B  B12  1  0.500000  0.946782  0.932910  1
  B  B13  1  0.500000  0.553272  0.433075  1
  B  B14  1  0.500000  0.447147  0.567642  1
  B  B15  1  0.500000  0.248501  0.080194  1
  B  B16  1  0.500000  0.751380  0.918620  1
  B  B17  1  0.500000  0.748190  0.418383  1
  B  B18  1  0.500000  0.252464  0.581472  1
  B  B19  1  0.500000  0.290363  0.234564  1
  B  B20  1  0.500000  0.709212  0.766102  1
  B  B21  1  0.500000  0.790831  0.265171  1
  B  B22  1  0.500000  0.208907  0.733880  1
  B  B23  1  0.500000  0.131603  0.315260  1
  B  B24  1  0.500000  0.869432  0.686303  1
  B  B25  1  0.500000  0.630856  0.185560  1
  B  B26  1  0.500000  0.368510  0.814053  1
  B  B27  1  0.500000  0.483160  0.288025  1
  B  B28  1  0.500000  0.517222  0.712947  1
  B  B29  1  0.500000  0.983030  0.212059  1
  B  B30  1  0.500000  0.017956  0.787636  1
  B  B31  1  0.500000  0.104407  0.470343  1
  B  B32  1  0.500000  0.896468  0.528376  1
  B  B33  1  0.500000  0.602876  0.029188  1
  B  B34  1  0.500000  0.394372  0.971435  1
  Ir  Ir35  1  0.000000  0.137396  0.178518  1
