# generated using pymatgen
data_Y11ThTc3Pd
_symmetry_space_group_name_H-M   'P 1'
_cell_length_a   6.39362125
_cell_length_b   7.41125580
_cell_length_c   9.34067800
_cell_angle_alpha   90.00000000
_cell_angle_beta   90.00000000
_cell_angle_gamma   89.42377083
_symmetry_Int_Tables_number   1
_chemical_formula_structural   Y11ThTc3Pd
_chemical_formula_sum   'Y11 Th1 Tc3 Pd1'
_cell_volume   442.58342594
_cell_formula_units_Z   1
loop_
 _symmetry_equiv_pos_site_id
 _symmetry_equiv_pos_as_xyz
  1  'x, y, z'
loop_
 _atom_site_type_symbol
 _atom_site_label
 _atom_site_symmetry_multiplicity
 _atom_site_fract_x
 _atom_site_fract_y
 _atom_site_fract_z
 _atom_site_occupancy
  Y  Y0  1  0.629384  0.043446  0.250000  1
  Y  Y1  1  0.126335  0.458952  0.750000  1
  Y  Y2  1  0.867183  0.535389  0.250000  1
  Y  Y3  1  0.168084  0.186522  0.061492  1
  Y  Y4  1  0.829739  0.822637  0.931281  1
  Y  Y5  1  0.667077  0.321976  0.935712  1
  Y  Y6  1  0.829739  0.822637  0.568719  1
  Y  Y7  1  0.338516  0.669057  0.062391  1
  Y  Y8  1  0.168084  0.186522  0.438508  1
  Y  Y9  1  0.338516  0.669057  0.437609  1
  Y  Y10  1  0.667077  0.321976  0.564288  1
  Th  Th11  1  0.356891  0.948797  0.750000  1
  Tc  Tc12  1  0.458979  0.384450  0.250000  1
  Tc  Tc13  1  0.522718  0.630010  0.750000  1
  Tc  Tc14  1  0.983507  0.111085  0.750000  1
  Pd  Pd15  1  0.048169  0.887483  0.250000  1
