# generated using pymatgen
data_Tb2Nd4IrI10
_symmetry_space_group_name_H-M   'P 1'
_cell_length_a   7.90315143
_cell_length_b   9.93168990
_cell_length_c   10.01321051
_cell_angle_alpha   107.51068092
_cell_angle_beta   96.57121079
_cell_angle_gamma   104.55696856
_symmetry_Int_Tables_number   1
_chemical_formula_structural   Tb2Nd4IrI10
_chemical_formula_sum   'Tb2 Nd4 Ir1 I10'
_cell_volume   709.92576692
_cell_formula_units_Z   1
loop_
 _symmetry_equiv_pos_site_id
 _symmetry_equiv_pos_as_xyz
  1  'x, y, z'
loop_
 _atom_site_type_symbol
 _atom_site_label
 _atom_site_symmetry_multiplicity
 _atom_site_fract_x
 _atom_site_fract_y
 _atom_site_fract_z
 _atom_site_occupancy
  Tb  Tb0  1  0.347955  0.124623  0.165112  1
  Tb  Tb1  1  0.652045  0.875377  0.834888  1
  Nd  Nd2  1  0.117540  0.042258  0.754826  1
  Nd  Nd3  1  0.882460  0.957742  0.245174  1
  Nd  Nd4  1  0.968312  0.283003  0.085644  1
  Nd  Nd5  1  0.031688  0.716997  0.914356  1
  Ir  Ir6  1  0.000000  0.000000  0.000000  1
  I  I7  1  0.355705  0.446710  0.271871  1
  I  I8  1  0.644295  0.553290  0.728129  1
  I  I9  1  0.264498  0.088832  0.455563  1
  I  I10  1  0.735502  0.911168  0.544437  1
  I  I11  1  0.086453  0.371815  0.819464  1
  I  I12  1  0.913547  0.628185  0.180536  1
  I  I13  1  0.454609  0.820230  0.088147  1
  I  I14  1  0.545391  0.179770  0.911853  1
  I  I15  1  0.769431  0.256042  0.345462  1
  I  I16  1  0.230569  0.743958  0.654538  1
