# generated using pymatgen
data_TbNd9(Tl3Br)2
_symmetry_space_group_name_H-M   'P 1'
_cell_length_a   9.55455800
_cell_length_b   9.55455581
_cell_length_c   6.83763900
_cell_angle_alpha   90.00000000
_cell_angle_beta   90.00000000
_cell_angle_gamma   120.00000065
_symmetry_Int_Tables_number   1
_chemical_formula_structural   TbNd9(Tl3Br)2
_chemical_formula_sum   'Tb1 Nd9 Tl6 Br2'
_cell_volume   540.57741805
_cell_formula_units_Z   1
loop_
 _symmetry_equiv_pos_site_id
 _symmetry_equiv_pos_as_xyz
  1  'x, y, z'
loop_
 _atom_site_type_symbol
 _atom_site_label
 _atom_site_symmetry_multiplicity
 _atom_site_fract_x
 _atom_site_fract_y
 _atom_site_fract_z
 _atom_site_occupancy
  Tb  Tb0  1  0.666667  0.333333  0.000000  1
  Nd  Nd1  1  0.735259  0.734027  0.249157  1
  Nd  Nd2  1  0.998767  0.734027  0.750843  1
  Nd  Nd3  1  0.735259  0.001233  0.750843  1
  Nd  Nd4  1  0.333333  0.666667  0.500000  1
  Nd  Nd5  1  0.265973  0.264741  0.750843  1
  Nd  Nd6  1  0.998767  0.264741  0.249157  1
  Nd  Nd7  1  0.666667  0.333333  0.500000  1
  Nd  Nd8  1  0.265973  0.001233  0.249157  1
  Nd  Nd9  1  0.333333  0.666667  0.000000  1
  Tl  Tl10  1  0.393468  0.002249  0.751088  1
  Tl  Tl11  1  0.997751  0.606532  0.248912  1
  Tl  Tl12  1  0.608781  0.002249  0.248912  1
  Tl  Tl13  1  0.997751  0.391219  0.751088  1
  Tl  Tl14  1  0.393468  0.391219  0.248912  1
  Tl  Tl15  1  0.608781  0.606532  0.751088  1
  Br  Br16  1  0.000000  0.000000  0.500000  1
  Br  Br17  1  0.000000  0.000000  0.000000  1
