# generated using pymatgen
data_Zr2AlIr4Rh
_symmetry_space_group_name_H-M   'P 1'
_cell_length_a   5.60074447
_cell_length_b   5.58990250
_cell_length_c   8.19987500
_cell_angle_alpha   89.99999910
_cell_angle_beta   90.00001722
_cell_angle_gamma   97.13517036
_symmetry_Int_Tables_number   1
_chemical_formula_structural   Zr2AlIr4Rh
_chemical_formula_sum   'Zr4 Al2 Ir8 Rh2'
_cell_volume   254.73047452
_cell_formula_units_Z   2
loop_
 _symmetry_equiv_pos_site_id
 _symmetry_equiv_pos_as_xyz
  1  'x, y, z'
loop_
 _atom_site_type_symbol
 _atom_site_label
 _atom_site_symmetry_multiplicity
 _atom_site_fract_x
 _atom_site_fract_y
 _atom_site_fract_z
 _atom_site_occupancy
  Zr  Zr0  1  0.776784  0.225389  0.500000  1
  Zr  Zr1  1  0.223216  0.774609  0.000000  1
  Zr  Zr2  1  0.223216  0.774611  0.500000  1
  Zr  Zr3  1  0.776784  0.225391  0.000000  1
  Al  Al4  1  0.500089  0.500089  0.750000  1
  Al  Al5  1  0.499911  0.499911  0.250000  1
  Ir  Ir6  1  0.719886  0.721700  0.000151  1
  Ir  Ir7  1  0.719886  0.721699  0.499849  1
  Ir  Ir8  1  0.280114  0.278300  0.999849  1
  Ir  Ir9  1  0.280114  0.278301  0.500151  1
  Ir  Ir10  1  0.500096  0.000089  0.750000  1
  Ir  Ir11  1  0.499904  0.999911  0.250000  1
  Ir  Ir12  1  0.000044  0.000038  0.250000  1
  Ir  Ir13  1  0.999956  0.999962  0.750000  1
  Rh  Rh14  1  0.000089  0.500066  0.750000  1
  Rh  Rh15  1  0.999911  0.499934  0.250000  1
