# generated using pymatgen
data_BiCl(OF3)2
_symmetry_space_group_name_H-M   'P 1'
_cell_length_a   6.08334000
_cell_length_b   7.30271100
_cell_length_c   7.98888800
_cell_angle_alpha   90.00000000
_cell_angle_beta   90.00000000
_cell_angle_gamma   90.00000000
_symmetry_Int_Tables_number   1
_chemical_formula_structural   BiCl(OF3)2
_chemical_formula_sum   'Bi2 Cl2 O4 F12'
_cell_volume   354.90534228
_cell_formula_units_Z   2
loop_
 _symmetry_equiv_pos_site_id
 _symmetry_equiv_pos_as_xyz
  1  'x, y, z'
loop_
 _atom_site_type_symbol
 _atom_site_label
 _atom_site_symmetry_multiplicity
 _atom_site_fract_x
 _atom_site_fract_y
 _atom_site_fract_z
 _atom_site_occupancy
  Bi  Bi0  1  0.988672  0.000000  0.500000  1
  Bi  Bi1  1  0.011328  0.500000  0.000000  1
  Cl  Cl2  1  0.651423  0.000000  0.000000  1
  Cl  Cl3  1  0.348577  0.500000  0.500000  1
  O  O4  1  0.470462  0.500000  0.652291  1
  O  O5  1  0.529538  0.000000  0.152291  1
  O  O6  1  0.529538  0.000000  0.847709  1
  O  O7  1  0.470462  0.500000  0.347709  1
  F  F8  1  0.760912  0.202998  0.500000  1
  F  F9  1  0.245322  0.190784  0.500000  1
  F  F10  1  0.997974  0.500000  0.745016  1
  F  F11  1  0.760912  0.797002  0.500000  1
  F  F12  1  0.002026  0.000000  0.245016  1
  F  F13  1  0.754678  0.309216  0.000000  1
  F  F14  1  0.002026  0.000000  0.754984  1
  F  F15  1  0.245322  0.809216  0.500000  1
  F  F16  1  0.997974  0.500000  0.254984  1
  F  F17  1  0.754678  0.690784  0.000000  1
  F  F18  1  0.239088  0.297002  0.000000  1
  F  F19  1  0.239088  0.702998  0.000000  1
