# generated using pymatgen
data_Al2V3ReMo2
_symmetry_space_group_name_H-M   'P 1'
_cell_length_a   4.85065057
_cell_length_b   4.90602291
_cell_length_c   4.85065007
_cell_angle_alpha   90.12949274
_cell_angle_beta   89.86630048
_cell_angle_gamma   89.87049242
_symmetry_Int_Tables_number   1
_chemical_formula_structural   Al2V3ReMo2
_chemical_formula_sum   'Al2 V3 Re1 Mo2'
_cell_volume   115.43196817
_cell_formula_units_Z   1
loop_
 _symmetry_equiv_pos_site_id
 _symmetry_equiv_pos_as_xyz
  1  'x, y, z'
loop_
 _atom_site_type_symbol
 _atom_site_label
 _atom_site_symmetry_multiplicity
 _atom_site_fract_x
 _atom_site_fract_y
 _atom_site_fract_z
 _atom_site_occupancy
  Al  Al0  1  0.505333  0.494848  0.493458  1
  Al  Al1  1  0.993458  0.005152  0.005333  1
  V  V2  1  0.496810  0.250000  0.996810  1
  V  V3  1  0.750890  0.995386  0.503748  1
  V  V4  1  0.003748  0.504614  0.250890  1
  Re  Re5  1  0.498674  0.750000  0.998674  1
  Mo  Mo6  1  0.250498  0.998799  0.500587  1
  Mo  Mo7  1  0.000587  0.501201  0.750498  1
