# generated using pymatgen
data_CrCo20(ReB3)2
_symmetry_space_group_name_H-M   'P 1'
_cell_length_a   7.38987483
_cell_length_b   7.38987466
_cell_length_c   7.38987500
_cell_angle_alpha   59.99999398
_cell_angle_beta   59.99999478
_cell_angle_gamma   59.99999572
_symmetry_Int_Tables_number   1
_chemical_formula_structural   CrCo20(ReB3)2
_chemical_formula_sum   'Cr1 Co20 Re2 B6'
_cell_volume   285.36203820
_cell_formula_units_Z   1
loop_
 _symmetry_equiv_pos_site_id
 _symmetry_equiv_pos_as_xyz
  1  'x, y, z'
loop_
 _atom_site_type_symbol
 _atom_site_label
 _atom_site_symmetry_multiplicity
 _atom_site_fract_x
 _atom_site_fract_y
 _atom_site_fract_z
 _atom_site_occupancy
  Cr  Cr0  1  0.000000  0.000000  0.000000  1
  Co  Co1  1  0.618324  0.618324  0.145029  1
  Co  Co2  1  0.618324  0.145029  0.618324  1
  Co  Co3  1  0.145029  0.618324  0.618324  1
  Co  Co4  1  0.618324  0.618324  0.618324  1
  Co  Co5  1  0.381676  0.381676  0.854971  1
  Co  Co6  1  0.381676  0.854971  0.381676  1
  Co  Co7  1  0.854971  0.381676  0.381676  1
  Co  Co8  1  0.381676  0.381676  0.381676  1
  Co  Co9  1  0.000000  0.000000  0.339583  1
  Co  Co10  1  0.660417  0.000000  0.339583  1
  Co  Co11  1  0.000000  0.660417  0.339583  1
  Co  Co12  1  0.660417  0.339583  0.000000  1
  Co  Co13  1  0.000000  0.339583  0.000000  1
  Co  Co14  1  0.000000  0.339583  0.660417  1
  Co  Co15  1  0.339583  0.660417  0.000000  1
  Co  Co16  1  0.339583  0.000000  0.660417  1
  Co  Co17  1  0.339583  0.000000  0.000000  1
  Co  Co18  1  0.000000  0.000000  0.660417  1
  Co  Co19  1  0.000000  0.660417  0.000000  1
  Co  Co20  1  0.660417  0.000000  0.000000  1
  Re  Re21  1  0.750000  0.750000  0.750000  1
  Re  Re22  1  0.250000  0.250000  0.250000  1
  B  B23  1  0.724940  0.724940  0.275060  1
  B  B24  1  0.275060  0.724940  0.275060  1
  B  B25  1  0.724940  0.275060  0.275060  1
  B  B26  1  0.275060  0.275060  0.724940  1
  B  B27  1  0.724940  0.275060  0.724940  1
  B  B28  1  0.275060  0.724940  0.724940  1
