# generated using pymatgen
data_Yb5CuRh
_symmetry_space_group_name_H-M   'P 1'
_cell_length_a   8.67691631
_cell_length_b   8.67691845
_cell_length_c   7.46562837
_cell_angle_alpha   83.55593261
_cell_angle_beta   83.55593174
_cell_angle_gamma   44.13588819
_symmetry_Int_Tables_number   1
_chemical_formula_structural   Yb5CuRh
_chemical_formula_sum   'Yb10 Cu2 Rh2'
_cell_volume   388.52973456
_cell_formula_units_Z   2
loop_
 _symmetry_equiv_pos_site_id
 _symmetry_equiv_pos_as_xyz
  1  'x, y, z'
loop_
 _atom_site_type_symbol
 _atom_site_label
 _atom_site_symmetry_multiplicity
 _atom_site_fract_x
 _atom_site_fract_y
 _atom_site_fract_z
 _atom_site_occupancy
  Yb  Yb0  1  0.028575  0.794085  0.913010  1
  Yb  Yb1  1  0.205915  0.971425  0.586990  1
  Yb  Yb2  1  0.988566  0.196194  0.075403  1
  Yb  Yb3  1  0.803806  0.011434  0.424597  1
  Yb  Yb4  1  0.360340  0.203815  0.813424  1
  Yb  Yb5  1  0.796185  0.639660  0.686576  1
  Yb  Yb6  1  0.629563  0.799238  0.173616  1
  Yb  Yb7  1  0.200762  0.370437  0.326384  1
  Yb  Yb8  1  0.570607  0.429393  0.750000  1
  Yb  Yb9  1  0.417706  0.582294  0.250000  1
  Cu  Cu10  1  0.819631  0.401411  0.419560  1
  Cu  Cu11  1  0.598589  0.180370  0.080440  1
  Rh  Rh12  1  0.179313  0.599557  0.580983  1
  Rh  Rh13  1  0.400443  0.820687  0.919017  1
