# generated using pymatgen
data_MnTc2Hg3O10
_symmetry_space_group_name_H-M   'P 1'
_cell_length_a   8.62218274
_cell_length_b   9.60894810
_cell_length_c   9.45032600
_cell_angle_alpha   120.44688864
_cell_angle_beta   103.14901250
_cell_angle_gamma   84.25265006
_symmetry_Int_Tables_number   1
_chemical_formula_structural   MnTc2Hg3O10
_chemical_formula_sum   'Mn2 Tc4 Hg6 O20'
_cell_volume   657.18581353
_cell_formula_units_Z   2
loop_
 _symmetry_equiv_pos_site_id
 _symmetry_equiv_pos_as_xyz
  1  'x, y, z'
loop_
 _atom_site_type_symbol
 _atom_site_label
 _atom_site_symmetry_multiplicity
 _atom_site_fract_x
 _atom_site_fract_y
 _atom_site_fract_z
 _atom_site_occupancy
  Mn  Mn0  1  0.000000  0.000000  0.000000  1
  Mn  Mn1  1  0.500000  0.000000  0.500000  1
  Tc  Tc2  1  0.876572  0.765182  0.505106  1
  Tc  Tc3  1  0.707127  0.295753  0.963519  1
  Tc  Tc4  1  0.292873  0.704247  0.036481  1
  Tc  Tc5  1  0.123428  0.234818  0.494894  1
  Hg  Hg6  1  0.361661  0.622167  0.419497  1
  Hg  Hg7  1  0.708708  0.674823  0.817992  1
  Hg  Hg8  1  0.638339  0.377833  0.580503  1
  Hg  Hg9  1  0.330596  0.972637  0.801844  1
  Hg  Hg10  1  0.291292  0.325177  0.182008  1
  Hg  Hg11  1  0.669404  0.027363  0.198156  1
  O  O12  1  0.272997  0.120008  0.546835  1
  O  O13  1  0.445506  0.862679  0.606376  1
  O  O14  1  0.105045  0.781666  0.997417  1
  O  O15  1  0.223250  0.080112  0.002710  1
  O  O16  1  0.049372  0.134058  0.276504  1
  O  O17  1  0.950628  0.865942  0.723496  1
  O  O18  1  0.376889  0.806986  0.252999  1
  O  O19  1  0.776750  0.919888  0.997290  1
  O  O20  1  0.894955  0.218334  0.002583  1
  O  O21  1  0.727009  0.497862  0.030559  1
  O  O22  1  0.031540  0.737498  0.405294  1
  O  O23  1  0.272991  0.502138  0.969441  1
  O  O24  1  0.727003  0.879992  0.453165  1
  O  O25  1  0.796187  0.580502  0.443741  1
  O  O26  1  0.203813  0.419498  0.556259  1
  O  O27  1  0.623111  0.193014  0.747001  1
  O  O28  1  0.554494  0.137321  0.393624  1
  O  O29  1  0.582210  0.269276  0.069250  1
  O  O30  1  0.968460  0.262502  0.594706  1
  O  O31  1  0.417790  0.730724  0.930750  1
