# generated using pymatgen
data_Tb2ReSi2WC
_symmetry_space_group_name_H-M   'P 1'
_cell_length_a   5.85274449
_cell_length_b   5.85274643
_cell_length_c   7.08322001
_cell_angle_alpha   123.77767184
_cell_angle_beta   123.77767437
_cell_angle_gamma   38.93392510
_symmetry_Int_Tables_number   1
_chemical_formula_structural   Tb2ReSi2WC
_chemical_formula_sum   'Tb2 Re1 Si2 W1 C1'
_cell_volume   123.14539093
_cell_formula_units_Z   1
loop_
 _symmetry_equiv_pos_site_id
 _symmetry_equiv_pos_as_xyz
  1  'x, y, z'
loop_
 _atom_site_type_symbol
 _atom_site_label
 _atom_site_symmetry_multiplicity
 _atom_site_fract_x
 _atom_site_fract_y
 _atom_site_fract_z
 _atom_site_occupancy
  Tb  Tb0  1  0.575544  0.575544  0.298470  1
  Tb  Tb1  1  0.426600  0.426600  0.700075  1
  Re  Re2  1  0.208514  0.208514  0.086926  1
  Si  Si3  1  0.860674  0.860674  0.328215  1
  Si  Si4  1  0.131853  0.131853  0.667681  1
  W  W5  1  0.794749  0.794749  0.917150  1
  C  C6  1  0.002064  0.002064  0.001482  1
