# generated using pymatgen
data_Tb13Ho7(CoSb2)4
_symmetry_space_group_name_H-M   'P 1'
_cell_length_a   7.90456833
_cell_length_b   8.78248623
_cell_length_c   12.24469848
_cell_angle_alpha   89.98264581
_cell_angle_beta   90.02712744
_cell_angle_gamma   90.01914993
_symmetry_Int_Tables_number   1
_chemical_formula_structural   Tb13Ho7(CoSb2)4
_chemical_formula_sum   'Tb13 Ho7 Co4 Sb8'
_cell_volume   850.04836799
_cell_formula_units_Z   1
loop_
 _symmetry_equiv_pos_site_id
 _symmetry_equiv_pos_as_xyz
  1  'x, y, z'
loop_
 _atom_site_type_symbol
 _atom_site_label
 _atom_site_symmetry_multiplicity
 _atom_site_fract_x
 _atom_site_fract_y
 _atom_site_fract_z
 _atom_site_occupancy
  Tb  Tb0  1  0.155744  0.749778  0.203817  1
  Tb  Tb1  1  0.655406  0.250016  0.296455  1
  Tb  Tb2  1  0.844439  0.250132  0.796140  1
  Tb  Tb3  1  0.344532  0.749994  0.703704  1
  Tb  Tb4  1  0.452827  0.749797  0.997798  1
  Tb  Tb5  1  0.953327  0.250035  0.502248  1
  Tb  Tb6  1  0.545914  0.250306  0.002143  1
  Tb  Tb7  1  0.046649  0.749945  0.497848  1
  Tb  Tb8  1  0.623291  0.750115  0.307415  1
  Tb  Tb9  1  0.123668  0.250275  0.192935  1
  Tb  Tb10  1  0.376706  0.250000  0.692656  1
  Tb  Tb11  1  0.877050  0.749617  0.807059  1
  Tb  Tb12  1  0.821191  0.963956  0.065291  1
  Ho  Ho13  1  0.322747  0.036254  0.434645  1
  Ho  Ho14  1  0.177248  0.463478  0.934453  1
  Ho  Ho15  1  0.677252  0.536269  0.565451  1
  Ho  Ho16  1  0.177539  0.036391  0.934415  1
  Ho  Ho17  1  0.677265  0.963704  0.565412  1
  Ho  Ho18  1  0.822774  0.536163  0.065309  1
  Ho  Ho19  1  0.322785  0.463716  0.434605  1
  Co  Co20  1  0.433348  0.749983  0.490797  1
  Co  Co21  1  0.933801  0.250364  0.009236  1
  Co  Co22  1  0.566667  0.250010  0.509272  1
  Co  Co23  1  0.067841  0.749421  0.990435  1
  Sb  Sb24  1  0.930144  0.992141  0.327008  1
  Sb  Sb25  1  0.429056  0.008098  0.173470  1
  Sb  Sb26  1  0.070240  0.492026  0.673141  1
  Sb  Sb27  1  0.570136  0.507935  0.826720  1
  Sb  Sb28  1  0.070129  0.007952  0.673247  1
  Sb  Sb29  1  0.570348  0.992077  0.826777  1
  Sb  Sb30  1  0.929885  0.507920  0.326741  1
  Sb  Sb31  1  0.430052  0.492131  0.173354  1
