# generated using pymatgen
data_Sr2BeCu25
_symmetry_space_group_name_H-M   'P 1'
_cell_length_a   8.16723166
_cell_length_b   8.16723095
_cell_length_c   8.16723100
_cell_angle_alpha   59.99999575
_cell_angle_beta   59.99999863
_cell_angle_gamma   60.00000088
_symmetry_Int_Tables_number   1
_chemical_formula_structural   Sr2BeCu25
_chemical_formula_sum   'Sr2 Be1 Cu25'
_cell_volume   385.22062977
_cell_formula_units_Z   1
loop_
 _symmetry_equiv_pos_site_id
 _symmetry_equiv_pos_as_xyz
  1  'x, y, z'
loop_
 _atom_site_type_symbol
 _atom_site_label
 _atom_site_symmetry_multiplicity
 _atom_site_fract_x
 _atom_site_fract_y
 _atom_site_fract_z
 _atom_site_occupancy
  Sr  Sr0  1  0.750000  0.750000  0.750000  1
  Sr  Sr1  1  0.250000  0.250000  0.250000  1
  Be  Be2  1  0.500000  0.500000  0.500000  1
  Cu  Cu3  1  0.000000  0.000000  0.000000  1
  Cu  Cu4  1  0.563818  0.790043  0.436182  1
  Cu  Cu5  1  0.298223  0.062521  0.937479  1
  Cu  Cu6  1  0.062521  0.298223  0.701777  1
  Cu  Cu7  1  0.701777  0.062521  0.298223  1
  Cu  Cu8  1  0.298223  0.937479  0.701777  1
  Cu  Cu9  1  0.062521  0.937479  0.298223  1
  Cu  Cu10  1  0.701777  0.298223  0.937479  1
  Cu  Cu11  1  0.436182  0.563818  0.790043  1
  Cu  Cu12  1  0.790043  0.436182  0.563818  1
  Cu  Cu13  1  0.563818  0.209957  0.790043  1
  Cu  Cu14  1  0.563818  0.436182  0.209957  1
  Cu  Cu15  1  0.790043  0.209957  0.436182  1
  Cu  Cu16  1  0.209957  0.563818  0.436182  1
  Cu  Cu17  1  0.209957  0.790043  0.563818  1
  Cu  Cu18  1  0.436182  0.790043  0.209957  1
  Cu  Cu19  1  0.937479  0.298223  0.062521  1
  Cu  Cu20  1  0.937479  0.701777  0.298223  1
  Cu  Cu21  1  0.298223  0.701777  0.062521  1
  Cu  Cu22  1  0.937479  0.062521  0.701777  1
  Cu  Cu23  1  0.701777  0.937479  0.062521  1
  Cu  Cu24  1  0.062521  0.701777  0.937479  1
  Cu  Cu25  1  0.790043  0.563818  0.209957  1
  Cu  Cu26  1  0.436182  0.209957  0.563818  1
  Cu  Cu27  1  0.209957  0.436182  0.790043  1
