# generated using pymatgen
data_NaDy2Tm4Co6Sn23
_symmetry_space_group_name_H-M   'P 1'
_cell_length_a   9.67460198
_cell_length_b   9.68143865
_cell_length_c   9.93784223
_cell_angle_alpha   90.00000008
_cell_angle_beta   90.02143535
_cell_angle_gamma   120.02337840
_symmetry_Int_Tables_number   1
_chemical_formula_structural   NaDy2Tm4Co6Sn23
_chemical_formula_sum   'Na1 Dy2 Tm4 Co6 Sn23'
_cell_volume   805.92260169
_cell_formula_units_Z   1
loop_
 _symmetry_equiv_pos_site_id
 _symmetry_equiv_pos_as_xyz
  1  'x, y, z'
loop_
 _atom_site_type_symbol
 _atom_site_label
 _atom_site_symmetry_multiplicity
 _atom_site_fract_x
 _atom_site_fract_y
 _atom_site_fract_z
 _atom_site_occupancy
  Na  Na0  1  0.000000  0.000000  0.000000  1
  Dy  Dy1  1  0.040860  0.520430  0.305125  1
  Dy  Dy2  1  0.959140  0.479570  0.694875  1
  Tm  Tm3  1  0.480136  0.519695  0.305034  1
  Tm  Tm4  1  0.519864  0.480305  0.694966  1
  Tm  Tm5  1  0.480136  0.960441  0.305034  1
  Tm  Tm6  1  0.519864  0.039559  0.694966  1
  Co  Co7  1  0.828475  0.169957  0.201345  1
  Co  Co8  1  0.171525  0.830043  0.798655  1
  Co  Co9  1  0.828475  0.658516  0.201345  1
  Co  Co10  1  0.171525  0.341484  0.798655  1
  Co  Co11  1  0.341947  0.170972  0.201613  1
  Co  Co12  1  0.658053  0.829028  0.798387  1
  Sn  Sn13  1  0.344344  0.000209  0.000136  1
  Sn  Sn14  1  0.655656  0.999791  0.999864  1
  Sn  Sn15  1  0.000000  0.343968  0.000000  1
  Sn  Sn16  1  0.000000  0.656032  0.000000  1
  Sn  Sn17  1  0.655656  0.655865  0.999864  1
  Sn  Sn18  1  0.344344  0.344135  0.000136  1
  Sn  Sn19  1  0.333814  0.666908  0.814604  1
  Sn  Sn20  1  0.666186  0.333092  0.185396  1
  Sn  Sn21  1  0.000000  0.000000  0.500000  1
  Sn  Sn22  1  0.780178  0.217662  0.454742  1
  Sn  Sn23  1  0.219822  0.782338  0.545258  1
  Sn  Sn24  1  0.780178  0.562516  0.454742  1
  Sn  Sn25  1  0.219822  0.437484  0.545258  1
  Sn  Sn26  1  0.437571  0.218785  0.454729  1
  Sn  Sn27  1  0.562429  0.781215  0.545271  1
  Sn  Sn28  1  0.334715  0.667358  0.118054  1
  Sn  Sn29  1  0.665285  0.332642  0.881946  1
  Sn  Sn30  1  0.116956  0.884170  0.272056  1
  Sn  Sn31  1  0.883044  0.115830  0.727944  1
  Sn  Sn32  1  0.116956  0.232787  0.272056  1
  Sn  Sn33  1  0.883044  0.767213  0.727944  1
  Sn  Sn34  1  0.766486  0.883243  0.272101  1
  Sn  Sn35  1  0.233514  0.116757  0.727899  1
