# generated using pymatgen
data_Tb3ThAl17GaIr6
_symmetry_space_group_name_H-M   'P 1'
_cell_length_a   7.57289387
_cell_length_b   7.58086133
_cell_length_c   9.51010000
_cell_angle_alpha   90.00000000
_cell_angle_beta   90.00000000
_cell_angle_gamma   119.40286071
_symmetry_Int_Tables_number   1
_chemical_formula_structural   Tb3ThAl17GaIr6
_chemical_formula_sum   'Tb3 Th1 Al17 Ga1 Ir6'
_cell_volume   475.63963786
_cell_formula_units_Z   1
loop_
 _symmetry_equiv_pos_site_id
 _symmetry_equiv_pos_as_xyz
  1  'x, y, z'
loop_
 _atom_site_type_symbol
 _atom_site_label
 _atom_site_symmetry_multiplicity
 _atom_site_fract_x
 _atom_site_fract_y
 _atom_site_fract_z
 _atom_site_occupancy
  Tb  Tb0  1  0.003807  0.328520  0.750000  1
  Tb  Tb1  1  0.674950  0.993869  0.250000  1
  Tb  Tb2  1  0.327778  0.004496  0.750000  1
  Th  Th3  1  0.993733  0.674333  0.250000  1
  Al  Al4  1  0.869993  0.872111  0.750000  1
  Al  Al5  1  0.001956  0.331984  0.071936  1
  Al  Al6  1  0.998598  0.663838  0.919918  1
  Al  Al7  1  0.998598  0.663838  0.580082  1
  Al  Al8  1  0.340340  0.005083  0.428490  1
  Al  Al9  1  0.001956  0.331984  0.428064  1
  Al  Al10  1  0.664382  0.999661  0.575105  1
  Al  Al11  1  0.664382  0.999661  0.924895  1
  Al  Al12  1  0.340340  0.005083  0.071510  1
  Al  Al13  1  0.332470  0.332499  0.556843  1
  Al  Al14  1  0.662020  0.665276  0.454902  1
  Al  Al15  1  0.662020  0.665276  0.045098  1
  Al  Al16  1  0.332470  0.332499  0.943157  1
  Al  Al17  1  0.342337  0.549152  0.250000  1
  Al  Al18  1  0.658723  0.449892  0.750000  1
  Al  Al19  1  0.544959  0.335446  0.250000  1
  Al  Al20  1  0.450457  0.661167  0.750000  1
  Ga  Ga21  1  0.136891  0.139027  0.250000  1
  Ir  Ir22  1  0.672412  0.329359  0.000714  1
  Ir  Ir23  1  0.326366  0.670668  0.000694  1
  Ir  Ir24  1  0.326366  0.670668  0.499306  1
  Ir  Ir25  1  0.672412  0.329359  0.499286  1
  Ir  Ir26  1  0.999642  0.997626  0.998588  1
  Ir  Ir27  1  0.999642  0.997626  0.501412  1
