# generated using pymatgen
data_Er2Fe3Ru
_symmetry_space_group_name_H-M   'P 1'
_cell_length_a   5.21067012
_cell_length_b   5.21066973
_cell_length_c   5.21067054
_cell_angle_alpha   58.86670875
_cell_angle_beta   58.86670547
_cell_angle_gamma   58.86671452
_symmetry_Int_Tables_number   1
_chemical_formula_structural   Er2Fe3Ru
_chemical_formula_sum   'Er2 Fe3 Ru1'
_cell_volume   97.45009276
_cell_formula_units_Z   1
loop_
 _symmetry_equiv_pos_site_id
 _symmetry_equiv_pos_as_xyz
  1  'x, y, z'
loop_
 _atom_site_type_symbol
 _atom_site_label
 _atom_site_symmetry_multiplicity
 _atom_site_fract_x
 _atom_site_fract_y
 _atom_site_fract_z
 _atom_site_occupancy
  Er  Er0  1  0.124778  0.124778  0.124778  1
  Er  Er1  1  0.875222  0.875222  0.875222  1
  Fe  Fe2  1  0.500000  0.000000  0.500000  1
  Fe  Fe3  1  0.000000  0.500000  0.500000  1
  Fe  Fe4  1  0.500000  0.500000  0.000000  1
  Ru  Ru5  1  0.500000  0.500000  0.500000  1
