# generated using pymatgen
data_Sr3InAs3
_symmetry_space_group_name_H-M   'P 1'
_cell_length_a   4.50111400
_cell_length_b   13.22900300
_cell_length_c   14.23961000
_cell_angle_alpha   90.00000000
_cell_angle_beta   90.00000000
_cell_angle_gamma   90.00000000
_symmetry_Int_Tables_number   1
_chemical_formula_structural   Sr3InAs3
_chemical_formula_sum   'Sr12 In4 As12'
_cell_volume   847.90114603
_cell_formula_units_Z   4
loop_
 _symmetry_equiv_pos_site_id
 _symmetry_equiv_pos_as_xyz
  1  'x, y, z'
loop_
 _atom_site_type_symbol
 _atom_site_label
 _atom_site_symmetry_multiplicity
 _atom_site_fract_x
 _atom_site_fract_y
 _atom_site_fract_z
 _atom_site_occupancy
  Sr  Sr0  1  0.750000  0.854845  0.003366  1
  Sr  Sr1  1  0.750000  0.773815  0.290956  1
  Sr  Sr2  1  0.750000  0.354845  0.496634  1
  Sr  Sr3  1  0.250000  0.645155  0.503366  1
  Sr  Sr4  1  0.250000  0.145155  0.996634  1
  Sr  Sr5  1  0.250000  0.431981  0.892328  1
  Sr  Sr6  1  0.250000  0.931981  0.607672  1
  Sr  Sr7  1  0.750000  0.568019  0.107672  1
  Sr  Sr8  1  0.250000  0.226185  0.709044  1
  Sr  Sr9  1  0.250000  0.726185  0.790956  1
  Sr  Sr10  1  0.750000  0.068019  0.392328  1
  Sr  Sr11  1  0.750000  0.273815  0.209044  1
  In  In12  1  0.250000  0.443482  0.299673  1
  In  In13  1  0.750000  0.056518  0.799673  1
  In  In14  1  0.750000  0.556518  0.700327  1
  In  In15  1  0.250000  0.943482  0.200327  1
  As  As16  1  0.250000  0.952789  0.856645  1
  As  As17  1  0.750000  0.547211  0.356645  1
  As  As18  1  0.250000  0.252374  0.374853  1
  As  As19  1  0.750000  0.247626  0.874853  1
  As  As20  1  0.250000  0.400165  0.112812  1
  As  As21  1  0.250000  0.900165  0.387188  1
  As  As22  1  0.250000  0.752374  0.125147  1
  As  As23  1  0.750000  0.599835  0.887188  1
  As  As24  1  0.750000  0.747626  0.625147  1
  As  As25  1  0.250000  0.452789  0.643355  1
  As  As26  1  0.750000  0.099835  0.612812  1
  As  As27  1  0.750000  0.047211  0.143355  1
