# generated using pymatgen
data_Nd7Lu(Si4Mo3)4
_symmetry_space_group_name_H-M   'P 1'
_cell_length_a   6.89937958
_cell_length_b   7.06196709
_cell_length_c   13.07683003
_cell_angle_alpha   89.84679444
_cell_angle_beta   89.97767837
_cell_angle_gamma   89.87222840
_symmetry_Int_Tables_number   1
_chemical_formula_structural   Nd7Lu(Si4Mo3)4
_chemical_formula_sum   'Nd7 Lu1 Si16 Mo12'
_cell_volume   637.14098571
_cell_formula_units_Z   1
loop_
 _symmetry_equiv_pos_site_id
 _symmetry_equiv_pos_as_xyz
  1  'x, y, z'
loop_
 _atom_site_type_symbol
 _atom_site_label
 _atom_site_symmetry_multiplicity
 _atom_site_fract_x
 _atom_site_fract_y
 _atom_site_fract_z
 _atom_site_occupancy
  Nd  Nd0  1  0.497315  0.335607  0.094139  1
  Nd  Nd1  1  0.997456  0.164153  0.406024  1
  Nd  Nd2  1  0.502979  0.664194  0.594204  1
  Nd  Nd3  1  0.001553  0.834802  0.906985  1
  Nd  Nd4  1  0.502230  0.665033  0.907038  1
  Nd  Nd5  1  0.002435  0.835744  0.594235  1
  Nd  Nd6  1  0.496928  0.335525  0.404387  1
  Lu  Lu7  1  0.995719  0.167080  0.095929  1
  Si  Si8  1  0.654068  0.047216  0.549533  1
  Si  Si9  1  0.153933  0.450828  0.952600  1
  Si  Si10  1  0.339437  0.957307  0.050009  1
  Si  Si11  1  0.845410  0.546694  0.450064  1
  Si  Si12  1  0.346250  0.952593  0.449392  1
  Si  Si13  1  0.847471  0.540603  0.050005  1
  Si  Si14  1  0.656517  0.046627  0.952702  1
  Si  Si15  1  0.154621  0.453854  0.549373  1
  Si  Si16  1  0.536454  0.358159  0.751003  1
  Si  Si17  1  0.036824  0.140621  0.750432  1
  Si  Si18  1  0.464385  0.643333  0.248954  1
  Si  Si19  1  0.964703  0.862890  0.247750  1
  Si  Si20  1  0.806899  0.617976  0.750894  1
  Si  Si21  1  0.306381  0.879799  0.750551  1
  Si  Si22  1  0.190217  0.376668  0.247703  1
  Si  Si23  1  0.697446  0.121481  0.247844  1
  Mo  Mo24  1  0.832235  0.334054  0.627335  1
  Mo  Mo25  1  0.330287  0.164075  0.874465  1
  Mo  Mo26  1  0.167659  0.665920  0.126532  1
  Mo  Mo27  1  0.669962  0.835923  0.371865  1
  Mo  Mo28  1  0.167385  0.665427  0.371595  1
  Mo  Mo29  1  0.671082  0.837613  0.125359  1
  Mo  Mo30  1  0.833435  0.332248  0.874996  1
  Mo  Mo31  1  0.331536  0.164766  0.626993  1
  Mo  Mo32  1  0.664177  0.004775  0.750826  1
  Mo  Mo33  1  0.164666  0.494653  0.750641  1
  Mo  Mo34  1  0.333967  0.998117  0.248568  1
  Mo  Mo35  1  0.835976  0.503644  0.249080  1
