# generated using pymatgen
data_Y5Fe12Co4(P4Ru)3
_symmetry_space_group_name_H-M   'P 1'
_cell_length_a   12.11361900
_cell_length_b   12.11361944
_cell_length_c   3.75698100
_cell_angle_alpha   90.00000000
_cell_angle_beta   90.00000000
_cell_angle_gamma   120.00000154
_symmetry_Int_Tables_number   1
_chemical_formula_structural   Y5Fe12Co4(P4Ru)3
_chemical_formula_sum   'Y5 Fe12 Co4 P12 Ru3'
_cell_volume   477.43852456
_cell_formula_units_Z   1
loop_
 _symmetry_equiv_pos_site_id
 _symmetry_equiv_pos_as_xyz
  1  'x, y, z'
loop_
 _atom_site_type_symbol
 _atom_site_label
 _atom_site_symmetry_multiplicity
 _atom_site_fract_x
 _atom_site_fract_y
 _atom_site_fract_z
 _atom_site_occupancy
  Y  Y0  1  0.333333  0.666667  0.500000  1
  Y  Y1  1  0.666667  0.333333  0.500000  1
  Y  Y2  1  0.814923  0.999131  0.000000  1
  Y  Y3  1  0.000869  0.815793  0.000000  1
  Y  Y4  1  0.184207  0.185077  0.000000  1
  Fe  Fe5  1  0.622074  0.801602  0.500000  1
  Fe  Fe6  1  0.198398  0.820471  0.500000  1
  Fe  Fe7  1  0.179529  0.377926  0.500000  1
  Fe  Fe8  1  0.378109  0.183285  0.500000  1
  Fe  Fe9  1  0.805175  0.621891  0.500000  1
  Fe  Fe10  1  0.816715  0.194825  0.500000  1
  Fe  Fe11  1  0.283628  0.001198  0.000000  1
  Fe  Fe12  1  0.998802  0.282428  0.000000  1
  Fe  Fe13  1  0.717572  0.716372  0.000000  1
  Fe  Fe14  1  0.517878  0.877035  0.000000  1
  Fe  Fe15  1  0.122965  0.640841  0.000000  1
  Fe  Fe16  1  0.359159  0.482122  0.000000  1
  Co  Co17  1  0.486134  0.361344  0.000000  1
  Co  Co18  1  0.875210  0.513866  0.000000  1
  Co  Co19  1  0.638656  0.124790  0.000000  1
  Co  Co20  1  0.000000  0.000000  0.500000  1
  P  P21  1  0.184628  0.001455  0.500000  1
  P  P22  1  0.998545  0.183173  0.500000  1
  P  P23  1  0.816827  0.815372  0.500000  1
  P  P24  1  0.524064  0.689746  0.000000  1
  P  P25  1  0.310254  0.834319  0.000000  1
  P  P26  1  0.165681  0.475936  0.000000  1
  P  P27  1  0.474786  0.166970  0.000000  1
  P  P28  1  0.692185  0.525214  0.000000  1
  P  P29  1  0.833030  0.307815  0.000000  1
  P  P30  1  0.633090  0.996882  0.500000  1
  P  P31  1  0.003118  0.636208  0.500000  1
  P  P32  1  0.363792  0.366910  0.500000  1
  Ru  Ru33  1  0.446150  0.002081  0.500000  1
  Ru  Ru34  1  0.997919  0.444069  0.500000  1
  Ru  Ru35  1  0.555931  0.553850  0.500000  1
