# generated using pymatgen
data_Mg3Mn(WO3)8
_symmetry_space_group_name_H-M   'P 1'
_cell_length_a   4.70281954
_cell_length_b   10.72915443
_cell_length_c   9.40645110
_cell_angle_alpha   64.00002898
_cell_angle_beta   90.05521834
_cell_angle_gamma   90.02429997
_symmetry_Int_Tables_number   1
_chemical_formula_structural   Mg3Mn(WO3)8
_chemical_formula_sum   'Mg3 Mn1 W8 O24'
_cell_volume   426.58905148
_cell_formula_units_Z   1
loop_
 _symmetry_equiv_pos_site_id
 _symmetry_equiv_pos_as_xyz
  1  'x, y, z'
loop_
 _atom_site_type_symbol
 _atom_site_label
 _atom_site_symmetry_multiplicity
 _atom_site_fract_x
 _atom_site_fract_y
 _atom_site_fract_z
 _atom_site_occupancy
  Mg  Mg0  1  0.999898  0.333381  0.333309  1
  Mg  Mg1  1  0.500106  0.833381  0.833299  1
  Mg  Mg2  1  0.000046  0.333352  0.833265  1
  Mn  Mn3  1  0.500021  0.833182  0.333409  1
  W  W4  1  0.001138  0.998184  0.502771  1
  W  W5  1  0.998779  0.998200  0.999086  1
  W  W6  1  0.998852  0.668496  0.163888  1
  W  W7  1  0.001274  0.668469  0.667615  1
  W  W8  1  0.499943  0.171626  0.164194  1
  W  W9  1  0.499960  0.169143  0.665450  1
  W  W10  1  0.500071  0.497508  0.001260  1
  W  W11  1  0.500041  0.495015  0.502501  1
  O  O12  1  0.192589  0.833331  0.679498  1
  O  O13  1  0.184910  0.833342  0.176021  1
  O  O14  1  0.308726  0.334028  0.178644  1
  O  O15  1  0.308732  0.332662  0.679346  1
  O  O16  1  0.691237  0.334027  0.987330  1
  O  O17  1  0.691237  0.332662  0.488006  1
  O  O18  1  0.807381  0.833329  0.987180  1
  O  O19  1  0.815106  0.833337  0.490646  1
  O  O20  1  0.208476  0.159827  0.022936  1
  O  O21  1  0.205685  0.161043  0.523707  1
  O  O22  1  0.205706  0.505609  0.851411  1
  O  O23  1  0.208523  0.506838  0.349442  1
  O  O24  1  0.289952  0.011940  0.349463  1
  O  O25  1  0.293682  0.007093  0.849137  1
  O  O26  1  0.293692  0.659566  0.022920  1
  O  O27  1  0.290033  0.654760  0.528044  1
  O  O28  1  0.706349  0.659560  0.817502  1
  O  O29  1  0.710021  0.654742  0.317192  1
  O  O30  1  0.710028  0.011950  0.138579  1
  O  O31  1  0.706275  0.007102  0.643748  1
  O  O32  1  0.794306  0.505609  0.142994  1
  O  O33  1  0.791494  0.506839  0.643727  1
  O  O34  1  0.791467  0.159820  0.317221  1
  O  O35  1  0.794264  0.161046  0.815265  1
