# generated using pymatgen
data_Y6P5S
_symmetry_space_group_name_H-M   'P 1'
_cell_length_a   3.99858279
_cell_length_b   9.83557785
_cell_length_c   7.99390369
_cell_angle_alpha   90.04689141
_cell_angle_beta   59.99255258
_cell_angle_gamma   89.97988457
_symmetry_Int_Tables_number   1
_chemical_formula_structural   Y6P5S
_chemical_formula_sum   'Y6 P5 S1'
_cell_volume   272.24668904
_cell_formula_units_Z   1
loop_
 _symmetry_equiv_pos_site_id
 _symmetry_equiv_pos_as_xyz
  1  'x, y, z'
loop_
 _atom_site_type_symbol
 _atom_site_label
 _atom_site_symmetry_multiplicity
 _atom_site_fract_x
 _atom_site_fract_y
 _atom_site_fract_z
 _atom_site_occupancy
  Y  Y0  1  0.938542  0.895479  0.653852  1
  Y  Y1  1  0.271327  0.234407  0.324646  1
  Y  Y2  1  0.606401  0.564952  0.988742  1
  Y  Y3  1  0.278473  0.237923  0.817477  1
  Y  Y4  1  0.606176  0.564991  0.488718  1
  Y  Y5  1  0.931136  0.892114  0.160988  1
  P  P6  1  0.270750  0.732081  0.322436  1
  P  P7  1  0.940277  0.397920  0.655455  1
  P  P8  1  0.604698  0.064942  0.489373  1
  P  P9  1  0.941774  0.396174  0.154115  1
  P  P10  1  0.269537  0.733769  0.823941  1
  S  S11  1  0.604418  0.064978  0.989351  1
