# generated using pymatgen
data_Ho11ErOs3Rh
_symmetry_space_group_name_H-M   'P 1'
_cell_length_a   6.33553036
_cell_length_b   7.32852191
_cell_length_c   9.03758149
_cell_angle_alpha   90.00520840
_cell_angle_beta   89.96270952
_cell_angle_gamma   90.23661936
_symmetry_Int_Tables_number   1
_chemical_formula_structural   Ho11ErOs3Rh
_chemical_formula_sum   'Ho11 Er1 Os3 Rh1'
_cell_volume   419.61189964
_cell_formula_units_Z   1
loop_
 _symmetry_equiv_pos_site_id
 _symmetry_equiv_pos_as_xyz
  1  'x, y, z'
loop_
 _atom_site_type_symbol
 _atom_site_label
 _atom_site_symmetry_multiplicity
 _atom_site_fract_x
 _atom_site_fract_y
 _atom_site_fract_z
 _atom_site_occupancy
  Ho  Ho0  1  0.169408  0.177813  0.438318  1
  Ho  Ho1  1  0.669391  0.324222  0.563408  1
  Ho  Ho2  1  0.827411  0.823654  0.933886  1
  Ho  Ho3  1  0.669291  0.324330  0.936662  1
  Ho  Ho4  1  0.827372  0.823716  0.566214  1
  Ho  Ho5  1  0.334067  0.673574  0.438339  1
  Ho  Ho6  1  0.169421  0.177866  0.061715  1
  Ho  Ho7  1  0.869476  0.538295  0.249851  1
  Ho  Ho8  1  0.630184  0.040050  0.249944  1
  Ho  Ho9  1  0.129818  0.461569  0.750112  1
  Ho  Ho10  1  0.369152  0.961457  0.750108  1
  Er  Er11  1  0.334148  0.673371  0.061581  1
  Os  Os12  1  0.459962  0.383748  0.249840  1
  Os  Os13  1  0.961643  0.115429  0.749959  1
  Os  Os14  1  0.538239  0.616656  0.750176  1
  Rh  Rh15  1  0.041016  0.884250  0.249887  1
