# generated using pymatgen
data_DyHo11(BCl3)4
_symmetry_space_group_name_H-M   'P 1'
_cell_length_a   9.41818974
_cell_length_b   9.41816905
_cell_length_c   9.42161600
_cell_angle_alpha   109.46950366
_cell_angle_beta   109.46982923
_cell_angle_gamma   109.46486224
_symmetry_Int_Tables_number   1
_chemical_formula_structural   DyHo11(BCl3)4
_chemical_formula_sum   'Dy1 Ho11 B4 Cl12'
_cell_volume   643.41051582
_cell_formula_units_Z   1
loop_
 _symmetry_equiv_pos_site_id
 _symmetry_equiv_pos_as_xyz
  1  'x, y, z'
loop_
 _atom_site_type_symbol
 _atom_site_label
 _atom_site_symmetry_multiplicity
 _atom_site_fract_x
 _atom_site_fract_y
 _atom_site_fract_z
 _atom_site_occupancy
  Dy  Dy0  1  0.235054  0.264943  0.750000  1
  Ho  Ho1  1  0.468573  0.484383  0.234471  1
  Ho  Ho2  1  0.749783  0.234355  0.265575  1
  Ho  Ho3  1  0.749982  0.015778  0.484316  1
  Ho  Ho4  1  0.234234  0.468595  0.484275  1
  Ho  Ho5  1  0.265644  0.750218  0.234420  1
  Ho  Ho6  1  0.031411  0.265773  0.015727  1
  Ho  Ho7  1  0.015614  0.031422  0.265522  1
  Ho  Ho8  1  0.484232  0.750020  0.015688  1
  Ho  Ho9  1  0.484210  0.234348  0.468504  1
  Ho  Ho10  1  0.015721  0.484274  0.749998  1
  Ho  Ho11  1  0.265649  0.015790  0.031502  1
  B  B12  1  0.249928  0.250070  0.249998  1
  B  B13  1  0.499993  0.000010  0.249999  1
  B  B14  1  0.999580  0.249942  0.499560  1
  B  B15  1  0.250056  0.500418  0.000441  1
  Cl  Cl16  1  0.249990  0.755746  0.744446  1
  Cl  Cl17  1  0.512258  0.506910  0.755484  1
  Cl  Cl18  1  0.988802  0.744436  0.994389  1
  Cl  Cl19  1  0.744257  0.250011  0.755557  1
  Cl  Cl20  1  0.993090  0.987744  0.744520  1
  Cl  Cl21  1  0.249859  0.993311  0.504557  1
  Cl  Cl22  1  0.755562  0.511195  0.505607  1
  Cl  Cl23  1  0.506687  0.250139  0.995446  1
  Cl  Cl24  1  0.755568  0.744429  0.250000  1
  Cl  Cl25  1  0.744356  0.994451  0.988794  1
  Cl  Cl26  1  0.994350  0.505645  0.249998  1
  Cl  Cl27  1  0.505553  0.755645  0.511207  1
