# generated using pymatgen
data_NdZr3(Al3Rh)6
_symmetry_space_group_name_H-M   'P 1'
_cell_length_a   7.49816311
_cell_length_b   7.48579666
_cell_length_c   9.36392500
_cell_angle_alpha   90.00000000
_cell_angle_beta   90.00000000
_cell_angle_gamma   119.66567810
_symmetry_Int_Tables_number   1
_chemical_formula_structural   NdZr3(Al3Rh)6
_chemical_formula_sum   'Nd1 Zr3 Al18 Rh6'
_cell_volume   456.70388381
_cell_formula_units_Z   1
loop_
 _symmetry_equiv_pos_site_id
 _symmetry_equiv_pos_as_xyz
  1  'x, y, z'
loop_
 _atom_site_type_symbol
 _atom_site_label
 _atom_site_symmetry_multiplicity
 _atom_site_fract_x
 _atom_site_fract_y
 _atom_site_fract_z
 _atom_site_occupancy
  Nd  Nd0  1  0.329409  0.006583  0.750000  1
  Zr  Zr1  1  0.993832  0.671623  0.250000  1
  Zr  Zr2  1  0.005831  0.329414  0.750000  1
  Zr  Zr3  1  0.671896  0.994490  0.250000  1
  Al  Al4  1  0.121199  0.123027  0.250000  1
  Al  Al5  1  0.869551  0.875259  0.750000  1
  Al  Al6  1  0.996657  0.334745  0.077346  1
  Al  Al7  1  0.998458  0.660828  0.928827  1
  Al  Al8  1  0.998458  0.660828  0.571173  1
  Al  Al9  1  0.335250  0.997332  0.417401  1
  Al  Al10  1  0.996657  0.334745  0.422654  1
  Al  Al11  1  0.669762  0.002343  0.571253  1
  Al  Al12  1  0.669762  0.002343  0.928747  1
  Al  Al13  1  0.335250  0.997332  0.082599  1
  Al  Al14  1  0.331279  0.335215  0.549881  1
  Al  Al15  1  0.668956  0.668874  0.439581  1
  Al  Al16  1  0.668956  0.668874  0.060419  1
  Al  Al17  1  0.331279  0.335215  0.950119  1
  Al  Al18  1  0.337906  0.554412  0.250000  1
  Al  Al19  1  0.668889  0.453914  0.750000  1
  Al  Al20  1  0.556209  0.339773  0.250000  1
  Al  Al21  1  0.445461  0.653692  0.750000  1
  Rh  Rh22  1  0.672752  0.328750  0.002276  1
  Rh  Rh23  1  0.328543  0.672453  0.002665  1
  Rh  Rh24  1  0.328543  0.672453  0.497335  1
  Rh  Rh25  1  0.672752  0.328750  0.497724  1
  Rh  Rh26  1  0.998250  0.998364  0.002668  1
  Rh  Rh27  1  0.998250  0.998364  0.497332  1
