# generated using pymatgen
data_Nb12Ga8Ni3RuN4
_symmetry_space_group_name_H-M   'P 1'
_cell_length_a   8.24401249
_cell_length_b   8.20949256
_cell_length_c   8.20949300
_cell_angle_alpha   60.00000227
_cell_angle_beta   60.13841972
_cell_angle_gamma   60.13842911
_symmetry_Int_Tables_number   1
_chemical_formula_structural   Nb12Ga8Ni3RuN4
_chemical_formula_sum   'Nb12 Ga8 Ni3 Ru1 N4'
_cell_volume   393.69672973
_cell_formula_units_Z   1
loop_
 _symmetry_equiv_pos_site_id
 _symmetry_equiv_pos_as_xyz
  1  'x, y, z'
loop_
 _atom_site_type_symbol
 _atom_site_label
 _atom_site_symmetry_multiplicity
 _atom_site_fract_x
 _atom_site_fract_y
 _atom_site_fract_z
 _atom_site_occupancy
  Nb  Nb0  1  0.810693  0.809522  0.189893  1
  Nb  Nb1  1  0.189015  0.190227  0.810380  1
  Nb  Nb2  1  0.810693  0.189893  0.809522  1
  Nb  Nb3  1  0.189015  0.810380  0.190227  1
  Nb  Nb4  1  0.189015  0.810380  0.810380  1
  Nb  Nb5  1  0.810693  0.189893  0.189893  1
  Nb  Nb6  1  0.439307  0.440478  0.060107  1
  Nb  Nb7  1  0.060985  0.059773  0.439620  1
  Nb  Nb8  1  0.439307  0.060107  0.440478  1
  Nb  Nb9  1  0.060985  0.439620  0.059773  1
  Nb  Nb10  1  0.060985  0.439620  0.439620  1
  Nb  Nb11  1  0.439307  0.060107  0.060107  1
  Ga  Ga12  1  0.753649  0.415451  0.415451  1
  Ga  Ga13  1  0.422259  0.752816  0.412464  1
  Ga  Ga14  1  0.422259  0.412464  0.752816  1
  Ga  Ga15  1  0.422259  0.412464  0.412464  1
  Ga  Ga16  1  0.496351  0.834549  0.834549  1
  Ga  Ga17  1  0.827741  0.497184  0.837536  1
  Ga  Ga18  1  0.827741  0.837536  0.497184  1
  Ga  Ga19  1  0.827741  0.837536  0.837536  1
  Ni  Ni20  1  0.625000  0.125000  0.625000  1
  Ni  Ni21  1  0.625000  0.625000  0.125000  1
  Ni  Ni22  1  0.625000  0.625000  0.625000  1
  Ru  Ru23  1  0.125000  0.625000  0.625000  1
  N  N24  1  0.625000  0.125000  0.125000  1
  N  N25  1  0.125000  0.625000  0.125000  1
  N  N26  1  0.125000  0.125000  0.625000  1
  N  N27  1  0.125000  0.125000  0.125000  1
