# generated using pymatgen
data_PrY6(CCl5)2
_symmetry_space_group_name_H-M   'P 1'
_cell_length_a   10.35965556
_cell_length_b   10.35965519
_cell_length_c   12.93128227
_cell_angle_alpha   80.11122648
_cell_angle_beta   80.11122657
_cell_angle_gamma   20.98662625
_symmetry_Int_Tables_number   1
_chemical_formula_structural   PrY6(CCl5)2
_chemical_formula_sum   'Pr1 Y6 C2 Cl10'
_cell_volume   489.40676488
_cell_formula_units_Z   1
loop_
 _symmetry_equiv_pos_site_id
 _symmetry_equiv_pos_as_xyz
  1  'x, y, z'
loop_
 _atom_site_type_symbol
 _atom_site_label
 _atom_site_symmetry_multiplicity
 _atom_site_fract_x
 _atom_site_fract_y
 _atom_site_fract_z
 _atom_site_occupancy
  Pr  Pr0  1  0.000000  0.000000  0.000000  1
  Y  Y1  1  0.818717  0.818717  0.506367  1
  Y  Y2  1  0.181283  0.181283  0.493633  1
  Y  Y3  1  0.699030  0.699030  0.721778  1
  Y  Y4  1  0.300970  0.300970  0.278222  1
  Y  Y5  1  0.344794  0.344794  0.730747  1
  Y  Y6  1  0.655206  0.655206  0.269253  1
  C  C7  1  0.261055  0.261055  0.625895  1
  C  C8  1  0.738945  0.738945  0.374105  1
  Cl  Cl9  1  0.447288  0.447288  0.870138  1
  Cl  Cl10  1  0.552712  0.552712  0.129862  1
  Cl  Cl11  1  0.785276  0.785276  0.867288  1
  Cl  Cl12  1  0.214724  0.214724  0.132712  1
  Cl  Cl13  1  0.124815  0.124815  0.862206  1
  Cl  Cl14  1  0.076355  0.076355  0.374297  1
  Cl  Cl15  1  0.923645  0.923645  0.625703  1
  Cl  Cl16  1  0.401955  0.401955  0.385202  1
  Cl  Cl17  1  0.598045  0.598045  0.614798  1
  Cl  Cl18  1  0.875185  0.875185  0.137794  1
