# generated using pymatgen
data_Dy4Al18Co5Pt
_symmetry_space_group_name_H-M   'P 1'
_cell_length_a   7.41003497
_cell_length_b   7.41003497
_cell_length_c   9.33105112
_cell_angle_alpha   89.85424532
_cell_angle_beta   89.85424299
_cell_angle_gamma   119.16760398
_symmetry_Int_Tables_number   1
_chemical_formula_structural   Dy4Al18Co5Pt
_chemical_formula_sum   'Dy4 Al18 Co5 Pt1'
_cell_volume   447.38170993
_cell_formula_units_Z   1
loop_
 _symmetry_equiv_pos_site_id
 _symmetry_equiv_pos_as_xyz
  1  'x, y, z'
loop_
 _atom_site_type_symbol
 _atom_site_label
 _atom_site_symmetry_multiplicity
 _atom_site_fract_x
 _atom_site_fract_y
 _atom_site_fract_z
 _atom_site_occupancy
  Dy  Dy0  1  0.994373  0.674513  0.251325  1
  Dy  Dy1  1  0.005627  0.325487  0.748675  1
  Dy  Dy2  1  0.674513  0.994373  0.251325  1
  Dy  Dy3  1  0.325487  0.005627  0.748675  1
  Al  Al4  1  0.131863  0.131863  0.258493  1
  Al  Al5  1  0.868137  0.868137  0.741507  1
  Al  Al6  1  0.332364  0.332364  0.542083  1
  Al  Al7  1  0.660101  0.660101  0.046685  1
  Al  Al8  1  0.339899  0.339899  0.953315  1
  Al  Al9  1  0.667636  0.667636  0.457917  1
  Al  Al10  1  0.339742  0.555568  0.251253  1
  Al  Al11  1  0.660258  0.444432  0.748747  1
  Al  Al12  1  0.555568  0.339742  0.251253  1
  Al  Al13  1  0.444432  0.660258  0.748747  1
  Al  Al14  1  0.999616  0.344086  0.074196  1
  Al  Al15  1  0.002778  0.664020  0.570610  1
  Al  Al16  1  0.335980  0.997222  0.429390  1
  Al  Al17  1  0.655914  0.000384  0.925804  1
  Al  Al18  1  0.000384  0.655914  0.925804  1
  Al  Al19  1  0.997222  0.335980  0.429390  1
  Al  Al20  1  0.664020  0.002778  0.570610  1
  Al  Al21  1  0.344086  0.999616  0.074196  1
  Co  Co22  1  0.000000  0.000000  0.500000  1
  Co  Co23  1  0.670851  0.329149  0.000000  1
  Co  Co24  1  0.328970  0.671030  0.500000  1
  Co  Co25  1  0.329149  0.670851  0.000000  1
  Co  Co26  1  0.671030  0.328970  0.500000  1
  Pt  Pt27  1  0.000000  0.000000  0.000000  1
