# generated using pymatgen
data_Y5(In2Ru)2
_symmetry_space_group_name_H-M   'P 1'
_cell_length_a   18.42141400
_cell_length_b   8.13015900
_cell_length_c   3.57638000
_cell_angle_alpha   90.00000000
_cell_angle_beta   90.00000000
_cell_angle_gamma   90.00000000
_symmetry_Int_Tables_number   1
_chemical_formula_structural   Y5(In2Ru)2
_chemical_formula_sum   'Y10 In8 Ru4'
_cell_volume   535.63094500
_cell_formula_units_Z   2
loop_
 _symmetry_equiv_pos_site_id
 _symmetry_equiv_pos_as_xyz
  1  'x, y, z'
loop_
 _atom_site_type_symbol
 _atom_site_label
 _atom_site_symmetry_multiplicity
 _atom_site_fract_x
 _atom_site_fract_y
 _atom_site_fract_z
 _atom_site_occupancy
  Y  Y0  1  0.000000  0.000000  0.000000  1
  Y  Y1  1  0.412235  0.115871  0.000000  1
  Y  Y2  1  0.220863  0.237404  0.000000  1
  Y  Y3  1  0.720863  0.262596  0.000000  1
  Y  Y4  1  0.912235  0.384129  0.000000  1
  Y  Y5  1  0.500000  0.500000  0.000000  1
  Y  Y6  1  0.087765  0.615871  0.000000  1
  Y  Y7  1  0.279137  0.737404  0.000000  1
  Y  Y8  1  0.779136  0.762595  0.000000  1
  Y  Y9  1  0.587765  0.884130  0.000000  1
  In  In10  1  0.849769  0.072733  0.500000  1
  In  In11  1  0.568728  0.207622  0.500000  1
  In  In12  1  0.068728  0.292379  0.500000  1
  In  In13  1  0.349769  0.427268  0.500000  1
  In  In14  1  0.650231  0.572733  0.500000  1
  In  In15  1  0.931272  0.707621  0.500000  1
  In  In16  1  0.431272  0.792380  0.500000  1
  In  In17  1  0.150232  0.927268  0.500000  1
  Ru  Ru18  1  0.303806  0.011713  0.500000  1
  Ru  Ru19  1  0.803806  0.488287  0.500000  1
  Ru  Ru20  1  0.196194  0.511714  0.500000  1
  Ru  Ru21  1  0.696194  0.988286  0.500000  1
