# generated using pymatgen
data_TmLu3Pd4F28
_symmetry_space_group_name_H-M   'P 1'
_cell_length_a   5.44615016
_cell_length_b   8.68465650
_cell_length_c   11.76644153
_cell_angle_alpha   62.79718837
_cell_angle_beta   89.97180077
_cell_angle_gamma   89.98694866
_symmetry_Int_Tables_number   1
_chemical_formula_structural   TmLu3Pd4F28
_chemical_formula_sum   'Tm1 Lu3 Pd4 F28'
_cell_volume   494.97300335
_cell_formula_units_Z   1
loop_
 _symmetry_equiv_pos_site_id
 _symmetry_equiv_pos_as_xyz
  1  'x, y, z'
loop_
 _atom_site_type_symbol
 _atom_site_label
 _atom_site_symmetry_multiplicity
 _atom_site_fract_x
 _atom_site_fract_y
 _atom_site_fract_z
 _atom_site_occupancy
  Tm  Tm0  1  0.262727  0.814558  0.264427  1
  Lu  Lu1  1  0.737004  0.184905  0.735885  1
  Lu  Lu2  1  0.762967  0.185651  0.235744  1
  Lu  Lu3  1  0.236986  0.815077  0.764148  1
  Pd  Pd4  1  0.759890  0.727517  0.043028  1
  Pd  Pd5  1  0.239911  0.272591  0.956450  1
  Pd  Pd6  1  0.260068  0.271996  0.456789  1
  Pd  Pd7  1  0.740033  0.727507  0.543700  1
  F  F8  1  0.936134  0.699634  0.416534  1
  F  F9  1  0.063119  0.300085  0.583799  1
  F  F10  1  0.436652  0.300248  0.083644  1
  F  F11  1  0.562911  0.699802  0.915884  1
  F  F12  1  0.464259  0.723353  0.137113  1
  F  F13  1  0.536149  0.276252  0.862268  1
  F  F14  1  0.963972  0.276248  0.362428  1
  F  F15  1  0.036483  0.723821  0.637792  1
  F  F16  1  0.948920  0.746461  0.177125  1
  F  F17  1  0.049318  0.253154  0.822426  1
  F  F18  1  0.450569  0.253039  0.322513  1
  F  F19  1  0.549331  0.746926  0.677728  1
  F  F20  1  0.778261  0.475932  0.143396  1
  F  F21  1  0.221722  0.524357  0.856441  1
  F  F22  1  0.278317  0.523019  0.356842  1
  F  F23  1  0.721819  0.475777  0.643585  1
  F  F24  1  0.935576  0.277707  0.042783  1
  F  F25  1  0.064775  0.722487  0.956917  1
  F  F26  1  0.436245  0.721936  0.458058  1
  F  F27  1  0.564350  0.277462  0.542969  1
  F  F28  1  0.746889  0.978269  0.450356  1
  F  F29  1  0.253008  0.021129  0.550036  1
  F  F30  1  0.246985  0.022098  0.049306  1
  F  F31  1  0.752995  0.978321  0.950098  1
  F  F32  1  0.585965  0.972195  0.232137  1
  F  F33  1  0.416372  0.028692  0.767558  1
  F  F34  1  0.082938  0.030537  0.267644  1
  F  F35  1  0.916376  0.971258  0.732448  1
