# generated using pymatgen
data_ErTm5Fe4Si5Ge
_symmetry_space_group_name_H-M   'P 1'
_cell_length_a   5.56760846
_cell_length_b   5.56760883
_cell_length_c   13.49373100
_cell_angle_alpha   90.00000000
_cell_angle_beta   90.00000000
_cell_angle_gamma   137.25048771
_symmetry_Int_Tables_number   1
_chemical_formula_structural   ErTm5Fe4Si5Ge
_chemical_formula_sum   'Er1 Tm5 Fe4 Si5 Ge1'
_cell_volume   283.92769716
_cell_formula_units_Z   1
loop_
 _symmetry_equiv_pos_site_id
 _symmetry_equiv_pos_as_xyz
  1  'x, y, z'
loop_
 _atom_site_type_symbol
 _atom_site_label
 _atom_site_symmetry_multiplicity
 _atom_site_fract_x
 _atom_site_fract_y
 _atom_site_fract_z
 _atom_site_occupancy
  Er  Er0  1  0.636932  0.363068  0.250000  1
  Tm  Tm1  1  0.362934  0.637066  0.750000  1
  Tm  Tm2  1  0.920751  0.079249  0.110062  1
  Tm  Tm3  1  0.079970  0.920030  0.887721  1
  Tm  Tm4  1  0.079970  0.920030  0.612279  1
  Tm  Tm5  1  0.920751  0.079249  0.389938  1
  Fe  Fe6  1  0.785233  0.214767  0.581580  1
  Fe  Fe7  1  0.212803  0.787197  0.421350  1
  Fe  Fe8  1  0.212803  0.787197  0.078650  1
  Fe  Fe9  1  0.785233  0.214767  0.918420  1
  Si  Si10  1  0.673095  0.326905  0.750000  1
  Si  Si11  1  0.622945  0.377055  0.039152  1
  Si  Si12  1  0.376245  0.623755  0.959881  1
  Si  Si13  1  0.376245  0.623755  0.540119  1
  Si  Si14  1  0.622945  0.377055  0.460848  1
  Ge  Ge15  1  0.331145  0.668855  0.250000  1
