# generated using pymatgen
data_Nd6LuNi16
_symmetry_space_group_name_H-M   'P 1'
_cell_length_a   8.79638668
_cell_length_b   8.79638837
_cell_length_c   8.79638700
_cell_angle_alpha   131.39135182
_cell_angle_beta   131.39136153
_cell_angle_gamma   71.19202744
_symmetry_Int_Tables_number   1
_chemical_formula_structural   Nd6LuNi16
_chemical_formula_sum   'Nd6 Lu1 Ni16'
_cell_volume   375.01971367
_cell_formula_units_Z   1
loop_
 _symmetry_equiv_pos_site_id
 _symmetry_equiv_pos_as_xyz
  1  'x, y, z'
loop_
 _atom_site_type_symbol
 _atom_site_label
 _atom_site_symmetry_multiplicity
 _atom_site_fract_x
 _atom_site_fract_y
 _atom_site_fract_z
 _atom_site_occupancy
  Nd  Nd0  1  0.096286  0.095348  0.399745  1
  Nd  Nd1  1  0.695602  0.696539  0.600255  1
  Nd  Nd2  1  0.904652  0.304398  0.000937  1
  Nd  Nd3  1  0.750000  0.250000  0.500000  1
  Nd  Nd4  1  0.500000  0.500000  0.000000  1
  Nd  Nd5  1  0.303461  0.903714  0.999063  1
  Lu  Lu6  1  0.250000  0.750000  0.500000  1
  Ni  Ni7  1  0.428245  0.188771  0.992648  1
  Ni  Ni8  1  0.681375  0.932952  0.481813  1
  Ni  Ni9  1  0.937434  0.682887  0.482620  1
  Ni  Ni10  1  0.196123  0.435598  0.007352  1
  Ni  Ni11  1  0.317113  0.799733  0.254547  1
  Ni  Ni12  1  0.945327  0.662966  0.006331  1
  Ni  Ni13  1  0.811229  0.803877  0.239474  1
  Ni  Ni14  1  0.067048  0.548860  0.748422  1
  Ni  Ni15  1  0.061003  0.054673  0.717640  1
  Ni  Ni16  1  0.656637  0.938997  0.993669  1
  Ni  Ni17  1  0.564402  0.571755  0.760526  1
  Ni  Ni18  1  0.800438  0.318625  0.251578  1
  Ni  Ni19  1  0.545185  0.062566  0.745453  1
  Ni  Ni20  1  0.200267  0.454815  0.517380  1
  Ni  Ni21  1  0.337034  0.343363  0.282360  1
  Ni  Ni22  1  0.451140  0.199562  0.518187  1
