# generated using pymatgen
data_GdTh3(Al8Pt3)3
_symmetry_space_group_name_H-M   'P 1'
_cell_length_a   7.62137882
_cell_length_b   7.63313031
_cell_length_c   13.22801600
_cell_angle_alpha   84.50361298
_cell_angle_beta   78.95110909
_cell_angle_gamma   59.94895819
_symmetry_Int_Tables_number   1
_chemical_formula_structural   GdTh3(Al8Pt3)3
_chemical_formula_sum   'Gd1 Th3 Al24 Pt9'
_cell_volume   653.75095279
_cell_formula_units_Z   1
loop_
 _symmetry_equiv_pos_site_id
 _symmetry_equiv_pos_as_xyz
  1  'x, y, z'
loop_
 _atom_site_type_symbol
 _atom_site_label
 _atom_site_symmetry_multiplicity
 _atom_site_fract_x
 _atom_site_fract_y
 _atom_site_fract_z
 _atom_site_occupancy
  Gd  Gd0  1  0.267822  0.500524  0.192960  1
  Th  Th1  1  0.394763  0.168198  0.806986  1
  Th  Th2  1  0.604386  0.832432  0.193885  1
  Th  Th3  1  0.733448  0.498652  0.806927  1
  Al  Al4  1  0.687162  0.833679  0.946444  1
  Al  Al5  1  0.312563  0.169004  0.056990  1
  Al  Al6  1  0.146120  0.832751  0.559808  1
  Al  Al7  1  0.854321  0.166787  0.437619  1
  Al  Al8  1  0.481001  0.167341  0.556921  1
  Al  Al9  1  0.518918  0.833467  0.441801  1
  Al  Al10  1  0.212611  0.168954  0.333572  1
  Al  Al11  1  0.788400  0.834470  0.663559  1
  Al  Al12  1  0.435718  0.510452  0.663820  1
  Al  Al13  1  0.561445  0.490118  0.333537  1
  Al  Al14  1  0.112365  0.155936  0.662177  1
  Al  Al15  1  0.892380  0.839642  0.334704  1
  Al  Al16  1  0.347809  0.502886  0.948023  1
  Al  Al17  1  0.647534  0.498045  0.056768  1
  Al  Al18  1  0.013883  0.164767  0.957618  1
  Al  Al19  1  0.986236  0.832306  0.047931  1
  Al  Al20  1  0.186708  0.499772  0.440016  1
  Al  Al21  1  0.814428  0.499962  0.556860  1
  Al  Al22  1  0.735429  0.166179  0.184076  1
  Al  Al23  1  0.261620  0.835880  0.816679  1
  Al  Al24  1  0.062007  0.634523  0.815054  1
  Al  Al25  1  0.940876  0.366082  0.185406  1
  Al  Al26  1  0.860301  0.037138  0.815983  1
  Al  Al27  1  0.140372  0.959236  0.184346  1
  Pt  Pt28  1  0.120259  0.491306  0.638500  1
  Pt  Pt29  1  0.877905  0.509039  0.361396  1
  Pt  Pt30  1  0.657149  0.171443  0.999552  1
  Pt  Pt31  1  0.343362  0.829217  0.999849  1
  Pt  Pt32  1  0.538404  0.165067  0.361466  1
  Pt  Pt33  1  0.463143  0.833172  0.638914  1
  Pt  Pt34  1  0.778185  0.175665  0.637543  1
  Pt  Pt35  1  0.221880  0.825776  0.362503  1
  Pt  Pt36  1  0.999091  0.500132  0.999810  1
