# generated using pymatgen
data_HoLuBe3Fe14C3
_symmetry_space_group_name_H-M   'P 1'
_cell_length_a   6.33079478
_cell_length_b   6.33079497
_cell_length_c   6.33079530
_cell_angle_alpha   83.38130770
_cell_angle_beta   83.38131456
_cell_angle_gamma   83.38131285
_symmetry_Int_Tables_number   1
_chemical_formula_structural   HoLuBe3Fe14C3
_chemical_formula_sum   'Ho1 Lu1 Be3 Fe14 C3'
_cell_volume   249.02021113
_cell_formula_units_Z   1
loop_
 _symmetry_equiv_pos_site_id
 _symmetry_equiv_pos_as_xyz
  1  'x, y, z'
loop_
 _atom_site_type_symbol
 _atom_site_label
 _atom_site_symmetry_multiplicity
 _atom_site_fract_x
 _atom_site_fract_y
 _atom_site_fract_z
 _atom_site_occupancy
  Ho  Ho0  1  0.344680  0.344680  0.344680  1
  Lu  Lu1  1  0.656082  0.656082  0.656082  1
  Be  Be2  1  0.000024  0.000024  0.500073  1
  Be  Be3  1  0.500073  0.000024  0.000024  1
  Be  Be4  1  0.000024  0.500073  0.000024  1
  Fe  Fe5  1  0.719670  0.280694  0.999581  1
  Fe  Fe6  1  0.999581  0.719670  0.280694  1
  Fe  Fe7  1  0.280694  0.999581  0.719670  1
  Fe  Fe8  1  0.999581  0.280694  0.719670  1
  Fe  Fe9  1  0.719670  0.999581  0.280694  1
  Fe  Fe10  1  0.280694  0.719670  0.999581  1
  Fe  Fe11  1  0.338982  0.859622  0.338982  1
  Fe  Fe12  1  0.338982  0.338982  0.859622  1
  Fe  Fe13  1  0.859622  0.338982  0.338982  1
  Fe  Fe14  1  0.661492  0.139325  0.661492  1
  Fe  Fe15  1  0.661492  0.661492  0.139325  1
  Fe  Fe16  1  0.139325  0.661492  0.661492  1
  Fe  Fe17  1  0.901429  0.901429  0.901429  1
  Fe  Fe18  1  0.098144  0.098144  0.098144  1
  C  C19  1  0.501173  0.501173  0.997412  1
  C  C20  1  0.997412  0.501173  0.501173  1
  C  C21  1  0.501173  0.997412  0.501173  1
