# generated using pymatgen
data_Yb(Ag3O4)2
_symmetry_space_group_name_H-M   'P 1'
_cell_length_a   7.10499957
_cell_length_b   7.10499988
_cell_length_c   7.10500000
_cell_angle_alpha   59.99999944
_cell_angle_beta   59.99999801
_cell_angle_gamma   59.99999741
_symmetry_Int_Tables_number   1
_chemical_formula_structural   Yb(Ag3O4)2
_chemical_formula_sum   'Yb1 Ag6 O8'
_cell_volume   253.61632115
_cell_formula_units_Z   1
loop_
 _symmetry_equiv_pos_site_id
 _symmetry_equiv_pos_as_xyz
  1  'x, y, z'
loop_
 _atom_site_type_symbol
 _atom_site_label
 _atom_site_symmetry_multiplicity
 _atom_site_fract_x
 _atom_site_fract_y
 _atom_site_fract_z
 _atom_site_occupancy
  Yb  Yb0  1  0.000000  0.000000  0.000000  1
  Ag  Ag1  1  0.500000  0.000000  0.500000  1
  Ag  Ag2  1  0.500000  0.000000  0.000000  1
  Ag  Ag3  1  0.000000  0.000000  0.500000  1
  Ag  Ag4  1  0.000000  0.500000  0.000000  1
  Ag  Ag5  1  0.000000  0.500000  0.500000  1
  Ag  Ag6  1  0.500000  0.500000  0.000000  1
  O  O7  1  0.860700  0.417901  0.860700  1
  O  O8  1  0.139300  0.139300  0.139300  1
  O  O9  1  0.860700  0.860700  0.860700  1
  O  O10  1  0.582099  0.139300  0.139300  1
  O  O11  1  0.860700  0.860700  0.417901  1
  O  O12  1  0.417901  0.860700  0.860700  1
  O  O13  1  0.139300  0.139300  0.582099  1
  O  O14  1  0.139300  0.582099  0.139300  1
