# generated using pymatgen
data_Ho3Lu2Hf5(Si5Ir2)4
_symmetry_space_group_name_H-M   'P 1'
_cell_length_a   12.44825594
_cell_length_b   12.44821894
_cell_length_c   4.14986100
_cell_angle_alpha   90.00000000
_cell_angle_beta   90.00000000
_cell_angle_gamma   89.89789780
_symmetry_Int_Tables_number   1
_chemical_formula_structural   Ho3Lu2Hf5(Si5Ir2)4
_chemical_formula_sum   'Ho3 Lu2 Hf5 Si20 Ir8'
_cell_volume   643.05569360
_cell_formula_units_Z   1
loop_
 _symmetry_equiv_pos_site_id
 _symmetry_equiv_pos_as_xyz
  1  'x, y, z'
loop_
 _atom_site_type_symbol
 _atom_site_label
 _atom_site_symmetry_multiplicity
 _atom_site_fract_x
 _atom_site_fract_y
 _atom_site_fract_z
 _atom_site_occupancy
  Ho  Ho0  1  0.115758  0.615491  0.500000  1
  Ho  Ho1  1  0.384505  0.115702  0.500000  1
  Ho  Ho2  1  0.615461  0.884241  0.500000  1
  Lu  Lu3  1  0.999936  0.000052  0.000000  1
  Lu  Lu4  1  0.884171  0.384489  0.500000  1
  Hf  Hf5  1  0.500032  0.499997  0.000000  1
  Hf  Hf6  1  0.673882  0.175213  0.500000  1
  Hf  Hf7  1  0.326180  0.824839  0.500000  1
  Hf  Hf8  1  0.174997  0.326193  0.500000  1
  Hf  Hf9  1  0.824845  0.673642  0.500000  1
  Si  Si10  1  0.566043  0.067504  0.000000  1
  Si  Si11  1  0.433969  0.932526  0.000000  1
  Si  Si12  1  0.067219  0.434134  0.000000  1
  Si  Si13  1  0.932664  0.565669  0.000000  1
  Si  Si14  1  0.665557  0.701232  0.000000  1
  Si  Si15  1  0.334642  0.298423  0.000000  1
  Si  Si16  1  0.163676  0.800507  0.000000  1
  Si  Si17  1  0.836074  0.199727  0.000000  1
  Si  Si18  1  0.298397  0.665309  0.000000  1
  Si  Si19  1  0.701907  0.334427  0.000000  1
  Si  Si20  1  0.199104  0.163986  0.000000  1
  Si  Si21  1  0.800553  0.836233  0.000000  1
  Si  Si22  1  0.651279  0.508286  0.500000  1
  Si  Si23  1  0.349004  0.491867  0.500000  1
  Si  Si24  1  0.154678  0.992568  0.500000  1
  Si  Si25  1  0.845240  0.007532  0.500000  1
  Si  Si26  1  0.491823  0.650884  0.500000  1
  Si  Si27  1  0.508291  0.349089  0.500000  1
  Si  Si28  1  0.007504  0.155172  0.500000  1
  Si  Si29  1  0.992641  0.845151  0.500000  1
  Ir  Ir30  1  0.742937  0.520964  0.000000  1
  Ir  Ir31  1  0.257775  0.478218  0.000000  1
  Ir  Ir32  1  0.245638  0.977970  0.000000  1
  Ir  Ir33  1  0.754320  0.022174  0.000000  1
  Ir  Ir34  1  0.478288  0.741987  0.000000  1
  Ir  Ir35  1  0.521856  0.257977  0.000000  1
  Ir  Ir36  1  0.021274  0.246554  0.000000  1
  Ir  Ir37  1  0.977881  0.754070  0.000000  1
