# generated using pymatgen
data_Yb2Mg2IrPd
_symmetry_space_group_name_H-M   'P 1'
_cell_length_a   4.20493800
_cell_length_b   7.17230154
_cell_length_c   8.43763269
_cell_angle_alpha   90.64271202
_cell_angle_beta   90.00000000
_cell_angle_gamma   90.00000000
_symmetry_Int_Tables_number   1
_chemical_formula_structural   Yb2Mg2IrPd
_chemical_formula_sum   'Yb4 Mg4 Ir2 Pd2'
_cell_volume   254.45525728
_cell_formula_units_Z   2
loop_
 _symmetry_equiv_pos_site_id
 _symmetry_equiv_pos_as_xyz
  1  'x, y, z'
loop_
 _atom_site_type_symbol
 _atom_site_label
 _atom_site_symmetry_multiplicity
 _atom_site_fract_x
 _atom_site_fract_y
 _atom_site_fract_z
 _atom_site_occupancy
  Yb  Yb0  1  0.250000  0.539259  0.181667  1
  Yb  Yb1  1  0.750000  0.460741  0.818333  1
  Yb  Yb2  1  0.250000  0.025812  0.334083  1
  Yb  Yb3  1  0.750000  0.974188  0.665917  1
  Mg  Mg4  1  0.250000  0.636618  0.555283  1
  Mg  Mg5  1  0.750000  0.363382  0.444717  1
  Mg  Mg6  1  0.250000  0.139826  0.934944  1
  Mg  Mg7  1  0.750000  0.860174  0.065056  1
  Ir  Ir8  1  0.750000  0.734577  0.368161  1
  Ir  Ir9  1  0.250000  0.265423  0.631839  1
  Pd  Pd10  1  0.750000  0.235514  0.128316  1
  Pd  Pd11  1  0.250000  0.764486  0.871684  1
