# generated using pymatgen
data_Th5FeCoTe2
_symmetry_space_group_name_H-M   'P 1'
_cell_length_a   7.73362730
_cell_length_b   7.73362749
_cell_length_c   15.46007900
_cell_angle_alpha   90.00000000
_cell_angle_beta   90.00000000
_cell_angle_gamma   148.54829741
_symmetry_Int_Tables_number   1
_chemical_formula_structural   Th5FeCoTe2
_chemical_formula_sum   'Th10 Fe2 Co2 Te4'
_cell_volume   482.46446436
_cell_formula_units_Z   2
loop_
 _symmetry_equiv_pos_site_id
 _symmetry_equiv_pos_as_xyz
  1  'x, y, z'
loop_
 _atom_site_type_symbol
 _atom_site_label
 _atom_site_symmetry_multiplicity
 _atom_site_fract_x
 _atom_site_fract_y
 _atom_site_fract_z
 _atom_site_occupancy
  Th  Th0  1  0.956104  0.043896  0.368616  1
  Th  Th1  1  0.043896  0.956104  0.631384  1
  Th  Th2  1  0.043896  0.956104  0.868616  1
  Th  Th3  1  0.956104  0.043896  0.131384  1
  Th  Th4  1  0.741029  0.258971  0.630834  1
  Th  Th5  1  0.258971  0.741029  0.369166  1
  Th  Th6  1  0.258971  0.741029  0.130834  1
  Th  Th7  1  0.741029  0.258971  0.869166  1
  Th  Th8  1  0.392441  0.607559  0.750000  1
  Th  Th9  1  0.607559  0.392441  0.250000  1
  Fe  Fe10  1  0.428465  0.571535  0.250000  1
  Fe  Fe11  1  0.571535  0.428465  0.750000  1
  Co  Co12  1  0.791083  0.208917  0.250000  1
  Co  Co13  1  0.208917  0.791083  0.750000  1
  Te  Te14  1  0.614172  0.385828  0.039014  1
  Te  Te15  1  0.385828  0.614172  0.960986  1
  Te  Te16  1  0.385828  0.614172  0.539014  1
  Te  Te17  1  0.614172  0.385828  0.460986  1
