# generated using pymatgen
data_Y5Co15(TcP3)4
_symmetry_space_group_name_H-M   'P 1'
_cell_length_a   12.07743020
_cell_length_b   12.04999902
_cell_length_c   3.71827500
_cell_angle_alpha   90.00000000
_cell_angle_beta   90.00000000
_cell_angle_gamma   119.75902225
_symmetry_Int_Tables_number   1
_chemical_formula_structural   Y5Co15(TcP3)4
_chemical_formula_sum   'Y5 Co15 Tc4 P12'
_cell_volume   469.76769620
_cell_formula_units_Z   1
loop_
 _symmetry_equiv_pos_site_id
 _symmetry_equiv_pos_as_xyz
  1  'x, y, z'
loop_
 _atom_site_type_symbol
 _atom_site_label
 _atom_site_symmetry_multiplicity
 _atom_site_fract_x
 _atom_site_fract_y
 _atom_site_fract_z
 _atom_site_occupancy
  Y  Y0  1  0.666524  0.336461  0.000000  1
  Y  Y1  1  0.332718  0.666523  0.000000  1
  Y  Y2  1  0.185309  0.184833  0.500000  1
  Y  Y3  1  0.818126  0.000487  0.500000  1
  Y  Y4  1  0.998843  0.816071  0.500000  1
  Co  Co5  1  0.832595  0.202909  0.000000  1
  Co  Co6  1  0.801568  0.625035  0.000000  1
  Co  Co7  1  0.373099  0.176372  0.000000  1
  Co  Co8  1  0.193453  0.820713  0.000000  1
  Co  Co9  1  0.624457  0.801407  0.000000  1
  Co  Co10  1  0.180347  0.376684  0.000000  1
  Co  Co11  1  0.876700  0.522258  0.500000  1
  Co  Co12  1  0.480679  0.355890  0.500000  1
  Co  Co13  1  0.126869  0.644793  0.500000  1
  Co  Co14  1  0.512629  0.866406  0.500000  1
  Co  Co15  1  0.356191  0.481665  0.500000  1
  Co  Co16  1  0.716651  0.717419  0.500000  1
  Co  Co17  1  0.278887  0.998871  0.500000  1
  Co  Co18  1  0.005361  0.285369  0.500000  1
  Co  Co19  1  0.998706  0.999471  0.000000  1
  Tc  Tc20  1  0.553271  0.553068  0.000000  1
  Tc  Tc21  1  0.438410  0.991684  0.000000  1
  Tc  Tc22  1  0.003699  0.449182  0.000000  1
  Tc  Tc23  1  0.646545  0.125347  0.500000  1
  P  P24  1  0.362950  0.362333  0.000000  1
  P  P25  1  0.634062  0.995813  0.000000  1
  P  P26  1  0.999347  0.638203  0.000000  1
  P  P27  1  0.841853  0.320571  0.500000  1
  P  P28  1  0.685298  0.521051  0.500000  1
  P  P29  1  0.475421  0.163414  0.500000  1
  P  P30  1  0.312646  0.834712  0.500000  1
  P  P31  1  0.519858  0.683311  0.500000  1
  P  P32  1  0.166545  0.480739  0.500000  1
  P  P33  1  0.820231  0.820927  0.000000  1
  P  P34  1  0.177013  0.999509  0.000000  1
  P  P35  1  0.003141  0.180496  0.000000  1
