# generated using pymatgen
data_Zr10Sn3Bi2B2Sb
_symmetry_space_group_name_H-M   'P 1'
_cell_length_a   8.62245026
_cell_length_b   8.59939789
_cell_length_c   5.84350600
_cell_angle_alpha   90.00000000
_cell_angle_beta   90.00000000
_cell_angle_gamma   119.91160257
_symmetry_Int_Tables_number   1
_chemical_formula_structural   Zr10Sn3Bi2B2Sb
_chemical_formula_sum   'Zr10 Sn3 Bi2 B2 Sb1'
_cell_volume   375.56838575
_cell_formula_units_Z   1
loop_
 _symmetry_equiv_pos_site_id
 _symmetry_equiv_pos_as_xyz
  1  'x, y, z'
loop_
 _atom_site_type_symbol
 _atom_site_label
 _atom_site_symmetry_multiplicity
 _atom_site_fract_x
 _atom_site_fract_y
 _atom_site_fract_z
 _atom_site_occupancy
  Zr  Zr0  1  0.670555  0.336483  0.003271  1
  Zr  Zr1  1  0.329445  0.665929  0.003271  1
  Zr  Zr2  1  0.329445  0.665929  0.496729  1
  Zr  Zr3  1  0.670555  0.336483  0.496729  1
  Zr  Zr4  1  0.774060  0.769679  0.750000  1
  Zr  Zr5  1  0.225940  0.995619  0.750000  1
  Zr  Zr6  1  0.000000  0.230942  0.750000  1
  Zr  Zr7  1  0.229803  0.230245  0.250000  1
  Zr  Zr8  1  0.770197  0.000442  0.250000  1
  Zr  Zr9  1  0.000000  0.766918  0.250000  1
  Sn  Sn10  1  0.601570  0.602930  0.250000  1
  Sn  Sn11  1  0.398430  0.001360  0.250000  1
  Sn  Sn12  1  0.000000  0.398201  0.250000  1
  Bi  Bi13  1  0.401413  0.400882  0.750000  1
  Bi  Bi14  1  0.598587  0.999468  0.750000  1
  B  B15  1  0.000000  0.000346  0.000975  1
  B  B16  1  0.000000  0.000346  0.499025  1
  Sb  Sb17  1  0.000000  0.597797  0.750000  1
