# generated using pymatgen
data_YbPrFeIr3
_symmetry_space_group_name_H-M   'P 1'
_cell_length_a   5.18585180
_cell_length_b   5.18585117
_cell_length_c   5.18585102
_cell_angle_alpha   64.17959392
_cell_angle_beta   64.17959786
_cell_angle_gamma   64.17959237
_symmetry_Int_Tables_number   1
_chemical_formula_structural   YbPrFeIr3
_chemical_formula_sum   'Yb1 Pr1 Fe1 Ir3'
_cell_volume   107.67955290
_cell_formula_units_Z   1
loop_
 _symmetry_equiv_pos_site_id
 _symmetry_equiv_pos_as_xyz
  1  'x, y, z'
loop_
 _atom_site_type_symbol
 _atom_site_label
 _atom_site_symmetry_multiplicity
 _atom_site_fract_x
 _atom_site_fract_y
 _atom_site_fract_z
 _atom_site_occupancy
  Yb  Yb0  1  0.251406  0.251406  0.251406  1
  Pr  Pr1  1  0.001000  0.001000  0.001000  1
  Fe  Fe2  1  0.624740  0.624740  0.624740  1
  Ir  Ir3  1  0.623456  0.623456  0.125944  1
  Ir  Ir4  1  0.623456  0.125944  0.623456  1
  Ir  Ir5  1  0.125944  0.623456  0.623456  1
