# generated using pymatgen
data_Ta6Al4Ir2CN
_symmetry_space_group_name_H-M   'P 1'
_cell_length_a   8.29738673
_cell_length_b   8.29738715
_cell_length_c   8.31351300
_cell_angle_alpha   59.93569315
_cell_angle_beta   59.93569148
_cell_angle_gamma   59.89287540
_symmetry_Int_Tables_number   1
_chemical_formula_structural   Ta6Al4Ir2CN
_chemical_formula_sum   'Ta12 Al8 Ir4 C2 N2'
_cell_volume   403.99621248
_cell_formula_units_Z   2
loop_
 _symmetry_equiv_pos_site_id
 _symmetry_equiv_pos_as_xyz
  1  'x, y, z'
loop_
 _atom_site_type_symbol
 _atom_site_label
 _atom_site_symmetry_multiplicity
 _atom_site_fract_x
 _atom_site_fract_y
 _atom_site_fract_z
 _atom_site_occupancy
  Ta  Ta0  1  0.562631  0.935719  0.566176  1
  Ta  Ta1  1  0.314281  0.687369  0.683824  1
  Ta  Ta2  1  0.687369  0.314281  0.314525  1
  Ta  Ta3  1  0.314281  0.687369  0.314525  1
  Ta  Ta4  1  0.685618  0.685618  0.314382  1
  Ta  Ta5  1  0.314991  0.314991  0.685009  1
  Ta  Ta6  1  0.564382  0.564382  0.935618  1
  Ta  Ta7  1  0.935719  0.562631  0.566176  1
  Ta  Ta8  1  0.562631  0.935719  0.935475  1
  Ta  Ta9  1  0.935009  0.935009  0.564991  1
  Ta  Ta10  1  0.687369  0.314281  0.683824  1
  Ta  Ta11  1  0.935719  0.562631  0.935475  1
  Al  Al12  1  0.916232  0.916232  0.916753  1
  Al  Al13  1  0.999242  0.333872  0.333442  1
  Al  Al14  1  0.333872  0.999242  0.333442  1
  Al  Al15  1  0.333768  0.333768  0.999216  1
  Al  Al16  1  0.916128  0.250758  0.916558  1
  Al  Al17  1  0.916232  0.916232  0.250784  1
  Al  Al18  1  0.250758  0.916128  0.916558  1
  Al  Al19  1  0.333768  0.333768  0.333247  1
  Ir  Ir20  1  0.125000  0.125000  0.125000  1
  Ir  Ir21  1  0.625000  0.125000  0.125000  1
  Ir  Ir22  1  0.125000  0.625000  0.125000  1
  Ir  Ir23  1  0.125000  0.125000  0.625000  1
  C  C24  1  0.625000  0.625000  0.625000  1
  C  C25  1  0.625000  0.625000  0.125000  1
  N  N26  1  0.125000  0.625000  0.625000  1
  N  N27  1  0.625000  0.125000  0.625000  1
