# generated using pymatgen
data_Hf3Sc3Co16(TcP6)2
_symmetry_space_group_name_H-M   'P 1'
_cell_length_a   11.89831234
_cell_length_b   11.94281538
_cell_length_c   3.63091600
_cell_angle_alpha   90.00000000
_cell_angle_beta   90.00000000
_cell_angle_gamma   120.03910299
_symmetry_Int_Tables_number   1
_chemical_formula_structural   Hf3Sc3Co16(TcP6)2
_chemical_formula_sum   'Hf3 Sc3 Co16 Tc2 P12'
_cell_volume   446.65032936
_cell_formula_units_Z   1
loop_
 _symmetry_equiv_pos_site_id
 _symmetry_equiv_pos_as_xyz
  1  'x, y, z'
loop_
 _atom_site_type_symbol
 _atom_site_label
 _atom_site_symmetry_multiplicity
 _atom_site_fract_x
 _atom_site_fract_y
 _atom_site_fract_z
 _atom_site_occupancy
  Hf  Hf0  1  0.999621  0.174651  0.500000  1
  Hf  Hf1  1  0.000055  0.556191  0.000000  1
  Hf  Hf2  1  0.179118  0.997532  0.500000  1
  Sc  Sc3  1  0.820840  0.818422  0.500000  1
  Sc  Sc4  1  0.334102  0.667147  0.000000  1
  Sc  Sc5  1  0.665611  0.333034  0.000000  1
  Co  Co6  1  0.625298  0.823800  0.000000  1
  Co  Co7  1  0.373288  0.196771  0.000000  1
  Co  Co8  1  0.001715  0.721816  0.500000  1
  Co  Co9  1  0.281724  0.281045  0.500000  1
  Co  Co10  1  0.871336  0.348938  0.500000  1
  Co  Co11  1  0.718092  0.999790  0.500000  1
  Co  Co12  1  0.818027  0.627631  0.000000  1
  Co  Co13  1  0.182157  0.811115  0.000000  1
  Co  Co14  1  0.357126  0.877347  0.500000  1
  Co  Co15  1  0.128495  0.477588  0.500000  1
  Co  Co16  1  0.641700  0.519482  0.500000  1
  Co  Co17  1  0.001595  0.001525  0.000000  1
  Co  Co18  1  0.516354  0.647207  0.500000  1
  Co  Co19  1  0.483041  0.130865  0.500000  1
  Co  Co20  1  0.195105  0.368039  0.000000  1
  Co  Co21  1  0.805225  0.172167  0.000000  1
  Tc  Tc22  1  0.447059  0.449201  0.000000  1
  Tc  Tc23  1  0.553183  0.002851  0.000000  1
  P  P24  1  0.999898  0.345565  0.000000  1
  P  P25  1  0.824476  0.515515  0.500000  1
  P  P26  1  0.683539  0.165656  0.500000  1
  P  P27  1  0.177167  0.174300  0.000000  1
  P  P28  1  0.640412  0.645402  0.000000  1
  P  P29  1  0.823613  0.995884  0.000000  1
  P  P30  1  0.516842  0.834229  0.500000  1
  P  P31  1  0.175729  0.690147  0.500000  1
  P  P32  1  0.359940  0.004980  0.000000  1
  P  P33  1  0.483162  0.317416  0.500000  1
  P  P34  1  0.999071  0.824925  0.000000  1
  P  P35  1  0.316282  0.481824  0.500000  1
