# generated using pymatgen
data_Tb6CeTh(CdIr)2
_symmetry_space_group_name_H-M   'P 1'
_cell_length_a   9.75516392
_cell_length_b   9.75516372
_cell_length_c   9.79301400
_cell_angle_alpha   59.87156657
_cell_angle_beta   59.87156726
_cell_angle_gamma   59.72616720
_symmetry_Int_Tables_number   1
_chemical_formula_structural   Tb6CeTh(CdIr)2
_chemical_formula_sum   'Tb12 Ce2 Th2 Cd4 Ir4'
_cell_volume   656.32863118
_cell_formula_units_Z   2
loop_
 _symmetry_equiv_pos_site_id
 _symmetry_equiv_pos_as_xyz
  1  'x, y, z'
loop_
 _atom_site_type_symbol
 _atom_site_label
 _atom_site_symmetry_multiplicity
 _atom_site_fract_x
 _atom_site_fract_y
 _atom_site_fract_z
 _atom_site_occupancy
  Tb  Tb0  1  0.061096  0.437947  0.438926  1
  Tb  Tb1  1  0.437947  0.061096  0.062031  1
  Tb  Tb2  1  0.437947  0.061096  0.438926  1
  Tb  Tb3  1  0.061096  0.437947  0.062031  1
  Tb  Tb4  1  0.439384  0.439384  0.060616  1
  Tb  Tb5  1  0.062733  0.062733  0.437267  1
  Tb  Tb6  1  0.188607  0.812164  0.813766  1
  Tb  Tb7  1  0.812164  0.188607  0.185463  1
  Tb  Tb8  1  0.812164  0.188607  0.813766  1
  Tb  Tb9  1  0.188607  0.812164  0.185463  1
  Tb  Tb10  1  0.812678  0.812678  0.187322  1
  Tb  Tb11  1  0.186387  0.186387  0.813613  1
  Ce  Ce12  1  0.599350  0.599350  0.598014  1
  Ce  Ce13  1  0.599350  0.599350  0.203286  1
  Th  Th14  1  0.600528  0.201141  0.599166  1
  Th  Th15  1  0.201141  0.600528  0.599166  1
  Cd  Cd16  1  0.830284  0.830284  0.834736  1
  Cd  Cd17  1  0.830284  0.830284  0.504696  1
  Cd  Cd18  1  0.829003  0.504991  0.833003  1
  Cd  Cd19  1  0.504991  0.829003  0.833003  1
  Ir  Ir20  1  0.394725  0.394725  0.391940  1
  Ir  Ir21  1  0.394725  0.394725  0.818611  1
  Ir  Ir22  1  0.395686  0.819125  0.392595  1
  Ir  Ir23  1  0.819125  0.395686  0.392595  1
