# generated using pymatgen
data_Ho17Er3(Ir2Os)4
_symmetry_space_group_name_H-M   'P 1'
_cell_length_a   10.80764100
_cell_length_b   10.80764100
_cell_length_c   6.38474100
_cell_angle_alpha   90.00000000
_cell_angle_beta   90.00000000
_cell_angle_gamma   90.00000000
_symmetry_Int_Tables_number   1
_chemical_formula_structural   Ho17Er3(Ir2Os)4
_chemical_formula_sum   'Ho17 Er3 Ir8 Os4'
_cell_volume   745.77033642
_cell_formula_units_Z   1
loop_
 _symmetry_equiv_pos_site_id
 _symmetry_equiv_pos_as_xyz
  1  'x, y, z'
loop_
 _atom_site_type_symbol
 _atom_site_label
 _atom_site_symmetry_multiplicity
 _atom_site_fract_x
 _atom_site_fract_y
 _atom_site_fract_z
 _atom_site_occupancy
  Ho  Ho0  1  0.293622  0.086153  0.376397  1
  Ho  Ho1  1  0.293549  0.913868  0.876465  1
  Ho  Ho2  1  0.706451  0.086132  0.876465  1
  Ho  Ho3  1  0.706378  0.913847  0.376397  1
  Ho  Ho4  1  0.586150  0.793526  0.876403  1
  Ho  Ho5  1  0.586156  0.206470  0.376374  1
  Ho  Ho6  1  0.413844  0.793530  0.376374  1
  Ho  Ho7  1  0.413850  0.206474  0.876403  1
  Ho  Ho8  1  0.206470  0.413844  0.623626  1
  Ho  Ho9  1  0.206474  0.586150  0.123597  1
  Ho  Ho10  1  0.793526  0.413850  0.123597  1
  Ho  Ho11  1  0.793530  0.586156  0.623626  1
  Ho  Ho12  1  0.913868  0.706451  0.123535  1
  Ho  Ho13  1  0.913847  0.293622  0.623603  1
  Ho  Ho14  1  0.086153  0.706378  0.623603  1
  Ho  Ho15  1  0.086132  0.293549  0.123535  1
  Ho  Ho16  1  0.000000  0.000000  0.500000  1
  Er  Er17  1  0.000000  0.000000  0.000000  1
  Er  Er18  1  0.500000  0.500000  0.000000  1
  Er  Er19  1  0.500000  0.500000  0.500000  1
  Ir  Ir20  1  0.847799  0.152205  0.249750  1
  Ir  Ir21  1  0.847795  0.847799  0.750250  1
  Ir  Ir22  1  0.152205  0.152201  0.750250  1
  Ir  Ir23  1  0.152201  0.847795  0.249750  1
  Ir  Ir24  1  0.652082  0.347913  0.750038  1
  Ir  Ir25  1  0.652087  0.652082  0.249962  1
  Ir  Ir26  1  0.347913  0.347918  0.249962  1
  Ir  Ir27  1  0.347918  0.652087  0.750038  1
  Os  Os28  1  0.500000  0.000000  0.122535  1
  Os  Os29  1  0.500000  0.000000  0.622548  1
  Os  Os30  1  0.000000  0.500000  0.877465  1
  Os  Os31  1  0.000000  0.500000  0.377452  1
