# generated using pymatgen
data_Cs4Li2YInSb4
_symmetry_space_group_name_H-M   'P 1'
_cell_length_a   11.53603258
_cell_length_b   11.53602767
_cell_length_c   7.21759000
_cell_angle_alpha   90.00000000
_cell_angle_beta   90.00000000
_cell_angle_gamma   103.10641715
_symmetry_Int_Tables_number   1
_chemical_formula_structural   Cs4Li2YInSb4
_chemical_formula_sum   'Cs8 Li4 Y2 In2 Sb8'
_cell_volume   935.49590248
_cell_formula_units_Z   2
loop_
 _symmetry_equiv_pos_site_id
 _symmetry_equiv_pos_as_xyz
  1  'x, y, z'
loop_
 _atom_site_type_symbol
 _atom_site_label
 _atom_site_symmetry_multiplicity
 _atom_site_fract_x
 _atom_site_fract_y
 _atom_site_fract_z
 _atom_site_occupancy
  Cs  Cs0  1  0.572159  0.927841  0.750000  1
  Cs  Cs1  1  0.927841  0.572159  0.250000  1
  Cs  Cs2  1  0.423002  0.076998  0.250000  1
  Cs  Cs3  1  0.076998  0.423002  0.750000  1
  Cs  Cs4  1  0.670000  0.323126  0.775606  1
  Cs  Cs5  1  0.830000  0.176874  0.275606  1
  Cs  Cs6  1  0.323126  0.670000  0.224394  1
  Cs  Cs7  1  0.176874  0.830000  0.724394  1
  Li  Li8  1  0.618985  0.618986  0.000000  1
  Li  Li9  1  0.881015  0.881014  0.500000  1
  Li  Li10  1  0.377418  0.377418  0.000000  1
  Li  Li11  1  0.122582  0.122582  0.500000  1
  Y  Y12  1  0.874239  0.874239  0.000000  1
  Y  Y13  1  0.625761  0.625761  0.500000  1
  In  In14  1  0.130868  0.130868  0.000000  1
  In  In15  1  0.369132  0.369132  0.500000  1
  Sb  Sb16  1  0.339925  0.160074  0.750000  1
  Sb  Sb17  1  0.160075  0.339926  0.250000  1
  Sb  Sb18  1  0.659518  0.840482  0.250000  1
  Sb  Sb19  1  0.840482  0.659518  0.750000  1
  Sb  Sb20  1  0.914456  0.094858  0.762611  1
  Sb  Sb21  1  0.585544  0.405142  0.262611  1
  Sb  Sb22  1  0.094858  0.914456  0.237389  1
  Sb  Sb23  1  0.405142  0.585544  0.737389  1
