# generated using pymatgen
data_Ac5Ce(CI5)2
_symmetry_space_group_name_H-M   'P 1'
_cell_length_a   8.28067989
_cell_length_b   10.13307334
_cell_length_c   10.20549415
_cell_angle_alpha   107.31979076
_cell_angle_beta   96.77705575
_cell_angle_gamma   104.64170146
_symmetry_Int_Tables_number   1
_chemical_formula_structural   Ac5Ce(CI5)2
_chemical_formula_sum   'Ac5 Ce1 C2 I10'
_cell_volume   773.44746905
_cell_formula_units_Z   1
loop_
 _symmetry_equiv_pos_site_id
 _symmetry_equiv_pos_as_xyz
  1  'x, y, z'
loop_
 _atom_site_type_symbol
 _atom_site_label
 _atom_site_symmetry_multiplicity
 _atom_site_fract_x
 _atom_site_fract_y
 _atom_site_fract_z
 _atom_site_occupancy
  Ac  Ac0  1  0.108481  0.039698  0.768329  1
  Ac  Ac1  1  0.377826  0.135272  0.181669  1
  Ac  Ac2  1  0.884715  0.955686  0.228197  1
  Ac  Ac3  1  0.029891  0.725167  0.918364  1
  Ac  Ac4  1  0.964314  0.271839  0.076941  1
  Ce  Ce5  1  0.636124  0.870053  0.824743  1
  C  C6  1  0.913890  0.969291  0.958765  1
  C  C7  1  0.082367  0.028604  0.039651  1
  I  I8  1  0.204334  0.736059  0.645762  1
  I  I9  1  0.089920  0.373806  0.816439  1
  I  I10  1  0.457543  0.807227  0.086451  1
  I  I11  1  0.252979  0.084477  0.464282  1
  I  I12  1  0.544062  0.185756  0.904152  1
  I  I13  1  0.809932  0.268927  0.361535  1
  I  I14  1  0.344135  0.459971  0.274487  1
  I  I15  1  0.911203  0.625597  0.183033  1
  I  I16  1  0.648996  0.549342  0.726521  1
  I  I17  1  0.739287  0.913228  0.540681  1
