# generated using pymatgen
data_Lu8Sc12(SiBi3)3
_symmetry_space_group_name_H-M   'P 1'
_cell_length_a   7.74062404
_cell_length_b   8.96375740
_cell_length_c   11.41490365
_cell_angle_alpha   89.99249327
_cell_angle_beta   89.87744162
_cell_angle_gamma   89.96680822
_symmetry_Int_Tables_number   1
_chemical_formula_structural   Lu8Sc12(SiBi3)3
_chemical_formula_sum   'Lu8 Sc12 Si3 Bi9'
_cell_volume   792.02200537
_cell_formula_units_Z   1
loop_
 _symmetry_equiv_pos_site_id
 _symmetry_equiv_pos_as_xyz
  1  'x, y, z'
loop_
 _atom_site_type_symbol
 _atom_site_label
 _atom_site_symmetry_multiplicity
 _atom_site_fract_x
 _atom_site_fract_y
 _atom_site_fract_z
 _atom_site_occupancy
  Lu  Lu0  1  0.197034  0.248815  0.773081  1
  Lu  Lu1  1  0.825241  0.750869  0.211723  1
  Lu  Lu2  1  0.327845  0.751435  0.288005  1
  Lu  Lu3  1  0.670161  0.249045  0.709699  1
  Lu  Lu4  1  0.681359  0.058092  0.444493  1
  Lu  Lu5  1  0.189081  0.451357  0.060235  1
  Lu  Lu6  1  0.682657  0.441218  0.444778  1
  Lu  Lu7  1  0.316012  0.560715  0.556960  1
  Sc  Sc8  1  0.035420  0.248418  0.510794  1
  Sc  Sc9  1  0.963435  0.751378  0.488948  1
  Sc  Sc10  1  0.462820  0.751679  0.013073  1
  Sc  Sc11  1  0.518253  0.247965  0.988216  1
  Sc  Sc12  1  0.349362  0.249257  0.295261  1
  Sc  Sc13  1  0.654321  0.750647  0.704135  1
  Sc  Sc14  1  0.146770  0.750527  0.796375  1
  Sc  Sc15  1  0.846930  0.249713  0.216751  1
  Sc  Sc16  1  0.190037  0.048378  0.060512  1
  Sc  Sc17  1  0.815696  0.924336  0.942837  1
  Sc  Sc18  1  0.316391  0.940180  0.556165  1
  Sc  Sc19  1  0.815301  0.576236  0.943557  1
  Si  Si20  1  0.399168  0.246445  0.535251  1
  Si  Si21  1  0.590974  0.751471  0.466967  1
  Si  Si22  1  0.087812  0.754331  0.032270  1
  Bi  Bi23  1  0.903787  0.247698  0.958163  1
  Bi  Bi24  1  0.062950  0.005736  0.324821  1
  Bi  Bi25  1  0.941720  0.992985  0.675317  1
  Bi  Bi26  1  0.441252  0.988165  0.824938  1
  Bi  Bi27  1  0.938447  0.506618  0.676568  1
  Bi  Bi28  1  0.561131  0.007647  0.172810  1
  Bi  Bi29  1  0.061286  0.494898  0.326662  1
  Bi  Bi30  1  0.564155  0.492705  0.173512  1
  Bi  Bi31  1  0.443194  0.511041  0.827123  1
