# generated using pymatgen
data_Tb16TlHg3Pd4
_symmetry_space_group_name_H-M   'P 1'
_cell_length_a   9.71489076
_cell_length_b   9.72972094
_cell_length_c   9.72972100
_cell_angle_alpha   60.00000321
_cell_angle_beta   59.94949276
_cell_angle_gamma   59.94949062
_symmetry_Int_Tables_number   1
_chemical_formula_structural   Tb16TlHg3Pd4
_chemical_formula_sum   'Tb16 Tl1 Hg3 Pd4'
_cell_volume   649.81798752
_cell_formula_units_Z   1
loop_
 _symmetry_equiv_pos_site_id
 _symmetry_equiv_pos_as_xyz
  1  'x, y, z'
loop_
 _atom_site_type_symbol
 _atom_site_label
 _atom_site_symmetry_multiplicity
 _atom_site_fract_x
 _atom_site_fract_y
 _atom_site_fract_z
 _atom_site_occupancy
  Tb  Tb0  1  0.356584  0.355445  0.355445  1
  Tb  Tb1  1  0.356584  0.355445  0.932527  1
  Tb  Tb2  1  0.356584  0.932527  0.355445  1
  Tb  Tb3  1  0.929704  0.356765  0.356765  1
  Tb  Tb4  1  0.811701  0.188247  0.188247  1
  Tb  Tb5  1  0.188076  0.811589  0.811589  1
  Tb  Tb6  1  0.188076  0.811589  0.188747  1
  Tb  Tb7  1  0.811701  0.188247  0.811804  1
  Tb  Tb8  1  0.188076  0.188747  0.811589  1
  Tb  Tb9  1  0.811701  0.811804  0.188247  1
  Tb  Tb10  1  0.931922  0.565420  0.565420  1
  Tb  Tb11  1  0.563653  0.935355  0.935355  1
  Tb  Tb12  1  0.563653  0.935355  0.565638  1
  Tb  Tb13  1  0.931922  0.565420  0.937240  1
  Tb  Tb14  1  0.563653  0.565638  0.935355  1
  Tb  Tb15  1  0.931922  0.937240  0.565420  1
  Tl  Tl16  1  0.249440  0.583519  0.583519  1
  Hg  Hg17  1  0.588708  0.587618  0.587618  1
  Hg  Hg18  1  0.588708  0.587618  0.236055  1
  Hg  Hg19  1  0.588708  0.236055  0.587618  1
  Pd  Pd20  1  0.145015  0.145725  0.145725  1
  Pd  Pd21  1  0.145015  0.145725  0.563536  1
  Pd  Pd22  1  0.145015  0.563536  0.145725  1
  Pd  Pd23  1  0.563874  0.145376  0.145376  1
