# generated using pymatgen
data_Tb4Tm2Al24Ir3Os5
_symmetry_space_group_name_H-M   'P 1'
_cell_length_a   8.77491036
_cell_length_b   8.78877605
_cell_length_c   9.57174468
_cell_angle_alpha   90.00292653
_cell_angle_beta   89.84315368
_cell_angle_gamma   119.53084970
_symmetry_Int_Tables_number   1
_chemical_formula_structural   Tb4Tm2Al24Ir3Os5
_chemical_formula_sum   'Tb4 Tm2 Al24 Ir3 Os5'
_cell_volume   642.28011448
_cell_formula_units_Z   1
loop_
 _symmetry_equiv_pos_site_id
 _symmetry_equiv_pos_as_xyz
  1  'x, y, z'
loop_
 _atom_site_type_symbol
 _atom_site_label
 _atom_site_symmetry_multiplicity
 _atom_site_fract_x
 _atom_site_fract_y
 _atom_site_fract_z
 _atom_site_occupancy
  Tb  Tb0  1  0.188872  0.384054  0.250942  1
  Tb  Tb1  1  0.811128  0.615946  0.749058  1
  Tb  Tb2  1  0.614938  0.811948  0.250688  1
  Tb  Tb3  1  0.385062  0.188052  0.749312  1
  Tm  Tm4  1  0.197088  0.806967  0.251283  1
  Tm  Tm5  1  0.802912  0.193033  0.748717  1
  Al  Al6  1  0.333781  0.668411  0.025932  1
  Al  Al7  1  0.666219  0.331589  0.974068  1
  Al  Al8  1  0.667570  0.332426  0.524231  1
  Al  Al9  1  0.332430  0.667574  0.475769  1
  Al  Al10  1  0.161932  0.326562  0.576232  1
  Al  Al11  1  0.838068  0.673438  0.423768  1
  Al  Al12  1  0.672735  0.837131  0.576153  1
  Al  Al13  1  0.836333  0.673575  0.076576  1
  Al  Al14  1  0.327265  0.162869  0.423847  1
  Al  Al15  1  0.163667  0.326425  0.923424  1
  Al  Al16  1  0.164014  0.835078  0.574832  1
  Al  Al17  1  0.327094  0.162561  0.076041  1
  Al  Al18  1  0.835986  0.164922  0.425168  1
  Al  Al19  1  0.672906  0.837439  0.923959  1
  Al  Al20  1  0.834339  0.163303  0.074418  1
  Al  Al21  1  0.165661  0.836697  0.925582  1
  Al  Al22  1  0.560828  0.125016  0.249562  1
  Al  Al23  1  0.439172  0.874984  0.750438  1
  Al  Al24  1  0.876271  0.440113  0.250446  1
  Al  Al25  1  0.123729  0.559887  0.749554  1
  Al  Al26  1  0.562103  0.438558  0.249600  1
  Al  Al27  1  0.437897  0.561442  0.750400  1
  Al  Al28  1  0.001341  0.000048  0.250050  1
  Al  Al29  1  0.998659  0.999952  0.749950  1
  Ir  Ir30  1  0.000000  0.500000  0.000000  1
  Ir  Ir31  1  0.500000  0.500000  0.000000  1
  Ir  Ir32  1  0.500000  0.500000  0.500000  1
  Os  Os33  1  0.500000  0.000000  0.000000  1
  Os  Os34  1  0.500000  0.000000  0.500000  1
  Os  Os35  1  0.000000  0.500000  0.500000  1
  Os  Os36  1  0.000000  0.000000  0.000000  1
  Os  Os37  1  0.000000  0.000000  0.500000  1
