# generated using pymatgen
data_Lu8TaB24RuRh2
_symmetry_space_group_name_H-M   'P 1'
_cell_length_a   3.59592100
_cell_length_b   9.08924326
_cell_length_c   11.47361558
_cell_angle_alpha   90.37027451
_cell_angle_beta   90.00000000
_cell_angle_gamma   90.00000000
_symmetry_Int_Tables_number   1
_chemical_formula_structural   Lu8TaB24RuRh2
_chemical_formula_sum   'Lu8 Ta1 B24 Ru1 Rh2'
_cell_volume   374.99812341
_cell_formula_units_Z   1
loop_
 _symmetry_equiv_pos_site_id
 _symmetry_equiv_pos_as_xyz
  1  'x, y, z'
loop_
 _atom_site_type_symbol
 _atom_site_label
 _atom_site_symmetry_multiplicity
 _atom_site_fract_x
 _atom_site_fract_y
 _atom_site_fract_z
 _atom_site_occupancy
  Lu  Lu0  1  0.500000  0.318081  0.412561  1
  Lu  Lu1  1  0.500000  0.678622  0.585956  1
  Lu  Lu2  1  0.500000  0.178669  0.914785  1
  Lu  Lu3  1  0.500000  0.821667  0.084590  1
  Lu  Lu4  1  0.500000  0.447512  0.124777  1
  Lu  Lu5  1  0.500000  0.559442  0.871465  1
  Lu  Lu6  1  0.500000  0.054547  0.629802  1
  Lu  Lu7  1  0.500000  0.943456  0.375961  1
  Ta  Ta8  1  0.500000  0.138652  0.179187  1
  B  B9  1  0.000000  0.105437  0.474371  1
  B  B10  1  0.000000  0.892446  0.530403  1
  B  B11  1  0.000000  0.399294  0.968947  1
  B  B12  1  0.000000  0.607045  0.027899  1
  B  B13  1  0.000000  0.131886  0.320412  1
  B  B14  1  0.000000  0.867557  0.684111  1
  B  B15  1  0.000000  0.368715  0.816969  1
  B  B16  1  0.000000  0.632831  0.183478  1
  B  B17  1  0.000000  0.048582  0.061556  1
  B  B18  1  0.000000  0.945845  0.931652  1
  B  B19  1  0.000000  0.445539  0.564847  1
  B  B20  1  0.000000  0.552857  0.434721  1
  B  B21  1  0.000000  0.482775  0.287878  1
  B  B22  1  0.000000  0.518271  0.710689  1
  B  B23  1  0.000000  0.017121  0.786876  1
  B  B24  1  0.000000  0.974190  0.214801  1
  B  B25  1  0.000000  0.254236  0.075786  1
  B  B26  1  0.000000  0.751754  0.918456  1
  B  B27  1  0.000000  0.249754  0.579373  1
  B  B28  1  0.000000  0.748618  0.422331  1
  B  B29  1  0.000000  0.299131  0.238223  1
  B  B30  1  0.000000  0.706577  0.763656  1
  B  B31  1  0.000000  0.207864  0.737222  1
  B  B32  1  0.000000  0.791442  0.266103  1
  Ru  Ru33  1  0.500000  0.859666  0.818589  1
  Rh  Rh34  1  0.500000  0.361450  0.679582  1
  Rh  Rh35  1  0.500000  0.638468  0.321985  1
