# generated using pymatgen
data_Sr2YbCdPt2
_symmetry_space_group_name_H-M   'P 1'
_cell_length_a   4.49396300
_cell_length_b   7.76032800
_cell_length_c   9.11256500
_cell_angle_alpha   90.00000000
_cell_angle_beta   90.00000000
_cell_angle_gamma   90.00000000
_symmetry_Int_Tables_number   1
_chemical_formula_structural   Sr2YbCdPt2
_chemical_formula_sum   'Sr4 Yb2 Cd2 Pt4'
_cell_volume   317.79730448
_cell_formula_units_Z   2
loop_
 _symmetry_equiv_pos_site_id
 _symmetry_equiv_pos_as_xyz
  1  'x, y, z'
loop_
 _atom_site_type_symbol
 _atom_site_label
 _atom_site_symmetry_multiplicity
 _atom_site_fract_x
 _atom_site_fract_y
 _atom_site_fract_z
 _atom_site_occupancy
  Sr  Sr0  1  0.250000  0.036013  0.322879  1
  Sr  Sr1  1  0.250000  0.536013  0.177121  1
  Sr  Sr2  1  0.750000  0.974297  0.671243  1
  Sr  Sr3  1  0.750000  0.474297  0.828757  1
  Yb  Yb4  1  0.250000  0.131455  0.938683  1
  Yb  Yb5  1  0.250000  0.631455  0.561317  1
  Cd  Cd6  1  0.750000  0.857812  0.064993  1
  Cd  Cd7  1  0.750000  0.357812  0.435007  1
  Pt  Pt8  1  0.250000  0.266474  0.628310  1
  Pt  Pt9  1  0.250000  0.766474  0.871690  1
  Pt  Pt10  1  0.750000  0.733948  0.381587  1
  Pt  Pt11  1  0.750000  0.233948  0.118413  1
