# generated using pymatgen
data_PrDyTm2(Ir2O7)2
_symmetry_space_group_name_H-M   'P 1'
_cell_length_a   7.29496958
_cell_length_b   7.21945650
_cell_length_c   7.23290186
_cell_angle_alpha   60.06147750
_cell_angle_beta   60.39535754
_cell_angle_gamma   60.34184183
_symmetry_Int_Tables_number   1
_chemical_formula_structural   PrDyTm2(Ir2O7)2
_chemical_formula_sum   'Pr1 Dy1 Tm2 Ir4 O14'
_cell_volume   270.97314461
_cell_formula_units_Z   1
loop_
 _symmetry_equiv_pos_site_id
 _symmetry_equiv_pos_as_xyz
  1  'x, y, z'
loop_
 _atom_site_type_symbol
 _atom_site_label
 _atom_site_symmetry_multiplicity
 _atom_site_fract_x
 _atom_site_fract_y
 _atom_site_fract_z
 _atom_site_occupancy
  Pr  Pr0  1  0.625000  0.125000  0.125000  1
  Dy  Dy1  1  0.125000  0.125000  0.625000  1
  Tm  Tm2  1  0.125000  0.125000  0.125000  1
  Tm  Tm3  1  0.125000  0.625000  0.125000  1
  Ir  Ir4  1  0.625000  0.625000  0.625000  1
  Ir  Ir5  1  0.125000  0.625000  0.625000  1
  Ir  Ir6  1  0.625000  0.125000  0.625000  1
  Ir  Ir7  1  0.625000  0.625000  0.125000  1
  O  O8  1  0.962660  0.540549  0.535358  1
  O  O9  1  0.287340  0.288568  0.714642  1
  O  O10  1  0.962697  0.537765  0.961771  1
  O  O11  1  0.724382  0.288270  0.287914  1
  O  O12  1  0.525618  0.550565  0.962086  1
  O  O13  1  0.528546  0.961598  0.548256  1
  O  O14  1  0.525618  0.961730  0.962086  1
  O  O15  1  0.236176  0.256465  0.250893  1
  O  O16  1  0.287340  0.709451  0.714642  1
  O  O17  1  0.721454  0.288402  0.701744  1
  O  O18  1  0.013824  0.993535  0.999107  1
  O  O19  1  0.962660  0.961432  0.535358  1
  O  O20  1  0.287303  0.712235  0.288229  1
  O  O21  1  0.724382  0.699435  0.287914  1
