# generated using pymatgen
data_CeDy5Rh18
_symmetry_space_group_name_H-M   'P 1'
_cell_length_a   5.26636700
_cell_length_b   5.26636672
_cell_length_c   17.56305200
_cell_angle_alpha   90.00000000
_cell_angle_beta   90.00000000
_cell_angle_gamma   120.00000802
_symmetry_Int_Tables_number   1
_chemical_formula_structural   CeDy5Rh18
_chemical_formula_sum   'Ce1 Dy5 Rh18'
_cell_volume   421.84489951
_cell_formula_units_Z   1
loop_
 _symmetry_equiv_pos_site_id
 _symmetry_equiv_pos_as_xyz
  1  'x, y, z'
loop_
 _atom_site_type_symbol
 _atom_site_label
 _atom_site_symmetry_multiplicity
 _atom_site_fract_x
 _atom_site_fract_y
 _atom_site_fract_z
 _atom_site_occupancy
  Ce  Ce0  1  0.666667  0.333333  0.250000  1
  Dy  Dy1  1  0.333333  0.666667  0.542159  1
  Dy  Dy2  1  0.666667  0.333333  0.041315  1
  Dy  Dy3  1  0.666667  0.333333  0.458685  1
  Dy  Dy4  1  0.333333  0.666667  0.957841  1
  Dy  Dy5  1  0.333333  0.666667  0.750000  1
  Rh  Rh6  1  0.167327  0.334653  0.125165  1
  Rh  Rh7  1  0.832743  0.665489  0.625839  1
  Rh  Rh8  1  0.665347  0.832673  0.125165  1
  Rh  Rh9  1  0.167327  0.832673  0.125165  1
  Rh  Rh10  1  0.832743  0.167257  0.625839  1
  Rh  Rh11  1  0.334511  0.167257  0.625839  1
  Rh  Rh12  1  0.832743  0.665489  0.874161  1
  Rh  Rh13  1  0.832743  0.167257  0.874161  1
  Rh  Rh14  1  0.334511  0.167257  0.874161  1
  Rh  Rh15  1  0.665347  0.832673  0.374835  1
  Rh  Rh16  1  0.167327  0.832673  0.374835  1
  Rh  Rh17  1  0.167327  0.334653  0.374835  1
  Rh  Rh18  1  0.000000  0.000000  0.250000  1
  Rh  Rh19  1  0.000000  0.000000  0.750000  1
  Rh  Rh20  1  0.333333  0.666667  0.250000  1
  Rh  Rh21  1  0.666667  0.333333  0.750000  1
  Rh  Rh22  1  0.000000  0.000000  0.999964  1
  Rh  Rh23  1  0.000000  0.000000  0.500036  1
