# generated using pymatgen
data_TbNbP7Ru12
_symmetry_space_group_name_H-M   'P 1'
_cell_length_a   9.39097400
_cell_length_b   9.39097346
_cell_length_c   3.90440000
_cell_angle_alpha   90.00000000
_cell_angle_beta   90.00000000
_cell_angle_gamma   120.00000097
_symmetry_Int_Tables_number   1
_chemical_formula_structural   TbNbP7Ru12
_chemical_formula_sum   'Tb1 Nb1 P7 Ru12'
_cell_volume   298.19899999
_cell_formula_units_Z   1
loop_
 _symmetry_equiv_pos_site_id
 _symmetry_equiv_pos_as_xyz
  1  'x, y, z'
loop_
 _atom_site_type_symbol
 _atom_site_label
 _atom_site_symmetry_multiplicity
 _atom_site_fract_x
 _atom_site_fract_y
 _atom_site_fract_z
 _atom_site_occupancy
  Tb  Tb0  1  0.333333  0.666667  0.000000  1
  Nb  Nb1  1  0.666667  0.333333  0.500000  1
  P  P2  1  0.598629  0.718841  0.500000  1
  P  P3  1  0.000000  0.000000  0.000000  1
  P  P4  1  0.281159  0.879788  0.500000  1
  P  P5  1  0.120212  0.401371  0.500000  1
  P  P6  1  0.886347  0.574022  0.000000  1
  P  P7  1  0.425978  0.312325  0.000000  1
  P  P8  1  0.687675  0.113653  0.000000  1
  Ru  Ru9  1  0.558725  0.957217  0.500000  1
  Ru  Ru10  1  0.398492  0.441275  0.500000  1
  Ru  Ru11  1  0.912999  0.123577  0.500000  1
  Ru  Ru12  1  0.210578  0.087001  0.500000  1
  Ru  Ru13  1  0.876423  0.789422  0.500000  1
  Ru  Ru14  1  0.725723  0.887894  0.000000  1
  Ru  Ru15  1  0.112106  0.837828  0.000000  1
  Ru  Ru16  1  0.162172  0.274277  0.000000  1
  Ru  Ru17  1  0.431187  0.078335  0.000000  1
  Ru  Ru18  1  0.921665  0.352853  0.000000  1
  Ru  Ru19  1  0.647147  0.568813  0.000000  1
  Ru  Ru20  1  0.042783  0.601508  0.500000  1
