# generated using pymatgen
data_K3Ba(CeI6)2
_symmetry_space_group_name_H-M   'P 1'
_cell_length_a   8.69028517
_cell_length_b   8.42218447
_cell_length_c   14.70465700
_cell_angle_alpha   54.99635869
_cell_angle_beta   90.02976778
_cell_angle_gamma   89.66185720
_symmetry_Int_Tables_number   1
_chemical_formula_structural   K3Ba(CeI6)2
_chemical_formula_sum   'K3 Ba1 Ce2 I12'
_cell_volume   881.54882260
_cell_formula_units_Z   1
loop_
 _symmetry_equiv_pos_site_id
 _symmetry_equiv_pos_as_xyz
  1  'x, y, z'
loop_
 _atom_site_type_symbol
 _atom_site_label
 _atom_site_symmetry_multiplicity
 _atom_site_fract_x
 _atom_site_fract_y
 _atom_site_fract_z
 _atom_site_occupancy
  K  K0  1  0.423019  0.731678  0.247924  1
  K  K1  1  0.925555  0.268636  0.248764  1
  K  K2  1  0.083947  0.722749  0.754996  1
  Ba  Ba3  1  0.598042  0.277207  0.745841  1
  Ce  Ce4  1  0.003176  0.999017  0.996100  1
  Ce  Ce5  1  0.496084  0.000832  0.504835  1
  I  I6  1  0.805947  0.359932  0.930778  1
  I  I7  1  0.531021  0.142290  0.262057  1
  I  I8  1  0.473658  0.871066  0.750264  1
  I  I9  1  0.307672  0.231169  0.938036  1
  I  I10  1  0.316475  0.630969  0.568746  1
  I  I11  1  0.190820  0.218265  0.453131  1
  I  I12  1  0.180185  0.638447  0.051735  1
  I  I13  1  0.790502  0.744970  0.566621  1
  I  I14  1  0.690402  0.800179  0.031418  1
  I  I15  1  0.025852  0.863036  0.238650  1
  I  I16  1  0.981078  0.146077  0.747959  1
  I  I17  1  0.676565  0.353477  0.462146  1
