# generated using pymatgen
data_Ce2Tm2Al5Tc3
_symmetry_space_group_name_H-M   'P 1'
_cell_length_a   5.42547404
_cell_length_b   5.48277004
_cell_length_c   8.94626334
_cell_angle_alpha   89.99999960
_cell_angle_beta   91.36664039
_cell_angle_gamma   120.34997078
_symmetry_Int_Tables_number   1
_chemical_formula_structural   Ce2Tm2Al5Tc3
_chemical_formula_sum   'Ce2 Tm2 Al5 Tc3'
_cell_volume   229.56290756
_cell_formula_units_Z   1
loop_
 _symmetry_equiv_pos_site_id
 _symmetry_equiv_pos_as_xyz
  1  'x, y, z'
loop_
 _atom_site_type_symbol
 _atom_site_label
 _atom_site_symmetry_multiplicity
 _atom_site_fract_x
 _atom_site_fract_y
 _atom_site_fract_z
 _atom_site_occupancy
  Ce  Ce0  1  0.356452  0.678227  0.459542  1
  Ce  Ce1  1  0.656641  0.328320  0.548626  1
  Tm  Tm2  1  0.660450  0.330225  0.939039  1
  Tm  Tm3  1  0.336034  0.668018  0.058050  1
  Al  Al4  1  0.842214  0.167750  0.245547  1
  Al  Al5  1  0.842214  0.674465  0.245547  1
  Al  Al6  1  0.328547  0.164274  0.241200  1
  Al  Al7  1  0.168176  0.834375  0.755277  1
  Al  Al8  1  0.168176  0.333801  0.755277  1
  Tc  Tc9  1  0.001247  0.000623  0.500289  1
  Tc  Tc10  1  0.974670  0.987334  0.993428  1
  Tc  Tc11  1  0.665178  0.832590  0.758179  1
