# generated using pymatgen
data_Li4Sm3Sn3Sb
_symmetry_space_group_name_H-M   'P 1'
_cell_length_a   8.73774128
_cell_length_b   8.73774108
_cell_length_c   8.73774063
_cell_angle_alpha   149.21880629
_cell_angle_beta   131.08203569
_cell_angle_gamma   58.91782837
_symmetry_Int_Tables_number   1
_chemical_formula_structural   Li4Sm3Sn3Sb
_chemical_formula_sum   'Li4 Sm3 Sn3 Sb1'
_cell_volume   255.31237501
_cell_formula_units_Z   1
loop_
 _symmetry_equiv_pos_site_id
 _symmetry_equiv_pos_as_xyz
  1  'x, y, z'
loop_
 _atom_site_type_symbol
 _atom_site_label
 _atom_site_symmetry_multiplicity
 _atom_site_fract_x
 _atom_site_fract_y
 _atom_site_fract_z
 _atom_site_occupancy
  Li  Li0  1  0.484434  0.672714  0.811721  1
  Li  Li1  1  0.860992  0.672714  0.188279  1
  Li  Li2  1  0.137831  0.326924  0.810907  1
  Li  Li3  1  0.516017  0.326924  0.189093  1
  Sm  Sm4  1  0.500670  0.000670  0.500000  1
  Sm  Sm5  1  0.872613  0.872613  0.000000  1
  Sm  Sm6  1  0.126459  0.126459  0.000000  1
  Sn  Sn7  1  0.715475  0.215475  0.500000  1
  Sn  Sn8  1  0.801424  0.500429  0.300995  1
  Sn  Sn9  1  0.199433  0.500429  0.699005  1
  Sb  Sb10  1  0.284651  0.784651  0.500000  1
