# generated using pymatgen
data_Dy11TmTh4(MgRh)4
_symmetry_space_group_name_H-M   'P 1'
_cell_length_a   9.79047017
_cell_length_b   9.79047084
_cell_length_c   9.80250700
_cell_angle_alpha   59.95932090
_cell_angle_beta   59.95931861
_cell_angle_gamma   59.96885691
_symmetry_Int_Tables_number   1
_chemical_formula_structural   Dy11TmTh4(MgRh)4
_chemical_formula_sum   'Dy11 Tm1 Th4 Mg4 Rh4'
_cell_volume   663.83444128
_cell_formula_units_Z   1
loop_
 _symmetry_equiv_pos_site_id
 _symmetry_equiv_pos_as_xyz
  1  'x, y, z'
loop_
 _atom_site_type_symbol
 _atom_site_label
 _atom_site_symmetry_multiplicity
 _atom_site_fract_x
 _atom_site_fract_y
 _atom_site_fract_z
 _atom_site_occupancy
  Dy  Dy0  1  0.063416  0.436467  0.437456  1
  Dy  Dy1  1  0.436467  0.063416  0.062661  1
  Dy  Dy2  1  0.436467  0.063416  0.437456  1
  Dy  Dy3  1  0.063416  0.436467  0.062661  1
  Dy  Dy4  1  0.437577  0.437577  0.062423  1
  Dy  Dy5  1  0.063767  0.063767  0.436233  1
  Dy  Dy6  1  0.185637  0.816895  0.815337  1
  Dy  Dy7  1  0.816895  0.185637  0.182130  1
  Dy  Dy8  1  0.816895  0.185637  0.815337  1
  Dy  Dy9  1  0.185637  0.816895  0.182130  1
  Dy  Dy10  1  0.816610  0.816610  0.183390  1
  Tm  Tm11  1  0.185276  0.185276  0.814724  1
  Th  Th12  1  0.597966  0.597966  0.597609  1
  Th  Th13  1  0.597966  0.597966  0.206458  1
  Th  Th14  1  0.599624  0.202362  0.599006  1
  Th  Th15  1  0.202362  0.599624  0.599006  1
  Mg  Mg16  1  0.829790  0.829790  0.831474  1
  Mg  Mg17  1  0.829790  0.829790  0.508945  1
  Mg  Mg18  1  0.829422  0.508250  0.831164  1
  Mg  Mg19  1  0.508250  0.829422  0.831164  1
  Rh  Rh20  1  0.393339  0.393339  0.396699  1
  Rh  Rh21  1  0.393339  0.393339  0.816623  1
  Rh  Rh22  1  0.392965  0.817124  0.394956  1
  Rh  Rh23  1  0.817124  0.392965  0.394956  1
