# generated using pymatgen
data_Pr20Tl3Si8Ag
_symmetry_space_group_name_H-M   'P 1'
_cell_length_a   7.84125800
_cell_length_b   7.84125800
_cell_length_c   14.66129900
_cell_angle_alpha   90.00000000
_cell_angle_beta   90.00000000
_cell_angle_gamma   90.00000000
_symmetry_Int_Tables_number   1
_chemical_formula_structural   Pr20Tl3Si8Ag
_chemical_formula_sum   'Pr20 Tl3 Si8 Ag1'
_cell_volume   901.45476359
_cell_formula_units_Z   1
loop_
 _symmetry_equiv_pos_site_id
 _symmetry_equiv_pos_as_xyz
  1  'x, y, z'
loop_
 _atom_site_type_symbol
 _atom_site_label
 _atom_site_symmetry_multiplicity
 _atom_site_fract_x
 _atom_site_fract_y
 _atom_site_fract_z
 _atom_site_occupancy
  Pr  Pr0  1  0.820371  0.833192  0.609714  1
  Pr  Pr1  1  0.181760  0.830560  0.111589  1
  Pr  Pr2  1  0.167451  0.815878  0.391440  1
  Pr  Pr3  1  0.000000  0.500000  0.725983  1
  Pr  Pr4  1  0.832549  0.184122  0.391440  1
  Pr  Pr5  1  0.684122  0.667451  0.391440  1
  Pr  Pr6  1  0.666808  0.320371  0.609714  1
  Pr  Pr7  1  0.333192  0.679629  0.609714  1
  Pr  Pr8  1  0.000000  0.500000  0.232633  1
  Pr  Pr9  1  0.669440  0.681760  0.111589  1
  Pr  Pr10  1  0.680165  0.329640  0.889044  1
  Pr  Pr11  1  0.829640  0.819835  0.889044  1
  Pr  Pr12  1  0.315878  0.332549  0.391440  1
  Pr  Pr13  1  0.179629  0.166808  0.609714  1
  Pr  Pr14  1  0.818240  0.169440  0.111589  1
  Pr  Pr15  1  0.319835  0.670360  0.889044  1
  Pr  Pr16  1  0.330560  0.318240  0.111589  1
  Pr  Pr17  1  0.500000  0.000000  0.267158  1
  Pr  Pr18  1  0.170360  0.180165  0.889044  1
  Pr  Pr19  1  0.500000  0.000000  0.762187  1
  Tl  Tl20  1  0.500000  0.000000  0.497375  1
  Tl  Tl21  1  0.500000  0.000000  0.996927  1
  Tl  Tl22  1  0.000000  0.500000  0.002458  1
  Si  Si23  1  0.613714  0.385813  0.250607  1
  Si  Si24  1  0.114177  0.884554  0.750812  1
  Si  Si25  1  0.384554  0.385823  0.750812  1
  Si  Si26  1  0.386286  0.614187  0.250607  1
  Si  Si27  1  0.885813  0.886286  0.250607  1
  Si  Si28  1  0.615446  0.614177  0.750812  1
  Si  Si29  1  0.885823  0.115446  0.750812  1
  Si  Si30  1  0.114187  0.113714  0.250607  1
  Ag  Ag31  1  0.000000  0.500000  0.502453  1
