# generated using pymatgen
data_Tb5Ho7Rh4
_symmetry_space_group_name_H-M   'P 1'
_cell_length_a   6.28673207
_cell_length_b   7.17002663
_cell_length_c   9.48673431
_cell_angle_alpha   90.02646277
_cell_angle_beta   89.94614974
_cell_angle_gamma   89.95993042
_symmetry_Int_Tables_number   1
_chemical_formula_structural   Tb5Ho7Rh4
_chemical_formula_sum   'Tb5 Ho7 Rh4'
_cell_volume   427.62404166
_cell_formula_units_Z   1
loop_
 _symmetry_equiv_pos_site_id
 _symmetry_equiv_pos_as_xyz
  1  'x, y, z'
loop_
 _atom_site_type_symbol
 _atom_site_label
 _atom_site_symmetry_multiplicity
 _atom_site_fract_x
 _atom_site_fract_y
 _atom_site_fract_z
 _atom_site_occupancy
  Tb  Tb0  1  0.169830  0.177647  0.062974  1
  Tb  Tb1  1  0.865615  0.532293  0.250165  1
  Tb  Tb2  1  0.634303  0.031853  0.250241  1
  Tb  Tb3  1  0.134041  0.467991  0.749807  1
  Tb  Tb4  1  0.365959  0.967851  0.749826  1
  Ho  Ho5  1  0.330261  0.677559  0.063491  1
  Ho  Ho6  1  0.169807  0.177559  0.436895  1
  Ho  Ho7  1  0.669841  0.322490  0.563429  1
  Ho  Ho8  1  0.830093  0.822240  0.936406  1
  Ho  Ho9  1  0.669728  0.322598  0.936334  1
  Ho  Ho10  1  0.830094  0.822436  0.563409  1
  Ho  Ho11  1  0.330135  0.677575  0.436544  1
  Rh  Rh12  1  0.061899  0.881280  0.250452  1
  Rh  Rh13  1  0.438669  0.382154  0.250326  1
  Rh  Rh14  1  0.937903  0.118214  0.749642  1
  Rh  Rh15  1  0.561822  0.618259  0.750058  1
