# generated using pymatgen
data_La9Nd7Cd4(OsPt)2
_symmetry_space_group_name_H-M   'P 1'
_cell_length_a   10.06086909
_cell_length_b   10.06086775
_cell_length_c   10.14736300
_cell_angle_alpha   59.71519392
_cell_angle_beta   59.71519838
_cell_angle_gamma   59.86378195
_symmetry_Int_Tables_number   1
_chemical_formula_structural   La9Nd7Cd4(OsPt)2
_chemical_formula_sum   'La9 Nd7 Cd4 Os2 Pt2'
_cell_volume   722.40526580
_cell_formula_units_Z   1
loop_
 _symmetry_equiv_pos_site_id
 _symmetry_equiv_pos_as_xyz
  1  'x, y, z'
loop_
 _atom_site_type_symbol
 _atom_site_label
 _atom_site_symmetry_multiplicity
 _atom_site_fract_x
 _atom_site_fract_y
 _atom_site_fract_z
 _atom_site_occupancy
  La  La0  1  0.347040  0.347040  0.353780  1
  La  La1  1  0.347040  0.347040  0.952140  1
  La  La2  1  0.344010  0.960591  0.347700  1
  La  La3  1  0.960591  0.344010  0.347700  1
  La  La4  1  0.814774  0.188396  0.192449  1
  La  La5  1  0.188396  0.814774  0.804382  1
  La  La6  1  0.188396  0.814774  0.192449  1
  La  La7  1  0.814774  0.188396  0.804382  1
  La  La8  1  0.189753  0.189753  0.810247  1
  Nd  Nd9  1  0.803310  0.803310  0.196690  1
  Nd  Nd10  1  0.934521  0.560304  0.567633  1
  Nd  Nd11  1  0.560304  0.934521  0.937542  1
  Nd  Nd12  1  0.560304  0.934521  0.567633  1
  Nd  Nd13  1  0.934521  0.560304  0.937542  1
  Nd  Nd14  1  0.564203  0.564203  0.935797  1
  Nd  Nd15  1  0.935634  0.935634  0.564366  1
  Cd  Cd16  1  0.580983  0.580983  0.578822  1
  Cd  Cd17  1  0.580983  0.580983  0.259214  1
  Cd  Cd18  1  0.581701  0.257623  0.580339  1
  Cd  Cd19  1  0.257623  0.581701  0.580339  1
  Os  Os20  1  0.143106  0.143106  0.134896  1
  Os  Os21  1  0.143106  0.143106  0.578891  1
  Pt  Pt22  1  0.147515  0.577415  0.137535  1
  Pt  Pt23  1  0.577415  0.147515  0.137535  1
