# generated using pymatgen
data_La2Pr11Th3(CdIr)4
_symmetry_space_group_name_H-M   'P 1'
_cell_length_a   10.00900519
_cell_length_b   10.05369946
_cell_length_c   10.05370088
_cell_angle_alpha   60.15387397
_cell_angle_beta   60.22328966
_cell_angle_gamma   60.22328097
_symmetry_Int_Tables_number   1
_chemical_formula_structural   La2Pr11Th3(CdIr)4
_chemical_formula_sum   'La2 Pr11 Th3 Cd4 Ir4'
_cell_volume   718.60655102
_cell_formula_units_Z   1
loop_
 _symmetry_equiv_pos_site_id
 _symmetry_equiv_pos_as_xyz
  1  'x, y, z'
loop_
 _atom_site_type_symbol
 _atom_site_label
 _atom_site_symmetry_multiplicity
 _atom_site_fract_x
 _atom_site_fract_y
 _atom_site_fract_z
 _atom_site_occupancy
  La  La0  1  0.954827  0.348910  0.348910  1
  La  La1  1  0.810026  0.190424  0.190424  1
  Pr  Pr2  1  0.190814  0.808903  0.808903  1
  Pr  Pr3  1  0.192285  0.808044  0.190967  1
  Pr  Pr4  1  0.808658  0.190702  0.807824  1
  Pr  Pr5  1  0.192285  0.190967  0.808044  1
  Pr  Pr6  1  0.808658  0.807824  0.190702  1
  Pr  Pr7  1  0.940277  0.562683  0.562683  1
  Pr  Pr8  1  0.560434  0.938430  0.938430  1
  Pr  Pr9  1  0.560732  0.939593  0.562507  1
  Pr  Pr10  1  0.939777  0.561776  0.935593  1
  Pr  Pr11  1  0.560732  0.562507  0.939593  1
  Pr  Pr12  1  0.939777  0.935593  0.561776  1
  Th  Th13  1  0.343821  0.345991  0.345991  1
  Th  Th14  1  0.345543  0.346185  0.961956  1
  Th  Th15  1  0.345543  0.961956  0.346185  1
  Cd  Cd16  1  0.577594  0.580684  0.580684  1
  Cd  Cd17  1  0.577259  0.581784  0.260509  1
  Cd  Cd18  1  0.577259  0.260509  0.581784  1
  Cd  Cd19  1  0.259074  0.580529  0.580529  1
  Ir  Ir20  1  0.149063  0.142709  0.142709  1
  Ir  Ir21  1  0.151229  0.141701  0.565058  1
  Ir  Ir22  1  0.151229  0.565058  0.141701  1
  Ir  Ir23  1  0.563103  0.146532  0.146532  1
