# generated using pymatgen
data_U2CSeO
_symmetry_space_group_name_H-M   'P 1'
_cell_length_a   3.88123900
_cell_length_b   3.88123962
_cell_length_c   6.84134100
_cell_angle_alpha   90.00000000
_cell_angle_beta   90.00000000
_cell_angle_gamma   120.00000323
_symmetry_Int_Tables_number   1
_chemical_formula_structural   U2CSeO
_chemical_formula_sum   'U2 C1 Se1 O1'
_cell_volume   89.25091933
_cell_formula_units_Z   1
loop_
 _symmetry_equiv_pos_site_id
 _symmetry_equiv_pos_as_xyz
  1  'x, y, z'
loop_
 _atom_site_type_symbol
 _atom_site_label
 _atom_site_symmetry_multiplicity
 _atom_site_fract_x
 _atom_site_fract_y
 _atom_site_fract_z
 _atom_site_occupancy
  U  U0  1  0.666667  0.333333  0.706455  1
  U  U1  1  0.333333  0.666667  0.289726  1
  C  C2  1  0.666667  0.333333  0.373681  1
  Se  Se3  1  0.000000  0.000000  0.998603  1
  O  O4  1  0.333333  0.666667  0.631534  1
