# generated using pymatgen
data_Tb5Nd3(Si3Ni)4
_symmetry_space_group_name_H-M   'P 1'
_cell_length_a   8.01760300
_cell_length_b   8.00188531
_cell_length_c   8.31609300
_cell_angle_alpha   90.00000000
_cell_angle_beta   90.00000000
_cell_angle_gamma   120.06499395
_symmetry_Int_Tables_number   1
_chemical_formula_structural   Tb5Nd3(Si3Ni)4
_chemical_formula_sum   'Tb5 Nd3 Si12 Ni4'
_cell_volume   461.74482620
_cell_formula_units_Z   1
loop_
 _symmetry_equiv_pos_site_id
 _symmetry_equiv_pos_as_xyz
  1  'x, y, z'
loop_
 _atom_site_type_symbol
 _atom_site_label
 _atom_site_symmetry_multiplicity
 _atom_site_fract_x
 _atom_site_fract_y
 _atom_site_fract_z
 _atom_site_occupancy
  Tb  Tb0  1  0.499961  0.500099  0.750000  1
  Tb  Tb1  1  0.500058  0.499967  0.250000  1
  Tb  Tb2  1  0.000138  0.500099  0.750000  1
  Tb  Tb3  1  0.999908  0.499967  0.250000  1
  Tb  Tb4  1  0.499934  0.999868  0.750000  1
  Nd  Nd5  1  0.500075  0.000151  0.250000  1
  Nd  Nd6  1  0.999996  0.999992  0.750000  1
  Nd  Nd7  1  0.000012  0.000023  0.250000  1
  Si  Si8  1  0.829454  0.172850  0.997824  1
  Si  Si9  1  0.170547  0.827152  0.998113  1
  Si  Si10  1  0.343396  0.172850  0.997824  1
  Si  Si11  1  0.170547  0.827152  0.501887  1
  Si  Si12  1  0.656605  0.827152  0.998113  1
  Si  Si13  1  0.829454  0.172850  0.502176  1
  Si  Si14  1  0.828113  0.656227  0.999746  1
  Si  Si15  1  0.656605  0.827152  0.501887  1
  Si  Si16  1  0.171877  0.343754  0.999987  1
  Si  Si17  1  0.343396  0.172850  0.502176  1
  Si  Si18  1  0.171877  0.343754  0.500013  1
  Si  Si19  1  0.828113  0.656227  0.500254  1
  Ni  Ni20  1  0.666939  0.333876  0.996151  1
  Ni  Ni21  1  0.333028  0.666057  0.995485  1
  Ni  Ni22  1  0.333028  0.666057  0.504515  1
  Ni  Ni23  1  0.666939  0.333876  0.503849  1
