# generated using pymatgen
data_DyYTmGa7Cu4
_symmetry_space_group_name_H-M   'P 1'
_cell_length_a   7.99431391
_cell_length_b   7.99431247
_cell_length_c   9.34353632
_cell_angle_alpha   54.46473915
_cell_angle_beta   54.46473765
_cell_angle_gamma   30.59819905
_symmetry_Int_Tables_number   1
_chemical_formula_structural   DyYTmGa7Cu4
_chemical_formula_sum   'Dy1 Y1 Tm1 Ga7 Cu4'
_cell_volume   242.57585055
_cell_formula_units_Z   1
loop_
 _symmetry_equiv_pos_site_id
 _symmetry_equiv_pos_as_xyz
  1  'x, y, z'
loop_
 _atom_site_type_symbol
 _atom_site_label
 _atom_site_symmetry_multiplicity
 _atom_site_fract_x
 _atom_site_fract_y
 _atom_site_fract_z
 _atom_site_occupancy
  Dy  Dy0  1  0.302352  0.302352  0.705662  1
  Y  Y1  1  0.999829  0.999829  0.000150  1
  Tm  Tm2  1  0.697575  0.697575  0.293836  1
  Ga  Ga3  1  0.858149  0.858149  0.421310  1
  Ga  Ga4  1  0.141913  0.141913  0.578168  1
  Ga  Ga5  1  0.139021  0.139021  0.133605  1
  Ga  Ga6  1  0.860992  0.860992  0.867037  1
  Ga  Ga7  1  0.000208  0.000208  0.499900  1
  Ga  Ga8  1  0.344336  0.344336  0.276065  1
  Ga  Ga9  1  0.655283  0.655283  0.724025  1
  Cu  Cu10  1  0.496471  0.496471  0.312408  1
  Cu  Cu11  1  0.504210  0.504210  0.686882  1
  Cu  Cu12  1  0.657773  0.657773  0.984663  1
  Cu  Cu13  1  0.341889  0.341889  0.016289  1
