# generated using pymatgen
data_La13Th(IrPt)3
_symmetry_space_group_name_H-M   'P 1'
_cell_length_a   6.56703000
_cell_length_b   10.28282397
_cell_length_c   10.28277700
_cell_angle_alpha   119.99925083
_cell_angle_beta   89.99952577
_cell_angle_gamma   90.00094379
_symmetry_Int_Tables_number   1
_chemical_formula_structural   La13Th(IrPt)3
_chemical_formula_sum   'La13 Th1 Ir3 Pt3'
_cell_volume   601.34780408
_cell_formula_units_Z   1
loop_
 _symmetry_equiv_pos_site_id
 _symmetry_equiv_pos_as_xyz
  1  'x, y, z'
loop_
 _atom_site_type_symbol
 _atom_site_label
 _atom_site_symmetry_multiplicity
 _atom_site_fract_x
 _atom_site_fract_y
 _atom_site_fract_z
 _atom_site_occupancy
  La  La0  1  0.962807  0.666661  0.333341  1
  La  La1  1  0.249047  0.129383  0.870637  1
  La  La2  1  0.249036  0.741253  0.870630  1
  La  La3  1  0.249022  0.129389  0.258766  1
  La  La4  1  0.740167  0.874404  0.125591  1
  La  La5  1  0.740210  0.251209  0.125584  1
  La  La6  1  0.740214  0.874423  0.748806  1
  La  La7  1  0.443531  0.535416  0.464590  1
  La  La8  1  0.443495  0.929159  0.464582  1
  La  La9  1  0.443501  0.535407  0.070829  1
  La  La10  1  0.940241  0.460574  0.539389  1
  La  La11  1  0.940227  0.078813  0.539395  1
  La  La12  1  0.940253  0.460552  0.921157  1
  Th  Th13  1  0.481225  0.333339  0.666690  1
  Ir  Ir14  1  0.686041  0.191243  0.808751  1
  Ir  Ir15  1  0.686054  0.617517  0.808756  1
  Ir  Ir16  1  0.686043  0.191249  0.382482  1
  Pt  Pt17  1  0.193611  0.811136  0.188865  1
  Pt  Pt18  1  0.193636  0.377739  0.188889  1
  Pt  Pt19  1  0.193634  0.811133  0.622272  1
