# generated using pymatgen
data_MnCrAg2F7
_symmetry_space_group_name_H-M   'P 1'
_cell_length_a   7.69735719
_cell_length_b   7.69735758
_cell_length_c   7.69735749
_cell_angle_alpha   121.17824171
_cell_angle_beta   118.92839003
_cell_angle_gamma   89.91873875
_symmetry_Int_Tables_number   1
_chemical_formula_structural   MnCrAg2F7
_chemical_formula_sum   'Mn2 Cr2 Ag4 F14'
_cell_volume   322.06954748
_cell_formula_units_Z   2
loop_
 _symmetry_equiv_pos_site_id
 _symmetry_equiv_pos_as_xyz
  1  'x, y, z'
loop_
 _atom_site_type_symbol
 _atom_site_label
 _atom_site_symmetry_multiplicity
 _atom_site_fract_x
 _atom_site_fract_y
 _atom_site_fract_z
 _atom_site_occupancy
  Mn  Mn0  1  0.500000  0.000000  0.500000  1
  Mn  Mn1  1  0.000000  0.500000  0.500000  1
  Cr  Cr2  1  0.000000  0.000000  0.500000  1
  Cr  Cr3  1  0.000000  0.500000  0.000000  1
  Ag  Ag4  1  0.000000  0.000000  0.000000  1
  Ag  Ag5  1  0.500000  0.500000  0.000000  1
  Ag  Ag6  1  0.500000  0.000000  0.000000  1
  Ag  Ag7  1  0.500000  0.500000  0.500000  1
  F  F8  1  0.363191  0.099129  0.264063  1
  F  F9  1  0.664933  0.400871  0.264063  1
  F  F10  1  0.704669  0.327881  0.783574  1
  F  F11  1  0.955693  0.172119  0.376788  1
  F  F12  1  0.955693  0.578906  0.783574  1
  F  F13  1  0.704669  0.921094  0.376788  1
  F  F14  1  0.295331  0.078906  0.623212  1
  F  F15  1  0.044307  0.421094  0.216426  1
  F  F16  1  0.044307  0.827881  0.623212  1
  F  F17  1  0.295331  0.672119  0.216426  1
  F  F18  1  0.924903  0.750000  0.174903  1
  F  F19  1  0.636809  0.900871  0.735937  1
  F  F20  1  0.335067  0.599129  0.735937  1
  F  F21  1  0.075097  0.250000  0.825097  1
