# generated using pymatgen
data_Zr6Al16Ni6Rh
_symmetry_space_group_name_H-M   'P 1'
_cell_length_a   8.56847610
_cell_length_b   8.56847654
_cell_length_c   8.56847700
_cell_angle_alpha   60.00000207
_cell_angle_beta   60.00000038
_cell_angle_gamma   60.00000194
_symmetry_Int_Tables_number   1
_chemical_formula_structural   Zr6Al16Ni6Rh
_chemical_formula_sum   'Zr6 Al16 Ni6 Rh1'
_cell_volume   444.83182742
_cell_formula_units_Z   1
loop_
 _symmetry_equiv_pos_site_id
 _symmetry_equiv_pos_as_xyz
  1  'x, y, z'
loop_
 _atom_site_type_symbol
 _atom_site_label
 _atom_site_symmetry_multiplicity
 _atom_site_fract_x
 _atom_site_fract_y
 _atom_site_fract_z
 _atom_site_occupancy
  Zr  Zr0  1  0.691245  0.691245  0.308755  1
  Zr  Zr1  1  0.308755  0.691245  0.308755  1
  Zr  Zr2  1  0.691245  0.308755  0.308755  1
  Zr  Zr3  1  0.308755  0.308755  0.691245  1
  Zr  Zr4  1  0.691245  0.308755  0.691245  1
  Zr  Zr5  1  0.308755  0.691245  0.691245  1
  Al  Al6  1  0.879711  0.879711  0.360867  1
  Al  Al7  1  0.879711  0.360867  0.879711  1
  Al  Al8  1  0.360867  0.879711  0.879711  1
  Al  Al9  1  0.879711  0.879711  0.879711  1
  Al  Al10  1  0.120289  0.120289  0.639133  1
  Al  Al11  1  0.120289  0.639133  0.120289  1
  Al  Al12  1  0.639133  0.120289  0.120289  1
  Al  Al13  1  0.120289  0.120289  0.120289  1
  Al  Al14  1  0.666134  0.666134  0.001599  1
  Al  Al15  1  0.666134  0.001599  0.666134  1
  Al  Al16  1  0.001599  0.666134  0.666134  1
  Al  Al17  1  0.666134  0.666134  0.666134  1
  Al  Al18  1  0.333866  0.333866  0.998401  1
  Al  Al19  1  0.333866  0.998401  0.333866  1
  Al  Al20  1  0.998401  0.333866  0.333866  1
  Al  Al21  1  0.333866  0.333866  0.333866  1
  Ni  Ni22  1  0.000000  0.000000  0.500000  1
  Ni  Ni23  1  0.500000  0.000000  0.500000  1
  Ni  Ni24  1  0.000000  0.500000  0.500000  1
  Ni  Ni25  1  0.500000  0.500000  0.000000  1
  Ni  Ni26  1  0.000000  0.500000  0.000000  1
  Ni  Ni27  1  0.500000  0.000000  0.000000  1
  Rh  Rh28  1  0.000000  0.000000  0.000000  1
