# generated using pymatgen
data_SiRu5W2
_symmetry_space_group_name_H-M   'P 1'
_cell_length_a   3.99049600
_cell_length_b   5.39766500
_cell_length_c   10.63388000
_cell_angle_alpha   90.00000000
_cell_angle_beta   90.00000000
_cell_angle_gamma   90.00000000
_symmetry_Int_Tables_number   1
_chemical_formula_structural   SiRu5W2
_chemical_formula_sum   'Si2 Ru10 W4'
_cell_volume   229.04697581
_cell_formula_units_Z   2
loop_
 _symmetry_equiv_pos_site_id
 _symmetry_equiv_pos_as_xyz
  1  'x, y, z'
loop_
 _atom_site_type_symbol
 _atom_site_label
 _atom_site_symmetry_multiplicity
 _atom_site_fract_x
 _atom_site_fract_y
 _atom_site_fract_z
 _atom_site_occupancy
  Si  Si0  1  0.000000  0.500000  0.500000  1
  Si  Si1  1  0.000000  0.000000  0.000000  1
  Ru  Ru2  1  0.000000  0.500000  0.000000  1
  Ru  Ru3  1  0.000000  0.000000  0.500000  1
  Ru  Ru4  1  0.000000  0.572458  0.248275  1
  Ru  Ru5  1  0.000000  0.427542  0.751725  1
  Ru  Ru6  1  0.000000  0.072458  0.251725  1
  Ru  Ru7  1  0.000000  0.927542  0.748275  1
  Ru  Ru8  1  0.500000  0.821129  0.105221  1
  Ru  Ru9  1  0.500000  0.178871  0.894779  1
  Ru  Ru10  1  0.500000  0.321129  0.394779  1
  Ru  Ru11  1  0.500000  0.678871  0.605221  1
  W  W12  1  0.500000  0.828280  0.357844  1
  W  W13  1  0.500000  0.171720  0.642156  1
  W  W14  1  0.500000  0.328280  0.142156  1
  W  W15  1  0.500000  0.671720  0.857844  1
