# generated using pymatgen
data_TcMo(IrRu2)2
_symmetry_space_group_name_H-M   'P 1'
_cell_length_a   5.51654200
_cell_length_b   5.49624058
_cell_length_c   4.36204100
_cell_angle_alpha   90.00000000
_cell_angle_beta   90.00000000
_cell_angle_gamma   120.12226177
_symmetry_Int_Tables_number   1
_chemical_formula_structural   TcMo(IrRu2)2
_chemical_formula_sum   'Tc1 Mo1 Ir2 Ru4'
_cell_volume   114.39753642
_cell_formula_units_Z   1
loop_
 _symmetry_equiv_pos_site_id
 _symmetry_equiv_pos_as_xyz
  1  'x, y, z'
loop_
 _atom_site_type_symbol
 _atom_site_label
 _atom_site_symmetry_multiplicity
 _atom_site_fract_x
 _atom_site_fract_y
 _atom_site_fract_z
 _atom_site_occupancy
  Tc  Tc0  1  0.665195  0.330389  0.250000  1
  Mo  Mo1  1  0.335015  0.670032  0.750000  1
  Ir  Ir2  1  0.165227  0.330456  0.250000  1
  Ir  Ir3  1  0.832119  0.664237  0.750000  1
  Ru  Ru4  1  0.668292  0.835718  0.250000  1
  Ru  Ru5  1  0.167425  0.835718  0.250000  1
  Ru  Ru6  1  0.337636  0.166725  0.750000  1
  Ru  Ru7  1  0.829090  0.166725  0.750000  1
