# generated using pymatgen
data_Nd3Pa3(Ni3Bi4)2
_symmetry_space_group_name_H-M   'P 1'
_cell_length_a   8.45448065
_cell_length_b   8.46077470
_cell_length_c   8.45448008
_cell_angle_alpha   109.69627024
_cell_angle_beta   109.40910452
_cell_angle_gamma   109.27838340
_symmetry_Int_Tables_number   1
_chemical_formula_structural   Nd3Pa3(Ni3Bi4)2
_chemical_formula_sum   'Nd3 Pa3 Ni6 Bi8'
_cell_volume   465.71230754
_cell_formula_units_Z   1
loop_
 _symmetry_equiv_pos_site_id
 _symmetry_equiv_pos_as_xyz
  1  'x, y, z'
loop_
 _atom_site_type_symbol
 _atom_site_label
 _atom_site_symmetry_multiplicity
 _atom_site_fract_x
 _atom_site_fract_y
 _atom_site_fract_z
 _atom_site_occupancy
  Nd  Nd0  1  0.627876  0.750000  0.377876  1
  Nd  Nd1  1  0.251473  0.127034  0.876796  1
  Nd  Nd2  1  0.749762  0.372966  0.624438  1
  Pa  Pa3  1  0.126086  0.879117  0.250013  1
  Pa  Pa4  1  0.370896  0.620883  0.746969  1
  Pa  Pa5  1  0.870741  0.250000  0.120741  1
  Ni  Ni6  1  0.644273  0.360836  0.237336  1
  Ni  Ni7  1  0.876500  0.139164  0.783437  1
  Ni  Ni8  1  0.366829  0.250000  0.616829  1
  Ni  Ni9  1  0.131019  0.750000  0.881019  1
  Ni  Ni10  1  0.231216  0.612493  0.370294  1
  Ni  Ni11  1  0.757801  0.887507  0.118722  1
  Bi  Bi12  1  0.336683  0.335731  0.333374  1
  Bi  Bi13  1  0.166823  0.503714  0.002493  1
  Bi  Bi14  1  0.997644  0.164269  0.500952  1
  Bi  Bi15  1  0.836171  0.833361  0.834257  1
  Bi  Bi16  1  0.498778  0.996286  0.163109  1
  Bi  Bi17  1  0.664387  0.504286  0.998432  1
  Bi  Bi18  1  0.494146  0.995714  0.660101  1
  Bi  Bi19  1  0.000896  0.666639  0.502810  1
