# generated using pymatgen
data_Dy6HoFeBr12
_symmetry_space_group_name_H-M   'P 1'
_cell_length_a   9.23579685
_cell_length_b   9.12456587
_cell_length_c   9.22682626
_cell_angle_alpha   106.68484000
_cell_angle_beta   106.95178726
_cell_angle_gamma   106.74268869
_symmetry_Int_Tables_number   1
_chemical_formula_structural   Dy6HoFeBr12
_chemical_formula_sum   'Dy6 Ho1 Fe1 Br12'
_cell_volume   651.18405544
_cell_formula_units_Z   1
loop_
 _symmetry_equiv_pos_site_id
 _symmetry_equiv_pos_as_xyz
  1  'x, y, z'
loop_
 _atom_site_type_symbol
 _atom_site_label
 _atom_site_symmetry_multiplicity
 _atom_site_fract_x
 _atom_site_fract_y
 _atom_site_fract_z
 _atom_site_occupancy
  Dy  Dy0  1  0.804467  0.519324  0.598185  1
  Dy  Dy1  1  0.406198  0.206636  0.479215  1
  Dy  Dy2  1  0.479368  0.402725  0.196100  1
  Dy  Dy3  1  0.593243  0.792815  0.520350  1
  Dy  Dy4  1  0.999372  0.000752  0.000068  1
  Dy  Dy5  1  0.521019  0.596809  0.803853  1
  Ho  Ho6  1  0.197614  0.480632  0.402582  1
  Fe  Fe7  1  0.500807  0.499796  0.500110  1
  Br  Br8  1  0.666244  0.961200  0.883361  1
  Br  Br9  1  0.719995  0.177195  0.569064  1
  Br  Br10  1  0.885093  0.665687  0.962560  1
  Br  Br11  1  0.279083  0.821309  0.430570  1
  Br  Br12  1  0.178643  0.571149  0.721225  1
  Br  Br13  1  0.041158  0.116711  0.333766  1
  Br  Br14  1  0.572233  0.724051  0.181276  1
  Br  Br15  1  0.115387  0.335881  0.038652  1
  Br  Br16  1  0.822896  0.429371  0.278420  1
  Br  Br17  1  0.426683  0.275317  0.818230  1
  Br  Br18  1  0.958451  0.884237  0.666549  1
  Br  Br19  1  0.332047  0.038406  0.115865  1
