# generated using pymatgen
data_NaMn2(FeSb6)2
_symmetry_space_group_name_H-M   'P 1'
_cell_length_a   8.00503817
_cell_length_b   8.00503944
_cell_length_c   8.06396634
_cell_angle_alpha   109.19905289
_cell_angle_beta   109.31898011
_cell_angle_gamma   109.60087224
_symmetry_Int_Tables_number   1
_chemical_formula_structural   NaMn2(FeSb6)2
_chemical_formula_sum   'Na1 Mn2 Fe2 Sb12'
_cell_volume   399.22644349
_cell_formula_units_Z   1
loop_
 _symmetry_equiv_pos_site_id
 _symmetry_equiv_pos_as_xyz
  1  'x, y, z'
loop_
 _atom_site_type_symbol
 _atom_site_label
 _atom_site_symmetry_multiplicity
 _atom_site_fract_x
 _atom_site_fract_y
 _atom_site_fract_z
 _atom_site_occupancy
  Na  Na0  1  0.000000  0.000000  0.000000  1
  Mn  Mn1  1  0.000000  0.500000  0.000000  1
  Mn  Mn2  1  0.500000  0.000000  0.000000  1
  Fe  Fe3  1  0.000000  0.000000  0.500000  1
  Fe  Fe4  1  0.500000  0.500000  0.500000  1
  Sb  Sb5  1  0.671686  0.822856  0.165465  1
  Sb  Sb6  1  0.845888  0.346328  0.192216  1
  Sb  Sb7  1  0.503421  0.833660  0.655251  1
  Sb  Sb8  1  0.837533  0.671693  0.509226  1
  Sb  Sb9  1  0.496579  0.166340  0.344749  1
  Sb  Sb10  1  0.154112  0.653672  0.807784  1
  Sb  Sb11  1  0.821590  0.151830  0.655251  1
  Sb  Sb12  1  0.178410  0.848170  0.344749  1
  Sb  Sb13  1  0.162467  0.328307  0.490774  1
  Sb  Sb14  1  0.657391  0.506221  0.834535  1
  Sb  Sb15  1  0.342609  0.493779  0.165465  1
  Sb  Sb16  1  0.328314  0.177144  0.834535  1
