# generated using pymatgen
data_Ba2LiOsN4
_symmetry_space_group_name_H-M   'P 1'
_cell_length_a   6.02279100
_cell_length_b   6.57824933
_cell_length_c   7.63515577
_cell_angle_alpha   69.71060510
_cell_angle_beta   90.00000000
_cell_angle_gamma   90.00000000
_symmetry_Int_Tables_number   1
_chemical_formula_structural   Ba2LiOsN4
_chemical_formula_sum   'Ba4 Li2 Os2 N8'
_cell_volume   283.73124489
_cell_formula_units_Z   2
loop_
 _symmetry_equiv_pos_site_id
 _symmetry_equiv_pos_as_xyz
  1  'x, y, z'
loop_
 _atom_site_type_symbol
 _atom_site_label
 _atom_site_symmetry_multiplicity
 _atom_site_fract_x
 _atom_site_fract_y
 _atom_site_fract_z
 _atom_site_occupancy
  Ba  Ba0  1  0.250000  0.265683  0.054713  1
  Ba  Ba1  1  0.750000  0.734317  0.945287  1
  Ba  Ba2  1  0.750000  0.812064  0.418954  1
  Ba  Ba3  1  0.250000  0.187936  0.581046  1
  Li  Li4  1  0.750000  0.352516  0.366785  1
  Li  Li5  1  0.250000  0.647484  0.633215  1
  Os  Os6  1  0.250000  0.710426  0.212529  1
  Os  Os7  1  0.750000  0.289574  0.787471  1
  N  N8  1  0.504267  0.464588  0.734411  1
  N  N9  1  0.004267  0.535412  0.265589  1
  N  N10  1  0.495733  0.535412  0.265589  1
  N  N11  1  0.995733  0.464588  0.734411  1
  N  N12  1  0.750000  0.120636  0.634331  1
  N  N13  1  0.250000  0.879364  0.365669  1
  N  N14  1  0.750000  0.126834  0.034143  1
  N  N15  1  0.250000  0.873166  0.965857  1
