# generated using pymatgen
data_TmNi3P2
_symmetry_space_group_name_H-M   'P 1'
_cell_length_a   3.74063200
_cell_length_b   10.42835100
_cell_length_c   12.25105000
_cell_angle_alpha   90.00000000
_cell_angle_beta   90.00000000
_cell_angle_gamma   90.00000000
_symmetry_Int_Tables_number   1
_chemical_formula_structural   TmNi3P2
_chemical_formula_sum   'Tm6 Ni18 P12'
_cell_volume   477.89659641
_cell_formula_units_Z   6
loop_
 _symmetry_equiv_pos_site_id
 _symmetry_equiv_pos_as_xyz
  1  'x, y, z'
loop_
 _atom_site_type_symbol
 _atom_site_label
 _atom_site_symmetry_multiplicity
 _atom_site_fract_x
 _atom_site_fract_y
 _atom_site_fract_z
 _atom_site_occupancy
  Tm  Tm0  1  0.000000  0.500000  0.522273  1
  Tm  Tm1  1  0.500000  0.000000  0.477727  1
  Tm  Tm2  1  0.500000  0.817710  0.205862  1
  Tm  Tm3  1  0.500000  0.182290  0.205862  1
  Tm  Tm4  1  0.000000  0.682290  0.794138  1
  Tm  Tm5  1  0.000000  0.317710  0.794138  1
  Ni  Ni6  1  0.500000  0.500000  0.159191  1
  Ni  Ni7  1  0.000000  0.000000  0.840809  1
  Ni  Ni8  1  0.500000  0.500000  0.700156  1
  Ni  Ni9  1  0.000000  0.000000  0.299844  1
  Ni  Ni10  1  0.000000  0.500000  0.984754  1
  Ni  Ni11  1  0.500000  0.000000  0.015246  1
  Ni  Ni12  1  0.500000  0.332471  0.995876  1
  Ni  Ni13  1  0.500000  0.667529  0.995876  1
  Ni  Ni14  1  0.000000  0.167529  0.004124  1
  Ni  Ni15  1  0.000000  0.832471  0.004124  1
  Ni  Ni16  1  0.500000  0.300969  0.429703  1
  Ni  Ni17  1  0.500000  0.699031  0.429703  1
  Ni  Ni18  1  0.000000  0.199031  0.570297  1
  Ni  Ni19  1  0.000000  0.800969  0.570297  1
  Ni  Ni20  1  0.500000  0.878527  0.710533  1
  Ni  Ni21  1  0.500000  0.121473  0.710533  1
  Ni  Ni22  1  0.000000  0.621473  0.289467  1
  Ni  Ni23  1  0.000000  0.378527  0.289467  1
  P  P24  1  0.500000  0.500000  0.876486  1
  P  P25  1  0.000000  0.000000  0.123514  1
  P  P26  1  0.500000  0.500000  0.345920  1
  P  P27  1  0.000000  0.000000  0.654080  1
  P  P28  1  0.500000  0.314342  0.614981  1
  P  P29  1  0.500000  0.685658  0.614981  1
  P  P30  1  0.000000  0.185658  0.385019  1
  P  P31  1  0.000000  0.814342  0.385019  1
  P  P32  1  0.500000  0.847042  0.891278  1
  P  P33  1  0.500000  0.152958  0.891278  1
  P  P34  1  0.000000  0.652958  0.108722  1
  P  P35  1  0.000000  0.347042  0.108722  1
