# generated using pymatgen
data_CeHo7(Si3Pd)4
_symmetry_space_group_name_H-M   'P 1'
_cell_length_a   8.15335700
_cell_length_b   8.15335700
_cell_length_c   8.10706900
_cell_angle_alpha   90.00000000
_cell_angle_beta   90.00000000
_cell_angle_gamma   120.00000406
_symmetry_Int_Tables_number   1
_chemical_formula_structural   CeHo7(Si3Pd)4
_chemical_formula_sum   'Ce1 Ho7 Si12 Pd4'
_cell_volume   466.73180936
_cell_formula_units_Z   1
loop_
 _symmetry_equiv_pos_site_id
 _symmetry_equiv_pos_as_xyz
  1  'x, y, z'
loop_
 _atom_site_type_symbol
 _atom_site_label
 _atom_site_symmetry_multiplicity
 _atom_site_fract_x
 _atom_site_fract_y
 _atom_site_fract_z
 _atom_site_occupancy
  Ce  Ce0  1  0.000000  0.000000  0.250000  1
  Ho  Ho1  1  0.499537  0.500463  0.750000  1
  Ho  Ho2  1  0.500461  0.499539  0.250000  1
  Ho  Ho3  1  0.000927  0.500463  0.750000  1
  Ho  Ho4  1  0.999078  0.499539  0.250000  1
  Ho  Ho5  1  0.499537  0.999073  0.750000  1
  Ho  Ho6  1  0.500461  0.000922  0.250000  1
  Ho  Ho7  1  0.000000  0.000000  0.750000  1
  Si  Si8  1  0.834417  0.165583  0.998513  1
  Si  Si9  1  0.165574  0.834426  0.998420  1
  Si  Si10  1  0.331166  0.165583  0.998513  1
  Si  Si11  1  0.165574  0.834426  0.501580  1
  Si  Si12  1  0.668852  0.834426  0.998420  1
  Si  Si13  1  0.834417  0.165583  0.501487  1
  Si  Si14  1  0.834417  0.668834  0.998513  1
  Si  Si15  1  0.668852  0.834426  0.501580  1
  Si  Si16  1  0.165574  0.331148  0.998420  1
  Si  Si17  1  0.331166  0.165583  0.501487  1
  Si  Si18  1  0.165574  0.331148  0.501580  1
  Si  Si19  1  0.834417  0.668834  0.501487  1
  Pd  Pd20  1  0.666667  0.333333  0.998533  1
  Pd  Pd21  1  0.333333  0.666667  0.001228  1
  Pd  Pd22  1  0.333333  0.666667  0.498772  1
  Pd  Pd23  1  0.666667  0.333333  0.501467  1
