# generated using pymatgen
data_VPt5Rh3
_symmetry_space_group_name_H-M   'P 1'
_cell_length_a   6.20481639
_cell_length_b   6.20481575
_cell_length_c   6.15378882
_cell_angle_alpha   95.69641012
_cell_angle_beta   95.69641449
_cell_angle_gamma   143.42885443
_symmetry_Int_Tables_number   1
_chemical_formula_structural   VPt5Rh3
_chemical_formula_sum   'V1 Pt5 Rh3'
_cell_volume   133.91144328
_cell_formula_units_Z   1
loop_
 _symmetry_equiv_pos_site_id
 _symmetry_equiv_pos_as_xyz
  1  'x, y, z'
loop_
 _atom_site_type_symbol
 _atom_site_label
 _atom_site_symmetry_multiplicity
 _atom_site_fract_x
 _atom_site_fract_y
 _atom_site_fract_z
 _atom_site_occupancy
  V  V0  1  0.003728  0.996272  0.000000  1
  Pt  Pt1  1  0.339054  0.660946  0.000000  1
  Pt  Pt2  1  0.001725  0.326454  0.328178  1
  Pt  Pt3  1  0.998740  0.676063  0.674803  1
  Pt  Pt4  1  0.673546  0.998275  0.671822  1
  Pt  Pt5  1  0.323937  0.001260  0.325197  1
  Rh  Rh6  1  0.340671  0.339288  0.679959  1
  Rh  Rh7  1  0.660712  0.659329  0.320041  1
  Rh  Rh8  1  0.657887  0.342113  0.000000  1
