# generated using pymatgen
data_Sc3Ti3AsP2
_symmetry_space_group_name_H-M   'P 1'
_cell_length_a   6.87894800
_cell_length_b   6.87894688
_cell_length_c   3.75384600
_cell_angle_alpha   90.00000000
_cell_angle_beta   90.00000000
_cell_angle_gamma   119.99999578
_symmetry_Int_Tables_number   1
_chemical_formula_structural   Sc3Ti3AsP2
_chemical_formula_sum   'Sc3 Ti3 As1 P2'
_cell_volume   153.83355773
_cell_formula_units_Z   1
loop_
 _symmetry_equiv_pos_site_id
 _symmetry_equiv_pos_as_xyz
  1  'x, y, z'
loop_
 _atom_site_type_symbol
 _atom_site_label
 _atom_site_symmetry_multiplicity
 _atom_site_fract_x
 _atom_site_fract_y
 _atom_site_fract_z
 _atom_site_occupancy
  Sc  Sc0  1  0.596052  0.993795  0.500000  1
  Sc  Sc1  1  0.397743  0.403948  0.500000  1
  Sc  Sc2  1  0.006205  0.602257  0.500000  1
  Ti  Ti3  1  0.002892  0.239784  0.000000  1
  Ti  Ti4  1  0.236892  0.997108  0.000000  1
  Ti  Ti5  1  0.760216  0.763108  0.000000  1
  As  As6  1  0.666667  0.333333  0.000000  1
  P  P7  1  0.333333  0.666667  0.000000  1
  P  P8  1  0.000000  0.000000  0.500000  1
