# generated using pymatgen
data_AcNd4Co4I
_symmetry_space_group_name_H-M   'P 1'
_cell_length_a   4.05350600
_cell_length_b   4.05350485
_cell_length_c   19.30983200
_cell_angle_alpha   90.00000000
_cell_angle_beta   90.00000000
_cell_angle_gamma   119.99997672
_symmetry_Int_Tables_number   1
_chemical_formula_structural   AcNd4Co4I
_chemical_formula_sum   'Ac1 Nd4 Co4 I1'
_cell_volume   274.77090638
_cell_formula_units_Z   1
loop_
 _symmetry_equiv_pos_site_id
 _symmetry_equiv_pos_as_xyz
  1  'x, y, z'
loop_
 _atom_site_type_symbol
 _atom_site_label
 _atom_site_symmetry_multiplicity
 _atom_site_fract_x
 _atom_site_fract_y
 _atom_site_fract_z
 _atom_site_occupancy
  Ac  Ac0  1  0.333333  0.666667  0.250000  1
  Nd  Nd1  1  0.000000  0.000000  0.077971  1
  Nd  Nd2  1  0.000000  0.000000  0.887174  1
  Nd  Nd3  1  0.000000  0.000000  0.612826  1
  Nd  Nd4  1  0.000000  0.000000  0.422029  1
  Co  Co5  1  0.333333  0.666667  0.519270  1
  Co  Co6  1  0.666667  0.333333  0.518705  1
  Co  Co7  1  0.666667  0.333333  0.981295  1
  Co  Co8  1  0.333333  0.666667  0.980730  1
  I  I9  1  0.666667  0.333333  0.750000  1
