# generated using pymatgen
data_Y5Pa(SnIr)6
_symmetry_space_group_name_H-M   'P 1'
_cell_length_a   7.50621661
_cell_length_b   7.57923254
_cell_length_c   7.89033800
_cell_angle_alpha   90.00000000
_cell_angle_beta   90.00000000
_cell_angle_gamma   120.31906856
_symmetry_Int_Tables_number   1
_chemical_formula_structural   Y5Pa(SnIr)6
_chemical_formula_sum   'Y5 Pa1 Sn6 Ir6'
_cell_volume   387.49601928
_cell_formula_units_Z   1
loop_
 _symmetry_equiv_pos_site_id
 _symmetry_equiv_pos_as_xyz
  1  'x, y, z'
loop_
 _atom_site_type_symbol
 _atom_site_label
 _atom_site_symmetry_multiplicity
 _atom_site_fract_x
 _atom_site_fract_y
 _atom_site_fract_z
 _atom_site_occupancy
  Y  Y0  1  0.403887  0.003970  0.250000  1
  Y  Y1  1  0.594077  0.590043  0.750000  1
  Y  Y2  1  0.597226  0.598635  0.250000  1
  Y  Y3  1  0.001199  0.406744  0.750000  1
  Y  Y4  1  0.405747  0.994969  0.750000  1
  Pa  Pa5  1  0.998497  0.412024  0.250000  1
  Sn  Sn6  1  0.265752  0.259449  0.501700  1
  Sn  Sn7  1  0.265752  0.259449  0.998300  1
  Sn  Sn8  1  0.733954  0.992914  0.998336  1
  Sn  Sn9  1  0.000299  0.748181  0.500020  1
  Sn  Sn10  1  0.733954  0.992914  0.501664  1
  Sn  Sn11  1  0.000299  0.748181  0.999980  1
  Ir  Ir12  1  0.684120  0.336233  0.489981  1
  Ir  Ir13  1  0.684120  0.336233  0.010019  1
  Ir  Ir14  1  0.315399  0.652055  0.013679  1
  Ir  Ir15  1  0.315399  0.652055  0.486321  1
  Ir  Ir16  1  0.000239  0.000380  0.750000  1
  Ir  Ir17  1  0.000079  0.015568  0.250000  1
