# generated using pymatgen
data_Pr12TcIrI17
_symmetry_space_group_name_H-M   'P 1'
_cell_length_a   10.13596221
_cell_length_b   12.16640272
_cell_length_c   12.20955580
_cell_angle_alpha   93.59661349
_cell_angle_beta   104.70833353
_cell_angle_gamma   114.36814809
_symmetry_Int_Tables_number   1
_chemical_formula_structural   Pr12TcIrI17
_chemical_formula_sum   'Pr12 Tc1 Ir1 I17'
_cell_volume   1302.39172233
_cell_formula_units_Z   1
loop_
 _symmetry_equiv_pos_site_id
 _symmetry_equiv_pos_as_xyz
  1  'x, y, z'
loop_
 _atom_site_type_symbol
 _atom_site_label
 _atom_site_symmetry_multiplicity
 _atom_site_fract_x
 _atom_site_fract_y
 _atom_site_fract_z
 _atom_site_occupancy
  Pr  Pr0  1  0.058508  0.512922  0.323405  1
  Pr  Pr1  1  0.988190  0.810819  0.580256  1
  Pr  Pr2  1  0.642311  0.240384  0.285380  1
  Pr  Pr3  1  0.012302  0.188934  0.419982  1
  Pr  Pr4  1  0.224641  0.669726  0.991940  1
  Pr  Pr5  1  0.261936  0.990817  0.893210  1
  Pr  Pr6  1  0.352220  0.759674  0.716630  1
  Pr  Pr7  1  0.938905  0.484544  0.675769  1
  Pr  Pr8  1  0.739198  0.012016  0.106737  1
  Pr  Pr9  1  0.154564  0.288006  0.149634  1
  Pr  Pr10  1  0.775606  0.330529  0.008981  1
  Pr  Pr11  1  0.851780  0.712682  0.848323  1
  Tc  Tc12  1  0.104691  0.738261  0.786107  1
  Ir  Ir13  1  0.896390  0.261684  0.214764  1
  I  I14  1  0.784973  0.527844  0.417901  1
  I  I15  1  0.641961  0.418782  0.759964  1
  I  I16  1  0.842933  0.896693  0.323395  1
  I  I17  1  0.325678  0.212045  0.368552  1
  I  I18  1  0.156198  0.105182  0.673941  1
  I  I19  1  0.587664  0.052775  0.844337  1
  I  I20  1  0.753863  0.180381  0.535738  1
  I  I21  1  0.548040  0.709277  0.953775  1
  I  I22  1  0.358328  0.579422  0.242859  1
  I  I23  1  0.213641  0.471564  0.581136  1
  I  I24  1  0.054247  0.367856  0.897876  1
  I  I25  1  0.453047  0.295545  0.048508  1
  I  I26  1  0.999196  0.999446  0.999862  1
  I  I27  1  0.243716  0.814959  0.461977  1
  I  I28  1  0.414175  0.948627  0.156164  1
  I  I29  1  0.676317  0.787089  0.630540  1
  I  I30  1  0.944780  0.631514  0.102360  1
