# generated using pymatgen
data_Tb16Lu4Ir11Pt
_symmetry_space_group_name_H-M   'P 1'
_cell_length_a   10.94823045
_cell_length_b   10.94823025
_cell_length_c   6.34790900
_cell_angle_alpha   89.98365105
_cell_angle_beta   89.98365105
_cell_angle_gamma   89.77581431
_symmetry_Int_Tables_number   1
_chemical_formula_structural   Tb16Lu4Ir11Pt
_chemical_formula_sum   'Tb16 Lu4 Ir11 Pt1'
_cell_volume   760.87827690
_cell_formula_units_Z   1
loop_
 _symmetry_equiv_pos_site_id
 _symmetry_equiv_pos_as_xyz
  1  'x, y, z'
loop_
 _atom_site_type_symbol
 _atom_site_label
 _atom_site_symmetry_multiplicity
 _atom_site_fract_x
 _atom_site_fract_y
 _atom_site_fract_z
 _atom_site_occupancy
  Tb  Tb0  1  0.289043  0.087070  0.378895  1
  Tb  Tb1  1  0.290388  0.912080  0.878033  1
  Tb  Tb2  1  0.707553  0.085653  0.874411  1
  Tb  Tb3  1  0.708050  0.908723  0.380049  1
  Tb  Tb4  1  0.586891  0.789342  0.879972  1
  Tb  Tb5  1  0.583638  0.210205  0.379031  1
  Tb  Tb6  1  0.411678  0.789505  0.379043  1
  Tb  Tb7  1  0.411760  0.209761  0.878883  1
  Tb  Tb8  1  0.210658  0.413109  0.620028  1
  Tb  Tb9  1  0.210495  0.588322  0.120957  1
  Tb  Tb10  1  0.789795  0.416362  0.120969  1
  Tb  Tb11  1  0.790239  0.588240  0.621117  1
  Tb  Tb12  1  0.912930  0.710957  0.121105  1
  Tb  Tb13  1  0.914347  0.292447  0.625589  1
  Tb  Tb14  1  0.087920  0.709612  0.621967  1
  Tb  Tb15  1  0.091277  0.291950  0.119951  1
  Lu  Lu16  1  0.000569  0.998184  0.501130  1
  Lu  Lu17  1  0.001816  0.999431  0.998870  1
  Lu  Lu18  1  0.499943  0.499292  0.999654  1
  Lu  Lu19  1  0.500708  0.500057  0.500346  1
  Ir  Ir20  1  0.849180  0.851107  0.750719  1
  Ir  Ir21  1  0.148893  0.150820  0.749281  1
  Ir  Ir22  1  0.150420  0.849580  0.250000  1
  Ir  Ir23  1  0.651877  0.348123  0.750000  1
  Ir  Ir24  1  0.650844  0.649785  0.249749  1
  Ir  Ir25  1  0.350215  0.349156  0.250251  1
  Ir  Ir26  1  0.349442  0.650558  0.750000  1
  Ir  Ir27  1  0.500042  0.999759  0.125555  1
  Ir  Ir28  1  0.499880  0.999881  0.623716  1
  Ir  Ir29  1  0.000119  0.500120  0.876284  1
  Ir  Ir30  1  0.000241  0.499958  0.374445  1
  Pt  Pt31  1  0.849152  0.150848  0.250000  1
