# generated using pymatgen
data_ErTm4Ga2Bi
_symmetry_space_group_name_H-M   'P 1'
_cell_length_a   8.63168105
_cell_length_b   8.66271229
_cell_length_c   6.49209700
_cell_angle_alpha   90.00000000
_cell_angle_beta   90.00000000
_cell_angle_gamma   120.11899319
_symmetry_Int_Tables_number   1
_chemical_formula_structural   ErTm4Ga2Bi
_chemical_formula_sum   'Er2 Tm8 Ga4 Bi2'
_cell_volume   419.89713760
_cell_formula_units_Z   2
loop_
 _symmetry_equiv_pos_site_id
 _symmetry_equiv_pos_as_xyz
  1  'x, y, z'
loop_
 _atom_site_type_symbol
 _atom_site_label
 _atom_site_symmetry_multiplicity
 _atom_site_fract_x
 _atom_site_fract_y
 _atom_site_fract_z
 _atom_site_occupancy
  Er  Er0  1  0.233360  0.250892  0.750000  1
  Er  Er1  1  0.233360  0.982468  0.250000  1
  Tm  Tm2  1  0.982132  0.748581  0.750000  1
  Tm  Tm3  1  0.982132  0.233552  0.250000  1
  Tm  Tm4  1  0.768659  0.769391  0.250000  1
  Tm  Tm5  1  0.768659  0.999268  0.750000  1
  Tm  Tm6  1  0.329874  0.664938  0.500000  1
  Tm  Tm7  1  0.692570  0.346285  0.000000  1
  Tm  Tm8  1  0.692570  0.346285  0.500000  1
  Tm  Tm9  1  0.329874  0.664938  0.000000  1
  Ga  Ga10  1  0.001534  0.601077  0.250000  1
  Ga  Ga11  1  0.001534  0.400457  0.750000  1
  Ga  Ga12  1  0.596572  0.601404  0.750000  1
  Ga  Ga13  1  0.596572  0.995167  0.250000  1
  Bi  Bi14  1  0.395299  0.006063  0.750000  1
  Bi  Bi15  1  0.395299  0.389236  0.250000  1
