# generated using pymatgen
data_TbEu4Y3(BO4)4
_symmetry_space_group_name_H-M   'P 1'
_cell_length_a   3.68126500
_cell_length_b   9.72763107
_cell_length_c   10.91499719
_cell_angle_alpha   89.94640244
_cell_angle_beta   90.00000000
_cell_angle_gamma   90.00000000
_symmetry_Int_Tables_number   1
_chemical_formula_structural   TbEu4Y3(BO4)4
_chemical_formula_sum   'Tb1 Eu4 Y3 B4 O16'
_cell_volume   390.86574500
_cell_formula_units_Z   1
loop_
 _symmetry_equiv_pos_site_id
 _symmetry_equiv_pos_as_xyz
  1  'x, y, z'
loop_
 _atom_site_type_symbol
 _atom_site_label
 _atom_site_symmetry_multiplicity
 _atom_site_fract_x
 _atom_site_fract_y
 _atom_site_fract_z
 _atom_site_occupancy
  Tb  Tb0  1  0.250000  0.083582  0.111280  1
  Eu  Eu1  1  0.250000  0.657674  0.080823  1
  Eu  Eu2  1  0.750000  0.342620  0.918806  1
  Eu  Eu3  1  0.750000  0.157732  0.419248  1
  Eu  Eu4  1  0.250000  0.842323  0.580900  1
  Y  Y5  1  0.750000  0.916921  0.888434  1
  Y  Y6  1  0.750000  0.582815  0.388699  1
  Y  Y7  1  0.250000  0.417150  0.611247  1
  B  B8  1  0.250000  0.364611  0.206214  1
  B  B9  1  0.750000  0.635489  0.794091  1
  B  B10  1  0.750000  0.864361  0.294280  1
  B  B11  1  0.250000  0.135489  0.705859  1
  O  O12  1  0.250000  0.492732  0.261769  1
  O  O13  1  0.750000  0.507590  0.738033  1
  O  O14  1  0.750000  0.992265  0.238183  1
  O  O15  1  0.250000  0.007534  0.761902  1
  O  O16  1  0.250000  0.243571  0.274381  1
  O  O17  1  0.750000  0.757147  0.726665  1
  O  O18  1  0.750000  0.742705  0.226826  1
  O  O19  1  0.250000  0.257219  0.773184  1
  O  O20  1  0.250000  0.354389  0.077821  1
  O  O21  1  0.750000  0.644751  0.922434  1
  O  O22  1  0.750000  0.854830  0.422625  1
  O  O23  1  0.250000  0.144988  0.577556  1
  O  O24  1  0.250000  0.614236  0.502364  1
  O  O25  1  0.750000  0.385779  0.497642  1
  O  O26  1  0.750000  0.114090  0.996667  1
  O  O27  1  0.250000  0.885408  0.002065  1
