# generated using pymatgen
data_Ba(CeSe2)2
_symmetry_space_group_name_H-M   'P 1'
_cell_length_a   8.05351563
_cell_length_b   8.04132201
_cell_length_c   7.92337239
_cell_angle_alpha   109.48415250
_cell_angle_beta   108.55402973
_cell_angle_gamma   110.13034043
_symmetry_Int_Tables_number   1
_chemical_formula_structural   Ba(CeSe2)2
_chemical_formula_sum   'Ba2 Ce4 Se8'
_cell_volume   396.13736511
_cell_formula_units_Z   2
loop_
 _symmetry_equiv_pos_site_id
 _symmetry_equiv_pos_as_xyz
  1  'x, y, z'
loop_
 _atom_site_type_symbol
 _atom_site_label
 _atom_site_symmetry_multiplicity
 _atom_site_fract_x
 _atom_site_fract_y
 _atom_site_fract_z
 _atom_site_occupancy
  Ba  Ba0  1  0.245857  0.117961  0.871175  1
  Ba  Ba1  1  0.127826  0.881992  0.253290  1
  Ce  Ce2  1  0.752249  0.375755  0.629461  1
  Ce  Ce3  1  0.874027  0.246210  0.122672  1
  Ce  Ce4  1  0.627335  0.753284  0.376301  1
  Ce  Ce5  1  0.376547  0.625117  0.753894  1
  Se  Se6  1  0.523150  0.006644  0.656857  1
  Se  Se7  1  0.991804  0.625580  0.495702  1
  Se  Se8  1  0.647948  0.506527  0.000238  1
  Se  Se9  1  0.985794  0.162671  0.494496  1
  Se  Se10  1  0.822895  0.837126  0.831624  1
  Se  Se11  1  0.366087  0.374659  0.370279  1
  Se  Se12  1  0.142254  0.493751  0.994076  1
  Se  Se13  1  0.516227  0.992723  0.149934  1
