# generated using pymatgen
data_Dy3Er2In4RuPt
_symmetry_space_group_name_H-M   'P 1'
_cell_length_a   3.62661600
_cell_length_b   8.06967838
_cell_length_c   18.26646857
_cell_angle_alpha   89.90824838
_cell_angle_beta   90.00000000
_cell_angle_gamma   90.00000000
_symmetry_Int_Tables_number   1
_chemical_formula_structural   Dy3Er2In4RuPt
_chemical_formula_sum   'Dy6 Er4 In8 Ru2 Pt2'
_cell_volume   534.57892860
_cell_formula_units_Z   2
loop_
 _symmetry_equiv_pos_site_id
 _symmetry_equiv_pos_as_xyz
  1  'x, y, z'
loop_
 _atom_site_type_symbol
 _atom_site_label
 _atom_site_symmetry_multiplicity
 _atom_site_fract_x
 _atom_site_fract_y
 _atom_site_fract_z
 _atom_site_occupancy
  Dy  Dy0  1  0.000000  0.235124  0.222286  1
  Dy  Dy1  1  0.000000  0.764876  0.777714  1
  Dy  Dy2  1  0.000000  0.248318  0.720423  1
  Dy  Dy3  1  0.000000  0.751682  0.279577  1
  Dy  Dy4  1  0.000000  0.000000  0.000000  1
  Dy  Dy5  1  0.000000  0.500000  0.500000  1
  Er  Er6  1  0.000000  0.116067  0.412200  1
  Er  Er7  1  0.000000  0.883933  0.587800  1
  Er  Er8  1  0.000000  0.381247  0.913266  1
  Er  Er9  1  0.000000  0.618753  0.086734  1
  In  In10  1  0.500000  0.424179  0.351520  1
  In  In11  1  0.500000  0.575821  0.648480  1
  In  In12  1  0.500000  0.068179  0.849910  1
  In  In13  1  0.500000  0.931821  0.150090  1
  In  In14  1  0.500000  0.294086  0.065386  1
  In  In15  1  0.500000  0.705914  0.934614  1
  In  In16  1  0.500000  0.205107  0.568216  1
  In  In17  1  0.500000  0.794893  0.431784  1
  Ru  Ru18  1  0.500000  0.020418  0.304468  1
  Ru  Ru19  1  0.500000  0.979582  0.695532  1
  Pt  Pt20  1  0.500000  0.477488  0.803846  1
  Pt  Pt21  1  0.500000  0.522512  0.196154  1
