# generated using pymatgen
data_Nb3SeBr6Cl
_symmetry_space_group_name_H-M   'P 1'
_cell_length_a   7.20414057
_cell_length_b   7.18787193
_cell_length_c   6.97274628
_cell_angle_alpha   90.00000103
_cell_angle_beta   89.96498921
_cell_angle_gamma   119.92532781
_symmetry_Int_Tables_number   1
_chemical_formula_structural   Nb3SeBr6Cl
_chemical_formula_sum   'Nb3 Se1 Br6 Cl1'
_cell_volume   312.92710853
_cell_formula_units_Z   1
loop_
 _symmetry_equiv_pos_site_id
 _symmetry_equiv_pos_as_xyz
  1  'x, y, z'
loop_
 _atom_site_type_symbol
 _atom_site_label
 _atom_site_symmetry_multiplicity
 _atom_site_fract_x
 _atom_site_fract_y
 _atom_site_fract_z
 _atom_site_occupancy
  Nb  Nb0  1  0.604453  0.802227  0.219348  1
  Nb  Nb1  1  0.196505  0.395690  0.219652  1
  Nb  Nb2  1  0.196505  0.800814  0.219652  1
  Se  Se3  1  0.333830  0.666915  0.491772  1
  Br  Br4  1  0.499376  0.001195  0.973414  1
  Br  Br5  1  0.998076  0.999038  0.015043  1
  Br  Br6  1  0.333679  0.166840  0.424106  1
  Br  Br7  1  0.832296  0.167297  0.426266  1
  Br  Br8  1  0.832296  0.665001  0.426266  1
  Br  Br9  1  0.499376  0.498181  0.973414  1
  Cl  Cl10  1  0.006941  0.503469  0.995969  1
