# generated using pymatgen
data_Al5V12Zn(CuN2)2
_symmetry_space_group_name_H-M   'P 1'
_cell_length_a   6.58453029
_cell_length_b   6.58419329
_cell_length_c   6.58533181
_cell_angle_alpha   90.06764343
_cell_angle_beta   89.96777932
_cell_angle_gamma   89.97030810
_symmetry_Int_Tables_number   1
_chemical_formula_structural   Al5V12Zn(CuN2)2
_chemical_formula_sum   'Al5 V12 Zn1 Cu2 N4'
_cell_volume   285.49900812
_cell_formula_units_Z   1
loop_
 _symmetry_equiv_pos_site_id
 _symmetry_equiv_pos_as_xyz
  1  'x, y, z'
loop_
 _atom_site_type_symbol
 _atom_site_label
 _atom_site_symmetry_multiplicity
 _atom_site_fract_x
 _atom_site_fract_y
 _atom_site_fract_z
 _atom_site_occupancy
  Al  Al0  1  0.178309  0.819084  0.328853  1
  Al  Al1  1  0.320406  0.167528  0.815737  1
  Al  Al2  1  0.829542  0.326437  0.187351  1
  Al  Al3  1  0.678713  0.684552  0.665958  1
  Al  Al4  1  0.573366  0.427890  0.926346  1
  V  V5  1  0.790930  0.961064  0.376264  1
  V  V6  1  0.709176  0.041104  0.876927  1
  V  V7  1  0.211746  0.461136  0.121160  1
  V  V8  1  0.290714  0.537407  0.628523  1
  V  V9  1  0.958666  0.376190  0.790068  1
  V  V10  1  0.039268  0.877495  0.708778  1
  V  V11  1  0.462281  0.128309  0.209519  1
  V  V12  1  0.538994  0.620782  0.287992  1
  V  V13  1  0.378064  0.788213  0.961223  1
  V  V14  1  0.871415  0.708766  0.037377  1
  V  V15  1  0.122581  0.209015  0.460047  1
  V  V16  1  0.622767  0.290511  0.541878  1
  Zn  Zn17  1  0.072070  0.068647  0.072916  1
  Cu  Cu18  1  0.428506  0.927320  0.568365  1
  Cu  Cu19  1  0.931203  0.573400  0.429622  1
  N  N20  1  0.872122  0.126711  0.626453  1
  N  N21  1  0.625330  0.874925  0.129309  1
  N  N22  1  0.123640  0.629425  0.873362  1
  N  N23  1  0.370192  0.374088  0.375970  1
