# generated using pymatgen
data_LiTb(PSe3)2
_symmetry_space_group_name_H-M   'P 1'
_cell_length_a   14.98491941
_cell_length_b   14.98491886
_cell_length_c   14.98492100
_cell_angle_alpha   25.76721850
_cell_angle_beta   25.76722293
_cell_angle_gamma   25.76722245
_symmetry_Int_Tables_number   1
_chemical_formula_structural   LiTb(PSe3)2
_chemical_formula_sum   'Li2 Tb2 P4 Se12'
_cell_volume   559.96147133
_cell_formula_units_Z   2
loop_
 _symmetry_equiv_pos_site_id
 _symmetry_equiv_pos_as_xyz
  1  'x, y, z'
loop_
 _atom_site_type_symbol
 _atom_site_label
 _atom_site_symmetry_multiplicity
 _atom_site_fract_x
 _atom_site_fract_y
 _atom_site_fract_z
 _atom_site_occupancy
  Li  Li0  1  0.591154  0.591154  0.591154  1
  Li  Li1  1  0.408846  0.408846  0.408846  1
  Tb  Tb2  1  0.087236  0.087236  0.087236  1
  Tb  Tb3  1  0.912764  0.912764  0.912764  1
  P  P4  1  0.724037  0.724037  0.724037  1
  P  P5  1  0.775717  0.775717  0.775717  1
  P  P6  1  0.224283  0.224283  0.224283  1
  P  P7  1  0.275963  0.275963  0.275963  1
  Se  Se8  1  0.490343  0.753597  0.124950  1
  Se  Se9  1  0.012796  0.734835  0.379630  1
  Se  Se10  1  0.620370  0.987204  0.265165  1
  Se  Se11  1  0.734835  0.379630  0.012796  1
  Se  Se12  1  0.753597  0.124950  0.490343  1
  Se  Se13  1  0.379630  0.012796  0.734835  1
  Se  Se14  1  0.265165  0.620370  0.987204  1
  Se  Se15  1  0.124950  0.490343  0.753597  1
  Se  Se16  1  0.987204  0.265165  0.620370  1
  Se  Se17  1  0.875050  0.509657  0.246403  1
  Se  Se18  1  0.246403  0.875050  0.509657  1
  Se  Se19  1  0.509657  0.246403  0.875050  1
