# generated using pymatgen
data_CePr3ZrP12Ru19
_symmetry_space_group_name_H-M   'P 1'
_cell_length_a   12.61172694
_cell_length_b   12.60608310
_cell_length_c   4.00163100
_cell_angle_alpha   90.00000000
_cell_angle_beta   90.00000000
_cell_angle_gamma   119.95129751
_symmetry_Int_Tables_number   1
_chemical_formula_structural   CePr3ZrP12Ru19
_chemical_formula_sum   'Ce1 Pr3 Zr1 P12 Ru19'
_cell_volume   551.23314079
_cell_formula_units_Z   1
loop_
 _symmetry_equiv_pos_site_id
 _symmetry_equiv_pos_as_xyz
  1  'x, y, z'
loop_
 _atom_site_type_symbol
 _atom_site_label
 _atom_site_symmetry_multiplicity
 _atom_site_fract_x
 _atom_site_fract_y
 _atom_site_fract_z
 _atom_site_occupancy
  Ce  Ce0  1  0.817896  0.001168  0.500000  1
  Pr  Pr1  1  0.999237  0.813669  0.500000  1
  Pr  Pr2  1  0.186793  0.185637  0.500000  1
  Pr  Pr3  1  0.666852  0.333201  0.000000  1
  Zr  Zr4  1  0.334380  0.667254  0.000000  1
  P  P5  1  0.186233  0.997285  0.000000  1
  P  P6  1  0.003530  0.190127  0.000000  1
  P  P7  1  0.809941  0.813181  0.000000  1
  P  P8  1  0.519243  0.696910  0.500000  1
  P  P9  1  0.302770  0.821844  0.500000  1
  P  P10  1  0.177489  0.480552  0.500000  1
  P  P11  1  0.475708  0.169834  0.500000  1
  P  P12  1  0.694218  0.524515  0.500000  1
  P  P13  1  0.830138  0.305488  0.500000  1
  P  P14  1  0.627471  0.001987  0.000000  1
  P  P15  1  0.998200  0.624474  0.000000  1
  P  P16  1  0.375614  0.373995  0.000000  1
  Ru  Ru17  1  0.445158  0.998042  0.000000  1
  Ru  Ru18  1  0.999940  0.445172  0.000000  1
  Ru  Ru19  1  0.553017  0.556612  0.000000  1
  Ru  Ru20  1  0.284881  0.996471  0.500000  1
  Ru  Ru21  1  0.002475  0.287273  0.500000  1
  Ru  Ru22  1  0.711256  0.715994  0.500000  1
  Ru  Ru23  1  0.619295  0.808279  0.000000  1
  Ru  Ru24  1  0.195648  0.811263  0.000000  1
  Ru  Ru25  1  0.188243  0.384382  0.000000  1
  Ru  Ru26  1  0.378428  0.182052  0.000000  1
  Ru  Ru27  1  0.803358  0.621919  0.000000  1
  Ru  Ru28  1  0.818030  0.192548  0.000000  1
  Ru  Ru29  1  0.500818  0.869751  0.500000  1
  Ru  Ru30  1  0.129212  0.629984  0.500000  1
  Ru  Ru31  1  0.369110  0.499286  0.500000  1
  Ru  Ru32  1  0.489049  0.367650  0.500000  1
  Ru  Ru33  1  0.877328  0.510545  0.500000  1
  Ru  Ru34  1  0.633666  0.121878  0.500000  1
  Ru  Ru35  1  0.995374  0.999778  0.000000  1
