# generated using pymatgen
data_Nd3(Bi2Rh)4
_symmetry_space_group_name_H-M   'P 1'
_cell_length_a   4.20648400
_cell_length_b   10.96187900
_cell_length_c   17.14905400
_cell_angle_alpha   90.00000000
_cell_angle_beta   90.00000000
_cell_angle_gamma   90.00000000
_symmetry_Int_Tables_number   1
_chemical_formula_structural   Nd3(Bi2Rh)4
_chemical_formula_sum   'Nd6 Bi16 Rh8'
_cell_volume   790.75949092
_cell_formula_units_Z   2
loop_
 _symmetry_equiv_pos_site_id
 _symmetry_equiv_pos_as_xyz
  1  'x, y, z'
loop_
 _atom_site_type_symbol
 _atom_site_label
 _atom_site_symmetry_multiplicity
 _atom_site_fract_x
 _atom_site_fract_y
 _atom_site_fract_z
 _atom_site_occupancy
  Nd  Nd0  1  0.500000  0.000000  0.500000  1
  Nd  Nd1  1  0.500000  0.500000  0.000000  1
  Nd  Nd2  1  0.500000  0.870983  0.193087  1
  Nd  Nd3  1  0.500000  0.129017  0.806913  1
  Nd  Nd4  1  0.500000  0.370983  0.306913  1
  Nd  Nd5  1  0.500000  0.629017  0.693087  1
  Bi  Bi6  1  0.000000  0.119673  0.213312  1
  Bi  Bi7  1  0.000000  0.880327  0.786688  1
  Bi  Bi8  1  0.000000  0.619673  0.286688  1
  Bi  Bi9  1  0.000000  0.380327  0.713312  1
  Bi  Bi10  1  0.000000  0.404702  0.146635  1
  Bi  Bi11  1  0.000000  0.595298  0.853365  1
  Bi  Bi12  1  0.000000  0.904702  0.353365  1
  Bi  Bi13  1  0.000000  0.095298  0.646635  1
  Bi  Bi14  1  0.500000  0.129094  0.036798  1
  Bi  Bi15  1  0.500000  0.870906  0.963202  1
  Bi  Bi16  1  0.500000  0.629094  0.463202  1
  Bi  Bi17  1  0.500000  0.370906  0.536798  1
  Bi  Bi18  1  0.000000  0.697090  0.086400  1
  Bi  Bi19  1  0.000000  0.302910  0.913600  1
  Bi  Bi20  1  0.000000  0.197090  0.413600  1
  Bi  Bi21  1  0.000000  0.802910  0.586400  1
  Rh  Rh22  1  0.000000  0.955822  0.081104  1
  Rh  Rh23  1  0.000000  0.044178  0.918896  1
  Rh  Rh24  1  0.000000  0.455822  0.418896  1
  Rh  Rh25  1  0.000000  0.544178  0.581104  1
  Rh  Rh26  1  0.500000  0.583460  0.178032  1
  Rh  Rh27  1  0.500000  0.416540  0.821968  1
  Rh  Rh28  1  0.500000  0.083460  0.321968  1
  Rh  Rh29  1  0.500000  0.916540  0.678032  1
