# generated using pymatgen
data_Eu3LuSb3
_symmetry_space_group_name_H-M   'P 1'
_cell_length_a   8.21175569
_cell_length_b   8.28993906
_cell_length_c   8.21175602
_cell_angle_alpha   109.61911043
_cell_angle_beta   109.30741981
_cell_angle_gamma   109.10404203
_symmetry_Int_Tables_number   1
_chemical_formula_structural   Eu3LuSb3
_chemical_formula_sum   'Eu6 Lu2 Sb6'
_cell_volume   432.34578335
_cell_formula_units_Z   2
loop_
 _symmetry_equiv_pos_site_id
 _symmetry_equiv_pos_as_xyz
  1  'x, y, z'
loop_
 _atom_site_type_symbol
 _atom_site_label
 _atom_site_symmetry_multiplicity
 _atom_site_fract_x
 _atom_site_fract_y
 _atom_site_fract_z
 _atom_site_occupancy
  Eu  Eu0  1  0.000182  0.642787  0.502772  1
  Eu  Eu1  1  0.859986  0.857213  0.857395  1
  Eu  Eu2  1  0.499486  0.999067  0.146511  1
  Eu  Eu3  1  0.147444  0.500933  0.000419  1
  Eu  Eu4  1  0.998310  0.147545  0.499377  1
  Eu  Eu5  1  0.351833  0.352455  0.350765  1
  Lu  Lu6  1  0.640156  0.499835  0.000096  1
  Lu  Lu7  1  0.500261  0.000165  0.640321  1
  Sb  Sb8  1  0.860111  0.250000  0.110111  1
  Sb  Sb9  1  0.624662  0.750000  0.374662  1
  Sb  Sb10  1  0.268484  0.133235  0.871050  1
  Sb  Sb11  1  0.737815  0.366765  0.635249  1
  Sb  Sb12  1  0.125527  0.870684  0.256427  1
  Sb  Sb13  1  0.385744  0.629316  0.754843  1
