# generated using pymatgen
data_Li4B4IrOsRh2
_symmetry_space_group_name_H-M   'P 1'
_cell_length_a   6.91709391
_cell_length_b   6.06209869
_cell_length_c   5.55553266
_cell_angle_alpha   72.93443759
_cell_angle_beta   56.90914091
_cell_angle_gamma   50.07569257
_symmetry_Int_Tables_number   1
_chemical_formula_structural   Li4B4IrOsRh2
_chemical_formula_sum   'Li4 B4 Ir1 Os1 Rh2'
_cell_volume   149.08686050
_cell_formula_units_Z   1
loop_
 _symmetry_equiv_pos_site_id
 _symmetry_equiv_pos_as_xyz
  1  'x, y, z'
loop_
 _atom_site_type_symbol
 _atom_site_label
 _atom_site_symmetry_multiplicity
 _atom_site_fract_x
 _atom_site_fract_y
 _atom_site_fract_z
 _atom_site_occupancy
  Li  Li0  1  0.127016  0.625813  0.630409  1
  Li  Li1  1  0.622542  0.628125  0.623718  1
  Li  Li2  1  0.628125  0.622542  0.125615  1
  Li  Li3  1  0.625813  0.127016  0.616764  1
  B  B4  1  0.419588  0.085908  0.425828  1
  B  B5  1  0.178130  0.816578  0.188206  1
  B  B6  1  0.085908  0.419588  0.068675  1
  B  B7  1  0.816578  0.178130  0.817087  1
  Ir  Ir8  1  0.115290  0.115290  0.384710  1
  Os  Os9  1  0.384323  0.384323  0.115677  1
  Rh  Rh10  1  0.864825  0.864825  0.135175  1
  Rh  Rh11  1  0.131861  0.131861  0.868139  1
