# generated using pymatgen
data_Ce2B4Ir3Os2
_symmetry_space_group_name_H-M   'P 1'
_cell_length_a   7.55428025
_cell_length_b   6.40788507
_cell_length_c   5.61775504
_cell_angle_alpha   77.52426349
_cell_angle_beta   55.91595342
_cell_angle_gamma   46.55980664
_symmetry_Int_Tables_number   1
_chemical_formula_structural   Ce2B4Ir3Os2
_chemical_formula_sum   'Ce2 B4 Ir3 Os2'
_cell_volume   156.91823046
_cell_formula_units_Z   1
loop_
 _symmetry_equiv_pos_site_id
 _symmetry_equiv_pos_as_xyz
  1  'x, y, z'
loop_
 _atom_site_type_symbol
 _atom_site_label
 _atom_site_symmetry_multiplicity
 _atom_site_fract_x
 _atom_site_fract_y
 _atom_site_fract_z
 _atom_site_occupancy
  Ce  Ce0  1  0.862980  0.862979  0.137021  1
  Ce  Ce1  1  0.137020  0.137020  0.862980  1
  B  B2  1  0.473316  0.793199  0.206801  1
  B  B3  1  0.206801  0.526683  0.473317  1
  B  B4  1  0.793199  0.473316  0.526684  1
  B  B5  1  0.526684  0.206800  0.793200  1
  Ir  Ir6  1  0.500000  0.500000  0.000000  1
  Ir  Ir7  1  0.000000  0.000000  0.500000  1
  Ir  Ir8  1  0.500000  0.500000  0.500000  1
  Os  Os9  1  0.249999  0.250000  0.250000  1
  Os  Os10  1  0.750000  0.750000  0.750000  1
