# generated using pymatgen
data_YTm6Lu9(In3Pd)2
_symmetry_space_group_name_H-M   'P 1'
_cell_length_a   10.34046334
_cell_length_b   10.34477776
_cell_length_c   6.87178304
_cell_angle_alpha   89.99473610
_cell_angle_beta   89.99256470
_cell_angle_gamma   120.01464232
_symmetry_Int_Tables_number   1
_chemical_formula_structural   YTm6Lu9(In3Pd)2
_chemical_formula_sum   'Y1 Tm6 Lu9 In6 Pd2'
_cell_volume   636.49812342
_cell_formula_units_Z   1
loop_
 _symmetry_equiv_pos_site_id
 _symmetry_equiv_pos_as_xyz
  1  'x, y, z'
loop_
 _atom_site_type_symbol
 _atom_site_label
 _atom_site_symmetry_multiplicity
 _atom_site_fract_x
 _atom_site_fract_y
 _atom_site_fract_z
 _atom_site_occupancy
  Y  Y0  1  0.999904  0.999951  0.998174  1
  Tm  Tm1  1  0.470981  0.528939  0.477044  1
  Tm  Tm2  1  0.057718  0.528848  0.476728  1
  Tm  Tm3  1  0.470906  0.941881  0.477071  1
  Tm  Tm4  1  0.529178  0.470874  0.976976  1
  Tm  Tm5  1  0.941765  0.470918  0.976982  1
  Tm  Tm6  1  0.529135  0.058266  0.976979  1
  Lu  Lu7  1  0.824515  0.175484  0.273697  1
  Lu  Lu8  1  0.351250  0.175620  0.273643  1
  Lu  Lu9  1  0.824473  0.648908  0.273584  1
  Lu  Lu10  1  0.175677  0.824261  0.771029  1
  Lu  Lu11  1  0.648322  0.824172  0.771204  1
  Lu  Lu12  1  0.175509  0.351065  0.771085  1
  Lu  Lu13  1  0.333309  0.666612  0.106680  1
  Lu  Lu14  1  0.666650  0.333364  0.605563  1
  Lu  Lu15  1  0.000022  0.000010  0.498739  1
  In  In16  1  0.163137  0.837733  0.237179  1
  In  In17  1  0.674475  0.837123  0.238312  1
  In  In18  1  0.163403  0.325897  0.237408  1
  In  In19  1  0.837223  0.163113  0.735544  1
  In  In20  1  0.325749  0.163075  0.735697  1
  In  In21  1  0.837372  0.674890  0.735390  1
  Pd  Pd22  1  0.332329  0.665788  0.711241  1
  Pd  Pd23  1  0.666993  0.333212  0.208597  1
