# generated using pymatgen
data_Zr3Ga3TcPd2
_symmetry_space_group_name_H-M   'P 1'
_cell_length_a   7.38841000
_cell_length_b   7.38840885
_cell_length_c   6.70456700
_cell_angle_alpha   90.00000000
_cell_angle_beta   90.00000000
_cell_angle_gamma   119.99999621
_symmetry_Int_Tables_number   1
_chemical_formula_structural   Zr3Ga3TcPd2
_chemical_formula_sum   'Zr6 Ga6 Tc2 Pd4'
_cell_volume   316.95914783
_cell_formula_units_Z   2
loop_
 _symmetry_equiv_pos_site_id
 _symmetry_equiv_pos_as_xyz
  1  'x, y, z'
loop_
 _atom_site_type_symbol
 _atom_site_label
 _atom_site_symmetry_multiplicity
 _atom_site_fract_x
 _atom_site_fract_y
 _atom_site_fract_z
 _atom_site_occupancy
  Zr  Zr0  1  0.736029  0.053080  0.000000  1
  Zr  Zr1  1  0.317052  0.263971  0.000000  1
  Zr  Zr2  1  0.946920  0.682948  0.000000  1
  Zr  Zr3  1  0.319150  0.264154  0.500000  1
  Zr  Zr4  1  0.735846  0.054996  0.500000  1
  Zr  Zr5  1  0.945004  0.680850  0.500000  1
  Ga  Ga6  1  0.606147  0.663669  0.749907  1
  Ga  Ga7  1  0.057523  0.393853  0.749907  1
  Ga  Ga8  1  0.336331  0.942477  0.749907  1
  Ga  Ga9  1  0.606147  0.663669  0.250093  1
  Ga  Ga10  1  0.057523  0.393853  0.250093  1
  Ga  Ga11  1  0.336331  0.942477  0.250093  1
  Tc  Tc12  1  0.000000  0.000000  0.250519  1
  Tc  Tc13  1  0.000000  0.000000  0.749481  1
  Pd  Pd14  1  0.333333  0.666667  0.000000  1
  Pd  Pd15  1  0.333333  0.666667  0.500000  1
  Pd  Pd16  1  0.666667  0.333333  0.752771  1
  Pd  Pd17  1  0.666667  0.333333  0.247229  1
