# generated using pymatgen
data_TbDyAl5Ga4Ir3
_symmetry_space_group_name_H-M   'P 1'
_cell_length_a   7.55187347
_cell_length_b   7.55097714
_cell_length_c   9.58137729
_cell_angle_alpha   90.09624525
_cell_angle_beta   89.85082375
_cell_angle_gamma   119.66472492
_symmetry_Int_Tables_number   1
_chemical_formula_structural   TbDyAl5Ga4Ir3
_chemical_formula_sum   'Tb2 Dy2 Al10 Ga8 Ir6'
_cell_volume   474.75797670
_cell_formula_units_Z   2
loop_
 _symmetry_equiv_pos_site_id
 _symmetry_equiv_pos_as_xyz
  1  'x, y, z'
loop_
 _atom_site_type_symbol
 _atom_site_label
 _atom_site_symmetry_multiplicity
 _atom_site_fract_x
 _atom_site_fract_y
 _atom_site_fract_z
 _atom_site_occupancy
  Tb  Tb0  1  0.996341  0.666933  0.745733  1
  Tb  Tb1  1  0.003659  0.333067  0.254267  1
  Dy  Dy2  1  0.672362  0.998585  0.749116  1
  Dy  Dy3  1  0.327638  0.001415  0.250884  1
  Al  Al4  1  0.997763  0.665415  0.070750  1
  Al  Al5  1  0.334613  0.000833  0.927778  1
  Al  Al6  1  0.002237  0.334585  0.929250  1
  Al  Al7  1  0.665387  0.999167  0.072222  1
  Al  Al8  1  0.663980  0.996874  0.426804  1
  Al  Al9  1  0.336020  0.003126  0.573196  1
  Al  Al10  1  0.333540  0.333416  0.055237  1
  Al  Al11  1  0.666460  0.666584  0.944763  1
  Al  Al12  1  0.666759  0.666191  0.553972  1
  Al  Al13  1  0.333241  0.333809  0.446028  1
  Ga  Ga14  1  0.129915  0.126448  0.750626  1
  Ga  Ga15  1  0.870085  0.873552  0.249374  1
  Ga  Ga16  1  0.999739  0.333454  0.579770  1
  Ga  Ga17  1  0.000261  0.666546  0.420230  1
  Ga  Ga18  1  0.341281  0.548888  0.750864  1
  Ga  Ga19  1  0.658719  0.451112  0.249136  1
  Ga  Ga20  1  0.546242  0.339631  0.750084  1
  Ga  Ga21  1  0.453758  0.660369  0.249916  1
  Ir  Ir22  1  0.667017  0.325887  0.499276  1
  Ir  Ir23  1  0.332983  0.674113  0.500724  1
  Ir  Ir24  1  0.328249  0.671761  0.000731  1
  Ir  Ir25  1  0.671751  0.328239  0.999269  1
  Ir  Ir26  1  0.000000  0.000000  0.500000  1
  Ir  Ir27  1  0.000000  0.000000  0.000000  1
