# generated using pymatgen
data_CeTh7Si12Ru3Rh
_symmetry_space_group_name_H-M   'P 1'
_cell_length_a   8.27565930
_cell_length_b   8.25643264
_cell_length_c   8.31587301
_cell_angle_alpha   89.99991675
_cell_angle_beta   89.99473078
_cell_angle_gamma   119.92329253
_symmetry_Int_Tables_number   1
_chemical_formula_structural   CeTh7Si12Ru3Rh
_chemical_formula_sum   'Ce1 Th7 Si12 Ru3 Rh1'
_cell_volume   492.45743035
_cell_formula_units_Z   1
loop_
 _symmetry_equiv_pos_site_id
 _symmetry_equiv_pos_as_xyz
  1  'x, y, z'
loop_
 _atom_site_type_symbol
 _atom_site_label
 _atom_site_symmetry_multiplicity
 _atom_site_fract_x
 _atom_site_fract_y
 _atom_site_fract_z
 _atom_site_occupancy
  Ce  Ce0  1  0.997288  0.498644  0.748187  1
  Th  Th1  1  0.000027  0.000013  0.249888  1
  Th  Th2  1  0.999956  0.999978  0.749970  1
  Th  Th3  1  0.501099  0.498875  0.251966  1
  Th  Th4  1  0.501099  0.002224  0.251966  1
  Th  Th5  1  0.997970  0.498985  0.251840  1
  Th  Th6  1  0.501057  0.498877  0.748102  1
  Th  Th7  1  0.501057  0.002180  0.748102  1
  Si  Si8  1  0.165478  0.831979  0.501633  1
  Si  Si9  1  0.165479  0.333500  0.501632  1
  Si  Si10  1  0.669619  0.834809  0.499521  1
  Si  Si11  1  0.834820  0.167765  0.501453  1
  Si  Si12  1  0.834819  0.667054  0.501454  1
  Si  Si13  1  0.330171  0.165085  0.499582  1
  Si  Si14  1  0.834297  0.168092  0.998718  1
  Si  Si15  1  0.834296  0.666204  0.998719  1
  Si  Si16  1  0.330696  0.165348  0.000702  1
  Si  Si17  1  0.165043  0.832324  0.998183  1
  Si  Si18  1  0.165043  0.332719  0.998183  1
  Si  Si19  1  0.670315  0.835157  0.000302  1
  Ru  Ru20  1  0.336224  0.668112  0.499684  1
  Ru  Ru21  1  0.664140  0.332070  0.499720  1
  Ru  Ru22  1  0.663802  0.331901  0.999952  1
  Rh  Rh23  1  0.336206  0.668103  0.000545  1
