# generated using pymatgen
data_Ho11Tm9(IrRh5)2
_symmetry_space_group_name_H-M   'P 1'
_cell_length_a   10.80365690
_cell_length_b   10.79925906
_cell_length_c   6.30615618
_cell_angle_alpha   89.98862845
_cell_angle_beta   90.01092243
_cell_angle_gamma   90.00526961
_symmetry_Int_Tables_number   1
_chemical_formula_structural   Ho11Tm9(IrRh5)2
_chemical_formula_sum   'Ho11 Tm9 Ir2 Rh10'
_cell_volume   735.74860418
_cell_formula_units_Z   1
loop_
 _symmetry_equiv_pos_site_id
 _symmetry_equiv_pos_as_xyz
  1  'x, y, z'
loop_
 _atom_site_type_symbol
 _atom_site_label
 _atom_site_symmetry_multiplicity
 _atom_site_fract_x
 _atom_site_fract_y
 _atom_site_fract_z
 _atom_site_occupancy
  Ho  Ho0  1  0.289985  0.089901  0.377540  1
  Ho  Ho1  1  0.289993  0.910055  0.877592  1
  Ho  Ho2  1  0.709743  0.088380  0.876797  1
  Ho  Ho3  1  0.709782  0.911486  0.376871  1
  Ho  Ho4  1  0.586905  0.789390  0.877372  1
  Ho  Ho5  1  0.586634  0.210391  0.377697  1
  Ho  Ho6  1  0.410997  0.789982  0.378072  1
  Ho  Ho7  1  0.410980  0.210011  0.878136  1
  Ho  Ho8  1  0.210386  0.413344  0.621652  1
  Ho  Ho9  1  0.210394  0.586653  0.121665  1
  Ho  Ho10  1  0.791139  0.411757  0.122423  1
  Tm  Tm11  1  0.791844  0.588382  0.621926  1
  Tm  Tm12  1  0.912505  0.709089  0.121721  1
  Tm  Tm13  1  0.912636  0.291078  0.621780  1
  Tm  Tm14  1  0.089061  0.708702  0.622034  1
  Tm  Tm15  1  0.089405  0.291229  0.122048  1
  Tm  Tm16  1  0.999666  0.999643  0.500500  1
  Tm  Tm17  1  0.999712  0.000302  0.000416  1
  Tm  Tm18  1  0.500030  0.499643  0.000206  1
  Tm  Tm19  1  0.500382  0.500549  0.500381  1
  Ir  Ir20  1  0.346499  0.346083  0.249689  1
  Ir  Ir21  1  0.346456  0.653888  0.749696  1
  Rh  Rh22  1  0.847133  0.153601  0.250985  1
  Rh  Rh23  1  0.847003  0.845717  0.750744  1
  Rh  Rh24  1  0.151386  0.153438  0.750510  1
  Rh  Rh25  1  0.151381  0.846504  0.250522  1
  Rh  Rh26  1  0.655182  0.347138  0.749249  1
  Rh  Rh27  1  0.655329  0.653133  0.250798  1
  Rh  Rh28  1  0.500415  0.999858  0.123721  1
  Rh  Rh29  1  0.500420  0.000121  0.623715  1
  Rh  Rh30  1  0.998341  0.500143  0.876179  1
  Rh  Rh31  1  0.998275  0.500407  0.377364  1
