# generated using pymatgen
data_YbCe3(HgPt2)2
_symmetry_space_group_name_H-M   'P 1'
_cell_length_a   7.94761800
_cell_length_b   7.94761808
_cell_length_c   7.53287600
_cell_angle_alpha   90.00000000
_cell_angle_beta   90.00000000
_cell_angle_gamma   91.20310528
_symmetry_Int_Tables_number   1
_chemical_formula_structural   YbCe3(HgPt2)2
_chemical_formula_sum   'Yb2 Ce6 Hg4 Pt8'
_cell_volume   475.70645002
_cell_formula_units_Z   2
loop_
 _symmetry_equiv_pos_site_id
 _symmetry_equiv_pos_as_xyz
  1  'x, y, z'
loop_
 _atom_site_type_symbol
 _atom_site_label
 _atom_site_symmetry_multiplicity
 _atom_site_fract_x
 _atom_site_fract_y
 _atom_site_fract_z
 _atom_site_occupancy
  Yb  Yb0  1  0.833883  0.166117  0.000000  1
  Yb  Yb1  1  0.166117  0.833883  0.000000  1
  Ce  Ce2  1  0.675095  0.675095  0.000000  1
  Ce  Ce3  1  0.332488  0.332488  0.500000  1
  Ce  Ce4  1  0.825156  0.174844  0.500000  1
  Ce  Ce5  1  0.667512  0.667512  0.500000  1
  Ce  Ce6  1  0.324905  0.324905  0.000000  1
  Ce  Ce7  1  0.174844  0.825156  0.500000  1
  Hg  Hg8  1  0.500000  0.000000  0.756051  1
  Hg  Hg9  1  0.500000  0.000000  0.243949  1
  Hg  Hg10  1  0.000000  0.500000  0.756051  1
  Hg  Hg11  1  0.000000  0.500000  0.243949  1
  Pt  Pt12  1  0.869912  0.869912  0.738557  1
  Pt  Pt13  1  0.130088  0.130088  0.738557  1
  Pt  Pt14  1  0.628246  0.371754  0.755047  1
  Pt  Pt15  1  0.628246  0.371754  0.244953  1
  Pt  Pt16  1  0.371754  0.628246  0.244953  1
  Pt  Pt17  1  0.130088  0.130088  0.261443  1
  Pt  Pt18  1  0.869912  0.869912  0.261443  1
  Pt  Pt19  1  0.371754  0.628246  0.755047  1
