# generated using pymatgen
data_Tb8Ta6Nb6Si15Ge
_symmetry_space_group_name_H-M   'P 1'
_cell_length_a   6.89243799
_cell_length_b   7.08403016
_cell_length_c   13.45559613
_cell_angle_alpha   90.03283000
_cell_angle_beta   89.92845477
_cell_angle_gamma   90.02126607
_symmetry_Int_Tables_number   1
_chemical_formula_structural   Tb8Ta6Nb6Si15Ge
_chemical_formula_sum   'Tb8 Ta6 Nb6 Si15 Ge1'
_cell_volume   656.98548208
_cell_formula_units_Z   1
loop_
 _symmetry_equiv_pos_site_id
 _symmetry_equiv_pos_as_xyz
  1  'x, y, z'
loop_
 _atom_site_type_symbol
 _atom_site_label
 _atom_site_symmetry_multiplicity
 _atom_site_fract_x
 _atom_site_fract_y
 _atom_site_fract_z
 _atom_site_occupancy
  Tb  Tb0  1  0.503610  0.329590  0.095883  1
  Tb  Tb1  1  0.002625  0.170111  0.403658  1
  Tb  Tb2  1  0.499571  0.672874  0.596646  1
  Tb  Tb3  1  0.996386  0.828806  0.904591  1
  Tb  Tb4  1  0.496371  0.670002  0.904221  1
  Tb  Tb5  1  0.996475  0.830441  0.596379  1
  Tb  Tb6  1  0.503763  0.327633  0.403582  1
  Tb  Tb7  1  0.003298  0.171538  0.095319  1
  Ta  Ta8  1  0.663480  0.009942  0.750342  1
  Ta  Ta9  1  0.163391  0.489112  0.751992  1
  Ta  Ta10  1  0.336132  0.990412  0.249544  1
  Ta  Ta11  1  0.836422  0.510065  0.249980  1
  Ta  Ta12  1  0.835996  0.323823  0.626157  1
  Ta  Ta13  1  0.337678  0.175604  0.874531  1
  Nb  Nb14  1  0.162599  0.675595  0.125005  1
  Nb  Nb15  1  0.662239  0.825056  0.374349  1
  Nb  Nb16  1  0.160894  0.677890  0.372945  1
  Nb  Nb17  1  0.661595  0.824486  0.125250  1
  Nb  Nb18  1  0.836823  0.324270  0.874922  1
  Nb  Nb19  1  0.339478  0.171798  0.626536  1
  Si  Si20  1  0.797327  0.625496  0.750147  1
  Si  Si21  1  0.296268  0.873363  0.750746  1
  Si  Si22  1  0.203199  0.374341  0.249770  1
  Si  Si23  1  0.703340  0.125801  0.249449  1
  Si  Si24  1  0.542028  0.375867  0.749884  1
  Si  Si25  1  0.042001  0.124311  0.750590  1
  Si  Si26  1  0.457521  0.624597  0.249904  1
  Si  Si27  1  0.956904  0.876074  0.248979  1
  Si  Si28  1  0.664118  0.037461  0.541032  1
  Si  Si29  1  0.163115  0.462919  0.958651  1
  Si  Si30  1  0.337160  0.963787  0.040725  1
  Si  Si31  1  0.833559  0.537306  0.458564  1
  Si  Si32  1  0.336995  0.962883  0.458821  1
  Si  Si33  1  0.837660  0.536696  0.041486  1
  Si  Si34  1  0.661899  0.036673  0.958662  1
  Ge  Ge35  1  0.168085  0.463378  0.540756  1
