# generated using pymatgen
data_Dy3Tm5(TcB6)4
_symmetry_space_group_name_H-M   'P 1'
_cell_length_a   3.65691500
_cell_length_b   9.11151200
_cell_length_c   11.49045100
_cell_angle_alpha   90.00047830
_cell_angle_beta   90.00002564
_cell_angle_gamma   89.99994351
_symmetry_Int_Tables_number   1
_chemical_formula_structural   Dy3Tm5(TcB6)4
_chemical_formula_sum   'Dy3 Tm5 Tc4 B24'
_cell_volume   382.86211349
_cell_formula_units_Z   1
loop_
 _symmetry_equiv_pos_site_id
 _symmetry_equiv_pos_as_xyz
  1  'x, y, z'
loop_
 _atom_site_type_symbol
 _atom_site_label
 _atom_site_symmetry_multiplicity
 _atom_site_fract_x
 _atom_site_fract_y
 _atom_site_fract_z
 _atom_site_occupancy
  Dy  Dy0  1  0.999999  0.323464  0.414199  1
  Dy  Dy1  1  0.999999  0.676447  0.585946  1
  Dy  Dy2  1  0.999999  0.823562  0.085675  1
  Tm  Tm3  1  0.000000  0.176241  0.914255  1
  Tm  Tm4  1  0.000000  0.943097  0.369146  1
  Tm  Tm5  1  0.000000  0.057173  0.630899  1
  Tm  Tm6  1  0.000000  0.442729  0.130283  1
  Tm  Tm7  1  0.000000  0.556903  0.869549  1
  Tc  Tc8  1  0.000001  0.639255  0.319970  1
  Tc  Tc9  1  0.000000  0.360418  0.680509  1
  Tc  Tc10  1  0.999999  0.139277  0.179448  1
  Tc  Tc11  1  0.000002  0.861240  0.820189  1
  B  B12  1  0.500000  0.553517  0.432705  1
  B  B13  1  0.499999  0.446219  0.567599  1
  B  B14  1  0.500000  0.053902  0.066641  1
  B  B15  1  0.500000  0.947139  0.932779  1
  B  B16  1  0.500000  0.750189  0.418398  1
  B  B17  1  0.499999  0.249838  0.581980  1
  B  B18  1  0.500001  0.249883  0.080674  1
  B  B19  1  0.500001  0.750164  0.918361  1
  B  B20  1  0.500000  0.792589  0.264837  1
  B  B21  1  0.500000  0.207098  0.735796  1
  B  B22  1  0.500000  0.292458  0.234552  1
  B  B23  1  0.499999  0.707534  0.765119  1
  B  B24  1  0.500001  0.630125  0.184819  1
  B  B25  1  0.500000  0.369205  0.815691  1
  B  B26  1  0.499999  0.130295  0.314745  1
  B  B27  1  0.500001  0.870124  0.685181  1
  B  B28  1  0.499999  0.982158  0.211783  1
  B  B29  1  0.500001  0.018890  0.788351  1
  B  B30  1  0.500000  0.481790  0.287674  1
  B  B31  1  0.499999  0.517845  0.712460  1
  B  B32  1  0.500000  0.598626  0.027357  1
  B  B33  1  0.500001  0.400369  0.972285  1
  B  B34  1  0.499999  0.098538  0.472714  1
  B  B35  1  0.500000  0.901698  0.527429  1
