# generated using pymatgen
data_Nd7Dy10Ho3Pt16
_symmetry_space_group_name_H-M   'P 1'
_cell_length_a   7.66437789
_cell_length_b   7.73330883
_cell_length_c   14.62359900
_cell_angle_alpha   90.03942308
_cell_angle_beta   90.23026387
_cell_angle_gamma   89.77226917
_symmetry_Int_Tables_number   1
_chemical_formula_structural   Nd7Dy10Ho3Pt16
_chemical_formula_sum   'Nd7 Dy10 Ho3 Pt16'
_cell_volume   866.74131302
_cell_formula_units_Z   1
loop_
 _symmetry_equiv_pos_site_id
 _symmetry_equiv_pos_as_xyz
  1  'x, y, z'
loop_
 _atom_site_type_symbol
 _atom_site_label
 _atom_site_symmetry_multiplicity
 _atom_site_fract_x
 _atom_site_fract_y
 _atom_site_fract_z
 _atom_site_occupancy
  Nd  Nd0  1  0.995516  0.827581  0.903182  1
  Nd  Nd1  1  0.505229  0.327731  0.096330  1
  Nd  Nd2  1  0.008502  0.170564  0.401207  1
  Nd  Nd3  1  0.507628  0.331904  0.404578  1
  Nd  Nd4  1  0.004832  0.171967  0.096635  1
  Nd  Nd5  1  0.494187  0.672161  0.903175  1
  Nd  Nd6  1  0.993393  0.827132  0.595624  1
  Dy  Dy7  1  0.650054  0.170983  0.622681  1
  Dy  Dy8  1  0.151903  0.328555  0.877284  1
  Dy  Dy9  1  0.348726  0.828605  0.122788  1
  Dy  Dy10  1  0.849600  0.670467  0.377319  1
  Dy  Dy11  1  0.353534  0.827190  0.378827  1
  Dy  Dy12  1  0.849246  0.671536  0.122246  1
  Dy  Dy13  1  0.650738  0.171474  0.876724  1
  Dy  Dy14  1  0.150188  0.328708  0.620908  1
  Dy  Dy15  1  0.489700  0.670783  0.600613  1
  Dy  Dy16  1  0.813886  0.511534  0.749071  1
  Ho  Ho17  1  0.313516  0.987543  0.749387  1
  Ho  Ho18  1  0.186359  0.488461  0.250224  1
  Ho  Ho19  1  0.685459  0.012514  0.250207  1
  Pt  Pt20  1  0.683618  0.969680  0.455746  1
  Pt  Pt21  1  0.179911  0.530403  0.044148  1
  Pt  Pt22  1  0.320659  0.030376  0.955623  1
  Pt  Pt23  1  0.808168  0.476309  0.545640  1
  Pt  Pt24  1  0.322877  0.023944  0.546515  1
  Pt  Pt25  1  0.821220  0.469416  0.955687  1
  Pt  Pt26  1  0.679162  0.969872  0.044430  1
  Pt  Pt27  1  0.181500  0.533749  0.457994  1
  Pt  Pt28  1  0.443979  0.379446  0.748794  1
  Pt  Pt29  1  0.942570  0.121370  0.749797  1
  Pt  Pt30  1  0.556718  0.622063  0.249718  1
  Pt  Pt31  1  0.057781  0.876409  0.250151  1
  Pt  Pt32  1  0.673145  0.862129  0.748041  1
  Pt  Pt33  1  0.177760  0.637509  0.748545  1
  Pt  Pt34  1  0.324224  0.136425  0.250377  1
  Pt  Pt35  1  0.824509  0.363506  0.249778  1
