# generated using pymatgen
data_Er8Lu11Si16Tc
_symmetry_space_group_name_H-M   'P 1'
_cell_length_a   7.16362702
_cell_length_b   7.53609458
_cell_length_c   14.17991500
_cell_angle_alpha   90.00000000
_cell_angle_beta   90.00000000
_cell_angle_gamma   90.14436092
_symmetry_Int_Tables_number   1
_chemical_formula_structural   Er8Lu11Si16Tc
_chemical_formula_sum   'Er8 Lu11 Si16 Tc1'
_cell_volume   765.51121031
_cell_formula_units_Z   1
loop_
 _symmetry_equiv_pos_site_id
 _symmetry_equiv_pos_as_xyz
  1  'x, y, z'
loop_
 _atom_site_type_symbol
 _atom_site_label
 _atom_site_symmetry_multiplicity
 _atom_site_fract_x
 _atom_site_fract_y
 _atom_site_fract_z
 _atom_site_occupancy
  Er  Er0  1  0.018451  0.182241  0.092636  1
  Er  Er1  1  0.987707  0.813510  0.899500  1
  Er  Er2  1  0.481188  0.675147  0.902658  1
  Er  Er3  1  0.987707  0.813510  0.600500  1
  Er  Er4  1  0.519467  0.318518  0.095671  1
  Er  Er5  1  0.018451  0.182241  0.407364  1
  Er  Er6  1  0.519467  0.318518  0.404329  1
  Er  Er7  1  0.481188  0.675147  0.597342  1
  Lu  Lu8  1  0.845228  0.490559  0.250000  1
  Lu  Lu9  1  0.346944  0.010439  0.250000  1
  Lu  Lu10  1  0.649950  0.985293  0.750000  1
  Lu  Lu11  1  0.319265  0.180839  0.627747  1
  Lu  Lu12  1  0.678357  0.823309  0.376282  1
  Lu  Lu13  1  0.178102  0.674658  0.378857  1
  Lu  Lu14  1  0.678357  0.823309  0.123718  1
  Lu  Lu15  1  0.821843  0.330199  0.629123  1
  Lu  Lu16  1  0.319265  0.180839  0.872253  1
  Lu  Lu17  1  0.821843  0.330199  0.870877  1
  Lu  Lu18  1  0.178102  0.674658  0.121143  1
  Si  Si19  1  0.021100  0.102129  0.750000  1
  Si  Si20  1  0.978925  0.893250  0.250000  1
  Si  Si21  1  0.473677  0.608168  0.250000  1
  Si  Si22  1  0.507462  0.410368  0.750000  1
  Si  Si23  1  0.275401  0.848492  0.750000  1
  Si  Si24  1  0.727361  0.132224  0.250000  1
  Si  Si25  1  0.222872  0.369482  0.250000  1
  Si  Si26  1  0.790404  0.632459  0.750000  1
  Si  Si27  1  0.152382  0.473092  0.550367  1
  Si  Si28  1  0.845623  0.532068  0.464114  1
  Si  Si29  1  0.348428  0.969754  0.463346  1
  Si  Si30  1  0.845623  0.532068  0.035886  1
  Si  Si31  1  0.655896  0.032153  0.540414  1
  Si  Si32  1  0.152382  0.473092  0.949633  1
  Si  Si33  1  0.655896  0.032153  0.959586  1
  Si  Si34  1  0.348428  0.969754  0.036654  1
  Tc  Tc35  1  0.147254  0.506162  0.750000  1
