# generated using pymatgen
data_NdY5Fe2(Co4P3)4
_symmetry_space_group_name_H-M   'P 1'
_cell_length_a   3.70915600
_cell_length_b   10.54413100
_cell_length_c   12.21547800
_cell_angle_alpha   90.00000000
_cell_angle_beta   90.00000000
_cell_angle_gamma   90.00000000
_symmetry_Int_Tables_number   1
_chemical_formula_structural   NdY5Fe2(Co4P3)4
_chemical_formula_sum   'Nd1 Y5 Fe2 Co16 P12'
_cell_volume   477.74522841
_cell_formula_units_Z   1
loop_
 _symmetry_equiv_pos_site_id
 _symmetry_equiv_pos_as_xyz
  1  'x, y, z'
loop_
 _atom_site_type_symbol
 _atom_site_label
 _atom_site_symmetry_multiplicity
 _atom_site_fract_x
 _atom_site_fract_y
 _atom_site_fract_z
 _atom_site_occupancy
  Nd  Nd0  1  0.000000  0.500000  0.521846  1
  Y  Y1  1  0.500000  0.000000  0.478759  1
  Y  Y2  1  0.500000  0.817699  0.205179  1
  Y  Y3  1  0.500000  0.182301  0.205179  1
  Y  Y4  1  0.000000  0.682840  0.795441  1
  Y  Y5  1  0.000000  0.317160  0.795441  1
  Fe  Fe6  1  0.500000  0.500000  0.155047  1
  Fe  Fe7  1  0.000000  0.000000  0.843144  1
  Co  Co8  1  0.500000  0.500000  0.704952  1
  Co  Co9  1  0.000000  0.000000  0.296886  1
  Co  Co10  1  0.000000  0.500000  0.986933  1
  Co  Co11  1  0.500000  0.000000  0.013709  1
  Co  Co12  1  0.500000  0.332663  0.993996  1
  Co  Co13  1  0.500000  0.667337  0.993996  1
  Co  Co14  1  0.000000  0.166753  0.005855  1
  Co  Co15  1  0.000000  0.833247  0.005855  1
  Co  Co16  1  0.500000  0.294039  0.430117  1
  Co  Co17  1  0.500000  0.705961  0.430117  1
  Co  Co18  1  0.000000  0.200941  0.569828  1
  Co  Co19  1  0.000000  0.799059  0.569828  1
  Co  Co20  1  0.500000  0.879787  0.710420  1
  Co  Co21  1  0.500000  0.120213  0.710420  1
  Co  Co22  1  0.000000  0.621387  0.289118  1
  Co  Co23  1  0.000000  0.378613  0.289118  1
  P  P24  1  0.500000  0.500000  0.883627  1
  P  P25  1  0.000000  0.000000  0.117282  1
  P  P26  1  0.500000  0.500000  0.338567  1
  P  P27  1  0.000000  0.000000  0.657883  1
  P  P28  1  0.500000  0.306759  0.617031  1
  P  P29  1  0.500000  0.693241  0.617031  1
  P  P30  1  0.000000  0.189468  0.383959  1
  P  P31  1  0.000000  0.810532  0.383959  1
  P  P32  1  0.500000  0.847987  0.893216  1
  P  P33  1  0.500000  0.152013  0.893216  1
  P  P34  1  0.000000  0.652984  0.106521  1
  P  P35  1  0.000000  0.347016  0.106521  1
