# generated using pymatgen
data_PmNi4P
_symmetry_space_group_name_H-M   'P 1'
_cell_length_a   4.80546916
_cell_length_b   5.13114284
_cell_length_c   3.92222300
_cell_angle_alpha   90.00000000
_cell_angle_beta   90.00000000
_cell_angle_gamma   57.68675368
_symmetry_Int_Tables_number   1
_chemical_formula_structural   PmNi4P
_chemical_formula_sum   'Pm1 Ni4 P1'
_cell_volume   81.73535457
_cell_formula_units_Z   1
loop_
 _symmetry_equiv_pos_site_id
 _symmetry_equiv_pos_as_xyz
  1  'x, y, z'
loop_
 _atom_site_type_symbol
 _atom_site_label
 _atom_site_symmetry_multiplicity
 _atom_site_fract_x
 _atom_site_fract_y
 _atom_site_fract_z
 _atom_site_occupancy
  Pm  Pm0  1  0.000012  0.999983  0.000000  1
  Ni  Ni1  1  0.308082  0.345891  0.000000  1
  Ni  Ni2  1  0.691879  0.654100  0.000000  1
  Ni  Ni3  1  0.500089  0.999981  0.499999  1
  Ni  Ni4  1  0.499959  0.500036  0.499999  1
  P  P5  1  0.999973  0.500012  0.499999  1
