# generated using pymatgen
data_Er4Ti3Co16ReP12
_symmetry_space_group_name_H-M   'P 1'
_cell_length_a   3.65884400
_cell_length_b   10.40019840
_cell_length_c   11.88677765
_cell_angle_alpha   90.05994933
_cell_angle_beta   90.00000000
_cell_angle_gamma   90.00000000
_symmetry_Int_Tables_number   1
_chemical_formula_structural   Er4Ti3Co16ReP12
_chemical_formula_sum   'Er4 Ti3 Co16 Re1 P12'
_cell_volume   452.32377819
_cell_formula_units_Z   1
loop_
 _symmetry_equiv_pos_site_id
 _symmetry_equiv_pos_as_xyz
  1  'x, y, z'
loop_
 _atom_site_type_symbol
 _atom_site_label
 _atom_site_symmetry_multiplicity
 _atom_site_fract_x
 _atom_site_fract_y
 _atom_site_fract_z
 _atom_site_occupancy
  Er  Er0  1  0.250000  0.581820  0.705719  1
  Er  Er1  1  0.250000  0.917005  0.204965  1
  Er  Er2  1  0.750000  0.418357  0.294703  1
  Er  Er3  1  0.750000  0.082535  0.794701  1
  Ti  Ti4  1  0.250000  0.702885  0.989786  1
  Ti  Ti5  1  0.250000  0.794769  0.490159  1
  Ti  Ti6  1  0.750000  0.297370  0.009266  1
  Co  Co7  1  0.250000  0.404951  0.488299  1
  Co  Co8  1  0.250000  0.094218  0.990778  1
  Co  Co9  1  0.750000  0.593244  0.511215  1
  Co  Co10  1  0.750000  0.906779  0.012278  1
  Co  Co11  1  0.250000  0.222020  0.179489  1
  Co  Co12  1  0.250000  0.277228  0.674590  1
  Co  Co13  1  0.750000  0.779222  0.824160  1
  Co  Co14  1  0.750000  0.721371  0.323843  1
  Co  Co15  1  0.250000  0.887220  0.700408  1
  Co  Co16  1  0.250000  0.614522  0.199873  1
  Co  Co17  1  0.750000  0.112349  0.300282  1
  Co  Co18  1  0.750000  0.384336  0.797719  1
  Co  Co19  1  0.250000  0.463441  0.932031  1
  Co  Co20  1  0.250000  0.036485  0.432995  1
  Co  Co21  1  0.750000  0.534875  0.066306  1
  Co  Co22  1  0.750000  0.966793  0.566060  1
  Re  Re23  1  0.750000  0.208031  0.510011  1
  P  P24  1  0.250000  0.421676  0.116025  1
  P  P25  1  0.250000  0.079521  0.614664  1
  P  P26  1  0.750000  0.578193  0.883053  1
  P  P27  1  0.750000  0.919719  0.383887  1
  P  P28  1  0.250000  0.267104  0.862184  1
  P  P29  1  0.250000  0.232839  0.366206  1
  P  P30  1  0.750000  0.731149  0.137145  1
  P  P31  1  0.750000  0.769670  0.637971  1
  P  P32  1  0.250000  0.592719  0.389487  1
  P  P33  1  0.250000  0.907733  0.890625  1
  P  P34  1  0.750000  0.404245  0.607807  1
  P  P35  1  0.750000  0.093607  0.111310  1
