# generated using pymatgen
data_CePaRh2Pb
_symmetry_space_group_name_H-M   'P 1'
_cell_length_a   7.84838570
_cell_length_b   7.84838520
_cell_length_c   3.62955600
_cell_angle_alpha   90.00000000
_cell_angle_beta   90.00000000
_cell_angle_gamma   92.96613347
_symmetry_Int_Tables_number   1
_chemical_formula_structural   CePaRh2Pb
_chemical_formula_sum   'Ce2 Pa2 Rh4 Pb2'
_cell_volume   223.27080220
_cell_formula_units_Z   2
loop_
 _symmetry_equiv_pos_site_id
 _symmetry_equiv_pos_as_xyz
  1  'x, y, z'
loop_
 _atom_site_type_symbol
 _atom_site_label
 _atom_site_symmetry_multiplicity
 _atom_site_fract_x
 _atom_site_fract_y
 _atom_site_fract_z
 _atom_site_occupancy
  Ce  Ce0  1  0.170053  0.329947  0.500000  1
  Ce  Ce1  1  0.829947  0.670053  0.500000  1
  Pa  Pa2  1  0.668310  0.168310  0.500000  1
  Pa  Pa3  1  0.331690  0.831690  0.500000  1
  Rh  Rh4  1  0.142282  0.642282  0.000000  1
  Rh  Rh5  1  0.857718  0.357718  0.000000  1
  Rh  Rh6  1  0.624807  0.875193  0.000000  1
  Rh  Rh7  1  0.375193  0.124807  0.000000  1
  Pb  Pb8  1  0.000000  0.000000  0.000000  1
  Pb  Pb9  1  0.500000  0.500000  0.000000  1
