# generated using pymatgen
data_K5Ag(BrO)2
_symmetry_space_group_name_H-M   'P 1'
_cell_length_a   5.41758700
_cell_length_b   7.19948700
_cell_length_c   14.08417500
_cell_angle_alpha   90.00000000
_cell_angle_beta   90.00000000
_cell_angle_gamma   90.00000000
_symmetry_Int_Tables_number   1
_chemical_formula_structural   K5Ag(BrO)2
_chemical_formula_sum   'K10 Ag2 Br4 O4'
_cell_volume   549.33700933
_cell_formula_units_Z   2
loop_
 _symmetry_equiv_pos_site_id
 _symmetry_equiv_pos_as_xyz
  1  'x, y, z'
loop_
 _atom_site_type_symbol
 _atom_site_label
 _atom_site_symmetry_multiplicity
 _atom_site_fract_x
 _atom_site_fract_y
 _atom_site_fract_z
 _atom_site_occupancy
  K  K0  1  0.500000  0.319932  0.606272  1
  K  K1  1  0.500000  0.180068  0.106272  1
  K  K2  1  0.000000  0.601215  0.737558  1
  K  K3  1  0.000000  0.500000  0.000000  1
  K  K4  1  0.500000  0.680068  0.393728  1
  K  K5  1  0.500000  0.819932  0.893728  1
  K  K6  1  0.000000  0.898785  0.237558  1
  K  K7  1  0.000000  0.398785  0.262442  1
  K  K8  1  0.000000  0.101215  0.762442  1
  K  K9  1  0.000000  0.000000  0.500000  1
  Ag  Ag10  1  0.000000  0.500000  0.500000  1
  Ag  Ag11  1  0.000000  0.000000  0.000000  1
  Br  Br12  1  0.500000  0.649551  0.146140  1
  Br  Br13  1  0.500000  0.350449  0.853860  1
  Br  Br14  1  0.500000  0.149551  0.353860  1
  Br  Br15  1  0.500000  0.850449  0.646140  1
  O  O16  1  0.000000  0.684864  0.388263  1
  O  O17  1  0.000000  0.815136  0.888263  1
  O  O18  1  0.000000  0.184864  0.111737  1
  O  O19  1  0.000000  0.315136  0.611737  1
