# generated using pymatgen
data_Ho5FeAuO12
_symmetry_space_group_name_H-M   'P 1'
_cell_length_a   6.81520325
_cell_length_b   6.81520254
_cell_length_c   7.26228882
_cell_angle_alpha   74.39615015
_cell_angle_beta   74.39615367
_cell_angle_gamma   51.38277538
_symmetry_Int_Tables_number   1
_chemical_formula_structural   Ho5FeAuO12
_chemical_formula_sum   'Ho5 Fe1 Au1 O12'
_cell_volume   251.53766773
_cell_formula_units_Z   1
loop_
 _symmetry_equiv_pos_site_id
 _symmetry_equiv_pos_as_xyz
  1  'x, y, z'
loop_
 _atom_site_type_symbol
 _atom_site_label
 _atom_site_symmetry_multiplicity
 _atom_site_fract_x
 _atom_site_fract_y
 _atom_site_fract_z
 _atom_site_occupancy
  Ho  Ho0  1  0.299997  0.302600  0.361381  1
  Ho  Ho1  1  0.697400  0.700003  0.638619  1
  Ho  Ho2  1  0.310410  0.304027  0.829718  1
  Ho  Ho3  1  0.695973  0.689590  0.170282  1
  Ho  Ho4  1  0.998181  0.001819  0.500000  1
  Fe  Fe5  1  0.242413  0.757587  0.000000  1
  Au  Au6  1  0.753484  0.246516  0.000000  1
  O  O7  1  0.906071  0.437172  0.914886  1
  O  O8  1  0.421832  0.895694  0.919307  1
  O  O9  1  0.104306  0.578168  0.080693  1
  O  O10  1  0.562828  0.093929  0.085114  1
  O  O11  1  0.097717  0.598270  0.573954  1
  O  O12  1  0.594815  0.096154  0.576560  1
  O  O13  1  0.903846  0.405185  0.423440  1
  O  O14  1  0.401730  0.902283  0.426046  1
  O  O15  1  0.003251  0.997805  0.811055  1
  O  O16  1  0.002195  0.996749  0.188945  1
  O  O17  1  0.502196  0.498642  0.808021  1
  O  O18  1  0.501358  0.497804  0.191979  1
