# generated using pymatgen
data_PrAgPd4
_symmetry_space_group_name_H-M   'P 1'
_cell_length_a   5.42302322
_cell_length_b   5.42302188
_cell_length_c   5.42302201
_cell_angle_alpha   120.00474593
_cell_angle_beta   120.00472985
_cell_angle_gamma   89.99179422
_symmetry_Int_Tables_number   1
_chemical_formula_structural   PrAgPd4
_chemical_formula_sum   'Pr1 Ag1 Pd4'
_cell_volume   112.76597585
_cell_formula_units_Z   1
loop_
 _symmetry_equiv_pos_site_id
 _symmetry_equiv_pos_as_xyz
  1  'x, y, z'
loop_
 _atom_site_type_symbol
 _atom_site_label
 _atom_site_symmetry_multiplicity
 _atom_site_fract_x
 _atom_site_fract_y
 _atom_site_fract_z
 _atom_site_occupancy
  Pr  Pr0  1  0.000000  0.000000  0.000000  1
  Ag  Ag1  1  0.750001  0.250000  0.500001  1
  Pd  Pd2  1  0.375339  0.624652  0.249313  1
  Pd  Pd3  1  0.873975  0.624662  0.249313  1
  Pd  Pd4  1  0.375339  0.126025  0.750688  1
  Pd  Pd5  1  0.375350  0.624663  0.750688  1
