# generated using pymatgen
data_ErTm(ZnRu)2
_symmetry_space_group_name_H-M   'P 1'
_cell_length_a   5.32990666
_cell_length_b   5.32990561
_cell_length_c   5.32990664
_cell_angle_alpha   121.83530909
_cell_angle_beta   118.46959094
_cell_angle_gamma   89.76097606
_symmetry_Int_Tables_number   1
_chemical_formula_structural   ErTm(ZnRu)2
_chemical_formula_sum   'Er1 Tm1 Zn2 Ru2'
_cell_volume   106.70054641
_cell_formula_units_Z   1
loop_
 _symmetry_equiv_pos_site_id
 _symmetry_equiv_pos_as_xyz
  1  'x, y, z'
loop_
 _atom_site_type_symbol
 _atom_site_label
 _atom_site_symmetry_multiplicity
 _atom_site_fract_x
 _atom_site_fract_y
 _atom_site_fract_z
 _atom_site_occupancy
  Er  Er0  1  0.619549  0.869549  0.750000  1
  Tm  Tm1  1  0.380418  0.130418  0.250000  1
  Zn  Zn2  1  0.999963  0.500070  0.000107  1
  Zn  Zn3  1  0.999963  0.999855  0.499893  1
  Ru  Ru4  1  0.499439  0.500054  0.999384  1
  Ru  Ru5  1  0.000670  0.500054  0.500616  1
