# generated using pymatgen
data_Tb2Y3(SiBi)2
_symmetry_space_group_name_H-M   'P 1'
_cell_length_a   8.68241649
_cell_length_b   8.67671472
_cell_length_c   7.95016915
_cell_angle_alpha   89.98082215
_cell_angle_beta   90.02088785
_cell_angle_gamma   125.58331294
_symmetry_Int_Tables_number   1
_chemical_formula_structural   Tb2Y3(SiBi)2
_chemical_formula_sum   'Tb4 Y6 Si4 Bi4'
_cell_volume   487.08770062
_cell_formula_units_Z   2
loop_
 _symmetry_equiv_pos_site_id
 _symmetry_equiv_pos_as_xyz
  1  'x, y, z'
loop_
 _atom_site_type_symbol
 _atom_site_label
 _atom_site_symmetry_multiplicity
 _atom_site_fract_x
 _atom_site_fract_y
 _atom_site_fract_z
 _atom_site_occupancy
  Tb  Tb0  1  0.042731  0.287582  0.335267  1
  Tb  Tb1  1  0.957251  0.712538  0.664694  1
  Tb  Tb2  1  0.457289  0.212533  0.835220  1
  Tb  Tb3  1  0.787417  0.542721  0.164734  1
  Y  Y4  1  0.542674  0.787225  0.164486  1
  Y  Y5  1  0.212813  0.457320  0.835559  1
  Y  Y6  1  0.712831  0.957383  0.664506  1
  Y  Y7  1  0.287062  0.042646  0.335532  1
  Y  Y8  1  0.999956  0.000041  0.000001  1
  Y  Y9  1  0.499985  0.500014  0.500004  1
  Si  Si10  1  0.365566  0.365411  0.133336  1
  Si  Si11  1  0.634420  0.634606  0.866657  1
  Si  Si12  1  0.134400  0.134614  0.633341  1
  Si  Si13  1  0.865415  0.865565  0.366664  1
  Bi  Bi14  1  0.792582  0.207289  0.999783  1
  Bi  Bi15  1  0.207629  0.792485  0.000216  1
  Bi  Bi16  1  0.707193  0.292283  0.499917  1
  Bi  Bi17  1  0.292787  0.707744  0.500084  1
