# generated using pymatgen
data_YLu15In6CoOs
_symmetry_space_group_name_H-M   'P 1'
_cell_length_a   10.18823700
_cell_length_b   10.18823720
_cell_length_c   6.93869900
_cell_angle_alpha   90.00000000
_cell_angle_beta   90.00000000
_cell_angle_gamma   120.00000261
_symmetry_Int_Tables_number   1
_chemical_formula_structural   YLu15In6CoOs
_chemical_formula_sum   'Y1 Lu15 In6 Co1 Os1'
_cell_volume   623.74453703
_cell_formula_units_Z   1
loop_
 _symmetry_equiv_pos_site_id
 _symmetry_equiv_pos_as_xyz
  1  'x, y, z'
loop_
 _atom_site_type_symbol
 _atom_site_label
 _atom_site_symmetry_multiplicity
 _atom_site_fract_x
 _atom_site_fract_y
 _atom_site_fract_z
 _atom_site_occupancy
  Y  Y0  1  0.000000  0.000000  0.997082  1
  Lu  Lu1  1  0.467658  0.532342  0.481665  1
  Lu  Lu2  1  0.064684  0.532342  0.481665  1
  Lu  Lu3  1  0.467658  0.935316  0.481665  1
  Lu  Lu4  1  0.534766  0.465234  0.981433  1
  Lu  Lu5  1  0.930467  0.465234  0.981433  1
  Lu  Lu6  1  0.534766  0.069533  0.981433  1
  Lu  Lu7  1  0.819985  0.180015  0.276052  1
  Lu  Lu8  1  0.360030  0.180015  0.276052  1
  Lu  Lu9  1  0.819985  0.639970  0.276052  1
  Lu  Lu10  1  0.178019  0.821981  0.776867  1
  Lu  Lu11  1  0.643961  0.821981  0.776867  1
  Lu  Lu12  1  0.178019  0.356039  0.776867  1
  Lu  Lu13  1  0.333333  0.666667  0.103168  1
  Lu  Lu14  1  0.666667  0.333333  0.591174  1
  Lu  Lu15  1  0.000000  0.000000  0.494815  1
  In  In16  1  0.162161  0.837839  0.237025  1
  In  In17  1  0.675680  0.837839  0.237025  1
  In  In18  1  0.162161  0.324320  0.237025  1
  In  In19  1  0.836371  0.163629  0.730422  1
  In  In20  1  0.327257  0.163629  0.730422  1
  In  In21  1  0.836371  0.672743  0.730422  1
  Co  Co22  1  0.666667  0.333333  0.204273  1
  Os  Os23  1  0.333333  0.666667  0.703647  1
