# generated using pymatgen
data_Zr4Ta4Si3As
_symmetry_space_group_name_H-M   'P 1'
_cell_length_a   3.65439800
_cell_length_b   7.01038663
_cell_length_c   8.52110007
_cell_angle_alpha   89.91761213
_cell_angle_beta   90.00000000
_cell_angle_gamma   90.00000000
_symmetry_Int_Tables_number   1
_chemical_formula_structural   Zr4Ta4Si3As
_chemical_formula_sum   'Zr4 Ta4 Si3 As1'
_cell_volume   218.29964628
_cell_formula_units_Z   1
loop_
 _symmetry_equiv_pos_site_id
 _symmetry_equiv_pos_as_xyz
  1  'x, y, z'
loop_
 _atom_site_type_symbol
 _atom_site_label
 _atom_site_symmetry_multiplicity
 _atom_site_fract_x
 _atom_site_fract_y
 _atom_site_fract_z
 _atom_site_occupancy
  Zr  Zr0  1  0.250000  0.541370  0.832394  1
  Zr  Zr1  1  0.750000  0.953926  0.332013  1
  Zr  Zr2  1  0.250000  0.039015  0.670821  1
  Zr  Zr3  1  0.750000  0.462325  0.165398  1
  Ta  Ta4  1  0.250000  0.133435  0.057095  1
  Ta  Ta5  1  0.750000  0.867420  0.940609  1
  Ta  Ta6  1  0.250000  0.636064  0.441714  1
  Ta  Ta7  1  0.750000  0.367912  0.561061  1
  Si  Si8  1  0.750000  0.742715  0.641642  1
  Si  Si9  1  0.250000  0.756946  0.140649  1
  Si  Si10  1  0.750000  0.244393  0.858456  1
  As  As11  1  0.250000  0.254478  0.358146  1
