# generated using pymatgen
data_DyIn2Bi3(SbO7)2
_symmetry_space_group_name_H-M   'P 1'
_cell_length_a   6.47772818
_cell_length_b   6.55078355
_cell_length_c   7.62165181
_cell_angle_alpha   106.97644457
_cell_angle_beta   89.49760132
_cell_angle_gamma   98.84302021
_symmetry_Int_Tables_number   1
_chemical_formula_structural   DyIn2Bi3(SbO7)2
_chemical_formula_sum   'Dy1 In2 Bi3 Sb2 O14'
_cell_volume   305.42548778
_cell_formula_units_Z   1
loop_
 _symmetry_equiv_pos_site_id
 _symmetry_equiv_pos_as_xyz
  1  'x, y, z'
loop_
 _atom_site_type_symbol
 _atom_site_label
 _atom_site_symmetry_multiplicity
 _atom_site_fract_x
 _atom_site_fract_y
 _atom_site_fract_z
 _atom_site_occupancy
  Dy  Dy0  1  0.258536  0.539791  0.885048  1
  In  In1  1  0.534759  0.995785  0.750067  1
  In  In2  1  0.465804  0.002234  0.252739  1
  Bi  Bi3  1  0.742810  0.469071  0.113115  1
  Bi  Bi4  1  0.733202  0.464282  0.613025  1
  Bi  Bi5  1  0.258443  0.531721  0.387381  1
  Sb  Sb6  1  0.002466  0.005359  0.502011  1
  Sb  Sb7  1  0.003176  0.001456  0.999681  1
  O  O8  1  0.443167  0.661356  0.168617  1
  O  O9  1  0.541937  0.335461  0.822556  1
  O  O10  1  0.294200  0.932946  0.950772  1
  O  O11  1  0.706851  0.048665  0.047764  1
  O  O12  1  0.291494  0.929207  0.513458  1
  O  O13  1  0.710445  0.073595  0.487698  1
  O  O14  1  0.527511  0.343331  0.345124  1
  O  O15  1  0.462294  0.653714  0.662769  1
  O  O16  1  0.936436  0.676783  0.951708  1
  O  O17  1  0.082433  0.319879  0.040211  1
  O  O18  1  0.094637  0.321257  0.622309  1
  O  O19  1  0.907350  0.688415  0.382703  1
  O  O20  1  0.900150  0.944326  0.736206  1
  O  O21  1  0.101904  0.061367  0.265039  1
