# generated using pymatgen
data_Ta7Nb5Co8(MoN)4
_symmetry_space_group_name_H-M   'P 1'
_cell_length_a   8.15504463
_cell_length_b   8.16334749
_cell_length_c   8.16334744
_cell_angle_alpha   60.03252353
_cell_angle_beta   60.03363613
_cell_angle_gamma   60.03363986
_symmetry_Int_Tables_number   1
_chemical_formula_structural   Ta7Nb5Co8(MoN)4
_chemical_formula_sum   'Ta7 Nb5 Co8 Mo4 N4'
_cell_volume   384.56988857
_cell_formula_units_Z   1
loop_
 _symmetry_equiv_pos_site_id
 _symmetry_equiv_pos_as_xyz
  1  'x, y, z'
loop_
 _atom_site_type_symbol
 _atom_site_label
 _atom_site_symmetry_multiplicity
 _atom_site_fract_x
 _atom_site_fract_y
 _atom_site_fract_z
 _atom_site_occupancy
  Ta  Ta0  1  0.809520  0.190480  0.190480  1
  Ta  Ta1  1  0.439994  0.440823  0.059625  1
  Ta  Ta2  1  0.059557  0.059625  0.440823  1
  Ta  Ta3  1  0.439994  0.059625  0.440823  1
  Ta  Ta4  1  0.059557  0.440823  0.059625  1
  Ta  Ta5  1  0.060291  0.439709  0.439709  1
  Ta  Ta6  1  0.439437  0.060563  0.060563  1
  Nb  Nb7  1  0.810462  0.810183  0.189499  1
  Nb  Nb8  1  0.189856  0.189499  0.810183  1
  Nb  Nb9  1  0.810462  0.189499  0.810183  1
  Nb  Nb10  1  0.189856  0.810183  0.189499  1
  Nb  Nb11  1  0.189773  0.810227  0.810227  1
  Co  Co12  1  0.733750  0.421426  0.421426  1
  Co  Co13  1  0.422352  0.733312  0.421984  1
  Co  Co14  1  0.422352  0.421984  0.733312  1
  Co  Co15  1  0.423397  0.421426  0.421426  1
  Co  Co16  1  0.519108  0.826817  0.826817  1
  Co  Co17  1  0.826887  0.518042  0.828185  1
  Co  Co18  1  0.826887  0.828185  0.518042  1
  Co  Co19  1  0.827258  0.826817  0.826817  1
  Mo  Mo20  1  0.124809  0.624828  0.624828  1
  Mo  Mo21  1  0.625222  0.124402  0.625153  1
  Mo  Mo22  1  0.625222  0.625153  0.124402  1
  Mo  Mo23  1  0.625534  0.624828  0.624828  1
  N  N24  1  0.621728  0.127167  0.127167  1
  N  N25  1  0.126398  0.620510  0.126694  1
  N  N26  1  0.126398  0.126694  0.620510  1
  N  N27  1  0.123938  0.127167  0.127167  1
