# generated using pymatgen
data_DyY(Co5P3)2
_symmetry_space_group_name_H-M   'P 1'
_cell_length_a   3.64890400
_cell_length_b   10.27877111
_cell_length_c   11.73361813
_cell_angle_alpha   90.01681517
_cell_angle_beta   90.00000000
_cell_angle_gamma   90.00000000
_symmetry_Int_Tables_number   1
_chemical_formula_structural   DyY(Co5P3)2
_chemical_formula_sum   'Dy2 Y2 Co20 P12'
_cell_volume   440.08398441
_cell_formula_units_Z   2
loop_
 _symmetry_equiv_pos_site_id
 _symmetry_equiv_pos_as_xyz
  1  'x, y, z'
loop_
 _atom_site_type_symbol
 _atom_site_label
 _atom_site_symmetry_multiplicity
 _atom_site_fract_x
 _atom_site_fract_y
 _atom_site_fract_z
 _atom_site_occupancy
  Dy  Dy0  1  0.250000  0.917132  0.202589  1
  Dy  Dy1  1  0.750000  0.082868  0.797411  1
  Y  Y2  1  0.750000  0.417003  0.297334  1
  Y  Y3  1  0.250000  0.582997  0.702666  1
  Co  Co4  1  0.250000  0.784094  0.491092  1
  Co  Co5  1  0.750000  0.215906  0.508908  1
  Co  Co6  1  0.750000  0.283917  0.008845  1
  Co  Co7  1  0.250000  0.716083  0.991155  1
  Co  Co8  1  0.250000  0.093323  0.988151  1
  Co  Co9  1  0.750000  0.906677  0.011849  1
  Co  Co10  1  0.750000  0.593402  0.511620  1
  Co  Co11  1  0.250000  0.406598  0.488380  1
  Co  Co12  1  0.250000  0.278598  0.676436  1
  Co  Co13  1  0.750000  0.721402  0.323564  1
  Co  Co14  1  0.750000  0.778778  0.823668  1
  Co  Co15  1  0.250000  0.221222  0.176332  1
  Co  Co16  1  0.250000  0.617554  0.198284  1
  Co  Co17  1  0.750000  0.382446  0.801716  1
  Co  Co18  1  0.750000  0.117253  0.301624  1
  Co  Co19  1  0.250000  0.882747  0.698376  1
  Co  Co20  1  0.250000  0.032221  0.431944  1
  Co  Co21  1  0.750000  0.967779  0.568056  1
  Co  Co22  1  0.750000  0.532355  0.068035  1
  Co  Co23  1  0.250000  0.467645  0.931965  1
  P  P24  1  0.250000  0.081369  0.612142  1
  P  P25  1  0.750000  0.918631  0.387858  1
  P  P26  1  0.750000  0.581434  0.888049  1
  P  P27  1  0.250000  0.418566  0.111951  1
  P  P28  1  0.250000  0.228952  0.370225  1
  P  P29  1  0.750000  0.771048  0.629775  1
  P  P30  1  0.750000  0.729149  0.129898  1
  P  P31  1  0.250000  0.270851  0.870102  1
  P  P32  1  0.250000  0.898058  0.891313  1
  P  P33  1  0.750000  0.101942  0.108687  1
  P  P34  1  0.750000  0.397878  0.608614  1
  P  P35  1  0.250000  0.602122  0.391386  1
