# generated using pymatgen
data_Tm2ZrWF14
_symmetry_space_group_name_H-M   'P 1'
_cell_length_a   5.68167001
_cell_length_b   6.01344977
_cell_length_c   8.21902900
_cell_angle_alpha   102.59139473
_cell_angle_beta   90.00255133
_cell_angle_gamma   90.01966210
_symmetry_Int_Tables_number   1
_chemical_formula_structural   Tm2ZrWF14
_chemical_formula_sum   'Tm2 Zr1 W1 F14'
_cell_volume   274.06118430
_cell_formula_units_Z   1
loop_
 _symmetry_equiv_pos_site_id
 _symmetry_equiv_pos_as_xyz
  1  'x, y, z'
loop_
 _atom_site_type_symbol
 _atom_site_label
 _atom_site_symmetry_multiplicity
 _atom_site_fract_x
 _atom_site_fract_y
 _atom_site_fract_z
 _atom_site_occupancy
  Tm  Tm0  1  0.699054  0.654296  0.685169  1
  Tm  Tm1  1  0.198967  0.348045  0.316065  1
  Zr  Zr2  1  0.707298  0.812641  0.224207  1
  W  W3  1  0.207150  0.186401  0.774498  1
  F  F4  1  0.903026  0.462399  0.480870  1
  F  F5  1  0.403181  0.533651  0.518693  1
  F  F6  1  0.435532  0.920883  0.766132  1
  F  F7  1  0.934832  0.078450  0.233511  1
  F  F8  1  0.944946  0.958270  0.758588  1
  F  F9  1  0.448325  0.054604  0.242528  1
  F  F10  1  0.978900  0.456196  0.791042  1
  F  F11  1  0.487473  0.540982  0.209329  1
  F  F12  1  0.697380  0.756957  0.972757  1
  F  F13  1  0.196301  0.241005  0.022044  1
  F  F14  1  0.704259  0.862583  0.477142  1
  F  F15  1  0.209833  0.128942  0.525330  1
  F  F16  1  0.491421  0.386397  0.784054  1
  F  F17  1  0.004846  0.617297  0.218044  1
