# generated using pymatgen
data_Ho2TmPa(ReB6)2
_symmetry_space_group_name_H-M   'P 1'
_cell_length_a   3.68840200
_cell_length_b   9.14144884
_cell_length_c   11.50911569
_cell_angle_alpha   90.35227098
_cell_angle_beta   90.00000000
_cell_angle_gamma   90.00000000
_symmetry_Int_Tables_number   1
_chemical_formula_structural   Ho2TmPa(ReB6)2
_chemical_formula_sum   'Ho4 Tm2 Pa2 Re4 B24'
_cell_volume   388.04941143
_cell_formula_units_Z   2
loop_
 _symmetry_equiv_pos_site_id
 _symmetry_equiv_pos_as_xyz
  1  'x, y, z'
loop_
 _atom_site_type_symbol
 _atom_site_label
 _atom_site_symmetry_multiplicity
 _atom_site_fract_x
 _atom_site_fract_y
 _atom_site_fract_z
 _atom_site_occupancy
  Ho  Ho0  1  0.000000  0.823363  0.085530  1
  Ho  Ho1  1  0.000000  0.176637  0.914470  1
  Ho  Ho2  1  0.000000  0.944682  0.372130  1
  Ho  Ho3  1  0.000000  0.055318  0.627870  1
  Tm  Tm4  1  0.000000  0.443767  0.126240  1
  Tm  Tm5  1  0.000000  0.556233  0.873760  1
  Pa  Pa6  1  0.000000  0.321512  0.413050  1
  Pa  Pa7  1  0.000000  0.678488  0.586950  1
  Re  Re8  1  0.000000  0.634896  0.324003  1
  Re  Re9  1  0.000000  0.365104  0.675997  1
  Re  Re10  1  0.000000  0.141077  0.181267  1
  Re  Re11  1  0.000000  0.858923  0.818733  1
  B  B12  1  0.500000  0.553624  0.432756  1
  B  B13  1  0.500000  0.446376  0.567244  1
  B  B14  1  0.500000  0.053545  0.067102  1
  B  B15  1  0.500000  0.946455  0.932898  1
  B  B16  1  0.500000  0.748389  0.419350  1
  B  B17  1  0.500000  0.251611  0.580650  1
  B  B18  1  0.500000  0.248728  0.080089  1
  B  B19  1  0.500000  0.751272  0.919911  1
  B  B20  1  0.500000  0.791223  0.264940  1
  B  B21  1  0.500000  0.208777  0.735060  1
  B  B22  1  0.500000  0.292526  0.233541  1
  B  B23  1  0.500000  0.707474  0.766459  1
  B  B24  1  0.500000  0.630701  0.184769  1
  B  B25  1  0.500000  0.369299  0.815231  1
  B  B26  1  0.500000  0.132054  0.313883  1
  B  B27  1  0.500000  0.867946  0.686117  1
  B  B28  1  0.500000  0.982178  0.211729  1
  B  B29  1  0.500000  0.017822  0.788271  1
  B  B30  1  0.500000  0.482606  0.285955  1
  B  B31  1  0.500000  0.517394  0.714045  1
  B  B32  1  0.500000  0.603231  0.028878  1
  B  B33  1  0.500000  0.396769  0.971122  1
  B  B34  1  0.500000  0.109236  0.469774  1
  B  B35  1  0.500000  0.890764  0.530226  1
