# generated using pymatgen
data_CeDy7Ho2(SiB4)4
_symmetry_space_group_name_H-M   'P 1'
_cell_length_a   7.23439709
_cell_length_b   7.23439704
_cell_length_c   8.12013200
_cell_angle_alpha   89.99551658
_cell_angle_beta   89.99567960
_cell_angle_gamma   90.03449893
_symmetry_Int_Tables_number   1
_chemical_formula_structural   CeDy7Ho2(SiB4)4
_chemical_formula_sum   'Ce1 Dy7 Ho2 Si4 B16'
_cell_volume   424.97921630
_cell_formula_units_Z   1
loop_
 _symmetry_equiv_pos_site_id
 _symmetry_equiv_pos_as_xyz
  1  'x, y, z'
loop_
 _atom_site_type_symbol
 _atom_site_label
 _atom_site_symmetry_multiplicity
 _atom_site_fract_x
 _atom_site_fract_y
 _atom_site_fract_z
 _atom_site_occupancy
  Ce  Ce0  1  0.682217  0.182208  0.231959  1
  Dy  Dy1  1  0.318677  0.818677  0.776849  1
  Dy  Dy2  1  0.319683  0.819680  0.222742  1
  Dy  Dy3  1  0.819402  0.680570  0.222568  1
  Dy  Dy4  1  0.819586  0.680862  0.777175  1
  Dy  Dy5  1  0.680727  0.180725  0.776680  1
  Dy  Dy6  1  0.180857  0.319583  0.777172  1
  Dy  Dy7  1  0.180568  0.319400  0.222567  1
  Ho  Ho8  1  0.000651  0.999146  0.500396  1
  Ho  Ho9  1  0.499140  0.500651  0.500395  1
  Si  Si10  1  0.116091  0.616092  0.501962  1
  Si  Si11  1  0.886195  0.386197  0.500930  1
  Si  Si12  1  0.384326  0.114330  0.499875  1
  Si  Si13  1  0.614329  0.884325  0.499875  1
  B  B14  1  0.172608  0.038904  0.998781  1
  B  B15  1  0.827697  0.960805  0.999727  1
  B  B16  1  0.960692  0.171753  0.999473  1
  B  B17  1  0.327279  0.539707  0.998956  1
  B  B18  1  0.039708  0.827281  0.998957  1
  B  B19  1  0.671754  0.460692  0.999475  1
  B  B20  1  0.538903  0.672608  0.998781  1
  B  B21  1  0.460805  0.327697  0.999727  1
  B  B22  1  0.090104  0.590104  0.999117  1
  B  B23  1  0.909533  0.409534  0.001016  1
  B  B24  1  0.409758  0.089872  0.999205  1
  B  B25  1  0.589871  0.909756  0.999204  1
  B  B26  1  0.999680  0.999284  0.161253  1
  B  B27  1  0.000118  0.999760  0.836964  1
  B  B28  1  0.499760  0.500118  0.836965  1
  B  B29  1  0.499283  0.499679  0.161254  1
