# generated using pymatgen
data_Dy2(PPd)3
_symmetry_space_group_name_H-M   'P 1'
_cell_length_a   3.96821100
_cell_length_b   10.85015500
_cell_length_c   13.38825400
_cell_angle_alpha   90.00000000
_cell_angle_beta   90.00000000
_cell_angle_gamma   90.00000000
_symmetry_Int_Tables_number   1
_chemical_formula_structural   Dy2(PPd)3
_chemical_formula_sum   'Dy8 P12 Pd12'
_cell_volume   576.44070696
_cell_formula_units_Z   4
loop_
 _symmetry_equiv_pos_site_id
 _symmetry_equiv_pos_as_xyz
  1  'x, y, z'
loop_
 _atom_site_type_symbol
 _atom_site_label
 _atom_site_symmetry_multiplicity
 _atom_site_fract_x
 _atom_site_fract_y
 _atom_site_fract_z
 _atom_site_occupancy
  Dy  Dy0  1  0.250000  0.927487  0.784264  1
  Dy  Dy1  1  0.750000  0.427487  0.715736  1
  Dy  Dy2  1  0.250000  0.572513  0.284264  1
  Dy  Dy3  1  0.750000  0.072513  0.215736  1
  Dy  Dy4  1  0.250000  0.840962  0.503722  1
  Dy  Dy5  1  0.750000  0.340962  0.996278  1
  Dy  Dy6  1  0.250000  0.659038  0.003722  1
  Dy  Dy7  1  0.750000  0.159038  0.496278  1
  P  P8  1  0.250000  0.237533  0.643641  1
  P  P9  1  0.750000  0.737533  0.856359  1
  P  P10  1  0.250000  0.262467  0.143641  1
  P  P11  1  0.750000  0.762467  0.356359  1
  P  P12  1  0.250000  0.602466  0.603631  1
  P  P13  1  0.750000  0.102466  0.896369  1
  P  P14  1  0.250000  0.897534  0.103631  1
  P  P15  1  0.750000  0.397534  0.396369  1
  P  P16  1  0.250000  0.054264  0.376388  1
  P  P17  1  0.750000  0.554264  0.123612  1
  P  P18  1  0.250000  0.445736  0.876388  1
  P  P19  1  0.750000  0.945736  0.623612  1
  Pd  Pd20  1  0.250000  0.406982  0.523995  1
  Pd  Pd21  1  0.750000  0.906982  0.976005  1
  Pd  Pd22  1  0.250000  0.093018  0.023995  1
  Pd  Pd23  1  0.750000  0.593018  0.476005  1
  Pd  Pd24  1  0.250000  0.270974  0.337808  1
  Pd  Pd25  1  0.750000  0.770974  0.162192  1
  Pd  Pd26  1  0.250000  0.229026  0.837808  1
  Pd  Pd27  1  0.750000  0.729026  0.662192  1
  Pd  Pd28  1  0.250000  0.866049  0.282536  1
  Pd  Pd29  1  0.750000  0.366049  0.217464  1
  Pd  Pd30  1  0.250000  0.633951  0.782536  1
  Pd  Pd31  1  0.750000  0.133951  0.717464  1
