# generated using pymatgen
data_SmDyEr2Ni13C4
_symmetry_space_group_name_H-M   'P 1'
_cell_length_a   8.38372955
_cell_length_b   8.38373037
_cell_length_c   3.86103200
_cell_angle_alpha   90.00000000
_cell_angle_beta   90.00000000
_cell_angle_gamma   90.91342882
_symmetry_Int_Tables_number   1
_chemical_formula_structural   SmDyEr2Ni13C4
_chemical_formula_sum   'Sm1 Dy1 Er2 Ni13 C4'
_cell_volume   271.34559243
_cell_formula_units_Z   1
loop_
 _symmetry_equiv_pos_site_id
 _symmetry_equiv_pos_as_xyz
  1  'x, y, z'
loop_
 _atom_site_type_symbol
 _atom_site_label
 _atom_site_symmetry_multiplicity
 _atom_site_fract_x
 _atom_site_fract_y
 _atom_site_fract_z
 _atom_site_occupancy
  Sm  Sm0  1  0.652161  0.652161  0.500000  1
  Dy  Dy1  1  0.348107  0.348107  0.500000  1
  Er  Er2  1  0.187138  0.813187  0.500000  1
  Er  Er3  1  0.813187  0.187138  0.500000  1
  Ni  Ni4  1  0.497917  0.003395  0.500000  1
  Ni  Ni5  1  0.003395  0.497917  0.500000  1
  Ni  Ni6  1  0.000992  0.000992  0.000000  1
  Ni  Ni7  1  0.427888  0.784126  0.000000  1
  Ni  Ni8  1  0.569926  0.214269  0.000000  1
  Ni  Ni9  1  0.784126  0.427888  0.000000  1
  Ni  Ni10  1  0.214269  0.569926  0.000000  1
  Ni  Ni11  1  0.710269  0.929756  0.000000  1
  Ni  Ni12  1  0.291087  0.073109  0.000000  1
  Ni  Ni13  1  0.929756  0.710269  0.000000  1
  Ni  Ni14  1  0.073109  0.291087  0.000000  1
  Ni  Ni15  1  0.878984  0.878984  0.500000  1
  Ni  Ni16  1  0.123670  0.123670  0.500000  1
  C  C17  1  0.998371  0.499861  0.000000  1
  C  C18  1  0.499861  0.998371  0.000000  1
  C  C19  1  0.554900  0.440886  0.000000  1
  C  C20  1  0.440886  0.554900  0.000000  1
