# generated using pymatgen
data_Nb2TlS4
_symmetry_space_group_name_H-M   'P 1'
_cell_length_a   5.90591000
_cell_length_b   6.81337900
_cell_length_c   14.89024000
_cell_angle_alpha   90.00000000
_cell_angle_beta   90.00000000
_cell_angle_gamma   90.00000000
_symmetry_Int_Tables_number   1
_chemical_formula_structural   Nb2TlS4
_chemical_formula_sum   'Nb8 Tl4 S16'
_cell_volume   599.17139261
_cell_formula_units_Z   4
loop_
 _symmetry_equiv_pos_site_id
 _symmetry_equiv_pos_as_xyz
  1  'x, y, z'
loop_
 _atom_site_type_symbol
 _atom_site_label
 _atom_site_symmetry_multiplicity
 _atom_site_fract_x
 _atom_site_fract_y
 _atom_site_fract_z
 _atom_site_occupancy
  Nb  Nb0  1  0.156477  0.000000  0.250000  1
  Nb  Nb1  1  0.156477  0.500000  0.250000  1
  Nb  Nb2  1  0.339314  0.250000  0.748336  1
  Nb  Nb3  1  0.339314  0.750000  0.751664  1
  Nb  Nb4  1  0.660686  0.250000  0.248336  1
  Nb  Nb5  1  0.660686  0.750000  0.251664  1
  Nb  Nb6  1  0.843523  0.000000  0.750000  1
  Nb  Nb7  1  0.843523  0.500000  0.750000  1
  Tl  Tl8  1  0.313928  0.250000  0.000794  1
  Tl  Tl9  1  0.313928  0.750000  0.499206  1
  Tl  Tl10  1  0.686072  0.250000  0.500794  1
  Tl  Tl11  1  0.686072  0.750000  0.999206  1
  S  S12  1  0.011614  0.250000  0.647000  1
  S  S13  1  0.011614  0.750000  0.853000  1
  S  S14  1  0.004341  0.250000  0.852445  1
  S  S15  1  0.004341  0.750000  0.647555  1
  S  S16  1  0.491959  0.502344  0.148115  1
  S  S17  1  0.491959  0.997656  0.148115  1
  S  S18  1  0.491959  0.002344  0.351885  1
  S  S19  1  0.491959  0.497656  0.351885  1
  S  S20  1  0.508041  0.502344  0.648115  1
  S  S21  1  0.508041  0.002344  0.851885  1
  S  S22  1  0.508041  0.497656  0.851885  1
  S  S23  1  0.508041  0.997656  0.648115  1
  S  S24  1  0.995659  0.750000  0.147555  1
  S  S25  1  0.995659  0.250000  0.352445  1
  S  S26  1  0.988386  0.250000  0.147000  1
  S  S27  1  0.988386  0.750000  0.353000  1
