# generated using pymatgen
data_Sr3Ac3P17Pd6
_symmetry_space_group_name_H-M   'P 1'
_cell_length_a   9.10633430
_cell_length_b   9.10633350
_cell_length_c   9.14931100
_cell_angle_alpha   109.92407286
_cell_angle_beta   109.01161598
_cell_angle_gamma   109.28819855
_symmetry_Int_Tables_number   1
_chemical_formula_structural   Sr3Ac3P17Pd6
_chemical_formula_sum   'Sr3 Ac3 P17 Pd6'
_cell_volume   585.38942014
_cell_formula_units_Z   1
loop_
 _symmetry_equiv_pos_site_id
 _symmetry_equiv_pos_as_xyz
  1  'x, y, z'
loop_
 _atom_site_type_symbol
 _atom_site_label
 _atom_site_symmetry_multiplicity
 _atom_site_fract_x
 _atom_site_fract_y
 _atom_site_fract_z
 _atom_site_occupancy
  Sr  Sr0  1  0.282189  0.282189  0.000000  1
  Sr  Sr1  1  0.001462  0.712879  0.712245  1
  Sr  Sr2  1  0.000634  0.289217  0.287755  1
  Ac  Ac3  1  0.281695  0.001132  0.279767  1
  Ac  Ac4  1  0.721365  0.001928  0.720233  1
  Ac  Ac5  1  0.713556  0.713556  0.000000  1
  P  P6  1  0.639922  0.422385  0.639639  1
  P  P7  1  0.782746  0.000282  0.360361  1
  P  P8  1  0.361696  0.000257  0.783012  1
  P  P9  1  0.781126  0.360666  0.000501  1
  P  P10  1  0.217643  0.217396  0.577123  1
  P  P11  1  0.577875  0.219475  0.219092  1
  P  P12  1  0.000383  0.358783  0.780908  1
  P  P13  1  0.000254  0.780817  0.358251  1
  P  P14  1  0.360165  0.780624  0.999499  1
  P  P15  1  0.640272  0.640520  0.422877  1
  P  P16  1  0.422566  0.642003  0.641749  1
  P  P17  1  0.217246  0.578684  0.216988  1
  P  P18  1  0.439412  0.438276  0.439394  1
  P  P19  1  0.998882  0.000020  0.560606  1
  P  P20  1  0.561945  0.999440  0.999724  1
  P  P21  1  0.999716  0.562222  0.000276  1
  P  P22  1  0.996300  0.996300  0.000000  1
  Pd  Pd23  1  0.252655  0.752655  0.500000  1
  Pd  Pd24  1  0.499355  0.249003  0.749056  1
  Pd  Pd25  1  0.499946  0.750297  0.250944  1
  Pd  Pd26  1  0.250398  0.499087  0.749972  1
  Pd  Pd27  1  0.749115  0.500425  0.250028  1
  Pd  Pd28  1  0.749481  0.249481  0.500000  1
