# generated using pymatgen
data_Er8Sc2IrRh5
_symmetry_space_group_name_H-M   'P 1'
_cell_length_a   10.71466606
_cell_length_b   10.71053700
_cell_length_c   6.24003162
_cell_angle_alpha   90.00000000
_cell_angle_beta   90.05100399
_cell_angle_gamma   90.00000000
_symmetry_Int_Tables_number   1
_chemical_formula_structural   Er8Sc2IrRh5
_chemical_formula_sum   'Er16 Sc4 Ir2 Rh10'
_cell_volume   716.10466706
_cell_formula_units_Z   2
loop_
 _symmetry_equiv_pos_site_id
 _symmetry_equiv_pos_as_xyz
  1  'x, y, z'
loop_
 _atom_site_type_symbol
 _atom_site_label
 _atom_site_symmetry_multiplicity
 _atom_site_fract_x
 _atom_site_fract_y
 _atom_site_fract_z
 _atom_site_occupancy
  Er  Er0  1  0.288342  0.087737  0.377172  1
  Er  Er1  1  0.288342  0.912263  0.877172  1
  Er  Er2  1  0.711802  0.086106  0.877208  1
  Er  Er3  1  0.711802  0.913894  0.377208  1
  Er  Er4  1  0.584863  0.787414  0.877482  1
  Er  Er5  1  0.584863  0.212586  0.377482  1
  Er  Er6  1  0.413618  0.787887  0.377683  1
  Er  Er7  1  0.413618  0.212113  0.877683  1
  Er  Er8  1  0.212899  0.415032  0.622334  1
  Er  Er9  1  0.212899  0.584968  0.122334  1
  Er  Er10  1  0.788077  0.413624  0.122483  1
  Er  Er11  1  0.788077  0.586376  0.622483  1
  Er  Er12  1  0.913905  0.712003  0.122650  1
  Er  Er13  1  0.913905  0.287997  0.622650  1
  Er  Er14  1  0.087837  0.711508  0.623047  1
  Er  Er15  1  0.087837  0.288492  0.123047  1
  Sc  Sc16  1  0.000001  0.999941  0.499987  1
  Sc  Sc17  1  0.000001  0.000059  0.999987  1
  Sc  Sc18  1  0.499111  0.500067  0.999915  1
  Sc  Sc19  1  0.499111  0.499933  0.499915  1
  Ir  Ir20  1  0.350967  0.350018  0.249918  1
  Ir  Ir21  1  0.350967  0.649982  0.749918  1
  Rh  Rh22  1  0.850909  0.148958  0.249996  1
  Rh  Rh23  1  0.850909  0.851042  0.749996  1
  Rh  Rh24  1  0.148411  0.148554  0.749971  1
  Rh  Rh25  1  0.148411  0.851446  0.249971  1
  Rh  Rh26  1  0.650127  0.350932  0.750157  1
  Rh  Rh27  1  0.650127  0.649068  0.250157  1
  Rh  Rh28  1  0.500282  0.999972  0.122172  1
  Rh  Rh29  1  0.500282  0.000028  0.622172  1
  Rh  Rh30  1  0.998849  0.499900  0.877826  1
  Rh  Rh31  1  0.998849  0.500100  0.377826  1
