# generated using pymatgen
data_Zr12Al3Zn9N4
_symmetry_space_group_name_H-M   'P 1'
_cell_length_a   8.65189813
_cell_length_b   8.65189813
_cell_length_c   8.65279316
_cell_angle_alpha   59.94816250
_cell_angle_beta   59.94816391
_cell_angle_gamma   59.92283126
_symmetry_Int_Tables_number   1
_chemical_formula_structural   Zr12Al3Zn9N4
_chemical_formula_sum   'Zr12 Al3 Zn9 N4'
_cell_volume   457.37231621
_cell_formula_units_Z   1
loop_
 _symmetry_equiv_pos_site_id
 _symmetry_equiv_pos_as_xyz
  1  'x, y, z'
loop_
 _atom_site_type_symbol
 _atom_site_label
 _atom_site_symmetry_multiplicity
 _atom_site_fract_x
 _atom_site_fract_y
 _atom_site_fract_z
 _atom_site_occupancy
  Zr  Zr0  1  0.815526  0.185148  0.184285  1
  Zr  Zr1  1  0.185148  0.815526  0.184285  1
  Zr  Zr2  1  0.814576  0.814576  0.185465  1
  Zr  Zr3  1  0.185206  0.814819  0.815403  1
  Zr  Zr4  1  0.814819  0.185206  0.815403  1
  Zr  Zr5  1  0.184027  0.184027  0.816474  1
  Zr  Zr6  1  0.434163  0.066058  0.064503  1
  Zr  Zr7  1  0.066058  0.434163  0.064503  1
  Zr  Zr8  1  0.434396  0.434396  0.064887  1
  Zr  Zr9  1  0.066606  0.434550  0.434480  1
  Zr  Zr10  1  0.434550  0.066606  0.434480  1
  Zr  Zr11  1  0.064591  0.064591  0.435001  1
  Al  Al12  1  0.416610  0.416610  0.746096  1
  Al  Al13  1  0.419330  0.419330  0.416561  1
  Al  Al14  1  0.626912  0.626912  0.624684  1
  Zn  Zn15  1  0.746054  0.417482  0.416851  1
  Zn  Zn16  1  0.417482  0.746054  0.416851  1
  Zn  Zn17  1  0.833067  0.833067  0.504753  1
  Zn  Zn18  1  0.831103  0.831103  0.831531  1
  Zn  Zn19  1  0.504064  0.833006  0.833455  1
  Zn  Zn20  1  0.833006  0.504064  0.833455  1
  Zn  Zn21  1  0.625752  0.625752  0.123419  1
  Zn  Zn22  1  0.123494  0.625689  0.625297  1
  Zn  Zn23  1  0.625689  0.123494  0.625297  1
  N  N24  1  0.124422  0.124422  0.624358  1
  N  N25  1  0.124387  0.124387  0.127053  1
  N  N26  1  0.625784  0.123177  0.125585  1
  N  N27  1  0.123177  0.625784  0.125585  1
