# generated using pymatgen
data_Cs2Ag2SnS4
_symmetry_space_group_name_H-M   'P 1'
_cell_length_a   14.56638841
_cell_length_b   12.90886497
_cell_length_c   8.12145570
_cell_angle_alpha   84.41202243
_cell_angle_beta   61.88428299
_cell_angle_gamma   33.70369552
_symmetry_Int_Tables_number   1
_chemical_formula_structural   Cs2Ag2SnS4
_chemical_formula_sum   'Cs4 Ag4 Sn2 S8'
_cell_volume   596.75119807
_cell_formula_units_Z   2
loop_
 _symmetry_equiv_pos_site_id
 _symmetry_equiv_pos_as_xyz
  1  'x, y, z'
loop_
 _atom_site_type_symbol
 _atom_site_label
 _atom_site_symmetry_multiplicity
 _atom_site_fract_x
 _atom_site_fract_y
 _atom_site_fract_z
 _atom_site_occupancy
  Cs  Cs0  1  0.180526  0.180526  0.819474  1
  Cs  Cs1  1  0.069474  0.069474  0.430526  1
  Cs  Cs2  1  0.819474  0.819474  0.180526  1
  Cs  Cs3  1  0.430526  0.430526  0.069474  1
  Ag  Ag4  1  0.438939  0.438939  0.561061  1
  Ag  Ag5  1  0.688939  0.688939  0.811061  1
  Ag  Ag6  1  0.811061  0.811061  0.688939  1
  Ag  Ag7  1  0.561061  0.561061  0.438939  1
  Sn  Sn8  1  0.250000  0.250000  0.250000  1
  Sn  Sn9  1  0.000000  0.000000  0.000000  1
  S  S10  1  0.050522  0.834926  0.752179  1
  S  S11  1  0.887629  0.497821  0.415074  1
  S  S12  1  0.752179  0.362371  0.050522  1
  S  S13  1  0.497821  0.887629  0.199478  1
  S  S14  1  0.415074  0.199478  0.887629  1
  S  S15  1  0.199478  0.415074  0.497821  1
  S  S16  1  0.362371  0.752179  0.834926  1
  S  S17  1  0.834926  0.050522  0.362371  1
