# generated using pymatgen
data_Ba2VP4Ir3
_symmetry_space_group_name_H-M   'P 1'
_cell_length_a   5.70059300
_cell_length_b   6.90436894
_cell_length_c   5.70729786
_cell_angle_alpha   65.56193011
_cell_angle_beta   89.99989949
_cell_angle_gamma   89.99995000
_symmetry_Int_Tables_number   1
_chemical_formula_structural   Ba2VP4Ir3
_chemical_formula_sum   'Ba2 V1 P4 Ir3'
_cell_volume   204.50837316
_cell_formula_units_Z   1
loop_
 _symmetry_equiv_pos_site_id
 _symmetry_equiv_pos_as_xyz
  1  'x, y, z'
loop_
 _atom_site_type_symbol
 _atom_site_label
 _atom_site_symmetry_multiplicity
 _atom_site_fract_x
 _atom_site_fract_y
 _atom_site_fract_z
 _atom_site_occupancy
  Ba  Ba0  1  0.991203  0.000001  0.999999  1
  Ba  Ba1  1  0.508647  0.999999  0.500001  1
  V  V2  1  0.250229  0.499999  0.499999  1
  P  P3  1  0.495264  0.698242  0.154702  1
  P  P4  1  0.004715  0.698327  0.646524  1
  P  P5  1  0.004718  0.301673  0.353475  1
  P  P6  1  0.495267  0.301760  0.845297  1
  Ir  Ir7  1  0.249899  0.500001  0.000001  1
  Ir  Ir8  1  0.749972  0.500001  0.000000  1
  Ir  Ir9  1  0.750087  0.499997  0.500000  1
