# generated using pymatgen
data_Ho2ErTm13MgIn3Rh4
_symmetry_space_group_name_H-M   'P 1'
_cell_length_a   9.55226970
_cell_length_b   9.54972448
_cell_length_c   9.55605400
_cell_angle_alpha   59.99568548
_cell_angle_beta   59.96927718
_cell_angle_gamma   59.98662004
_symmetry_Int_Tables_number   1
_chemical_formula_structural   Ho2ErTm13MgIn3Rh4
_chemical_formula_sum   'Ho2 Er1 Tm13 Mg1 In3 Rh4'
_cell_volume   616.17206874
_cell_formula_units_Z   1
loop_
 _symmetry_equiv_pos_site_id
 _symmetry_equiv_pos_as_xyz
  1  'x, y, z'
loop_
 _atom_site_type_symbol
 _atom_site_label
 _atom_site_symmetry_multiplicity
 _atom_site_fract_x
 _atom_site_fract_y
 _atom_site_fract_z
 _atom_site_occupancy
  Ho  Ho0  1  0.435404  0.065608  0.435995  1
  Ho  Ho1  1  0.064130  0.436812  0.063934  1
  Er  Er2  1  0.061496  0.061207  0.439025  1
  Tm  Tm3  1  0.046835  0.649721  0.653303  1
  Tm  Tm4  1  0.435892  0.436315  0.065054  1
  Tm  Tm5  1  0.649816  0.046140  0.651924  1
  Tm  Tm6  1  0.188945  0.811143  0.187911  1
  Tm  Tm7  1  0.187667  0.187686  0.811740  1
  Tm  Tm8  1  0.809362  0.809751  0.189845  1
  Tm  Tm9  1  0.438938  0.061525  0.061761  1
  Tm  Tm10  1  0.811855  0.188559  0.187198  1
  Tm  Tm11  1  0.061501  0.438500  0.439371  1
  Tm  Tm12  1  0.808982  0.191072  0.809041  1
  Tm  Tm13  1  0.190706  0.809771  0.809131  1
  Tm  Tm14  1  0.653219  0.651716  0.042454  1
  Tm  Tm15  1  0.648634  0.650817  0.651918  1
  Mg  Mg16  1  0.423239  0.423693  0.422195  1
  In  In17  1  0.748187  0.416999  0.416612  1
  In  In18  1  0.417414  0.748694  0.415846  1
  In  In19  1  0.417519  0.415752  0.749388  1
  Rh  Rh20  1  0.858763  0.856135  0.426548  1
  Rh  Rh21  1  0.857845  0.859219  0.856510  1
  Rh  Rh22  1  0.425503  0.857667  0.857922  1
  Rh  Rh23  1  0.858147  0.425501  0.855376  1
