# generated using pymatgen
data_Sc5W2C7
_symmetry_space_group_name_H-M   'P 1'
_cell_length_a   3.22700500
_cell_length_b   7.93054311
_cell_length_c   7.98985500
_cell_angle_alpha   60.24525821
_cell_angle_beta   90.00000000
_cell_angle_gamma   90.00000000
_symmetry_Int_Tables_number   1
_chemical_formula_structural   Sc5W2C7
_chemical_formula_sum   'Sc5 W2 C7'
_cell_volume   177.51706564
_cell_formula_units_Z   1
loop_
 _symmetry_equiv_pos_site_id
 _symmetry_equiv_pos_as_xyz
  1  'x, y, z'
loop_
 _atom_site_type_symbol
 _atom_site_label
 _atom_site_symmetry_multiplicity
 _atom_site_fract_x
 _atom_site_fract_y
 _atom_site_fract_z
 _atom_site_occupancy
  Sc  Sc0  1  0.000000  0.500000  0.000000  1
  Sc  Sc1  1  0.500000  0.081796  0.254686  1
  Sc  Sc2  1  0.500000  0.663518  0.254686  1
  Sc  Sc3  1  0.500000  0.336483  0.745313  1
  Sc  Sc4  1  0.500000  0.918204  0.745313  1
  W  W5  1  0.000000  0.286717  0.426564  1
  W  W6  1  0.000000  0.713283  0.573435  1
  C  C7  1  0.000000  0.000000  0.000000  1
  C  C8  1  0.000000  0.170588  0.000000  1
  C  C9  1  0.000000  0.829412  0.000000  1
  C  C10  1  0.500000  0.382648  0.234703  1
  C  C11  1  0.000000  0.999999  0.500000  1
  C  C12  1  0.000000  0.499999  0.500000  1
  C  C13  1  0.500000  0.617352  0.765298  1
