# generated using pymatgen
data_Y4TiPt3F28
_symmetry_space_group_name_H-M   'P 1'
_cell_length_a   5.54938580
_cell_length_b   8.91017376
_cell_length_c   11.96300900
_cell_angle_alpha   62.50086541
_cell_angle_beta   90.13671989
_cell_angle_gamma   90.02894454
_symmetry_Int_Tables_number   1
_chemical_formula_structural   Y4TiPt3F28
_chemical_formula_sum   'Y4 Ti1 Pt3 F28'
_cell_volume   524.68968342
_cell_formula_units_Z   1
loop_
 _symmetry_equiv_pos_site_id
 _symmetry_equiv_pos_as_xyz
  1  'x, y, z'
loop_
 _atom_site_type_symbol
 _atom_site_label
 _atom_site_symmetry_multiplicity
 _atom_site_fract_x
 _atom_site_fract_y
 _atom_site_fract_z
 _atom_site_occupancy
  Y  Y0  1  0.258350  0.812656  0.264701  1
  Y  Y1  1  0.739402  0.184212  0.736896  1
  Y  Y2  1  0.761094  0.186645  0.235698  1
  Y  Y3  1  0.237649  0.812892  0.765761  1
  Ti  Ti4  1  0.755977  0.724166  0.044134  1
  Pt  Pt5  1  0.242808  0.272310  0.957507  1
  Pt  Pt6  1  0.258904  0.272962  0.456613  1
  Pt  Pt7  1  0.740430  0.726391  0.544333  1
  F  F8  1  0.930910  0.702398  0.414955  1
  F  F9  1  0.064835  0.297957  0.584139  1
  F  F10  1  0.436626  0.298251  0.085180  1
  F  F11  1  0.546744  0.711230  0.925431  1
  F  F12  1  0.492296  0.732247  0.140599  1
  F  F13  1  0.538306  0.270009  0.868164  1
  F  F14  1  0.964824  0.276014  0.363431  1
  F  F15  1  0.036210  0.724168  0.635871  1
  F  F16  1  0.960136  0.745452  0.164959  1
  F  F17  1  0.054695  0.253723  0.824706  1
  F  F18  1  0.447896  0.255946  0.323632  1
  F  F19  1  0.556117  0.744753  0.678383  1
  F  F20  1  0.771684  0.485963  0.136288  1
  F  F21  1  0.232706  0.520280  0.858678  1
  F  F22  1  0.272560  0.521186  0.357163  1
  F  F23  1  0.725160  0.477996  0.643432  1
  F  F24  1  0.941410  0.281769  0.041245  1
  F  F25  1  0.035944  0.719238  0.953378  1
  F  F26  1  0.438117  0.720119  0.459509  1
  F  F27  1  0.559992  0.279394  0.541969  1
  F  F28  1  0.745314  0.974668  0.451088  1
  F  F29  1  0.257306  0.024775  0.549334  1
  F  F30  1  0.243040  0.024121  0.050045  1
  F  F31  1  0.760105  0.961919  0.947388  1
  F  F32  1  0.583593  0.970689  0.232807  1
  F  F33  1  0.411281  0.031712  0.767379  1
  F  F34  1  0.084641  0.030488  0.267501  1
  F  F35  1  0.912937  0.971303  0.727700  1
