# generated using pymatgen
data_Sm3Mg3Sn2Pd
_symmetry_space_group_name_H-M   'P 1'
_cell_length_a   7.56830000
_cell_length_b   7.56829995
_cell_length_c   4.55998600
_cell_angle_alpha   90.00000000
_cell_angle_beta   90.00000000
_cell_angle_gamma   120.00000024
_symmetry_Int_Tables_number   1
_chemical_formula_structural   Sm3Mg3Sn2Pd
_chemical_formula_sum   'Sm3 Mg3 Sn2 Pd1'
_cell_volume   226.19906961
_cell_formula_units_Z   1
loop_
 _symmetry_equiv_pos_site_id
 _symmetry_equiv_pos_as_xyz
  1  'x, y, z'
loop_
 _atom_site_type_symbol
 _atom_site_label
 _atom_site_symmetry_multiplicity
 _atom_site_fract_x
 _atom_site_fract_y
 _atom_site_fract_z
 _atom_site_occupancy
  Sm  Sm0  1  0.402584  0.000000  0.500000  1
  Sm  Sm1  1  0.000000  0.402584  0.500000  1
  Sm  Sm2  1  0.597416  0.597416  0.500000  1
  Mg  Mg3  1  0.768909  0.000000  0.000000  1
  Mg  Mg4  1  0.000000  0.768909  0.000000  1
  Mg  Mg5  1  0.231091  0.231091  0.000000  1
  Sn  Sn6  1  0.333333  0.666667  0.000000  1
  Sn  Sn7  1  0.666667  0.333333  0.000000  1
  Pd  Pd8  1  0.000000  0.000000  0.500000  1
