# generated using pymatgen
data_Hf4Be4Pd7Rh
_symmetry_space_group_name_H-M   'P 1'
_cell_length_a   5.18317623
_cell_length_b   7.13193850
_cell_length_c   6.33714304
_cell_angle_alpha   89.94008343
_cell_angle_beta   89.97535895
_cell_angle_gamma   89.82855847
_symmetry_Int_Tables_number   1
_chemical_formula_structural   Hf4Be4Pd7Rh
_chemical_formula_sum   'Hf4 Be4 Pd7 Rh1'
_cell_volume   234.25822814
_cell_formula_units_Z   1
loop_
 _symmetry_equiv_pos_site_id
 _symmetry_equiv_pos_as_xyz
  1  'x, y, z'
loop_
 _atom_site_type_symbol
 _atom_site_label
 _atom_site_symmetry_multiplicity
 _atom_site_fract_x
 _atom_site_fract_y
 _atom_site_fract_z
 _atom_site_occupancy
  Hf  Hf0  1  0.126487  0.743574  0.016539  1
  Hf  Hf1  1  0.615213  0.254153  0.485633  1
  Hf  Hf2  1  0.378195  0.744949  0.524119  1
  Hf  Hf3  1  0.877693  0.250739  0.979675  1
  Be  Be4  1  0.386562  0.253775  0.108090  1
  Be  Be5  1  0.886782  0.751715  0.387251  1
  Be  Be6  1  0.112989  0.250808  0.612811  1
  Be  Be7  1  0.613928  0.747617  0.888645  1
  Pd  Pd8  1  0.626543  0.551421  0.183519  1
  Pd  Pd9  1  0.626494  0.948189  0.183135  1
  Pd  Pd10  1  0.127138  0.051351  0.316529  1
  Pd  Pd11  1  0.126404  0.447210  0.317124  1
  Pd  Pd12  1  0.874350  0.552256  0.680330  1
  Pd  Pd13  1  0.873693  0.948424  0.682647  1
  Pd  Pd14  1  0.372946  0.051894  0.818594  1
  Rh  Rh15  1  0.374584  0.451925  0.815356  1
