# generated using pymatgen
data_Ca4ScNi(RuO6)2
_symmetry_space_group_name_H-M   'P 1'
_cell_length_a   5.44400678
_cell_length_b   5.63283981
_cell_length_c   7.78938151
_cell_angle_alpha   90.37017530
_cell_angle_beta   89.97881756
_cell_angle_gamma   89.95354325
_symmetry_Int_Tables_number   1
_chemical_formula_structural   Ca4ScNi(RuO6)2
_chemical_formula_sum   'Ca4 Sc1 Ni1 Ru2 O12'
_cell_volume   238.85800227
_cell_formula_units_Z   1
loop_
 _symmetry_equiv_pos_site_id
 _symmetry_equiv_pos_as_xyz
  1  'x, y, z'
loop_
 _atom_site_type_symbol
 _atom_site_label
 _atom_site_symmetry_multiplicity
 _atom_site_fract_x
 _atom_site_fract_y
 _atom_site_fract_z
 _atom_site_occupancy
  Ca  Ca0  1  0.986691  0.060730  0.259797  1
  Ca  Ca1  1  0.515390  0.553654  0.257634  1
  Ca  Ca2  1  0.013356  0.939336  0.740196  1
  Ca  Ca3  1  0.484696  0.446314  0.742430  1
  Sc  Sc4  1  0.499929  0.999995  0.999835  1
  Ni  Ni5  1  0.999974  0.500178  0.499952  1
  Ru  Ru6  1  0.500024  0.000086  0.500093  1
  Ru  Ru7  1  0.000008  0.499974  0.999892  1
  O  O8  1  0.691797  0.286536  0.451160  1
  O  O9  1  0.810784  0.789951  0.052943  1
  O  O10  1  0.308301  0.713311  0.548973  1
  O  O11  1  0.189091  0.209940  0.947022  1
  O  O12  1  0.209070  0.195926  0.545527  1
  O  O13  1  0.292161  0.694371  0.949541  1
  O  O14  1  0.790923  0.804140  0.454607  1
  O  O15  1  0.707743  0.305627  0.050388  1
  O  O16  1  0.094994  0.472075  0.240364  1
  O  O17  1  0.406047  0.970358  0.257345  1
  O  O18  1  0.593958  0.029615  0.742750  1
  O  O19  1  0.905067  0.527887  0.759549  1
