# generated using pymatgen
data_Mg3Zn6CdPt2
_symmetry_space_group_name_H-M   'P 1'
_cell_length_a   5.17961867
_cell_length_b   5.24131929
_cell_length_c   8.51645411
_cell_angle_alpha   89.99125421
_cell_angle_beta   89.73509139
_cell_angle_gamma   120.01124718
_symmetry_Int_Tables_number   1
_chemical_formula_structural   Mg3Zn6CdPt2
_chemical_formula_sum   'Mg3 Zn6 Cd1 Pt2'
_cell_volume   200.20375254
_cell_formula_units_Z   1
loop_
 _symmetry_equiv_pos_site_id
 _symmetry_equiv_pos_as_xyz
  1  'x, y, z'
loop_
 _atom_site_type_symbol
 _atom_site_label
 _atom_site_symmetry_multiplicity
 _atom_site_fract_x
 _atom_site_fract_y
 _atom_site_fract_z
 _atom_site_occupancy
  Mg  Mg0  1  0.675890  0.332489  0.565539  1
  Mg  Mg1  1  0.676747  0.333943  0.935804  1
  Mg  Mg2  1  0.323391  0.657365  0.435478  1
  Zn  Zn3  1  0.999875  0.005236  0.000211  1
  Zn  Zn4  1  0.000928  0.003006  0.500367  1
  Zn  Zn5  1  0.335147  0.167841  0.250889  1
  Zn  Zn6  1  0.663530  0.829836  0.748227  1
  Zn  Zn7  1  0.170167  0.832823  0.747403  1
  Zn  Zn8  1  0.828947  0.662784  0.251787  1
  Cd  Cd9  1  0.327171  0.662977  0.063512  1
  Pt  Pt10  1  0.175771  0.343285  0.746253  1
  Pt  Pt11  1  0.822434  0.168414  0.254528  1
