# generated using pymatgen
data_Ac7PuO14
_symmetry_space_group_name_H-M   'P 1'
_cell_length_a   7.17618249
_cell_length_b   7.19964099
_cell_length_c   8.16900500
_cell_angle_alpha   107.07930402
_cell_angle_beta   88.19911603
_cell_angle_gamma   102.60393121
_symmetry_Int_Tables_number   1
_chemical_formula_structural   Ac7PuO14
_chemical_formula_sum   'Ac7 Pu1 O14'
_cell_volume   393.48241540
_cell_formula_units_Z   1
loop_
 _symmetry_equiv_pos_site_id
 _symmetry_equiv_pos_as_xyz
  1  'x, y, z'
loop_
 _atom_site_type_symbol
 _atom_site_label
 _atom_site_symmetry_multiplicity
 _atom_site_fract_x
 _atom_site_fract_y
 _atom_site_fract_z
 _atom_site_occupancy
  Ac  Ac0  1  0.000000  0.000000  0.500000  1
  Ac  Ac1  1  0.465527  0.001644  0.261457  1
  Ac  Ac2  1  0.534473  0.998356  0.738543  1
  Ac  Ac3  1  0.277928  0.532567  0.874761  1
  Ac  Ac4  1  0.722072  0.467433  0.125239  1
  Ac  Ac5  1  0.748090  0.480698  0.607836  1
  Ac  Ac6  1  0.251910  0.519302  0.392164  1
  Pu  Pu7  1  0.000000  0.000000  0.000000  1
  O  O8  1  0.453370  0.642580  0.163242  1
  O  O9  1  0.546630  0.357420  0.836758  1
  O  O10  1  0.263808  0.933900  0.937140  1
  O  O11  1  0.736192  0.066100  0.062860  1
  O  O12  1  0.302929  0.901579  0.500836  1
  O  O13  1  0.697071  0.098421  0.499164  1
  O  O14  1  0.534691  0.359130  0.342079  1
  O  O15  1  0.465309  0.640870  0.657921  1
  O  O16  1  0.928729  0.718284  0.996591  1
  O  O17  1  0.071271  0.281716  0.003409  1
  O  O18  1  0.073323  0.376537  0.617192  1
  O  O19  1  0.926677  0.623463  0.382808  1
  O  O20  1  0.883090  0.903709  0.756982  1
  O  O21  1  0.116910  0.096291  0.243018  1
