# generated using pymatgen
data_Tb3Ho7(SiBi)4
_symmetry_space_group_name_H-M   'P 1'
_cell_length_a   8.66338903
_cell_length_b   8.62820365
_cell_length_c   7.91647252
_cell_angle_alpha   89.91579313
_cell_angle_beta   89.96291200
_cell_angle_gamma   125.62253901
_symmetry_Int_Tables_number   1
_chemical_formula_structural   Tb3Ho7(SiBi)4
_chemical_formula_sum   'Tb3 Ho7 Si4 Bi4'
_cell_volume   481.01731069
_cell_formula_units_Z   1
loop_
 _symmetry_equiv_pos_site_id
 _symmetry_equiv_pos_as_xyz
  1  'x, y, z'
loop_
 _atom_site_type_symbol
 _atom_site_label
 _atom_site_symmetry_multiplicity
 _atom_site_fract_x
 _atom_site_fract_y
 _atom_site_fract_z
 _atom_site_occupancy
  Tb  Tb0  1  0.043239  0.288806  0.334553  1
  Tb  Tb1  1  0.956724  0.711540  0.665387  1
  Tb  Tb2  1  0.456818  0.211731  0.834597  1
  Ho  Ho3  1  0.786144  0.543421  0.164678  1
  Ho  Ho4  1  0.543721  0.786871  0.164741  1
  Ho  Ho5  1  0.213806  0.456732  0.835548  1
  Ho  Ho6  1  0.713631  0.956750  0.664527  1
  Ho  Ho7  1  0.286296  0.043445  0.335354  1
  Ho  Ho8  1  0.999457  0.999696  0.000179  1
  Ho  Ho9  1  0.500011  0.500317  0.499606  1
  Si  Si10  1  0.366741  0.366131  0.133201  1
  Si  Si11  1  0.633636  0.635452  0.867782  1
  Si  Si12  1  0.133896  0.135187  0.633317  1
  Si  Si13  1  0.864812  0.864777  0.366014  1
  Bi  Bi14  1  0.792901  0.207522  0.998878  1
  Bi  Bi15  1  0.207045  0.790771  0.002772  1
  Bi  Bi16  1  0.705879  0.291069  0.498042  1
  Bi  Bi17  1  0.295243  0.709781  0.500826  1
