# generated using pymatgen
data_Ac8Zr(IrO8)3
_symmetry_space_group_name_H-M   'P 1'
_cell_length_a   5.65446870
_cell_length_b   9.73333472
_cell_length_c   10.60667800
_cell_angle_alpha   89.33640595
_cell_angle_beta   89.90544037
_cell_angle_gamma   90.14789932
_symmetry_Int_Tables_number   1
_chemical_formula_structural   Ac8Zr(IrO8)3
_chemical_formula_sum   'Ac8 Zr1 Ir3 O24'
_cell_volume   583.71608209
_cell_formula_units_Z   1
loop_
 _symmetry_equiv_pos_site_id
 _symmetry_equiv_pos_as_xyz
  1  'x, y, z'
loop_
 _atom_site_type_symbol
 _atom_site_label
 _atom_site_symmetry_multiplicity
 _atom_site_fract_x
 _atom_site_fract_y
 _atom_site_fract_z
 _atom_site_occupancy
  Ac  Ac0  1  0.031425  0.219228  0.136377  1
  Ac  Ac1  1  0.475392  0.767785  0.641392  1
  Ac  Ac2  1  0.976267  0.719739  0.367090  1
  Ac  Ac3  1  0.524294  0.290853  0.852225  1
  Ac  Ac4  1  0.039560  0.111340  0.544380  1
  Ac  Ac5  1  0.471532  0.901207  0.041039  1
  Ac  Ac6  1  0.974054  0.607115  0.956048  1
  Ac  Ac7  1  0.523203  0.405058  0.457146  1
  Zr  Zr8  1  0.036021  0.490901  0.642706  1
  Ir  Ir9  1  0.548475  0.998989  0.360537  1
  Ir  Ir10  1  0.956768  0.999796  0.864378  1
  Ir  Ir11  1  0.456920  0.503649  0.137598  1
  O  O12  1  0.453024  0.144774  0.468802  1
  O  O13  1  0.048365  0.864064  0.992944  1
  O  O14  1  0.546628  0.644935  0.018330  1
  O  O15  1  0.917153  0.341850  0.509752  1
  O  O16  1  0.717349  0.393193  0.071341  1
  O  O17  1  0.768693  0.612034  0.548918  1
  O  O18  1  0.287653  0.894496  0.436350  1
  O  O19  1  0.215541  0.111966  0.936560  1
  O  O20  1  0.253702  0.413446  0.009582  1
  O  O21  1  0.253090  0.598868  0.507339  1
  O  O22  1  0.751995  0.915953  0.491626  1
  O  O23  1  0.750369  0.091224  0.991398  1
  O  O24  1  0.197156  0.625215  0.177717  1
  O  O25  1  0.305258  0.338647  0.660237  1
  O  O26  1  0.815090  0.113636  0.315425  1
  O  O27  1  0.701586  0.871478  0.829629  1
  O  O28  1  0.347893  0.058181  0.223196  1
  O  O29  1  0.160105  0.941205  0.733387  1
  O  O30  1  0.656422  0.564327  0.267914  1
  O  O31  1  0.808462  0.461374  0.792529  1
  O  O32  1  0.332524  0.364548  0.248725  1
  O  O33  1  0.208314  0.626328  0.768055  1
  O  O34  1  0.657081  0.857065  0.249785  1
  O  O35  1  0.832642  0.135535  0.749549  1
