# generated using pymatgen
data_YErURu3
_symmetry_space_group_name_H-M   'P 1'
_cell_length_a   5.21720354
_cell_length_b   5.21720337
_cell_length_c   5.21720502
_cell_angle_alpha   68.05490715
_cell_angle_beta   68.05491385
_cell_angle_gamma   68.05490964
_symmetry_Int_Tables_number   1
_chemical_formula_structural   YErURu3
_chemical_formula_sum   'Y1 Er1 U1 Ru3'
_cell_volume   117.56663524
_cell_formula_units_Z   1
loop_
 _symmetry_equiv_pos_site_id
 _symmetry_equiv_pos_as_xyz
  1  'x, y, z'
loop_
 _atom_site_type_symbol
 _atom_site_label
 _atom_site_symmetry_multiplicity
 _atom_site_fract_x
 _atom_site_fract_y
 _atom_site_fract_z
 _atom_site_occupancy
  Y  Y0  1  0.873897  0.873897  0.873897  1
  Er  Er1  1  0.128374  0.128374  0.128374  1
  U  U2  1  0.499903  0.499903  0.499903  1
  Ru  Ru3  1  0.498972  0.999882  0.498972  1
  Ru  Ru4  1  0.999882  0.498972  0.498972  1
  Ru  Ru5  1  0.498972  0.498972  0.999882  1
