# generated using pymatgen
data_Ho5HgBiOs
_symmetry_space_group_name_H-M   'P 1'
_cell_length_a   7.84006409
_cell_length_b   9.02175672
_cell_length_c   12.34070715
_cell_angle_alpha   90.36481449
_cell_angle_beta   90.63238734
_cell_angle_gamma   90.03496325
_symmetry_Int_Tables_number   1
_chemical_formula_structural   Ho5HgBiOs
_chemical_formula_sum   'Ho20 Hg4 Bi4 Os4'
_cell_volume   872.80135792
_cell_formula_units_Z   4
loop_
 _symmetry_equiv_pos_site_id
 _symmetry_equiv_pos_as_xyz
  1  'x, y, z'
loop_
 _atom_site_type_symbol
 _atom_site_label
 _atom_site_symmetry_multiplicity
 _atom_site_fract_x
 _atom_site_fract_y
 _atom_site_fract_z
 _atom_site_occupancy
  Ho  Ho0  1  0.839833  0.741118  0.786120  1
  Ho  Ho1  1  0.165436  0.246839  0.214956  1
  Ho  Ho2  1  0.345540  0.259616  0.713702  1
  Ho  Ho3  1  0.646883  0.750294  0.287966  1
  Ho  Ho4  1  0.372263  0.742168  0.690216  1
  Ho  Ho5  1  0.611516  0.248752  0.305037  1
  Ho  Ho6  1  0.881058  0.256720  0.806766  1
  Ho  Ho7  1  0.133454  0.751460  0.192235  1
  Ho  Ho8  1  0.949354  0.745873  0.505326  1
  Ho  Ho9  1  0.051075  0.256973  0.500592  1
  Ho  Ho10  1  0.451051  0.252053  0.000406  1
  Ho  Ho11  1  0.549355  0.747823  0.005833  1
  Ho  Ho12  1  0.672159  0.039933  0.567110  1
  Ho  Ho13  1  0.323627  0.960601  0.428533  1
  Ho  Ho14  1  0.173539  0.960659  0.933958  1
  Ho  Ho15  1  0.326136  0.540992  0.427382  1
  Ho  Ho16  1  0.824812  0.036843  0.067611  1
  Ho  Ho17  1  0.675574  0.459786  0.573081  1
  Ho  Ho18  1  0.830041  0.462138  0.068948  1
  Ho  Ho19  1  0.175333  0.538239  0.923895  1
  Hg  Hg20  1  0.576282  0.492055  0.834550  1
  Hg  Hg21  1  0.428087  0.507186  0.168127  1
  Hg  Hg22  1  0.073387  0.508373  0.668259  1
  Hg  Hg23  1  0.429799  0.992482  0.167001  1
  Bi  Bi24  1  0.926431  0.492873  0.326071  1
  Bi  Bi25  1  0.571161  0.007171  0.828120  1
  Bi  Bi26  1  0.924602  0.006921  0.331183  1
  Bi  Bi27  1  0.071268  0.994262  0.672307  1
  Os  Os28  1  0.576786  0.749222  0.509762  1
  Os  Os29  1  0.421696  0.251094  0.493335  1
  Os  Os30  1  0.077358  0.250529  0.994602  1
  Os  Os31  1  0.925103  0.748954  0.007013  1
