# generated using pymatgen
data_TbNd4Er11(CdPt)4
_symmetry_space_group_name_H-M   'P 1'
_cell_length_a   9.67020944
_cell_length_b   9.68693500
_cell_length_c   9.68693356
_cell_angle_alpha   60.23173184
_cell_angle_beta   60.05709608
_cell_angle_gamma   60.05709516
_symmetry_Int_Tables_number   1
_chemical_formula_structural   TbNd4Er11(CdPt)4
_chemical_formula_sum   'Tb1 Nd4 Er11 Cd4 Pt4'
_cell_volume   643.31544748
_cell_formula_units_Z   1
loop_
 _symmetry_equiv_pos_site_id
 _symmetry_equiv_pos_as_xyz
  1  'x, y, z'
loop_
 _atom_site_type_symbol
 _atom_site_label
 _atom_site_symmetry_multiplicity
 _atom_site_fract_x
 _atom_site_fract_y
 _atom_site_fract_z
 _atom_site_occupancy
  Tb  Tb0  1  0.555578  0.944422  0.944422  1
  Nd  Nd1  1  0.566519  0.934268  0.564770  1
  Nd  Nd2  1  0.934444  0.564770  0.934268  1
  Nd  Nd3  1  0.566519  0.564770  0.934268  1
  Nd  Nd4  1  0.934444  0.934268  0.564770  1
  Er  Er5  1  0.352575  0.349902  0.349902  1
  Er  Er6  1  0.349910  0.356204  0.943977  1
  Er  Er7  1  0.349910  0.943977  0.356204  1
  Er  Er8  1  0.947622  0.349902  0.349902  1
  Er  Er9  1  0.812484  0.187516  0.187516  1
  Er  Er10  1  0.187232  0.812768  0.812768  1
  Er  Er11  1  0.188723  0.811554  0.189089  1
  Er  Er12  1  0.810633  0.189089  0.811554  1
  Er  Er13  1  0.188723  0.189089  0.811554  1
  Er  Er14  1  0.810633  0.811554  0.189089  1
  Er  Er15  1  0.944782  0.555218  0.555218  1
  Cd  Cd16  1  0.585473  0.578199  0.578199  1
  Cd  Cd17  1  0.578033  0.584346  0.259589  1
  Cd  Cd18  1  0.578033  0.259589  0.584346  1
  Cd  Cd19  1  0.258129  0.578199  0.578199  1
  Pt  Pt20  1  0.147611  0.141244  0.141244  1
  Pt  Pt21  1  0.141045  0.145804  0.572105  1
  Pt  Pt22  1  0.141045  0.572105  0.145804  1
  Pt  Pt23  1  0.569900  0.141244  0.141244  1
