# generated using pymatgen
data_Tb9ThRu4
_symmetry_space_group_name_H-M   'P 1'
_cell_length_a   6.41506052
_cell_length_b   7.28006883
_cell_length_c   8.63550839
_cell_angle_alpha   96.15933767
_cell_angle_beta   112.22908327
_cell_angle_gamma   90.75013799
_symmetry_Int_Tables_number   1
_chemical_formula_structural   Tb9ThRu4
_chemical_formula_sum   'Tb9 Th1 Ru4'
_cell_volume   370.53570570
_cell_formula_units_Z   1
loop_
 _symmetry_equiv_pos_site_id
 _symmetry_equiv_pos_as_xyz
  1  'x, y, z'
loop_
 _atom_site_type_symbol
 _atom_site_label
 _atom_site_symmetry_multiplicity
 _atom_site_fract_x
 _atom_site_fract_y
 _atom_site_fract_z
 _atom_site_occupancy
  Tb  Tb0  1  0.791263  0.583870  0.809826  1
  Tb  Tb1  1  0.021562  0.085655  0.812919  1
  Tb  Tb2  1  0.207418  0.414973  0.185131  1
  Tb  Tb3  1  0.640008  0.815853  0.435642  1
  Tb  Tb4  1  0.209354  0.685112  0.568370  1
  Tb  Tb5  1  0.357983  0.186494  0.568277  1
  Tb  Tb6  1  0.792608  0.313912  0.434823  1
  Tb  Tb7  1  0.420591  0.747687  0.997449  1
  Tb  Tb8  1  0.579008  0.249977  0.000179  1
  Th  Th9  1  0.987407  0.907127  0.187603  1
  Ru  Ru10  1  0.830611  0.589492  0.220418  1
  Ru  Ru11  1  0.608235  0.925718  0.783714  1
  Ru  Ru12  1  0.175704  0.423651  0.776913  1
  Ru  Ru13  1  0.378249  0.070478  0.218734  1
