# generated using pymatgen
data_Na2PaBrCl5
_symmetry_space_group_name_H-M   'P 1'
_cell_length_a   12.26868574
_cell_length_b   12.28834317
_cell_length_c   6.35246330
_cell_angle_alpha   90.16865558
_cell_angle_beta   90.62624912
_cell_angle_gamma   120.05563351
_symmetry_Int_Tables_number   1
_chemical_formula_structural   Na2PaBrCl5
_chemical_formula_sum   'Na6 Pa3 Br3 Cl15'
_cell_volume   828.84619191
_cell_formula_units_Z   3
loop_
 _symmetry_equiv_pos_site_id
 _symmetry_equiv_pos_as_xyz
  1  'x, y, z'
loop_
 _atom_site_type_symbol
 _atom_site_label
 _atom_site_symmetry_multiplicity
 _atom_site_fract_x
 _atom_site_fract_y
 _atom_site_fract_z
 _atom_site_occupancy
  Na  Na0  1  0.658015  0.993184  0.997137  1
  Na  Na1  1  0.334860  0.996134  0.008100  1
  Na  Na2  1  0.000820  0.661091  0.999370  1
  Na  Na3  1  0.658543  0.658562  0.996186  1
  Na  Na4  1  0.339391  0.340116  0.000753  1
  Na  Na5  1  0.004699  0.341686  0.993092  1
  Pa  Pa6  1  0.667069  0.341941  0.502861  1
  Pa  Pa7  1  0.332765  0.666302  0.495087  1
  Pa  Pa8  1  0.002693  0.001383  0.995435  1
  Br  Br9  1  0.557403  0.120602  0.745308  1
  Br  Br10  1  0.776461  0.228402  0.265999  1
  Br  Br11  1  0.786183  0.891681  0.249699  1
  Cl  Cl12  1  0.435492  0.562958  0.252013  1
  Cl  Cl13  1  0.771118  0.544433  0.263617  1
  Cl  Cl14  1  0.108705  0.212658  0.223114  1
  Cl  Cl15  1  0.229816  0.769043  0.732935  1
  Cl  Cl16  1  0.561850  0.439125  0.750439  1
  Cl  Cl17  1  0.230700  0.460647  0.732487  1
  Cl  Cl18  1  0.125874  0.563164  0.248959  1
  Cl  Cl19  1  0.213046  0.106537  0.774073  1
  Cl  Cl20  1  0.107465  0.895064  0.223757  1
  Cl  Cl21  1  0.540485  0.769102  0.735259  1
  Cl  Cl22  1  0.434487  0.870531  0.253170  1
  Cl  Cl23  1  0.895049  0.105351  0.773226  1
  Cl  Cl24  1  0.873256  0.439661  0.749220  1
  Cl  Cl25  1  0.459591  0.233006  0.264797  1
  Cl  Cl26  1  0.894162  0.787636  0.773907  1
