# generated using pymatgen
data_Dy16MgIn2AgIr4
_symmetry_space_group_name_H-M   'P 1'
_cell_length_a   9.64444501
_cell_length_b   9.64444700
_cell_length_c   9.64811460
_cell_angle_alpha   59.96123682
_cell_angle_beta   59.96121838
_cell_angle_gamma   59.88699523
_symmetry_Int_Tables_number   1
_chemical_formula_structural   Dy16MgIn2AgIr4
_chemical_formula_sum   'Dy16 Mg1 In2 Ag1 Ir4'
_cell_volume   633.65873018
_cell_formula_units_Z   1
loop_
 _symmetry_equiv_pos_site_id
 _symmetry_equiv_pos_as_xyz
  1  'x, y, z'
loop_
 _atom_site_type_symbol
 _atom_site_label
 _atom_site_symmetry_multiplicity
 _atom_site_fract_x
 _atom_site_fract_y
 _atom_site_fract_z
 _atom_site_occupancy
  Dy  Dy0  1  0.598212  0.598213  0.600066  1
  Dy  Dy1  1  0.600287  0.600287  0.199781  1
  Dy  Dy2  1  0.599088  0.205177  0.599398  1
  Dy  Dy3  1  0.205177  0.599088  0.599398  1
  Dy  Dy4  1  0.059744  0.439824  0.440885  1
  Dy  Dy5  1  0.438789  0.058548  0.057633  1
  Dy  Dy6  1  0.439824  0.059743  0.440884  1
  Dy  Dy7  1  0.058548  0.438789  0.057632  1
  Dy  Dy8  1  0.442633  0.442634  0.057008  1
  Dy  Dy9  1  0.061978  0.061977  0.434319  1
  Dy  Dy10  1  0.185484  0.811537  0.811387  1
  Dy  Dy11  1  0.809741  0.187814  0.189123  1
  Dy  Dy12  1  0.811537  0.185484  0.811388  1
  Dy  Dy13  1  0.187814  0.809741  0.189124  1
  Dy  Dy14  1  0.810208  0.810207  0.187417  1
  Dy  Dy15  1  0.188667  0.188666  0.810724  1
  Mg  Mg16  1  0.826971  0.826973  0.522750  1
  In  In17  1  0.833164  0.503066  0.831213  1
  In  In18  1  0.503066  0.833164  0.831213  1
  Ag  Ag19  1  0.833964  0.833965  0.829989  1
  Ir  Ir20  1  0.392943  0.392942  0.390638  1
  Ir  Ir21  1  0.392058  0.392057  0.826804  1
  Ir  Ir22  1  0.393923  0.826181  0.390611  1
  Ir  Ir23  1  0.826182  0.393923  0.390611  1
