# generated using pymatgen
data_Ba3Sr2Tc3O16
_symmetry_space_group_name_H-M   'P 1'
_cell_length_a   10.74861800
_cell_length_b   10.74861866
_cell_length_c   7.87703700
_cell_angle_alpha   90.00000000
_cell_angle_beta   90.00000000
_cell_angle_gamma   119.99999798
_symmetry_Int_Tables_number   1
_chemical_formula_structural   Ba3Sr2Tc3O16
_chemical_formula_sum   'Ba6 Sr4 Tc6 O32'
_cell_volume   788.13172477
_cell_formula_units_Z   2
loop_
 _symmetry_equiv_pos_site_id
 _symmetry_equiv_pos_as_xyz
  1  'x, y, z'
loop_
 _atom_site_type_symbol
 _atom_site_label
 _atom_site_symmetry_multiplicity
 _atom_site_fract_x
 _atom_site_fract_y
 _atom_site_fract_z
 _atom_site_occupancy
  Ba  Ba0  1  0.740721  0.000000  0.216994  1
  Ba  Ba1  1  0.000000  0.740721  0.216994  1
  Ba  Ba2  1  0.259279  0.000000  0.716994  1
  Ba  Ba3  1  0.000000  0.259279  0.716994  1
  Ba  Ba4  1  0.259279  0.259279  0.216994  1
  Ba  Ba5  1  0.740721  0.740721  0.716994  1
  Sr  Sr6  1  0.333333  0.666667  0.470710  1
  Sr  Sr7  1  0.666667  0.333333  0.970710  1
  Sr  Sr8  1  0.333333  0.666667  0.970710  1
  Sr  Sr9  1  0.666667  0.333333  0.470710  1
  Tc  Tc10  1  0.388369  0.000000  0.165135  1
  Tc  Tc11  1  0.000000  0.388369  0.165135  1
  Tc  Tc12  1  0.611631  0.000000  0.665135  1
  Tc  Tc13  1  0.000000  0.611631  0.665135  1
  Tc  Tc14  1  0.611631  0.611631  0.165135  1
  Tc  Tc15  1  0.388369  0.388369  0.665135  1
  O  O16  1  0.000000  0.000000  0.155308  1
  O  O17  1  0.000000  0.000000  0.655308  1
  O  O18  1  0.136781  0.577201  0.212415  1
  O  O19  1  0.422799  0.559580  0.212415  1
  O  O20  1  0.863219  0.422799  0.712415  1
  O  O21  1  0.422799  0.863219  0.712415  1
  O  O22  1  0.440420  0.863219  0.212415  1
  O  O23  1  0.577201  0.440420  0.712415  1
  O  O24  1  0.440420  0.577201  0.712415  1
  O  O25  1  0.577201  0.136781  0.212415  1
  O  O26  1  0.559580  0.136781  0.712415  1
  O  O27  1  0.559580  0.422799  0.212415  1
  O  O28  1  0.136781  0.559580  0.712415  1
  O  O29  1  0.863219  0.440420  0.212415  1
  O  O30  1  0.135515  0.392640  0.016787  1
  O  O31  1  0.607360  0.742875  0.016787  1
  O  O32  1  0.864485  0.607360  0.516787  1
  O  O33  1  0.607360  0.864485  0.516787  1
  O  O34  1  0.257125  0.864485  0.016787  1
  O  O35  1  0.392640  0.257125  0.516787  1
  O  O36  1  0.257125  0.392640  0.516787  1
  O  O37  1  0.392640  0.135515  0.016787  1
  O  O38  1  0.742875  0.135515  0.516787  1
  O  O39  1  0.742875  0.607360  0.016787  1
  O  O40  1  0.135515  0.742875  0.516787  1
  O  O41  1  0.864485  0.257125  0.016787  1
  O  O42  1  0.280837  0.000000  0.333424  1
  O  O43  1  0.000000  0.280837  0.333424  1
  O  O44  1  0.719163  0.000000  0.833424  1
  O  O45  1  0.000000  0.719163  0.833424  1
  O  O46  1  0.719163  0.719163  0.333424  1
  O  O47  1  0.280837  0.280837  0.833424  1
