# generated using pymatgen
data_CeSmLu2(B6Os)2
_symmetry_space_group_name_H-M   'P 1'
_cell_length_a   3.65931200
_cell_length_b   9.13133460
_cell_length_c   11.53220928
_cell_angle_alpha   90.08647655
_cell_angle_beta   90.00000000
_cell_angle_gamma   90.00000000
_symmetry_Int_Tables_number   1
_chemical_formula_structural   CeSmLu2(B6Os)2
_chemical_formula_sum   'Ce2 Sm2 Lu4 B24 Os4'
_cell_volume   385.34144126
_cell_formula_units_Z   2
loop_
 _symmetry_equiv_pos_site_id
 _symmetry_equiv_pos_as_xyz
  1  'x, y, z'
loop_
 _atom_site_type_symbol
 _atom_site_label
 _atom_site_symmetry_multiplicity
 _atom_site_fract_x
 _atom_site_fract_y
 _atom_site_fract_z
 _atom_site_occupancy
  Ce  Ce0  1  0.000000  0.321725  0.413950  1
  Ce  Ce1  1  0.000000  0.678275  0.586050  1
  Sm  Sm2  1  0.000000  0.821292  0.085620  1
  Sm  Sm3  1  0.000000  0.178708  0.914380  1
  Lu  Lu4  1  0.000000  0.944817  0.373639  1
  Lu  Lu5  1  0.000000  0.055183  0.626361  1
  Lu  Lu6  1  0.000000  0.444279  0.126011  1
  Lu  Lu7  1  0.000000  0.555721  0.873989  1
  B  B8  1  0.500000  0.555191  0.431577  1
  B  B9  1  0.500000  0.444809  0.568423  1
  B  B10  1  0.500000  0.055564  0.068649  1
  B  B11  1  0.500000  0.944436  0.931351  1
  B  B12  1  0.500000  0.751122  0.418321  1
  B  B13  1  0.500000  0.248878  0.581679  1
  B  B14  1  0.500000  0.250843  0.081682  1
  B  B15  1  0.500000  0.749157  0.918318  1
  B  B16  1  0.500000  0.792062  0.265981  1
  B  B17  1  0.500000  0.207938  0.734018  1
  B  B18  1  0.500000  0.292330  0.233747  1
  B  B19  1  0.500000  0.707670  0.766254  1
  B  B20  1  0.500000  0.630429  0.184141  1
  B  B21  1  0.500000  0.369571  0.815859  1
  B  B22  1  0.500000  0.130910  0.315659  1
  B  B23  1  0.500000  0.869090  0.684341  1
  B  B24  1  0.500000  0.983720  0.214071  1
  B  B25  1  0.500000  0.016280  0.785929  1
  B  B26  1  0.500000  0.483950  0.285485  1
  B  B27  1  0.500000  0.516050  0.714515  1
  B  B28  1  0.500000  0.602631  0.028068  1
  B  B29  1  0.500000  0.397369  0.971932  1
  B  B30  1  0.500000  0.103088  0.472002  1
  B  B31  1  0.500000  0.896912  0.527998  1
  Os  Os32  1  0.000000  0.639205  0.320834  1
  Os  Os33  1  0.000000  0.360795  0.679166  1
  Os  Os34  1  0.000000  0.139979  0.181963  1
  Os  Os35  1  0.000000  0.860021  0.818037  1
