# generated using pymatgen
data_Na5MoO5
_symmetry_space_group_name_H-M   'P 1'
_cell_length_a   6.02961410
_cell_length_b   6.02961497
_cell_length_c   10.35385747
_cell_angle_alpha   79.62434297
_cell_angle_beta   79.62434297
_cell_angle_gamma   116.21889232
_symmetry_Int_Tables_number   1
_chemical_formula_structural   Na5MoO5
_chemical_formula_sum   'Na10 Mo2 O10'
_cell_volume   317.46860448
_cell_formula_units_Z   2
loop_
 _symmetry_equiv_pos_site_id
 _symmetry_equiv_pos_as_xyz
  1  'x, y, z'
loop_
 _atom_site_type_symbol
 _atom_site_label
 _atom_site_symmetry_multiplicity
 _atom_site_fract_x
 _atom_site_fract_y
 _atom_site_fract_z
 _atom_site_occupancy
  Na  Na0  1  0.740423  0.929837  0.577492  1
  Na  Na1  1  0.497530  0.772724  0.945553  1
  Na  Na2  1  0.584223  0.415777  0.750000  1
  Na  Na3  1  0.929837  0.740423  0.077492  1
  Na  Na4  1  0.772724  0.497530  0.445553  1
  Na  Na5  1  0.227276  0.502470  0.554447  1
  Na  Na6  1  0.070163  0.259577  0.922508  1
  Na  Na7  1  0.415777  0.584223  0.250000  1
  Na  Na8  1  0.502470  0.227276  0.054447  1
  Na  Na9  1  0.259577  0.070163  0.422508  1
  Mo  Mo10  1  0.151764  0.848236  0.750000  1
  Mo  Mo11  1  0.848236  0.151764  0.250000  1
  O  O12  1  0.819067  0.656017  0.880367  1
  O  O13  1  0.989166  0.704116  0.602844  1
  O  O14  1  0.656017  0.819067  0.380367  1
  O  O15  1  0.704116  0.989166  0.102844  1
  O  O16  1  0.341611  0.658389  0.750000  1
  O  O17  1  0.658389  0.341611  0.250000  1
  O  O18  1  0.295884  0.010834  0.897156  1
  O  O19  1  0.343983  0.180933  0.619633  1
  O  O20  1  0.010834  0.295884  0.397156  1
  O  O21  1  0.180933  0.343983  0.119633  1
