# generated using pymatgen
data_Y20Cd6OsRu
_symmetry_space_group_name_H-M   'P 1'
_cell_length_a   9.63751000
_cell_length_b   9.63750958
_cell_length_c   9.90259100
_cell_angle_alpha   90.00000000
_cell_angle_beta   90.00000000
_cell_angle_gamma   120.00000145
_symmetry_Int_Tables_number   1
_chemical_formula_structural   Y20Cd6OsRu
_chemical_formula_sum   'Y20 Cd6 Os1 Ru1'
_cell_volume   796.54282807
_cell_formula_units_Z   1
loop_
 _symmetry_equiv_pos_site_id
 _symmetry_equiv_pos_as_xyz
  1  'x, y, z'
loop_
 _atom_site_type_symbol
 _atom_site_label
 _atom_site_symmetry_multiplicity
 _atom_site_fract_x
 _atom_site_fract_y
 _atom_site_fract_z
 _atom_site_occupancy
  Y  Y0  1  0.000000  0.000000  0.499710  1
  Y  Y1  1  0.000000  0.000000  0.000290  1
  Y  Y2  1  0.209782  0.790218  0.440604  1
  Y  Y3  1  0.209782  0.419565  0.440604  1
  Y  Y4  1  0.580435  0.790218  0.440604  1
  Y  Y5  1  0.790115  0.209885  0.559827  1
  Y  Y6  1  0.790115  0.580228  0.559827  1
  Y  Y7  1  0.419772  0.209885  0.559827  1
  Y  Y8  1  0.790115  0.209885  0.940173  1
  Y  Y9  1  0.790115  0.580228  0.940173  1
  Y  Y10  1  0.419772  0.209885  0.940173  1
  Y  Y11  1  0.209782  0.790218  0.059396  1
  Y  Y12  1  0.209782  0.419565  0.059396  1
  Y  Y13  1  0.580435  0.790218  0.059396  1
  Y  Y14  1  0.540165  0.459835  0.250000  1
  Y  Y15  1  0.540165  0.080330  0.250000  1
  Y  Y16  1  0.919670  0.459835  0.250000  1
  Y  Y17  1  0.458595  0.541405  0.750000  1
  Y  Y18  1  0.458595  0.917190  0.750000  1
  Y  Y19  1  0.082810  0.541405  0.750000  1
  Cd  Cd20  1  0.885248  0.114752  0.250000  1
  Cd  Cd21  1  0.885248  0.770497  0.250000  1
  Cd  Cd22  1  0.229503  0.114752  0.250000  1
  Cd  Cd23  1  0.114801  0.885199  0.750000  1
  Cd  Cd24  1  0.114801  0.229601  0.750000  1
  Cd  Cd25  1  0.770399  0.885199  0.750000  1
  Os  Os26  1  0.333333  0.666667  0.250000  1
  Ru  Ru27  1  0.666667  0.333333  0.750000  1
