# generated using pymatgen
data_Gd6Al3Tc13F
_symmetry_space_group_name_H-M   'P 1'
_cell_length_a   8.06649955
_cell_length_b   8.04657142
_cell_length_c   8.06650000
_cell_angle_alpha   108.45052154
_cell_angle_beta   108.89164631
_cell_angle_gamma   111.18679812
_symmetry_Int_Tables_number   1
_chemical_formula_structural   Gd6Al3Tc13F
_chemical_formula_sum   'Gd6 Al3 Tc13 F1'
_cell_volume   402.27611020
_cell_formula_units_Z   1
loop_
 _symmetry_equiv_pos_site_id
 _symmetry_equiv_pos_as_xyz
  1  'x, y, z'
loop_
 _atom_site_type_symbol
 _atom_site_label
 _atom_site_symmetry_multiplicity
 _atom_site_fract_x
 _atom_site_fract_y
 _atom_site_fract_z
 _atom_site_occupancy
  Gd  Gd0  1  0.272603  0.004269  0.268613  1
  Gd  Gd1  1  0.001374  0.267154  0.265781  1
  Gd  Gd2  1  0.004366  0.736228  0.731862  1
  Gd  Gd3  1  0.282546  0.281478  0.998931  1
  Gd  Gd4  1  0.722769  0.721602  0.998834  1
  Gd  Gd5  1  0.735656  0.004269  0.731666  1
  Al  Al6  1  0.345357  0.998942  0.653584  1
  Al  Al7  1  0.685649  0.341902  0.344633  1
  Al  Al8  1  0.997268  0.341902  0.656253  1
  Tc  Tc9  1  0.998852  0.997966  0.483915  1
  Tc  Tc10  1  0.514052  0.997966  0.999115  1
  Tc  Tc11  1  0.000311  0.508774  0.999518  1
  Tc  Tc12  1  0.509256  0.508774  0.508463  1
  Tc  Tc13  1  0.651082  0.654817  0.318081  1
  Tc  Tc14  1  0.336735  0.654817  0.003735  1
  Tc  Tc15  1  0.336059  0.685558  0.349498  1
  Tc  Tc16  1  0.656969  0.316744  0.659776  1
  Tc  Tc17  1  0.330194  0.332638  0.675677  1
  Tc  Tc18  1  0.310788  0.654655  0.660638  1
  Tc  Tc19  1  0.656962  0.332638  0.002444  1
  Tc  Tc20  1  0.994017  0.654655  0.343866  1
  Tc  Tc21  1  0.652519  0.998236  0.345717  1
  F  F22  1  0.004615  0.004011  0.999396  1
