# generated using pymatgen
data_Y3LuAlRh
_symmetry_space_group_name_H-M   'P 1'
_cell_length_a   9.52620652
_cell_length_b   9.52620718
_cell_length_c   9.52620800
_cell_angle_alpha   60.00000409
_cell_angle_beta   60.00000181
_cell_angle_gamma   60.00000349
_symmetry_Int_Tables_number   1
_chemical_formula_structural   Y3LuAlRh
_chemical_formula_sum   'Y12 Lu4 Al4 Rh4'
_cell_volume   611.28692658
_cell_formula_units_Z   4
loop_
 _symmetry_equiv_pos_site_id
 _symmetry_equiv_pos_as_xyz
  1  'x, y, z'
loop_
 _atom_site_type_symbol
 _atom_site_label
 _atom_site_symmetry_multiplicity
 _atom_site_fract_x
 _atom_site_fract_y
 _atom_site_fract_z
 _atom_site_occupancy
  Y  Y0  1  0.806646  0.193354  0.193354  1
  Y  Y1  1  0.193354  0.806646  0.806646  1
  Y  Y2  1  0.193354  0.806646  0.193354  1
  Y  Y3  1  0.806646  0.193354  0.806646  1
  Y  Y4  1  0.193354  0.193354  0.806646  1
  Y  Y5  1  0.806646  0.806646  0.193354  1
  Y  Y6  1  0.938283  0.561717  0.561717  1
  Y  Y7  1  0.561717  0.938283  0.938283  1
  Y  Y8  1  0.561717  0.938283  0.561717  1
  Y  Y9  1  0.938283  0.561717  0.938283  1
  Y  Y10  1  0.561717  0.561717  0.938283  1
  Y  Y11  1  0.938283  0.938283  0.561717  1
  Lu  Lu12  1  0.351271  0.351271  0.351271  1
  Lu  Lu13  1  0.351271  0.351271  0.946184  1
  Lu  Lu14  1  0.351271  0.946184  0.351271  1
  Lu  Lu15  1  0.946184  0.351271  0.351271  1
  Al  Al16  1  0.577571  0.577571  0.577571  1
  Al  Al17  1  0.577571  0.577571  0.267287  1
  Al  Al18  1  0.577571  0.267287  0.577571  1
  Al  Al19  1  0.267287  0.577571  0.577571  1
  Rh  Rh20  1  0.145366  0.145366  0.145366  1
  Rh  Rh21  1  0.145366  0.145366  0.563900  1
  Rh  Rh22  1  0.145366  0.563900  0.145366  1
  Rh  Rh23  1  0.563900  0.145366  0.145366  1
