# generated using pymatgen
data_Pr14Nd5PaRh16
_symmetry_space_group_name_H-M   'P 1'
_cell_length_a   7.64306986
_cell_length_b   7.76946103
_cell_length_c   15.03155360
_cell_angle_alpha   90.24605064
_cell_angle_beta   90.10344201
_cell_angle_gamma   90.00940574
_symmetry_Int_Tables_number   1
_chemical_formula_structural   Pr14Nd5PaRh16
_chemical_formula_sum   'Pr14 Nd5 Pa1 Rh16'
_cell_volume   892.60203556
_cell_formula_units_Z   1
loop_
 _symmetry_equiv_pos_site_id
 _symmetry_equiv_pos_as_xyz
  1  'x, y, z'
loop_
 _atom_site_type_symbol
 _atom_site_label
 _atom_site_symmetry_multiplicity
 _atom_site_fract_x
 _atom_site_fract_y
 _atom_site_fract_z
 _atom_site_occupancy
  Pr  Pr0  1  0.165442  0.335060  0.877097  1
  Pr  Pr1  1  0.336631  0.834033  0.122535  1
  Pr  Pr2  1  0.836914  0.668437  0.380064  1
  Pr  Pr3  1  0.335049  0.837258  0.380221  1
  Pr  Pr4  1  0.835172  0.667308  0.122810  1
  Pr  Pr5  1  0.664629  0.162400  0.877459  1
  Pr  Pr6  1  0.160953  0.336479  0.618609  1
  Pr  Pr7  1  0.511435  0.681080  0.594748  1
  Pr  Pr8  1  0.018189  0.812764  0.908987  1
  Pr  Pr9  1  0.485341  0.318070  0.093286  1
  Pr  Pr10  1  0.987113  0.185276  0.404041  1
  Pr  Pr11  1  0.487102  0.322832  0.407471  1
  Pr  Pr12  1  0.986124  0.182551  0.093664  1
  Pr  Pr13  1  0.514988  0.683345  0.906560  1
  Nd  Nd14  1  0.012554  0.820490  0.594587  1
  Nd  Nd15  1  0.827362  0.512139  0.750794  1
  Nd  Nd16  1  0.316360  0.988679  0.750882  1
  Nd  Nd17  1  0.175687  0.491426  0.250623  1
  Nd  Nd18  1  0.674625  0.012617  0.250029  1
  Pa  Pa19  1  0.663154  0.160733  0.623191  1
  Rh  Rh20  1  0.693644  0.979284  0.476492  1
  Rh  Rh21  1  0.176496  0.532098  0.041108  1
  Rh  Rh22  1  0.321132  0.032476  0.957540  1
  Rh  Rh23  1  0.800604  0.439654  0.542649  1
  Rh  Rh24  1  0.350373  0.038948  0.551098  1
  Rh  Rh25  1  0.824831  0.471899  0.955230  1
  Rh  Rh26  1  0.676306  0.969712  0.042640  1
  Rh  Rh27  1  0.166851  0.533177  0.456537  1
  Rh  Rh28  1  0.473827  0.370659  0.737087  1
  Rh  Rh29  1  0.940843  0.114927  0.735887  1
  Rh  Rh30  1  0.539844  0.605969  0.253265  1
  Rh  Rh31  1  0.039319  0.900629  0.251856  1
  Rh  Rh32  1  0.687778  0.863416  0.741520  1
  Rh  Rh33  1  0.214250  0.632347  0.747524  1
  Rh  Rh34  1  0.302129  0.144405  0.251192  1
  Rh  Rh35  1  0.796951  0.357421  0.250718  1
