# generated using pymatgen
data_KHo10(C2I9)2
_symmetry_space_group_name_H-M   'P 1'
_cell_length_a   11.44440315
_cell_length_b   11.45568314
_cell_length_c   11.49950732
_cell_angle_alpha   113.55204341
_cell_angle_beta   86.77720661
_cell_angle_gamma   120.00575498
_symmetry_Int_Tables_number   1
_chemical_formula_structural   KHo10(C2I9)2
_chemical_formula_sum   'K1 Ho10 C4 I18'
_cell_volume   1177.06298272
_cell_formula_units_Z   1
loop_
 _symmetry_equiv_pos_site_id
 _symmetry_equiv_pos_as_xyz
  1  'x, y, z'
loop_
 _atom_site_type_symbol
 _atom_site_label
 _atom_site_symmetry_multiplicity
 _atom_site_fract_x
 _atom_site_fract_y
 _atom_site_fract_z
 _atom_site_occupancy
  K  K0  1  0.500000  0.000000  0.500000  1
  Ho  Ho1  1  0.680631  0.725892  0.713596  1
  Ho  Ho2  1  0.275850  0.351519  0.016270  1
  Ho  Ho3  1  0.093472  0.388081  0.290355  1
  Ho  Ho4  1  0.965571  0.037889  0.322168  1
  Ho  Ho5  1  0.906528  0.611919  0.709645  1
  Ho  Ho6  1  0.103740  0.945010  0.000496  1
  Ho  Ho7  1  0.034429  0.962111  0.677832  1
  Ho  Ho8  1  0.319369  0.274108  0.286404  1
  Ho  Ho9  1  0.724150  0.648481  0.983730  1
  Ho  Ho10  1  0.896260  0.054990  0.999504  1
  C  C11  1  0.151203  0.218795  0.119445  1
  C  C12  1  0.848797  0.781205  0.880555  1
  C  C13  1  0.925020  0.857872  0.804433  1
  C  C14  1  0.074980  0.142128  0.195567  1
  I  I15  1  0.451649  0.531209  0.832313  1
  I  I16  1  0.382081  0.040575  0.158189  1
  I  I17  1  0.777766  0.857500  0.503912  1
  I  I18  1  0.839758  0.309673  0.153137  1
  I  I19  1  0.548351  0.468791  0.167687  1
  I  I20  1  0.222234  0.142500  0.496088  1
  I  I21  1  0.315491  0.095838  0.829489  1
  I  I22  1  0.684509  0.904162  0.170511  1
  I  I23  1  0.974112  0.756194  0.167671  1
  I  I24  1  0.934406  0.297912  0.498632  1
  I  I25  1  0.025888  0.243806  0.832329  1
  I  I26  1  0.065594  0.702088  0.501368  1
  I  I27  1  0.263642  0.623708  0.188422  1
  I  I28  1  0.736358  0.376292  0.811578  1
  I  I29  1  0.643509  0.435995  0.501838  1
  I  I30  1  0.160242  0.690327  0.846863  1
  I  I31  1  0.617919  0.959425  0.841811  1
  I  I32  1  0.356491  0.564005  0.498162  1
