# generated using pymatgen
data_Ba2ErTmF10
_symmetry_space_group_name_H-M   'P 1'
_cell_length_a   8.41737102
_cell_length_b   8.41736925
_cell_length_c   5.91406904
_cell_angle_alpha   89.28649941
_cell_angle_beta   89.28650402
_cell_angle_gamma   149.27581113
_symmetry_Int_Tables_number   1
_chemical_formula_structural   Ba2ErTmF10
_chemical_formula_sum   'Ba2 Er1 Tm1 F10'
_cell_volume   213.84535573
_cell_formula_units_Z   1
loop_
 _symmetry_equiv_pos_site_id
 _symmetry_equiv_pos_as_xyz
  1  'x, y, z'
loop_
 _atom_site_type_symbol
 _atom_site_label
 _atom_site_symmetry_multiplicity
 _atom_site_fract_x
 _atom_site_fract_y
 _atom_site_fract_z
 _atom_site_occupancy
  Ba  Ba0  1  0.328602  0.671398  0.750000  1
  Ba  Ba1  1  0.671456  0.328544  0.250000  1
  Er  Er2  1  0.072824  0.927176  0.750000  1
  Tm  Tm3  1  0.927111  0.072889  0.250000  1
  F  F4  1  0.743021  0.810310  0.590197  1
  F  F5  1  0.809984  0.743754  0.091893  1
  F  F6  1  0.806348  0.169399  0.015195  1
  F  F7  1  0.615700  0.384300  0.750000  1
  F  F8  1  0.830601  0.193652  0.484805  1
  F  F9  1  0.169828  0.805938  0.514260  1
  F  F10  1  0.384528  0.615472  0.250000  1
  F  F11  1  0.194062  0.830172  0.985740  1
  F  F12  1  0.189690  0.256979  0.909803  1
  F  F13  1  0.256246  0.190016  0.408107  1
