# generated using pymatgen
data_LaPr7(Si3Pt)4
_symmetry_space_group_name_H-M   'P 1'
_cell_length_a   8.25222615
_cell_length_b   8.25222559
_cell_length_c   8.70187600
_cell_angle_alpha   90.00000000
_cell_angle_beta   90.00000000
_cell_angle_gamma   119.84729167
_symmetry_Int_Tables_number   1
_chemical_formula_structural   LaPr7(Si3Pt)4
_chemical_formula_sum   'La1 Pr7 Si12 Pt4'
_cell_volume   513.98680356
_cell_formula_units_Z   1
loop_
 _symmetry_equiv_pos_site_id
 _symmetry_equiv_pos_as_xyz
  1  'x, y, z'
loop_
 _atom_site_type_symbol
 _atom_site_label
 _atom_site_symmetry_multiplicity
 _atom_site_fract_x
 _atom_site_fract_y
 _atom_site_fract_z
 _atom_site_occupancy
  La  La0  1  0.499578  0.500422  0.750000  1
  Pr  Pr1  1  0.500490  0.499510  0.250000  1
  Pr  Pr2  1  0.000942  0.500466  0.750000  1
  Pr  Pr3  1  0.998993  0.499392  0.250000  1
  Pr  Pr4  1  0.499534  0.999058  0.750000  1
  Pr  Pr5  1  0.500608  0.001007  0.250000  1
  Pr  Pr6  1  0.999996  0.000004  0.750000  1
  Pr  Pr7  1  0.999971  0.000029  0.250000  1
  Si  Si8  1  0.834019  0.165981  0.000722  1
  Si  Si9  1  0.165969  0.834031  0.999453  1
  Si  Si10  1  0.331485  0.165157  0.001176  1
  Si  Si11  1  0.165969  0.834031  0.500547  1
  Si  Si12  1  0.668515  0.834840  0.000150  1
  Si  Si13  1  0.834019  0.165981  0.499278  1
  Si  Si14  1  0.834843  0.668515  0.001176  1
  Si  Si15  1  0.668515  0.834840  0.499850  1
  Si  Si16  1  0.165160  0.331485  0.000150  1
  Si  Si17  1  0.331485  0.165157  0.498824  1
  Si  Si18  1  0.165160  0.331485  0.499850  1
  Si  Si19  1  0.834843  0.668515  0.498824  1
  Pt  Pt20  1  0.666412  0.333588  0.998698  1
  Pt  Pt21  1  0.333544  0.666456  0.002679  1
  Pt  Pt22  1  0.333544  0.666456  0.497321  1
  Pt  Pt23  1  0.666412  0.333588  0.501302  1
