# generated using pymatgen
data_Rb3Ta2Ag3Se8
_symmetry_space_group_name_H-M   'P 1'
_cell_length_a   13.44388642
_cell_length_b   13.44388541
_cell_length_c   15.26475739
_cell_angle_alpha   61.60516545
_cell_angle_beta   61.60516753
_cell_angle_gamma   26.71621536
_symmetry_Int_Tables_number   1
_chemical_formula_structural   Rb3Ta2Ag3Se8
_chemical_formula_sum   'Rb6 Ta4 Ag6 Se16'
_cell_volume   1082.08408822
_cell_formula_units_Z   2
loop_
 _symmetry_equiv_pos_site_id
 _symmetry_equiv_pos_as_xyz
  1  'x, y, z'
loop_
 _atom_site_type_symbol
 _atom_site_label
 _atom_site_symmetry_multiplicity
 _atom_site_fract_x
 _atom_site_fract_y
 _atom_site_fract_z
 _atom_site_occupancy
  Rb  Rb0  1  0.632640  0.760294  0.396714  1
  Rb  Rb1  1  0.000000  0.000000  0.000000  1
  Rb  Rb2  1  0.760294  0.632640  0.896714  1
  Rb  Rb3  1  0.000000  0.000000  0.500000  1
  Rb  Rb4  1  0.239706  0.367360  0.103286  1
  Rb  Rb5  1  0.367360  0.239706  0.603286  1
  Ta  Ta6  1  0.583450  0.164105  0.278296  1
  Ta  Ta7  1  0.164105  0.583450  0.778296  1
  Ta  Ta8  1  0.835895  0.416550  0.221704  1
  Ta  Ta9  1  0.416550  0.835895  0.721704  1
  Ag  Ag10  1  0.288190  0.711810  0.750000  1
  Ag  Ag11  1  0.335704  0.916833  0.215325  1
  Ag  Ag12  1  0.916833  0.335704  0.715325  1
  Ag  Ag13  1  0.083167  0.664296  0.284675  1
  Ag  Ag14  1  0.711810  0.288190  0.250000  1
  Ag  Ag15  1  0.664296  0.083167  0.784675  1
  Se  Se16  1  0.465039  0.444079  0.653602  1
  Se  Se17  1  0.221492  0.092932  0.817346  1
  Se  Se18  1  0.444079  0.465039  0.153602  1
  Se  Se19  1  0.778508  0.907068  0.182654  1
  Se  Se20  1  0.555921  0.534961  0.846398  1
  Se  Se21  1  0.295424  0.283885  0.888815  1
  Se  Se22  1  0.716115  0.704576  0.611185  1
  Se  Se23  1  0.283885  0.295424  0.388815  1
  Se  Se24  1  0.907068  0.778508  0.682654  1
  Se  Se25  1  0.177147  0.017708  0.616345  1
  Se  Se26  1  0.704576  0.716115  0.111185  1
  Se  Se27  1  0.534961  0.555921  0.346398  1
  Se  Se28  1  0.982292  0.822853  0.883655  1
  Se  Se29  1  0.092932  0.221492  0.317346  1
  Se  Se30  1  0.822853  0.982292  0.383655  1
  Se  Se31  1  0.017708  0.177147  0.116345  1
