# generated using pymatgen
data_Dy2HoTmMnRu7
_symmetry_space_group_name_H-M   'P 1'
_cell_length_a   5.32792983
_cell_length_b   5.32892426
_cell_length_c   8.67219218
_cell_angle_alpha   89.99999848
_cell_angle_beta   89.98757887
_cell_angle_gamma   59.99379884
_symmetry_Int_Tables_number   1
_chemical_formula_structural   Dy2HoTmMnRu7
_chemical_formula_sum   'Dy2 Ho1 Tm1 Mn1 Ru7'
_cell_volume   213.22121539
_cell_formula_units_Z   1
loop_
 _symmetry_equiv_pos_site_id
 _symmetry_equiv_pos_as_xyz
  1  'x, y, z'
loop_
 _atom_site_type_symbol
 _atom_site_label
 _atom_site_symmetry_multiplicity
 _atom_site_fract_x
 _atom_site_fract_y
 _atom_site_fract_z
 _atom_site_occupancy
  Dy  Dy0  1  0.333354  0.333322  0.565237  1
  Dy  Dy1  1  0.666650  0.666675  0.435046  1
  Ho  Ho2  1  0.666559  0.666720  0.067809  1
  Tm  Tm3  1  0.333411  0.333294  0.931814  1
  Mn  Mn4  1  0.000035  0.999983  0.999582  1
  Ru  Ru5  1  0.999997  0.000001  0.499880  1
  Ru  Ru6  1  0.828856  0.342373  0.754563  1
  Ru  Ru7  1  0.342462  0.828768  0.754517  1
  Ru  Ru8  1  0.828856  0.828769  0.754563  1
  Ru  Ru9  1  0.171263  0.657359  0.245651  1
  Ru  Ru10  1  0.657293  0.171354  0.245687  1
  Ru  Ru11  1  0.171263  0.171379  0.245651  1
