# generated using pymatgen
data_Y6Lu2Re3B24Ru
_symmetry_space_group_name_H-M   'P 1'
_cell_length_a   3.66399400
_cell_length_b   9.14895183
_cell_length_c   11.53639842
_cell_angle_alpha   90.13776569
_cell_angle_beta   90.00000000
_cell_angle_gamma   90.00000000
_symmetry_Int_Tables_number   1
_chemical_formula_structural   Y6Lu2Re3B24Ru
_chemical_formula_sum   'Y6 Lu2 Re3 B24 Ru1'
_cell_volume   386.71862237
_cell_formula_units_Z   1
loop_
 _symmetry_equiv_pos_site_id
 _symmetry_equiv_pos_as_xyz
  1  'x, y, z'
loop_
 _atom_site_type_symbol
 _atom_site_label
 _atom_site_symmetry_multiplicity
 _atom_site_fract_x
 _atom_site_fract_y
 _atom_site_fract_z
 _atom_site_occupancy
  Y  Y0  1  0.000000  0.322115  0.413988  1
  Y  Y1  1  0.000000  0.677128  0.587950  1
  Y  Y2  1  0.000000  0.823741  0.084129  1
  Y  Y3  1  0.000000  0.177930  0.914113  1
  Y  Y4  1  0.000000  0.941874  0.369357  1
  Y  Y5  1  0.000000  0.056234  0.629578  1
  Lu  Lu6  1  0.000000  0.443322  0.129834  1
  Lu  Lu7  1  0.000000  0.556741  0.871431  1
  Re  Re8  1  0.000000  0.362834  0.679772  1
  Re  Re9  1  0.000000  0.140721  0.179082  1
  Re  Re10  1  0.000000  0.859198  0.821168  1
  B  B11  1  0.500000  0.553560  0.432045  1
  B  B12  1  0.500000  0.447510  0.567382  1
  B  B13  1  0.500000  0.054153  0.066700  1
  B  B14  1  0.500000  0.946257  0.932937  1
  B  B15  1  0.500000  0.747549  0.417849  1
  B  B16  1  0.500000  0.251462  0.581683  1
  B  B17  1  0.500000  0.251760  0.081367  1
  B  B18  1  0.500000  0.749099  0.918849  1
  B  B19  1  0.500000  0.789713  0.264577  1
  B  B20  1  0.500000  0.209003  0.735150  1
  B  B21  1  0.500000  0.293577  0.234410  1
  B  B22  1  0.500000  0.706311  0.766446  1
  B  B23  1  0.500000  0.629634  0.184651  1
  B  B24  1  0.500000  0.371240  0.815333  1
  B  B25  1  0.500000  0.131950  0.314366  1
  B  B26  1  0.500000  0.867789  0.686115  1
  B  B27  1  0.500000  0.983081  0.211160  1
  B  B28  1  0.500000  0.017002  0.788289  1
  B  B29  1  0.500000  0.482718  0.287017  1
  B  B30  1  0.500000  0.519037  0.713247  1
  B  B31  1  0.500000  0.598751  0.028090  1
  B  B32  1  0.500000  0.401906  0.973014  1
  B  B33  1  0.500000  0.101619  0.471304  1
  B  B34  1  0.500000  0.896296  0.528177  1
  Ru  Ru35  1  0.000000  0.637190  0.319438  1
