# generated using pymatgen
data_Nd4Sc4Ir3Au
_symmetry_space_group_name_H-M   'P 1'
_cell_length_a   4.54769100
_cell_length_b   7.18243125
_cell_length_c   8.70568749
_cell_angle_alpha   91.73847635
_cell_angle_beta   90.00000000
_cell_angle_gamma   90.00000000
_symmetry_Int_Tables_number   1
_chemical_formula_structural   Nd4Sc4Ir3Au
_chemical_formula_sum   'Nd4 Sc4 Ir3 Au1'
_cell_volume   284.22714516
_cell_formula_units_Z   1
loop_
 _symmetry_equiv_pos_site_id
 _symmetry_equiv_pos_as_xyz
  1  'x, y, z'
loop_
 _atom_site_type_symbol
 _atom_site_label
 _atom_site_symmetry_multiplicity
 _atom_site_fract_x
 _atom_site_fract_y
 _atom_site_fract_z
 _atom_site_occupancy
  Nd  Nd0  1  0.250000  0.013210  0.327120  1
  Nd  Nd1  1  0.250000  0.535987  0.186344  1
  Nd  Nd2  1  0.750000  0.981573  0.671602  1
  Nd  Nd3  1  0.750000  0.483780  0.816090  1
  Sc  Sc4  1  0.250000  0.131372  0.921266  1
  Sc  Sc5  1  0.250000  0.636970  0.570604  1
  Sc  Sc6  1  0.750000  0.857736  0.062985  1
  Sc  Sc7  1  0.750000  0.360406  0.434399  1
  Ir  Ir8  1  0.250000  0.264721  0.598031  1
  Ir  Ir9  1  0.250000  0.762677  0.907569  1
  Ir  Ir10  1  0.750000  0.731622  0.401605  1
  Au  Au11  1  0.750000  0.239947  0.102383  1
