# generated using pymatgen
data_Zr7Nb3Ge6N
_symmetry_space_group_name_H-M   'P 1'
_cell_length_a   7.97239700
_cell_length_b   7.97239733
_cell_length_c   5.49728600
_cell_angle_alpha   90.00000000
_cell_angle_beta   90.00000000
_cell_angle_gamma   119.99999448
_symmetry_Int_Tables_number   1
_chemical_formula_structural   Zr7Nb3Ge6N
_chemical_formula_sum   'Zr7 Nb3 Ge6 N1'
_cell_volume   302.59158058
_cell_formula_units_Z   1
loop_
 _symmetry_equiv_pos_site_id
 _symmetry_equiv_pos_as_xyz
  1  'x, y, z'
loop_
 _atom_site_type_symbol
 _atom_site_label
 _atom_site_symmetry_multiplicity
 _atom_site_fract_x
 _atom_site_fract_y
 _atom_site_fract_z
 _atom_site_occupancy
  Zr  Zr0  1  0.999614  0.758124  0.258148  1
  Zr  Zr1  1  0.241876  0.241492  0.258148  1
  Zr  Zr2  1  0.758508  0.000386  0.258148  1
  Zr  Zr3  1  0.999614  0.241492  0.741852  1
  Zr  Zr4  1  0.758508  0.758124  0.741852  1
  Zr  Zr5  1  0.241876  0.000386  0.741852  1
  Zr  Zr6  1  0.333333  0.666667  0.000000  1
  Nb  Nb7  1  0.666667  0.333333  0.000000  1
  Nb  Nb8  1  0.666667  0.333333  0.500000  1
  Nb  Nb9  1  0.333333  0.666667  0.500000  1
  Ge  Ge10  1  0.997007  0.397770  0.249259  1
  Ge  Ge11  1  0.602230  0.599237  0.249259  1
  Ge  Ge12  1  0.400763  0.002993  0.249259  1
  Ge  Ge13  1  0.997007  0.599237  0.750741  1
  Ge  Ge14  1  0.400763  0.397770  0.750741  1
  Ge  Ge15  1  0.602230  0.002993  0.750741  1
  N  N16  1  0.000000  0.000000  0.500000  1
