# generated using pymatgen
data_Er2ThAl3CoNi2
_symmetry_space_group_name_H-M   'P 1'
_cell_length_a   7.10499137
_cell_length_b   6.95973030
_cell_length_c   3.84379700
_cell_angle_alpha   90.00000000
_cell_angle_beta   90.00000000
_cell_angle_gamma   120.43253646
_symmetry_Int_Tables_number   1
_chemical_formula_structural   Er2ThAl3CoNi2
_chemical_formula_sum   'Er2 Th1 Al3 Co1 Ni2'
_cell_volume   163.88439742
_cell_formula_units_Z   1
loop_
 _symmetry_equiv_pos_site_id
 _symmetry_equiv_pos_as_xyz
  1  'x, y, z'
loop_
 _atom_site_type_symbol
 _atom_site_label
 _atom_site_symmetry_multiplicity
 _atom_site_fract_x
 _atom_site_fract_y
 _atom_site_fract_z
 _atom_site_occupancy
  Er  Er0  1  0.001515  0.416347  0.500000  1
  Er  Er1  1  0.581386  0.584471  0.500000  1
  Th  Th2  1  0.421544  0.991861  0.500000  1
  Al  Al3  1  0.774669  0.997037  0.000000  1
  Al  Al4  1  0.990623  0.752202  0.000000  1
  Al  Al5  1  0.236083  0.247890  0.000000  1
  Co  Co6  1  0.334045  0.685803  0.000000  1
  Ni  Ni7  1  0.656407  0.322202  0.000000  1
  Ni  Ni8  1  0.003728  0.002187  0.500000  1
