# generated using pymatgen
data_Zr3TiOs2
_symmetry_space_group_name_H-M   'P 1'
_cell_length_a   8.64852494
_cell_length_b   8.64852514
_cell_length_c   8.64852600
_cell_angle_alpha   59.99999671
_cell_angle_beta   59.99999595
_cell_angle_gamma   59.99999806
_symmetry_Int_Tables_number   1
_chemical_formula_structural   Zr3TiOs2
_chemical_formula_sum   'Zr12 Ti4 Os8'
_cell_volume   457.41579966
_cell_formula_units_Z   4
loop_
 _symmetry_equiv_pos_site_id
 _symmetry_equiv_pos_as_xyz
  1  'x, y, z'
loop_
 _atom_site_type_symbol
 _atom_site_label
 _atom_site_symmetry_multiplicity
 _atom_site_fract_x
 _atom_site_fract_y
 _atom_site_fract_z
 _atom_site_occupancy
  Zr  Zr0  1  0.305578  0.694422  0.305578  1
  Zr  Zr1  1  0.694422  0.305578  0.305578  1
  Zr  Zr2  1  0.694423  0.694423  0.305577  1
  Zr  Zr3  1  0.944422  0.555578  0.555578  1
  Zr  Zr4  1  0.555578  0.944422  0.555578  1
  Zr  Zr5  1  0.944423  0.944423  0.555577  1
  Zr  Zr6  1  0.694423  0.305577  0.694423  1
  Zr  Zr7  1  0.305578  0.305578  0.694422  1
  Zr  Zr8  1  0.305577  0.694423  0.694423  1
  Zr  Zr9  1  0.555578  0.555578  0.944422  1
  Zr  Zr10  1  0.944423  0.555577  0.944423  1
  Zr  Zr11  1  0.555577  0.944423  0.944423  1
  Ti  Ti12  1  0.125000  0.125000  0.125000  1
  Ti  Ti13  1  0.625000  0.125000  0.125000  1
  Ti  Ti14  1  0.125000  0.625000  0.125000  1
  Ti  Ti15  1  0.125000  0.125000  0.625000  1
  Os  Os16  1  0.916269  0.916269  0.251193  1
  Os  Os17  1  0.333731  0.333731  0.333731  1
  Os  Os18  1  0.998807  0.333731  0.333731  1
  Os  Os19  1  0.333731  0.998807  0.333731  1
  Os  Os20  1  0.916269  0.251193  0.916269  1
  Os  Os21  1  0.251193  0.916269  0.916269  1
  Os  Os22  1  0.916269  0.916269  0.916269  1
  Os  Os23  1  0.333731  0.333731  0.998807  1
