# generated using pymatgen
data_HfZr5FeSb2
_symmetry_space_group_name_H-M   'P 1'
_cell_length_a   7.80982211
_cell_length_b   7.80982113
_cell_length_c   3.63612600
_cell_angle_alpha   90.00000000
_cell_angle_beta   90.00000000
_cell_angle_gamma   119.89766196
_symmetry_Int_Tables_number   1
_chemical_formula_structural   HfZr5FeSb2
_chemical_formula_sum   'Hf1 Zr5 Fe1 Sb2'
_cell_volume   192.26432949
_cell_formula_units_Z   1
loop_
 _symmetry_equiv_pos_site_id
 _symmetry_equiv_pos_as_xyz
  1  'x, y, z'
loop_
 _atom_site_type_symbol
 _atom_site_label
 _atom_site_symmetry_multiplicity
 _atom_site_fract_x
 _atom_site_fract_y
 _atom_site_fract_z
 _atom_site_occupancy
  Hf  Hf0  1  0.762398  0.762398  0.500000  1
  Zr  Zr1  1  0.239241  0.999559  0.500000  1
  Zr  Zr2  1  0.999559  0.239241  0.500000  1
  Zr  Zr3  1  0.601311  0.999473  0.000000  1
  Zr  Zr4  1  0.999473  0.601311  0.000000  1
  Zr  Zr5  1  0.400530  0.400530  0.000000  1
  Fe  Fe6  1  0.997073  0.997073  0.000000  1
  Sb  Sb7  1  0.333955  0.666461  0.500000  1
  Sb  Sb8  1  0.666461  0.333955  0.500000  1
