# generated using pymatgen
data_PrNd3Ir4F28
_symmetry_space_group_name_H-M   'P 1'
_cell_length_a   5.68748806
_cell_length_b   9.21847521
_cell_length_c   12.30386349
_cell_angle_alpha   62.09566879
_cell_angle_beta   89.99214337
_cell_angle_gamma   90.00890571
_symmetry_Int_Tables_number   1
_chemical_formula_structural   PrNd3Ir4F28
_chemical_formula_sum   'Pr1 Nd3 Ir4 F28'
_cell_volume   570.08655672
_cell_formula_units_Z   1
loop_
 _symmetry_equiv_pos_site_id
 _symmetry_equiv_pos_as_xyz
  1  'x, y, z'
loop_
 _atom_site_type_symbol
 _atom_site_label
 _atom_site_symmetry_multiplicity
 _atom_site_fract_x
 _atom_site_fract_y
 _atom_site_fract_z
 _atom_site_occupancy
  Pr  Pr0  1  0.740290  0.811295  0.265336  1
  Nd  Nd1  1  0.759722  0.811282  0.765240  1
  Nd  Nd2  1  0.259816  0.188962  0.734717  1
  Nd  Nd3  1  0.240077  0.189870  0.234576  1
  Ir  Ir4  1  0.756024  0.274389  0.956481  1
  Ir  Ir5  1  0.255864  0.726062  0.543899  1
  Ir  Ir6  1  0.244448  0.726105  0.042278  1
  Ir  Ir7  1  0.744289  0.272945  0.457327  1
  F  F8  1  0.436833  0.708077  0.916054  1
  F  F9  1  0.937213  0.291323  0.583132  1
  F  F10  1  0.562847  0.291990  0.082737  1
  F  F11  1  0.064298  0.707698  0.417595  1
  F  F12  1  0.452547  0.281918  0.541876  1
  F  F13  1  0.951971  0.717675  0.958197  1
  F  F14  1  0.547963  0.716909  0.459851  1
  F  F15  1  0.047595  0.282759  0.041390  1
  F  F16  1  0.763979  0.513201  0.861976  1
  F  F17  1  0.263501  0.487006  0.638582  1
  F  F18  1  0.236211  0.487280  0.137291  1
  F  F19  1  0.736044  0.511340  0.362602  1
  F  F20  1  0.759187  0.035509  0.048341  1
  F  F21  1  0.259312  0.965072  0.451119  1
  F  F22  1  0.241187  0.965103  0.950459  1
  F  F23  1  0.741088  0.034237  0.549397  1
  F  F24  1  0.968536  0.730547  0.632424  1
  F  F25  1  0.469794  0.269816  0.867482  1
  F  F26  1  0.030823  0.269291  0.368241  1
  F  F27  1  0.531253  0.729864  0.130769  1
  F  F28  1  0.056264  0.742208  0.170689  1
  F  F29  1  0.554418  0.256564  0.329489  1
  F  F30  1  0.946034  0.257495  0.828790  1
  F  F31  1  0.445007  0.742957  0.671732  1
  F  F32  1  0.404995  0.968766  0.230094  1
  F  F33  1  0.907966  0.034354  0.269752  1
  F  F34  1  0.591228  0.031900  0.769585  1
  F  F35  1  0.091378  0.968231  0.730499  1
