# generated using pymatgen
data_Ca2Co3B8Os5
_symmetry_space_group_name_H-M   'P 1'
_cell_length_a   3.98611461
_cell_length_b   7.31869900
_cell_length_c   7.25858002
_cell_angle_alpha   89.22908086
_cell_angle_beta   89.87276676
_cell_angle_gamma   89.65513744
_symmetry_Int_Tables_number   1
_chemical_formula_structural   Ca2Co3B8Os5
_chemical_formula_sum   'Ca2 Co3 B8 Os5'
_cell_volume   211.73232283
_cell_formula_units_Z   1
loop_
 _symmetry_equiv_pos_site_id
 _symmetry_equiv_pos_as_xyz
  1  'x, y, z'
loop_
 _atom_site_type_symbol
 _atom_site_label
 _atom_site_symmetry_multiplicity
 _atom_site_fract_x
 _atom_site_fract_y
 _atom_site_fract_z
 _atom_site_occupancy
  Ca  Ca0  1  0.318496  0.248402  0.251999  1
  Ca  Ca1  1  0.843029  0.756332  0.749645  1
  Co  Co2  1  0.125955  0.364620  0.624428  1
  Co  Co3  1  0.125180  0.118490  0.861878  1
  Co  Co4  1  0.624452  0.126587  0.622705  1
  B  B5  1  0.351152  0.924709  0.026317  1
  B  B6  1  0.350188  0.572525  0.471298  1
  B  B7  1  0.853481  0.534528  0.080997  1
  B  B8  1  0.849555  0.973583  0.423255  1
  B  B9  1  0.628743  0.089196  0.935375  1
  B  B10  1  0.628854  0.406373  0.566293  1
  B  B11  1  0.127398  0.447777  0.914696  1
  B  B12  1  0.130027  0.062568  0.588136  1
  Os  Os13  1  0.624436  0.368912  0.870033  1
  Os  Os14  1  0.854557  0.595435  0.368118  1
  Os  Os15  1  0.855075  0.906071  0.139041  1
  Os  Os16  1  0.354310  0.862101  0.406093  1
  Os  Os17  1  0.355113  0.641791  0.099696  1
