# generated using pymatgen
data_K2RbTaS4
_symmetry_space_group_name_H-M   'P 1'
_cell_length_a   9.53753500
_cell_length_b   9.66394600
_cell_length_c   10.66050100
_cell_angle_alpha   90.00000000
_cell_angle_beta   90.00000000
_cell_angle_gamma   90.00000000
_symmetry_Int_Tables_number   1
_chemical_formula_structural   K2RbTaS4
_chemical_formula_sum   'K8 Rb4 Ta4 S16'
_cell_volume   982.58075673
_cell_formula_units_Z   4
loop_
 _symmetry_equiv_pos_site_id
 _symmetry_equiv_pos_as_xyz
  1  'x, y, z'
loop_
 _atom_site_type_symbol
 _atom_site_label
 _atom_site_symmetry_multiplicity
 _atom_site_fract_x
 _atom_site_fract_y
 _atom_site_fract_z
 _atom_site_occupancy
  K  K0  1  0.558238  0.215183  0.044377  1
  K  K1  1  0.058238  0.284817  0.455623  1
  K  K2  1  0.441762  0.784817  0.544377  1
  K  K3  1  0.941762  0.715183  0.955623  1
  K  K4  1  0.441762  0.784817  0.955623  1
  K  K5  1  0.941762  0.715183  0.544377  1
  K  K6  1  0.558238  0.215183  0.455623  1
  K  K7  1  0.058238  0.284817  0.044377  1
  Rb  Rb8  1  0.641000  0.420316  0.750000  1
  Rb  Rb9  1  0.141000  0.079684  0.750000  1
  Rb  Rb10  1  0.359000  0.579684  0.250000  1
  Rb  Rb11  1  0.859000  0.920316  0.250000  1
  Ta  Ta12  1  0.714108  0.987773  0.750000  1
  Ta  Ta13  1  0.214108  0.512227  0.750000  1
  Ta  Ta14  1  0.285892  0.012227  0.250000  1
  Ta  Ta15  1  0.785892  0.487773  0.250000  1
  S  S16  1  0.831060  0.054194  0.573398  1
  S  S17  1  0.331060  0.445806  0.926602  1
  S  S18  1  0.168940  0.945806  0.073398  1
  S  S19  1  0.668940  0.554194  0.426602  1
  S  S20  1  0.168940  0.945806  0.426602  1
  S  S21  1  0.668940  0.554194  0.073398  1
  S  S22  1  0.831060  0.054194  0.926602  1
  S  S23  1  0.331060  0.445806  0.573398  1
  S  S24  1  0.694797  0.752293  0.750000  1
  S  S25  1  0.194797  0.747707  0.750000  1
  S  S26  1  0.305203  0.247707  0.250000  1
  S  S27  1  0.805203  0.252293  0.250000  1
  S  S28  1  0.494469  0.082329  0.750000  1
  S  S29  1  0.994469  0.417671  0.750000  1
  S  S30  1  0.505531  0.917671  0.250000  1
  S  S31  1  0.005531  0.582329  0.250000  1
