# generated using pymatgen
data_Pr16Y4Si15P
_symmetry_space_group_name_H-M   'P 1'
_cell_length_a   7.82024357
_cell_length_b   7.82314884
_cell_length_c   15.35011352
_cell_angle_alpha   89.92199520
_cell_angle_beta   89.90775015
_cell_angle_gamma   90.10074178
_symmetry_Int_Tables_number   1
_chemical_formula_structural   Pr16Y4Si15P
_chemical_formula_sum   'Pr16 Y4 Si15 P1'
_cell_volume   939.09996855
_cell_formula_units_Z   1
loop_
 _symmetry_equiv_pos_site_id
 _symmetry_equiv_pos_as_xyz
  1  'x, y, z'
loop_
 _atom_site_type_symbol
 _atom_site_label
 _atom_site_symmetry_multiplicity
 _atom_site_fract_x
 _atom_site_fract_y
 _atom_site_fract_z
 _atom_site_occupancy
  Pr  Pr0  1  0.380539  0.012110  0.443411  1
  Pr  Pr1  1  0.485625  0.879493  0.695071  1
  Pr  Pr2  1  0.513552  0.121219  0.194841  1
  Pr  Pr3  1  0.878495  0.486081  0.304912  1
  Pr  Pr4  1  0.123133  0.510665  0.804738  1
  Pr  Pr5  1  0.621253  0.986439  0.944172  1
  Pr  Pr6  1  0.013156  0.377398  0.555792  1
  Pr  Pr7  1  0.986315  0.620687  0.054976  1
  Pr  Pr8  1  0.127479  0.978673  0.876763  1
  Pr  Pr9  1  0.524040  0.625286  0.127931  1
  Pr  Pr10  1  0.472285  0.371489  0.629345  1
  Pr  Pr11  1  0.624912  0.523859  0.871128  1
  Pr  Pr12  1  0.373890  0.474622  0.372517  1
  Pr  Pr13  1  0.875908  0.024567  0.378801  1
  Pr  Pr14  1  0.975565  0.124993  0.121525  1
  Pr  Pr15  1  0.027605  0.879526  0.622568  1
  Y  Y16  1  0.309254  0.309106  0.999871  1
  Y  Y17  1  0.190580  0.808445  0.250058  1
  Y  Y18  1  0.808726  0.191317  0.749685  1
  Y  Y19  1  0.690683  0.691034  0.500083  1
  Si  Si20  1  0.326610  0.688069  0.958100  1
  Si  Si21  1  0.672910  0.313061  0.459429  1
  Si  Si22  1  0.688108  0.327964  0.041281  1
  Si  Si23  1  0.312060  0.672172  0.542199  1
  Si  Si24  1  0.812436  0.827643  0.208789  1
  Si  Si25  1  0.172615  0.187412  0.290944  1
  Si  Si26  1  0.829217  0.811920  0.791114  1
  Si  Si27  1  0.285884  0.920714  0.062955  1
  Si  Si28  1  0.579131  0.785891  0.313191  1
  Si  Si29  1  0.424063  0.213117  0.814837  1
  Si  Si30  1  0.787355  0.579563  0.685871  1
  Si  Si31  1  0.213245  0.421421  0.186692  1
  Si  Si32  1  0.711618  0.077879  0.563570  1
  Si  Si33  1  0.921797  0.286864  0.936588  1
  Si  Si34  1  0.078614  0.712986  0.437308  1
  P  P35  1  0.181341  0.176318  0.708942  1
