# generated using pymatgen
data_Tb5ErTa2O14
_symmetry_space_group_name_H-M   'P 1'
_cell_length_a   6.51500118
_cell_length_b   6.50051643
_cell_length_c   7.49535813
_cell_angle_alpha   89.98896262
_cell_angle_beta   89.94517847
_cell_angle_gamma   108.67716285
_symmetry_Int_Tables_number   1
_chemical_formula_structural   Tb5ErTa2O14
_chemical_formula_sum   'Tb5 Er1 Ta2 O14'
_cell_volume   300.71801320
_cell_formula_units_Z   1
loop_
 _symmetry_equiv_pos_site_id
 _symmetry_equiv_pos_as_xyz
  1  'x, y, z'
loop_
 _atom_site_type_symbol
 _atom_site_label
 _atom_site_symmetry_multiplicity
 _atom_site_fract_x
 _atom_site_fract_y
 _atom_site_fract_z
 _atom_site_occupancy
  Tb  Tb0  1  0.000482  0.464930  0.742079  1
  Tb  Tb1  1  0.535026  0.000126  0.757918  1
  Tb  Tb2  1  0.538400  0.535434  0.499967  1
  Tb  Tb3  1  0.464424  0.466173  0.001238  1
  Tb  Tb4  1  0.464560  0.000080  0.258020  1
  Er  Er5  1  0.000495  0.534998  0.241839  1
  Ta  Ta6  1  0.002324  0.002745  0.499322  1
  Ta  Ta7  1  0.997397  0.997241  0.001192  1
  O  O8  1  0.067646  0.930541  0.250099  1
  O  O9  1  0.043061  0.305400  0.452378  1
  O  O10  1  0.079322  0.326659  0.028375  1
  O  O11  1  0.356652  0.638131  0.251420  1
  O  O12  1  0.370382  0.628695  0.749604  1
  O  O13  1  0.327399  0.083925  0.975527  1
  O  O14  1  0.308850  0.055330  0.542094  1
  O  O15  1  0.690544  0.945051  0.042191  1
  O  O16  1  0.672062  0.916296  0.475852  1
  O  O17  1  0.633980  0.373828  0.248549  1
  O  O18  1  0.639974  0.362282  0.750583  1
  O  O19  1  0.919628  0.672249  0.522732  1
  O  O20  1  0.952828  0.691990  0.958787  1
  O  O21  1  0.934561  0.067894  0.750235  1
