# generated using pymatgen
data_Ho(Co3Si2)2
_symmetry_space_group_name_H-M   'P 1'
_cell_length_a   6.60640700
_cell_length_b   6.60640650
_cell_length_c   3.61442000
_cell_angle_alpha   90.00000000
_cell_angle_beta   90.00000000
_cell_angle_gamma   119.99999750
_symmetry_Int_Tables_number   1
_chemical_formula_structural   Ho(Co3Si2)2
_chemical_formula_sum   'Ho1 Co6 Si4'
_cell_volume   136.61546913
_cell_formula_units_Z   1
loop_
 _symmetry_equiv_pos_site_id
 _symmetry_equiv_pos_as_xyz
  1  'x, y, z'
loop_
 _atom_site_type_symbol
 _atom_site_label
 _atom_site_symmetry_multiplicity
 _atom_site_fract_x
 _atom_site_fract_y
 _atom_site_fract_z
 _atom_site_occupancy
  Ho  Ho0  1  0.000000  0.000000  0.000000  1
  Co  Co1  1  0.534150  0.465850  0.000000  1
  Co  Co2  1  0.534150  0.068301  0.000000  1
  Co  Co3  1  0.931699  0.465850  0.000000  1
  Co  Co4  1  0.204766  0.795234  0.500000  1
  Co  Co5  1  0.204766  0.409531  0.500000  1
  Co  Co6  1  0.590469  0.795234  0.500000  1
  Si  Si7  1  0.800928  0.199072  0.500000  1
  Si  Si8  1  0.800928  0.601856  0.500000  1
  Si  Si9  1  0.398144  0.199072  0.500000  1
  Si  Si10  1  0.333333  0.666667  0.000000  1
