# generated using pymatgen
data_KSrVS4
_symmetry_space_group_name_H-M   'P 1'
_cell_length_a   12.75661000
_cell_length_b   6.71153800
_cell_length_c   8.88902500
_cell_angle_alpha   90.00000000
_cell_angle_beta   90.00000000
_cell_angle_gamma   90.00000000
_symmetry_Int_Tables_number   1
_chemical_formula_structural   KSrVS4
_chemical_formula_sum   'K4 Sr4 V4 S16'
_cell_volume   761.04696683
_cell_formula_units_Z   4
loop_
 _symmetry_equiv_pos_site_id
 _symmetry_equiv_pos_as_xyz
  1  'x, y, z'
loop_
 _atom_site_type_symbol
 _atom_site_label
 _atom_site_symmetry_multiplicity
 _atom_site_fract_x
 _atom_site_fract_y
 _atom_site_fract_z
 _atom_site_occupancy
  K  K0  1  0.101999  0.250001  0.122363  1
  K  K1  1  0.601999  0.250001  0.377636  1
  K  K2  1  0.398001  0.750000  0.622363  1
  K  K3  1  0.898001  0.750000  0.877636  1
  Sr  Sr4  1  0.360605  0.750000  0.107033  1
  Sr  Sr5  1  0.860605  0.750000  0.392967  1
  Sr  Sr6  1  0.139394  0.250001  0.607033  1
  Sr  Sr7  1  0.639395  0.250001  0.892966  1
  V  V8  1  0.648342  0.750000  0.124014  1
  V  V9  1  0.148342  0.750000  0.375986  1
  V  V10  1  0.851659  0.250001  0.624014  1
  V  V11  1  0.351658  0.250001  0.875986  1
  S  S12  1  0.439092  0.250001  0.082180  1
  S  S13  1  0.751792  0.496326  0.135147  1
  S  S14  1  0.751792  0.003675  0.135147  1
  S  S15  1  0.045819  0.750000  0.182429  1
  S  S16  1  0.545819  0.750000  0.317571  1
  S  S17  1  0.251791  0.496326  0.364853  1
  S  S18  1  0.251791  0.003675  0.364853  1
  S  S19  1  0.939091  0.250001  0.417820  1
  S  S20  1  0.060908  0.750000  0.582181  1
  S  S21  1  0.748208  0.996326  0.635147  1
  S  S22  1  0.748208  0.503675  0.635147  1
  S  S23  1  0.454181  0.250001  0.682429  1
  S  S24  1  0.954181  0.250001  0.817571  1
  S  S25  1  0.248208  0.996326  0.864853  1
  S  S26  1  0.248208  0.503675  0.864853  1
  S  S27  1  0.560909  0.750000  0.917820  1
