# generated using pymatgen
data_Th4Cd2IrPt3
_symmetry_space_group_name_H-M   'P 1'
_cell_length_a   7.97006742
_cell_length_b   7.97006826
_cell_length_c   3.79046300
_cell_angle_alpha   90.00000000
_cell_angle_beta   90.00000000
_cell_angle_gamma   89.89604149
_symmetry_Int_Tables_number   1
_chemical_formula_structural   Th4Cd2IrPt3
_chemical_formula_sum   'Th4 Cd2 Ir1 Pt3'
_cell_volume   240.77732363
_cell_formula_units_Z   1
loop_
 _symmetry_equiv_pos_site_id
 _symmetry_equiv_pos_as_xyz
  1  'x, y, z'
loop_
 _atom_site_type_symbol
 _atom_site_label
 _atom_site_symmetry_multiplicity
 _atom_site_fract_x
 _atom_site_fract_y
 _atom_site_fract_z
 _atom_site_occupancy
  Th  Th0  1  0.169114  0.330886  0.500000  1
  Th  Th1  1  0.337262  0.827028  0.500000  1
  Th  Th2  1  0.823022  0.676978  0.500000  1
  Th  Th3  1  0.672972  0.162738  0.500000  1
  Cd  Cd4  1  0.500784  0.498731  0.000000  1
  Cd  Cd5  1  0.001269  0.999216  0.000000  1
  Ir  Ir6  1  0.629198  0.870802  0.000000  1
  Pt  Pt7  1  0.130749  0.631513  0.000000  1
  Pt  Pt8  1  0.868487  0.369251  0.000000  1
  Pt  Pt9  1  0.367142  0.132858  0.000000  1
