# generated using pymatgen
data_Y2Tm2ScGa4
_symmetry_space_group_name_H-M   'P 1'
_cell_length_a   7.41240800
_cell_length_b   7.72314200
_cell_length_c   14.91490200
_cell_angle_alpha   90.00000000
_cell_angle_beta   90.00000000
_cell_angle_gamma   90.00000000
_symmetry_Int_Tables_number   1
_chemical_formula_structural   Y2Tm2ScGa4
_chemical_formula_sum   'Y8 Tm8 Sc4 Ga16'
_cell_volume   853.83458121
_cell_formula_units_Z   4
loop_
 _symmetry_equiv_pos_site_id
 _symmetry_equiv_pos_as_xyz
  1  'x, y, z'
loop_
 _atom_site_type_symbol
 _atom_site_label
 _atom_site_symmetry_multiplicity
 _atom_site_fract_x
 _atom_site_fract_y
 _atom_site_fract_z
 _atom_site_occupancy
  Y  Y0  1  0.013417  0.180625  0.096486  1
  Y  Y1  1  0.986583  0.819375  0.903514  1
  Y  Y2  1  0.486583  0.680625  0.903514  1
  Y  Y3  1  0.986583  0.819375  0.596486  1
  Y  Y4  1  0.513417  0.319375  0.096486  1
  Y  Y5  1  0.013417  0.180625  0.403514  1
  Y  Y6  1  0.513417  0.319375  0.403514  1
  Y  Y7  1  0.486583  0.680625  0.596486  1
  Tm  Tm8  1  0.329036  0.173294  0.624481  1
  Tm  Tm9  1  0.670964  0.826706  0.375519  1
  Tm  Tm10  1  0.170964  0.673294  0.375519  1
  Tm  Tm11  1  0.670964  0.826706  0.124481  1
  Tm  Tm12  1  0.829036  0.326706  0.624481  1
  Tm  Tm13  1  0.329036  0.173294  0.875519  1
  Tm  Tm14  1  0.829036  0.326706  0.875519  1
  Tm  Tm15  1  0.170964  0.673294  0.124481  1
  Sc  Sc16  1  0.162911  0.508205  0.750000  1
  Sc  Sc17  1  0.837089  0.491795  0.250000  1
  Sc  Sc18  1  0.337089  0.008205  0.250000  1
  Sc  Sc19  1  0.662911  0.991795  0.750000  1
  Ga  Ga20  1  0.027909  0.106309  0.750000  1
  Ga  Ga21  1  0.972091  0.893691  0.250000  1
  Ga  Ga22  1  0.472091  0.606309  0.250000  1
  Ga  Ga23  1  0.527909  0.393691  0.750000  1
  Ga  Ga24  1  0.282951  0.866496  0.750000  1
  Ga  Ga25  1  0.717049  0.133504  0.250000  1
  Ga  Ga26  1  0.217049  0.366496  0.250000  1
  Ga  Ga27  1  0.782951  0.633504  0.750000  1
  Ga  Ga28  1  0.160511  0.469469  0.540889  1
  Ga  Ga29  1  0.839489  0.530531  0.459111  1
  Ga  Ga30  1  0.339489  0.969469  0.459111  1
  Ga  Ga31  1  0.839489  0.530531  0.040889  1
  Ga  Ga32  1  0.660511  0.030531  0.540889  1
  Ga  Ga33  1  0.160511  0.469469  0.959111  1
  Ga  Ga34  1  0.660511  0.030531  0.959111  1
  Ga  Ga35  1  0.339489  0.969469  0.040889  1
