# generated using pymatgen
data_Tb13Dy3(ZrIr3)4
_symmetry_space_group_name_H-M   'P 1'
_cell_length_a   10.86351901
_cell_length_b   10.87747108
_cell_length_c   6.30016105
_cell_angle_alpha   89.98647389
_cell_angle_beta   89.99487087
_cell_angle_gamma   90.00267724
_symmetry_Int_Tables_number   1
_chemical_formula_structural   Tb13Dy3(ZrIr3)4
_chemical_formula_sum   'Tb13 Dy3 Zr4 Ir12'
_cell_volume   744.47497386
_cell_formula_units_Z   1
loop_
 _symmetry_equiv_pos_site_id
 _symmetry_equiv_pos_as_xyz
  1  'x, y, z'
loop_
 _atom_site_type_symbol
 _atom_site_label
 _atom_site_symmetry_multiplicity
 _atom_site_fract_x
 _atom_site_fract_y
 _atom_site_fract_z
 _atom_site_occupancy
  Tb  Tb0  1  0.710138  0.913696  0.373840  1
  Tb  Tb1  1  0.586384  0.790082  0.873884  1
  Tb  Tb2  1  0.586468  0.209966  0.373943  1
  Tb  Tb3  1  0.413200  0.790129  0.373811  1
  Tb  Tb4  1  0.413383  0.209913  0.873800  1
  Tb  Tb5  1  0.210020  0.413280  0.626217  1
  Tb  Tb6  1  0.210051  0.586690  0.126296  1
  Tb  Tb7  1  0.789916  0.413258  0.126226  1
  Tb  Tb8  1  0.789972  0.586679  0.626405  1
  Tb  Tb9  1  0.913351  0.710146  0.126174  1
  Tb  Tb10  1  0.913058  0.289665  0.626481  1
  Tb  Tb11  1  0.086908  0.710330  0.626364  1
  Tb  Tb12  1  0.086887  0.289683  0.126419  1
  Dy  Dy13  1  0.290169  0.086131  0.374244  1
  Dy  Dy14  1  0.290129  0.913907  0.874294  1
  Dy  Dy15  1  0.709768  0.086261  0.874314  1
  Zr  Zr16  1  0.000329  0.000153  0.499475  1
  Zr  Zr17  1  0.000073  0.000019  0.999456  1
  Zr  Zr18  1  0.499903  0.499956  0.999612  1
  Zr  Zr19  1  0.499944  0.500004  0.499773  1
  Ir  Ir20  1  0.855501  0.144097  0.249365  1
  Ir  Ir21  1  0.855546  0.856205  0.750117  1
  Ir  Ir22  1  0.144804  0.143771  0.749583  1
  Ir  Ir23  1  0.144813  0.856220  0.249643  1
  Ir  Ir24  1  0.644287  0.355420  0.750071  1
  Ir  Ir25  1  0.644195  0.644178  0.249902  1
  Ir  Ir26  1  0.355737  0.355429  0.250156  1
  Ir  Ir27  1  0.355644  0.644558  0.750092  1
  Ir  Ir28  1  0.499705  0.000123  0.118517  1
  Ir  Ir29  1  0.499684  0.000132  0.618987  1
  Ir  Ir30  1  0.000021  0.499981  0.881251  1
  Ir  Ir31  1  0.000010  0.499935  0.381287  1
