# generated using pymatgen
data_Th2Cr3P7Ir9
_symmetry_space_group_name_H-M   'P 1'
_cell_length_a   9.59074000
_cell_length_b   9.59073958
_cell_length_c   3.95705900
_cell_angle_alpha   90.00000000
_cell_angle_beta   90.00000000
_cell_angle_gamma   120.00000144
_symmetry_Int_Tables_number   1
_chemical_formula_structural   Th2Cr3P7Ir9
_chemical_formula_sum   'Th2 Cr3 P7 Ir9'
_cell_volume   315.21535683
_cell_formula_units_Z   1
loop_
 _symmetry_equiv_pos_site_id
 _symmetry_equiv_pos_as_xyz
  1  'x, y, z'
loop_
 _atom_site_type_symbol
 _atom_site_label
 _atom_site_symmetry_multiplicity
 _atom_site_fract_x
 _atom_site_fract_y
 _atom_site_fract_z
 _atom_site_occupancy
  Th  Th0  1  0.333333  0.666667  0.000000  1
  Th  Th1  1  0.000000  0.000000  0.500000  1
  Cr  Cr2  1  0.805611  0.236538  0.500000  1
  Cr  Cr3  1  0.763462  0.569073  0.500000  1
  Cr  Cr4  1  0.430927  0.194389  0.500000  1
  P  P5  1  0.781702  0.043110  0.000000  1
  P  P6  1  0.956890  0.738592  0.000000  1
  P  P7  1  0.261408  0.218298  0.000000  1
  P  P8  1  0.379392  0.937971  0.500000  1
  P  P9  1  0.062029  0.441422  0.500000  1
  P  P10  1  0.558578  0.620608  0.500000  1
  P  P11  1  0.666667  0.333333  0.000000  1
  Ir  Ir12  1  0.037975  0.263171  0.000000  1
  Ir  Ir13  1  0.736829  0.774804  0.000000  1
  Ir  Ir14  1  0.225196  0.962025  0.000000  1
  Ir  Ir15  1  0.553532  0.064356  0.000000  1
  Ir  Ir16  1  0.935644  0.489176  0.000000  1
  Ir  Ir17  1  0.510824  0.446468  0.000000  1
  Ir  Ir18  1  0.609208  0.890698  0.500000  1
  Ir  Ir19  1  0.109302  0.718508  0.500000  1
  Ir  Ir20  1  0.281492  0.390792  0.500000  1
