# generated using pymatgen
data_Er4NpReRu6
_symmetry_space_group_name_H-M   'P 1'
_cell_length_a   5.64719200
_cell_length_b   5.64719223
_cell_length_c   8.00114000
_cell_angle_alpha   90.00000000
_cell_angle_beta   90.00000000
_cell_angle_gamma   119.99999864
_symmetry_Int_Tables_number   1
_chemical_formula_structural   Er4NpReRu6
_chemical_formula_sum   'Er4 Np1 Re1 Ru6'
_cell_volume   220.97728447
_cell_formula_units_Z   1
loop_
 _symmetry_equiv_pos_site_id
 _symmetry_equiv_pos_as_xyz
  1  'x, y, z'
loop_
 _atom_site_type_symbol
 _atom_site_label
 _atom_site_symmetry_multiplicity
 _atom_site_fract_x
 _atom_site_fract_y
 _atom_site_fract_z
 _atom_site_occupancy
  Er  Er0  1  0.333333  0.666667  0.430748  1
  Er  Er1  1  0.666667  0.333333  0.569252  1
  Er  Er2  1  0.666667  0.333333  0.948214  1
  Er  Er3  1  0.333333  0.666667  0.051786  1
  Np  Np4  1  0.000000  0.000000  0.500000  1
  Re  Re5  1  0.000000  0.000000  0.000000  1
  Ru  Ru6  1  0.169797  0.339592  0.744679  1
  Ru  Ru7  1  0.169797  0.830203  0.744679  1
  Ru  Ru8  1  0.339592  0.169797  0.255321  1
  Ru  Ru9  1  0.830203  0.660408  0.255321  1
  Ru  Ru10  1  0.660408  0.830203  0.744679  1
  Ru  Ru11  1  0.830203  0.169797  0.255321  1
