# generated using pymatgen
data_Nd10IrOsPt4
_symmetry_space_group_name_H-M   'P 1'
_cell_length_a   11.41852800
_cell_length_b   11.41852800
_cell_length_c   6.57154900
_cell_angle_alpha   90.00000000
_cell_angle_beta   90.00000000
_cell_angle_gamma   90.00000000
_symmetry_Int_Tables_number   1
_chemical_formula_structural   Nd10IrOsPt4
_chemical_formula_sum   'Nd20 Ir2 Os2 Pt8'
_cell_volume   856.81683861
_cell_formula_units_Z   2
loop_
 _symmetry_equiv_pos_site_id
 _symmetry_equiv_pos_as_xyz
  1  'x, y, z'
loop_
 _atom_site_type_symbol
 _atom_site_label
 _atom_site_symmetry_multiplicity
 _atom_site_fract_x
 _atom_site_fract_y
 _atom_site_fract_z
 _atom_site_occupancy
  Nd  Nd0  1  0.088469  0.296483  0.123558  1
  Nd  Nd1  1  0.796483  0.411531  0.123558  1
  Nd  Nd2  1  0.203517  0.588469  0.123558  1
  Nd  Nd3  1  0.911531  0.703517  0.123558  1
  Nd  Nd4  1  0.411531  0.796483  0.376442  1
  Nd  Nd5  1  0.588469  0.203517  0.376442  1
  Nd  Nd6  1  0.296483  0.088469  0.376442  1
  Nd  Nd7  1  0.703517  0.911531  0.376442  1
  Nd  Nd8  1  0.411447  0.203381  0.880206  1
  Nd  Nd9  1  0.703381  0.088553  0.880206  1
  Nd  Nd10  1  0.296619  0.911447  0.880206  1
  Nd  Nd11  1  0.588553  0.796619  0.880206  1
  Nd  Nd12  1  0.088553  0.703381  0.619794  1
  Nd  Nd13  1  0.911447  0.296619  0.619794  1
  Nd  Nd14  1  0.203381  0.411447  0.619794  1
  Nd  Nd15  1  0.796619  0.588553  0.619794  1
  Nd  Nd16  1  0.000000  0.000000  0.000109  1
  Nd  Nd17  1  0.500000  0.500000  0.000109  1
  Nd  Nd18  1  0.500000  0.500000  0.499891  1
  Nd  Nd19  1  0.000000  0.000000  0.499891  1
  Ir  Ir20  1  0.500000  0.000000  0.622065  1
  Ir  Ir21  1  0.000000  0.500000  0.877935  1
  Os  Os22  1  0.000000  0.500000  0.375970  1
  Os  Os23  1  0.500000  0.000000  0.124030  1
  Pt  Pt24  1  0.153428  0.846572  0.250000  1
  Pt  Pt25  1  0.346572  0.346572  0.250000  1
  Pt  Pt26  1  0.653428  0.653428  0.250000  1
  Pt  Pt27  1  0.846572  0.153428  0.250000  1
  Pt  Pt28  1  0.346726  0.653274  0.750000  1
  Pt  Pt29  1  0.153274  0.153274  0.750000  1
  Pt  Pt30  1  0.846726  0.846726  0.750000  1
  Pt  Pt31  1  0.653274  0.346726  0.750000  1
