# generated using pymatgen
data_Gd3DyLu(ReO6)2
_symmetry_space_group_name_H-M   'P 1'
_cell_length_a   6.86657861
_cell_length_b   6.86657843
_cell_length_c   7.55274550
_cell_angle_alpha   73.77369595
_cell_angle_beta   73.77369768
_cell_angle_gamma   49.06988735
_symmetry_Int_Tables_number   1
_chemical_formula_structural   Gd3DyLu(ReO6)2
_chemical_formula_sum   'Gd3 Dy1 Lu1 Re2 O12'
_cell_volume   256.03851982
_cell_formula_units_Z   1
loop_
 _symmetry_equiv_pos_site_id
 _symmetry_equiv_pos_as_xyz
  1  'x, y, z'
loop_
 _atom_site_type_symbol
 _atom_site_label
 _atom_site_symmetry_multiplicity
 _atom_site_fract_x
 _atom_site_fract_y
 _atom_site_fract_z
 _atom_site_occupancy
  Gd  Gd0  1  0.196487  0.196487  0.642757  1
  Gd  Gd1  1  0.184038  0.184038  0.176179  1
  Gd  Gd2  1  0.803487  0.803487  0.358371  1
  Dy  Dy3  1  0.816085  0.816085  0.823102  1
  Lu  Lu4  1  0.499822  0.499822  0.500643  1
  Re  Re5  1  0.713383  0.286849  0.999547  1
  Re  Re6  1  0.286849  0.713383  0.999547  1
  O  O7  1  0.416308  0.913635  0.914353  1
  O  O8  1  0.913635  0.416308  0.914353  1
  O  O9  1  0.896849  0.401221  0.430077  1
  O  O10  1  0.401221  0.896849  0.430077  1
  O  O11  1  0.501528  0.501528  0.207744  1
  O  O12  1  0.998782  0.998782  0.173516  1
  O  O13  1  0.000035  0.000035  0.825472  1
  O  O14  1  0.498352  0.498352  0.792292  1
  O  O15  1  0.083247  0.588019  0.082656  1
  O  O16  1  0.588019  0.083247  0.082656  1
  O  O17  1  0.101327  0.600545  0.573330  1
  O  O18  1  0.600545  0.101327  0.573330  1
