# generated using pymatgen
data_AcPr2Nd(Al3Ir)6
_symmetry_space_group_name_H-M   'P 1'
_cell_length_a   7.64291703
_cell_length_b   7.66555265
_cell_length_c   9.67423700
_cell_angle_alpha   90.00000000
_cell_angle_beta   90.00000000
_cell_angle_gamma   119.20034355
_symmetry_Int_Tables_number   1
_chemical_formula_structural   AcPr2Nd(Al3Ir)6
_chemical_formula_sum   'Ac1 Pr2 Nd1 Al18 Ir6'
_cell_volume   494.75860990
_cell_formula_units_Z   1
loop_
 _symmetry_equiv_pos_site_id
 _symmetry_equiv_pos_as_xyz
  1  'x, y, z'
loop_
 _atom_site_type_symbol
 _atom_site_label
 _atom_site_symmetry_multiplicity
 _atom_site_fract_x
 _atom_site_fract_y
 _atom_site_fract_z
 _atom_site_occupancy
  Ac  Ac0  1  0.991877  0.670932  0.250000  1
  Pr  Pr1  1  0.004271  0.328716  0.750000  1
  Pr  Pr2  1  0.671982  0.993451  0.250000  1
  Nd  Nd3  1  0.327036  0.003858  0.750000  1
  Al  Al4  1  0.133059  0.138245  0.250000  1
  Al  Al5  1  0.868855  0.871416  0.750000  1
  Al  Al6  1  0.004141  0.332627  0.068851  1
  Al  Al7  1  0.997657  0.663986  0.920170  1
  Al  Al8  1  0.997657  0.663986  0.579830  1
  Al  Al9  1  0.339399  0.006344  0.431584  1
  Al  Al10  1  0.004141  0.332627  0.431149  1
  Al  Al11  1  0.664267  0.999682  0.574478  1
  Al  Al12  1  0.664267  0.999682  0.925522  1
  Al  Al13  1  0.339399  0.006344  0.068416  1
  Al  Al14  1  0.333433  0.332950  0.550601  1
  Al  Al15  1  0.664128  0.666377  0.466483  1
  Al  Al16  1  0.664128  0.666377  0.033517  1
  Al  Al17  1  0.333433  0.332950  0.949399  1
  Al  Al18  1  0.345770  0.546136  0.250000  1
  Al  Al19  1  0.657006  0.450097  0.750000  1
  Al  Al20  1  0.538867  0.329430  0.250000  1
  Al  Al21  1  0.451742  0.661165  0.750000  1
  Ir  Ir22  1  0.671097  0.329998  0.999012  1
  Ir  Ir23  1  0.329847  0.671034  0.998884  1
  Ir  Ir24  1  0.329847  0.671034  0.501116  1
  Ir  Ir25  1  0.671097  0.329998  0.500988  1
  Ir  Ir26  1  0.000800  0.000279  0.998254  1
  Ir  Ir27  1  0.000800  0.000279  0.501746  1
