# generated using pymatgen
data_Ho5Tm11(InRh)4
_symmetry_space_group_name_H-M   'P 1'
_cell_length_a   9.55579732
_cell_length_b   9.55331428
_cell_length_c   9.55331418
_cell_angle_alpha   60.01548879
_cell_angle_beta   59.99909696
_cell_angle_gamma   59.99910325
_symmetry_Int_Tables_number   1
_chemical_formula_structural   Ho5Tm11(InRh)4
_chemical_formula_sum   'Ho5 Tm11 In4 Rh4'
_cell_volume   616.74403804
_cell_formula_units_Z   1
loop_
 _symmetry_equiv_pos_site_id
 _symmetry_equiv_pos_as_xyz
  1  'x, y, z'
loop_
 _atom_site_type_symbol
 _atom_site_label
 _atom_site_symmetry_multiplicity
 _atom_site_fract_x
 _atom_site_fract_y
 _atom_site_fract_z
 _atom_site_occupancy
  Ho  Ho0  1  0.061740  0.062119  0.438072  1
  Ho  Ho1  1  0.438222  0.061778  0.438240  1
  Ho  Ho2  1  0.061740  0.438072  0.062119  1
  Ho  Ho3  1  0.049633  0.650082  0.650082  1
  Ho  Ho4  1  0.438222  0.438240  0.061778  1
  Tm  Tm5  1  0.650234  0.049049  0.650439  1
  Tm  Tm6  1  0.188799  0.811372  0.188460  1
  Tm  Tm7  1  0.188799  0.188460  0.811372  1
  Tm  Tm8  1  0.811095  0.811199  0.188862  1
  Tm  Tm9  1  0.438910  0.061064  0.061064  1
  Tm  Tm10  1  0.811231  0.188722  0.188722  1
  Tm  Tm11  1  0.061047  0.438774  0.438774  1
  Tm  Tm12  1  0.811095  0.188862  0.811199  1
  Tm  Tm13  1  0.188674  0.811509  0.811509  1
  Tm  Tm14  1  0.650234  0.650439  0.049049  1
  Tm  Tm15  1  0.650385  0.650295  0.650295  1
  In  In16  1  0.416895  0.416904  0.416904  1
  In  In17  1  0.749282  0.417005  0.417005  1
  In  In18  1  0.417726  0.749222  0.416246  1
  In  In19  1  0.417726  0.416246  0.749222  1
  Rh  Rh20  1  0.857192  0.857781  0.426696  1
  Rh  Rh21  1  0.856629  0.858345  0.858345  1
  Rh  Rh22  1  0.427295  0.857765  0.857765  1
  Rh  Rh23  1  0.857192  0.426696  0.857781  1
