# generated using pymatgen
data_Zr2PaCo2
_symmetry_space_group_name_H-M   'P 1'
_cell_length_a   3.50904190
_cell_length_b   5.60294489
_cell_length_c   5.60294540
_cell_angle_alpha   63.70275823
_cell_angle_beta   71.75125826
_cell_angle_gamma   71.75126885
_symmetry_Int_Tables_number   1
_chemical_formula_structural   Zr2PaCo2
_chemical_formula_sum   'Zr2 Pa1 Co2'
_cell_volume   91.80275474
_cell_formula_units_Z   1
loop_
 _symmetry_equiv_pos_site_id
 _symmetry_equiv_pos_as_xyz
  1  'x, y, z'
loop_
 _atom_site_type_symbol
 _atom_site_label
 _atom_site_symmetry_multiplicity
 _atom_site_fract_x
 _atom_site_fract_y
 _atom_site_fract_z
 _atom_site_occupancy
  Zr  Zr0  1  0.198839  0.301161  0.301161  1
  Zr  Zr1  1  0.801161  0.698839  0.698839  1
  Pa  Pa2  1  0.000000  0.000000  0.000000  1
  Co  Co3  1  0.500000  0.287931  0.712069  1
  Co  Co4  1  0.500000  0.712069  0.287931  1
