# generated using pymatgen
data_Dy8Tm4Co4CuSn
_symmetry_space_group_name_H-M   'P 1'
_cell_length_a   8.25451581
_cell_length_b   8.25451558
_cell_length_c   8.25451495
_cell_angle_alpha   111.59316740
_cell_angle_beta   109.80425037
_cell_angle_gamma   107.04834927
_symmetry_Int_Tables_number   1
_chemical_formula_structural   Dy8Tm4Co4CuSn
_chemical_formula_sum   'Dy8 Tm4 Co4 Cu1 Sn1'
_cell_volume   432.27720212
_cell_formula_units_Z   1
loop_
 _symmetry_equiv_pos_site_id
 _symmetry_equiv_pos_as_xyz
  1  'x, y, z'
loop_
 _atom_site_type_symbol
 _atom_site_label
 _atom_site_symmetry_multiplicity
 _atom_site_fract_x
 _atom_site_fract_y
 _atom_site_fract_z
 _atom_site_occupancy
  Dy  Dy0  1  0.420796  0.223336  0.197460  1
  Dy  Dy1  1  0.579204  0.776664  0.802540  1
  Dy  Dy2  1  0.025874  0.223336  0.802540  1
  Dy  Dy3  1  0.974126  0.776664  0.197460  1
  Dy  Dy4  1  0.182016  0.284690  0.466706  1
  Dy  Dy5  1  0.817984  0.715310  0.533294  1
  Dy  Dy6  1  0.182016  0.715310  0.897326  1
  Dy  Dy7  1  0.817984  0.284690  0.102674  1
  Tm  Tm8  1  0.322641  0.634522  0.311879  1
  Tm  Tm9  1  0.677359  0.365478  0.688121  1
  Tm  Tm10  1  0.322641  0.010763  0.688121  1
  Tm  Tm11  1  0.677359  0.989237  0.311879  1
  Co  Co12  1  0.356202  0.000000  0.356202  1
  Co  Co13  1  0.643798  0.000000  0.643798  1
  Co  Co14  1  0.114625  0.614625  0.500000  1
  Co  Co15  1  0.885375  0.385375  0.500000  1
  Cu  Cu16  1  0.000000  0.000000  0.000000  1
  Sn  Sn17  1  0.500000  0.500000  0.000000  1
