# generated using pymatgen
data_CeDy7(Ho3Sn4)4
_symmetry_space_group_name_H-M   'P 1'
_cell_length_a   8.01664006
_cell_length_b   8.15632002
_cell_length_c   15.41556100
_cell_angle_alpha   89.99780829
_cell_angle_beta   89.99306731
_cell_angle_gamma   90.00273235
_symmetry_Int_Tables_number   1
_chemical_formula_structural   CeDy7(Ho3Sn4)4
_chemical_formula_sum   'Ce1 Dy7 Ho12 Sn16'
_cell_volume   1007.96620586
_cell_formula_units_Z   1
loop_
 _symmetry_equiv_pos_site_id
 _symmetry_equiv_pos_as_xyz
  1  'x, y, z'
loop_
 _atom_site_type_symbol
 _atom_site_label
 _atom_site_symmetry_multiplicity
 _atom_site_fract_x
 _atom_site_fract_y
 _atom_site_fract_z
 _atom_site_occupancy
  Ce  Ce0  1  0.517676  0.319270  0.904780  1
  Dy  Dy1  1  0.020500  0.178504  0.596303  1
  Dy  Dy2  1  0.479605  0.679450  0.402653  1
  Dy  Dy3  1  0.979551  0.820767  0.097376  1
  Dy  Dy4  1  0.479921  0.679660  0.097775  1
  Dy  Dy5  1  0.979458  0.820903  0.402652  1
  Dy  Dy6  1  0.520889  0.320245  0.597751  1
  Dy  Dy7  1  0.022263  0.178280  0.902386  1
  Ho  Ho8  1  0.366386  0.837837  0.877893  1
  Ho  Ho9  1  0.866956  0.662694  0.622083  1
  Ho  Ho10  1  0.632944  0.162679  0.377721  1
  Ho  Ho11  1  0.132877  0.337319  0.122952  1
  Ho  Ho12  1  0.633017  0.163002  0.122334  1
  Ho  Ho13  1  0.132428  0.337275  0.377444  1
  Ho  Ho14  1  0.367583  0.836677  0.621623  1
  Ho  Ho15  1  0.866908  0.663877  0.877452  1
  Ho  Ho16  1  0.198607  0.503658  0.749069  1
  Ho  Ho17  1  0.698264  0.997608  0.749559  1
  Ho  Ho18  1  0.801815  0.496912  0.250274  1
  Ho  Ho19  1  0.301514  0.002816  0.250161  1
  Sn  Sn20  1  0.293025  0.037014  0.041714  1
  Sn  Sn21  1  0.793392  0.462854  0.458473  1
  Sn  Sn22  1  0.706803  0.962613  0.541384  1
  Sn  Sn23  1  0.204448  0.538723  0.958946  1
  Sn  Sn24  1  0.707740  0.963544  0.958126  1
  Sn  Sn25  1  0.207015  0.536547  0.541414  1
  Sn  Sn26  1  0.293321  0.037186  0.458214  1
  Sn  Sn27  1  0.795840  0.463847  0.041909  1
  Sn  Sn28  1  0.564583  0.618687  0.750805  1
  Sn  Sn29  1  0.064360  0.880775  0.749603  1
  Sn  Sn30  1  0.435406  0.381365  0.250176  1
  Sn  Sn31  1  0.935109  0.118627  0.250014  1
  Sn  Sn32  1  0.327930  0.146439  0.749074  1
  Sn  Sn33  1  0.830571  0.352242  0.749741  1
  Sn  Sn34  1  0.670436  0.852339  0.250028  1
  Sn  Sn35  1  0.170855  0.647764  0.250139  1
