# generated using pymatgen
data_Dy3Y(Si5Os3)2
_symmetry_space_group_name_H-M   'P 1'
_cell_length_a   8.13598215
_cell_length_b   8.13488006
_cell_length_c   5.79901047
_cell_angle_alpha   70.51172485
_cell_angle_beta   70.51325638
_cell_angle_gamma   93.97410977
_symmetry_Int_Tables_number   1
_chemical_formula_structural   Dy3Y(Si5Os3)2
_chemical_formula_sum   'Dy3 Y1 Si10 Os6'
_cell_volume   333.97790968
_cell_formula_units_Z   1
loop_
 _symmetry_equiv_pos_site_id
 _symmetry_equiv_pos_as_xyz
  1  'x, y, z'
loop_
 _atom_site_type_symbol
 _atom_site_label
 _atom_site_symmetry_multiplicity
 _atom_site_fract_x
 _atom_site_fract_y
 _atom_site_fract_z
 _atom_site_occupancy
  Dy  Dy0  1  0.398420  0.131311  0.746453  1
  Dy  Dy1  1  0.131279  0.398422  0.246463  1
  Dy  Dy2  1  0.601621  0.868692  0.253512  1
  Y  Y3  1  0.868469  0.601665  0.753424  1
  Si  Si4  1  0.067720  0.261548  0.833919  1
  Si  Si5  1  0.738369  0.932589  0.665984  1
  Si  Si6  1  0.932439  0.738464  0.165923  1
  Si  Si7  1  0.261583  0.067591  0.333952  1
  Si  Si8  1  0.206636  0.793556  0.749961  1
  Si  Si9  1  0.793453  0.206453  0.250103  1
  Si  Si10  1  0.512451  0.487268  0.750008  1
  Si  Si11  1  0.487285  0.512563  0.250120  1
  Si  Si12  1  0.774419  0.225328  0.750050  1
  Si  Si13  1  0.225611  0.774579  0.249873  1
  Os  Os14  1  0.256140  0.543860  0.631032  1
  Os  Os15  1  0.456119  0.744161  0.868966  1
  Os  Os16  1  0.744032  0.455936  0.369200  1
  Os  Os17  1  0.543858  0.255757  0.131252  1
  Os  Os18  1  0.002269  0.997946  0.749874  1
  Os  Os19  1  0.997826  0.002310  0.249933  1
