# generated using pymatgen
data_ScTa3(Be4Ru5)2
_symmetry_space_group_name_H-M   'P 1'
_cell_length_a   3.16651100
_cell_length_b   8.57755976
_cell_length_c   10.07697710
_cell_angle_alpha   90.22843447
_cell_angle_beta   90.00000000
_cell_angle_gamma   90.00000000
_symmetry_Int_Tables_number   1
_chemical_formula_structural   ScTa3(Be4Ru5)2
_chemical_formula_sum   'Sc1 Ta3 Be8 Ru10'
_cell_volume   273.69796828
_cell_formula_units_Z   1
loop_
 _symmetry_equiv_pos_site_id
 _symmetry_equiv_pos_as_xyz
  1  'x, y, z'
loop_
 _atom_site_type_symbol
 _atom_site_label
 _atom_site_symmetry_multiplicity
 _atom_site_fract_x
 _atom_site_fract_y
 _atom_site_fract_z
 _atom_site_occupancy
  Sc  Sc0  1  0.500000  0.342071  0.317733  1
  Ta  Ta1  1  0.500000  0.843156  0.182863  1
  Ta  Ta2  1  0.500000  0.158647  0.819187  1
  Ta  Ta3  1  0.500000  0.657625  0.677726  1
  Be  Be4  1  0.500000  0.963770  0.596063  1
  Be  Be5  1  0.500000  0.037887  0.407947  1
  Be  Be6  1  0.500000  0.842928  0.903424  1
  Be  Be7  1  0.500000  0.155912  0.097443  1
  Be  Be8  1  0.500000  0.657133  0.402065  1
  Be  Be9  1  0.500000  0.343992  0.595788  1
  Be  Be10  1  0.500000  0.464660  0.904442  1
  Be  Be11  1  0.500000  0.535745  0.093583  1
  Ru  Ru12  1  0.000000  0.660427  0.950336  1
  Ru  Ru13  1  0.000000  0.338099  0.042566  1
  Ru  Ru14  1  0.000000  0.840189  0.454913  1
  Ru  Ru15  1  0.000000  0.158176  0.555044  1
  Ru  Ru16  1  0.000000  0.001209  0.996504  1
  Ru  Ru17  1  0.000000  0.399677  0.758923  1
  Ru  Ru18  1  0.000000  0.605520  0.239662  1
  Ru  Ru19  1  0.000000  0.506975  0.504925  1
  Ru  Ru20  1  0.000000  0.898872  0.741476  1
  Ru  Ru21  1  0.000000  0.087330  0.257388  1
