# generated using pymatgen
data_La2Y18Si15Ag
_symmetry_space_group_name_H-M   'P 1'
_cell_length_a   7.46195656
_cell_length_b   7.79773487
_cell_length_c   14.75674600
_cell_angle_alpha   89.61337334
_cell_angle_beta   89.94401688
_cell_angle_gamma   89.93921643
_symmetry_Int_Tables_number   1
_chemical_formula_structural   La2Y18Si15Ag
_chemical_formula_sum   'La2 Y18 Si15 Ag1'
_cell_volume   858.62088235
_cell_formula_units_Z   1
loop_
 _symmetry_equiv_pos_site_id
 _symmetry_equiv_pos_as_xyz
  1  'x, y, z'
loop_
 _atom_site_type_symbol
 _atom_site_label
 _atom_site_symmetry_multiplicity
 _atom_site_fract_x
 _atom_site_fract_y
 _atom_site_fract_z
 _atom_site_occupancy
  La  La0  1  0.523025  0.571099  0.342261  1
  La  La1  1  0.023314  0.428564  0.656522  1
  Y  Y2  1  0.816265  0.574141  0.872141  1
  Y  Y3  1  0.310761  0.420262  0.127922  1
  Y  Y4  1  0.182333  0.928233  0.373356  1
  Y  Y5  1  0.682370  0.069906  0.626740  1
  Y  Y6  1  0.182484  0.927966  0.628170  1
  Y  Y7  1  0.682816  0.071152  0.371547  1
  Y  Y8  1  0.820921  0.569692  0.128950  1
  Y  Y9  1  0.314664  0.424538  0.871035  1
  Y  Y10  1  0.644705  0.230200  0.999358  1
  Y  Y11  1  0.148666  0.760308  0.000749  1
  Y  Y12  1  0.351216  0.264056  0.499917  1
  Y  Y13  1  0.850241  0.735918  0.499861  1
  Y  Y14  1  0.473098  0.937360  0.843559  1
  Y  Y15  1  0.973032  0.066651  0.152897  1
  Y  Y16  1  0.470969  0.938205  0.155272  1
  Y  Y17  1  0.971645  0.066883  0.848258  1
  Y  Y18  1  0.527671  0.566472  0.652163  1
  Y  Y19  1  0.027910  0.434254  0.348350  1
  Si  Si20  1  0.019192  0.352404  0.000047  1
  Si  Si21  1  0.477175  0.858445  0.501129  1
  Si  Si22  1  0.977184  0.141134  0.499013  1
  Si  Si23  1  0.649347  0.277818  0.790803  1
  Si  Si24  1  0.152365  0.722414  0.208892  1
  Si  Si25  1  0.351446  0.216333  0.288811  1
  Si  Si26  1  0.852110  0.783945  0.712271  1
  Si  Si27  1  0.361146  0.220035  0.709697  1
  Si  Si28  1  0.861106  0.780851  0.289156  1
  Si  Si29  1  0.645053  0.270958  0.206069  1
  Si  Si30  1  0.148450  0.728557  0.793811  1
  Si  Si31  1  0.776888  0.881825  0.000815  1
  Si  Si32  1  0.260813  0.124026  0.999430  1
  Si  Si33  1  0.234343  0.627385  0.501824  1
  Si  Si34  1  0.733944  0.373302  0.498295  1
  Ag  Ag35  1  0.521330  0.654706  0.000907  1
