# generated using pymatgen
data_BaLiLuSe3
_symmetry_space_group_name_H-M   'P 1'
_cell_length_a   4.21227400
_cell_length_b   7.34231426
_cell_length_c   10.59527500
_cell_angle_alpha   90.00000000
_cell_angle_beta   90.00000000
_cell_angle_gamma   73.33058386
_symmetry_Int_Tables_number   1
_chemical_formula_structural   BaLiLuSe3
_chemical_formula_sum   'Ba2 Li2 Lu2 Se6'
_cell_volume   313.91808081
_cell_formula_units_Z   2
loop_
 _symmetry_equiv_pos_site_id
 _symmetry_equiv_pos_as_xyz
  1  'x, y, z'
loop_
 _atom_site_type_symbol
 _atom_site_label
 _atom_site_symmetry_multiplicity
 _atom_site_fract_x
 _atom_site_fract_y
 _atom_site_fract_z
 _atom_site_occupancy
  Ba  Ba0  1  0.743998  0.511999  0.250000  1
  Ba  Ba1  1  0.255997  0.488001  0.750000  1
  Li  Li2  1  0.467541  0.064908  0.250000  1
  Li  Li3  1  0.532449  0.935091  0.750000  1
  Lu  Lu4  1  0.000008  0.000000  0.000000  1
  Lu  Lu5  1  0.000008  0.000000  0.499999  1
  Se  Se6  1  0.368576  0.262848  0.055423  1
  Se  Se7  1  0.065259  0.869488  0.250000  1
  Se  Se8  1  0.368576  0.262848  0.444577  1
  Se  Se9  1  0.631425  0.737152  0.555423  1
  Se  Se10  1  0.934748  0.130511  0.750000  1
  Se  Se11  1  0.631425  0.737152  0.944576  1
