# generated using pymatgen
data_Er4Al22Ga2Pt9
_symmetry_space_group_name_H-M   'P 1'
_cell_length_a   7.50895850
_cell_length_b   7.51547364
_cell_length_c   13.18151105
_cell_angle_alpha   84.58186760
_cell_angle_beta   100.82977873
_cell_angle_gamma   119.84199178
_symmetry_Int_Tables_number   1
_chemical_formula_structural   Er4Al22Ga2Pt9
_chemical_formula_sum   'Er4 Al22 Ga2 Pt9'
_cell_volume   633.74756532
_cell_formula_units_Z   1
loop_
 _symmetry_equiv_pos_site_id
 _symmetry_equiv_pos_as_xyz
  1  'x, y, z'
loop_
 _atom_site_type_symbol
 _atom_site_label
 _atom_site_symmetry_multiplicity
 _atom_site_fract_x
 _atom_site_fract_y
 _atom_site_fract_z
 _atom_site_occupancy
  Er  Er0  1  0.734428  0.998588  0.192358  1
  Er  Er1  1  0.265572  0.001412  0.807642  1
  Er  Er2  1  0.061890  0.670165  0.192314  1
  Er  Er3  1  0.938110  0.329835  0.807686  1
  Al  Al4  1  0.981916  0.666082  0.944474  1
  Al  Al5  1  0.018084  0.333918  0.055526  1
  Al  Al6  1  0.397803  0.665222  0.816485  1
  Al  Al7  1  0.602197  0.334778  0.183515  1
  Al  Al8  1  0.882430  0.665065  0.670405  1
  Al  Al9  1  0.117570  0.334935  0.329595  1
  Al  Al10  1  0.604119  0.457691  0.816058  1
  Al  Al11  1  0.395881  0.542309  0.183942  1
  Al  Al12  1  0.230652  0.340240  0.669723  1
  Al  Al13  1  0.769348  0.659760  0.330277  1
  Al  Al14  1  0.853345  0.333303  0.558571  1
  Al  Al15  1  0.185737  0.999081  0.558838  1
  Al  Al16  1  0.814263  0.000919  0.441162  1
  Al  Al17  1  0.352459  0.999208  0.055647  1
  Al  Al18  1  0.647541  0.000792  0.944353  1
  Al  Al19  1  0.555889  0.993702  0.670611  1
  Al  Al20  1  0.444111  0.006298  0.329389  1
  Al  Al21  1  0.520886  0.667849  0.561123  1
  Al  Al22  1  0.479114  0.332151  0.438877  1
  Al  Al23  1  0.683521  0.667507  0.048273  1
  Al  Al24  1  0.316479  0.332493  0.951727  1
  Al  Al25  1  0.146655  0.666697  0.441429  1
  Ga  Ga26  1  0.803777  0.865240  0.815407  1
  Ga  Ga27  1  0.196223  0.134760  0.184593  1
  Pt  Pt28  1  0.328845  0.671204  0.000033  1
  Pt  Pt29  1  0.546021  0.324836  0.637686  1
  Pt  Pt30  1  0.453979  0.675164  0.362314  1
  Pt  Pt31  1  0.888842  0.009572  0.637375  1
  Pt  Pt32  1  0.111158  0.990428  0.362625  1
  Pt  Pt33  1  0.671155  0.328796  0.999967  1
  Pt  Pt34  1  0.204392  0.666788  0.639274  1
  Pt  Pt35  1  0.795608  0.333212  0.360726  1
  Pt  Pt36  1  0.000000  0.000000  0.000000  1
