# generated using pymatgen
data_Ho4V3B16Os
_symmetry_space_group_name_H-M   'P 1'
_cell_length_a   3.48580300
_cell_length_b   5.97727946
_cell_length_c   11.55465689
_cell_angle_alpha   90.04494201
_cell_angle_beta   90.00000000
_cell_angle_gamma   90.00000000
_symmetry_Int_Tables_number   1
_chemical_formula_structural   Ho4V3B16Os
_chemical_formula_sum   'Ho4 V3 B16 Os1'
_cell_volume   240.74835076
_cell_formula_units_Z   1
loop_
 _symmetry_equiv_pos_site_id
 _symmetry_equiv_pos_as_xyz
  1  'x, y, z'
loop_
 _atom_site_type_symbol
 _atom_site_label
 _atom_site_symmetry_multiplicity
 _atom_site_fract_x
 _atom_site_fract_y
 _atom_site_fract_z
 _atom_site_occupancy
  Ho  Ho0  1  0.500000  0.124303  0.647938  1
  Ho  Ho1  1  0.500000  0.875507  0.350873  1
  Ho  Ho2  1  0.500000  0.626577  0.847331  1
  Ho  Ho3  1  0.500000  0.373681  0.153289  1
  V  V4  1  0.500000  0.868244  0.082831  1
  V  V5  1  0.500000  0.626913  0.584697  1
  V  V6  1  0.500000  0.372984  0.417429  1
  B  B7  1  0.000000  0.475207  0.693058  1
  B  B8  1  0.000000  0.523860  0.307567  1
  B  B9  1  0.000000  0.976062  0.807252  1
  B  B10  1  0.000000  0.023935  0.192587  1
  B  B11  1  0.000000  0.284694  0.814132  1
  B  B12  1  0.000000  0.714557  0.185908  1
  B  B13  1  0.000000  0.786871  0.686084  1
  B  B14  1  0.000000  0.213998  0.314308  1
  B  B15  1  0.000000  0.365014  0.968402  1
  B  B16  1  0.000000  0.634433  0.031266  1
  B  B17  1  0.000000  0.864979  0.532514  1
  B  B18  1  0.000000  0.135355  0.467140  1
  B  B19  1  0.000000  0.386234  0.547152  1
  B  B20  1  0.000000  0.614547  0.453036  1
  B  B21  1  0.000000  0.886718  0.951611  1
  B  B22  1  0.000000  0.115318  0.047253  1
  Os  Os23  1  0.500000  0.130009  0.916342  1
