# generated using pymatgen
data_Dy4B16Ir3Pt
_symmetry_space_group_name_H-M   'P 1'
_cell_length_a   7.02511500
_cell_length_b   7.02511423
_cell_length_c   7.02511421
_cell_angle_alpha   111.50678996
_cell_angle_beta   111.61487606
_cell_angle_gamma   105.36829691
_symmetry_Int_Tables_number   1
_chemical_formula_structural   Dy4B16Ir3Pt
_chemical_formula_sum   'Dy4 B16 Ir3 Pt1'
_cell_volume   265.87656683
_cell_formula_units_Z   1
loop_
 _symmetry_equiv_pos_site_id
 _symmetry_equiv_pos_as_xyz
  1  'x, y, z'
loop_
 _atom_site_type_symbol
 _atom_site_label
 _atom_site_symmetry_multiplicity
 _atom_site_fract_x
 _atom_site_fract_y
 _atom_site_fract_z
 _atom_site_occupancy
  Dy  Dy0  1  0.785083  0.789380  0.004298  1
  Dy  Dy1  1  0.214917  0.219216  0.004298  1
  Dy  Dy2  1  0.753672  0.250890  0.497218  1
  Dy  Dy3  1  0.246328  0.743546  0.497218  1
  B  B4  1  0.261747  0.106485  0.368231  1
  B  B5  1  0.736312  0.892996  0.629308  1
  B  B6  1  0.263688  0.892996  0.156684  1
  B  B7  1  0.738253  0.106485  0.844738  1
  B  B8  1  0.107414  0.734217  0.841631  1
  B  B9  1  0.892930  0.265032  0.157962  1
  B  B10  1  0.107070  0.265032  0.372102  1
  B  B11  1  0.892586  0.734217  0.626802  1
  B  B12  1  0.108979  0.111656  0.524525  1
  B  B13  1  0.584448  0.585071  0.472759  1
  B  B14  1  0.112314  0.585071  0.000624  1
  B  B15  1  0.587130  0.111656  0.002676  1
  B  B16  1  0.887686  0.888309  0.472759  1
  B  B17  1  0.412870  0.415547  0.524525  1
  B  B18  1  0.891021  0.415547  0.002676  1
  B  B19  1  0.415552  0.888309  0.000624  1
  Ir  Ir20  1  0.260462  0.499890  0.760352  1
  Ir  Ir21  1  0.739538  0.499890  0.239428  1
  Ir  Ir22  1  0.500000  0.742650  0.242650  1
  Pt  Pt23  1  0.500000  0.255913  0.755913  1
