# generated using pymatgen
data_Rb16TiGe3S16
_symmetry_space_group_name_H-M   'P 1'
_cell_length_a   8.17874556
_cell_length_b   9.73540200
_cell_length_c   14.43824600
_cell_angle_alpha   90.00000000
_cell_angle_beta   90.08291652
_cell_angle_gamma   90.00000000
_symmetry_Int_Tables_number   1
_chemical_formula_structural   Rb16TiGe3S16
_chemical_formula_sum   'Rb16 Ti1 Ge3 S16'
_cell_volume   1149.62068513
_cell_formula_units_Z   1
loop_
 _symmetry_equiv_pos_site_id
 _symmetry_equiv_pos_as_xyz
  1  'x, y, z'
loop_
 _atom_site_type_symbol
 _atom_site_label
 _atom_site_symmetry_multiplicity
 _atom_site_fract_x
 _atom_site_fract_y
 _atom_site_fract_z
 _atom_site_occupancy
  Rb  Rb0  1  0.001044  0.997755  0.000596  1
  Rb  Rb1  1  0.500128  0.002701  0.500274  1
  Rb  Rb2  1  0.001044  0.502245  0.000596  1
  Rb  Rb3  1  0.500128  0.497299  0.500274  1
  Rb  Rb4  1  0.996629  0.750000  0.422561  1
  Rb  Rb5  1  0.496894  0.250000  0.076766  1
  Rb  Rb6  1  0.004212  0.250000  0.577685  1
  Rb  Rb7  1  0.503822  0.750000  0.924567  1
  Rb  Rb8  1  0.833078  0.053592  0.278965  1
  Rb  Rb9  1  0.333472  0.946775  0.221226  1
  Rb  Rb10  1  0.167689  0.556304  0.719855  1
  Rb  Rb11  1  0.666085  0.448004  0.779533  1
  Rb  Rb12  1  0.167689  0.943696  0.719855  1
  Rb  Rb13  1  0.666085  0.051996  0.779533  1
  Rb  Rb14  1  0.833078  0.446408  0.278965  1
  Rb  Rb15  1  0.333472  0.553225  0.221226  1
  Ti  Ti16  1  0.261178  0.250000  0.834182  1
  Ge  Ge17  1  0.764452  0.750000  0.664422  1
  Ge  Ge18  1  0.235858  0.250000  0.335202  1
  Ge  Ge19  1  0.736894  0.750000  0.165261  1
  S  S20  1  0.982888  0.250000  0.826481  1
  S  S21  1  0.511524  0.250000  0.326222  1
  S  S22  1  0.488926  0.750000  0.673450  1
  S  S23  1  0.012723  0.750000  0.173958  1
  S  S24  1  0.652348  0.562322  0.090873  1
  S  S25  1  0.151346  0.437590  0.409632  1
  S  S26  1  0.346407  0.060068  0.909772  1
  S  S27  1  0.848682  0.937474  0.589849  1
  S  S28  1  0.346407  0.439932  0.909772  1
  S  S29  1  0.848682  0.562526  0.589849  1
  S  S30  1  0.652348  0.937678  0.090873  1
  S  S31  1  0.151346  0.062410  0.409632  1
  S  S32  1  0.633778  0.750000  0.311259  1
  S  S33  1  0.133158  0.250000  0.188727  1
  S  S34  1  0.369060  0.250000  0.687193  1
  S  S35  1  0.867447  0.750000  0.810912  1
