# generated using pymatgen
data_LuF17
_symmetry_space_group_name_H-M   'P 1'
_cell_length_a   9.00326289
_cell_length_b   7.98865393
_cell_length_c   10.63148608
_cell_angle_alpha   84.48233980
_cell_angle_beta   89.36278456
_cell_angle_gamma   63.72765591
_symmetry_Int_Tables_number   1
_chemical_formula_structural   LuF17
_chemical_formula_sum   'Lu2 F34'
_cell_volume   682.06889826
_cell_formula_units_Z   2
loop_
 _symmetry_equiv_pos_site_id
 _symmetry_equiv_pos_as_xyz
  1  'x, y, z'
loop_
 _atom_site_type_symbol
 _atom_site_label
 _atom_site_symmetry_multiplicity
 _atom_site_fract_x
 _atom_site_fract_y
 _atom_site_fract_z
 _atom_site_occupancy
  Lu  Lu0  1  0.873127  0.235878  0.765545  1
  Lu  Lu1  1  0.126873  0.764122  0.234455  1
  F  F2  1  0.584267  0.202152  0.508633  1
  F  F3  1  0.415733  0.797848  0.491367  1
  F  F4  1  0.848575  0.689894  0.710359  1
  F  F5  1  0.151425  0.310106  0.289641  1
  F  F6  1  0.070609  0.803690  0.849579  1
  F  F7  1  0.929391  0.196310  0.150421  1
  F  F8  1  0.553743  0.163484  0.385632  1
  F  F9  1  0.446257  0.836516  0.614368  1
  F  F10  1  0.619245  0.292612  0.754039  1
  F  F11  1  0.380755  0.707388  0.245961  1
  F  F12  1  0.005906  0.084784  0.616172  1
  F  F13  1  0.994094  0.915216  0.383828  1
  F  F14  1  0.866016  0.364755  0.579993  1
  F  F15  1  0.133984  0.635245  0.420007  1
  F  F16  1  0.846439  0.828726  0.613388  1
  F  F17  1  0.153561  0.171274  0.386612  1
  F  F18  1  0.845298  0.459912  0.871707  1
  F  F19  1  0.154702  0.540088  0.128293  1
  F  F20  1  0.214706  0.709132  0.778772  1
  F  F21  1  0.785294  0.290868  0.221228  1
  F  F22  1  0.939472  0.778588  0.106931  1
  F  F23  1  0.060528  0.221412  0.893069  1
  F  F24  1  0.772588  0.079517  0.878274  1
  F  F25  1  0.227412  0.920483  0.121726  1
  F  F26  1  0.496691  0.587192  0.973590  1
  F  F27  1  0.503309  0.412808  0.026410  1
  F  F28  1  0.428185  0.066295  0.873626  1
  F  F29  1  0.571815  0.933705  0.126374  1
  F  F30  1  0.269755  0.231092  0.625618  1
  F  F31  1  0.730245  0.768908  0.374382  1
  F  F32  1  0.241997  0.400834  0.676909  1
  F  F33  1  0.758003  0.599166  0.323091  1
  F  F34  1  0.553057  0.892463  0.839523  1
  F  F35  1  0.446943  0.107537  0.160477  1
