# generated using pymatgen
data_Tm4Si10(OsPt)3
_symmetry_space_group_name_H-M   'P 1'
_cell_length_a   8.12845227
_cell_length_b   8.12745269
_cell_length_c   8.12745185
_cell_angle_alpha   137.56270633
_cell_angle_beta   104.70931314
_cell_angle_gamma   90.46045936
_symmetry_Int_Tables_number   1
_chemical_formula_structural   Tm4Si10(OsPt)3
_chemical_formula_sum   'Tm4 Si10 Os3 Pt3'
_cell_volume   334.35731331
_cell_formula_units_Z   1
loop_
 _symmetry_equiv_pos_site_id
 _symmetry_equiv_pos_as_xyz
  1  'x, y, z'
loop_
 _atom_site_type_symbol
 _atom_site_label
 _atom_site_symmetry_multiplicity
 _atom_site_fract_x
 _atom_site_fract_y
 _atom_site_fract_z
 _atom_site_occupancy
  Tm  Tm0  1  0.865519  0.629851  0.235668  1
  Tm  Tm1  1  0.139384  0.370407  0.768977  1
  Tm  Tm2  1  0.397349  0.131008  0.266341  1
  Tm  Tm3  1  0.601852  0.870461  0.731391  1
  Si  Si4  1  0.495542  0.752793  0.252832  1
  Si  Si5  1  0.495542  0.242710  0.742749  1
  Si  Si6  1  0.219935  0.973408  0.745170  1
  Si  Si7  1  0.776813  0.523968  0.746559  1
  Si  Si8  1  0.776813  0.030254  0.252846  1
  Si  Si9  1  0.219935  0.474765  0.246526  1
  Si  Si10  1  0.054771  0.898247  0.156523  1
  Si  Si11  1  0.953769  0.103887  0.849882  1
  Si  Si12  1  0.744660  0.395028  0.349632  1
  Si  Si13  1  0.254931  0.603786  0.651144  1
  Os  Os14  1  0.999216  0.750053  0.750758  1
  Os  Os15  1  0.999216  0.248458  0.249162  1
  Os  Os16  1  0.245057  0.859803  0.385255  1
  Pt  Pt17  1  0.755427  0.139725  0.615701  1
  Pt  Pt18  1  0.475926  0.359561  0.116365  1
  Pt  Pt19  1  0.528345  0.641827  0.886519  1
