# generated using pymatgen
data_TbY7Ti7Ge16Mo5
_symmetry_space_group_name_H-M   'P 1'
_cell_length_a   6.94404169
_cell_length_b   7.10681683
_cell_length_c   13.41241605
_cell_angle_alpha   89.94286874
_cell_angle_beta   89.95206973
_cell_angle_gamma   90.03749282
_symmetry_Int_Tables_number   1
_chemical_formula_structural   TbY7Ti7Ge16Mo5
_chemical_formula_sum   'Tb1 Y7 Ti7 Ge16 Mo5'
_cell_volume   661.90246273
_cell_formula_units_Z   1
loop_
 _symmetry_equiv_pos_site_id
 _symmetry_equiv_pos_as_xyz
  1  'x, y, z'
loop_
 _atom_site_type_symbol
 _atom_site_label
 _atom_site_symmetry_multiplicity
 _atom_site_fract_x
 _atom_site_fract_y
 _atom_site_fract_z
 _atom_site_occupancy
  Tb  Tb0  1  0.005736  0.169928  0.095700  1
  Y  Y1  1  0.003469  0.172044  0.404146  1
  Y  Y2  1  0.503892  0.325871  0.095853  1
  Y  Y3  1  0.496728  0.672179  0.596185  1
  Y  Y4  1  0.995850  0.827372  0.903762  1
  Y  Y5  1  0.996279  0.827195  0.596537  1
  Y  Y6  1  0.495970  0.673324  0.905797  1
  Y  Y7  1  0.502840  0.328331  0.403026  1
  Ti  Ti8  1  0.837892  0.670038  0.371106  1
  Ti  Ti9  1  0.662066  0.168214  0.627678  1
  Ti  Ti10  1  0.162000  0.331181  0.873468  1
  Ti  Ti11  1  0.162317  0.331634  0.627519  1
  Ti  Ti12  1  0.661676  0.167830  0.872588  1
  Ti  Ti13  1  0.841485  0.669475  0.127487  1
  Ti  Ti14  1  0.335620  0.831018  0.371765  1
  Ge  Ge15  1  0.328988  0.043767  0.544250  1
  Ge  Ge16  1  0.828572  0.456731  0.955935  1
  Ge  Ge17  1  0.668591  0.956636  0.044772  1
  Ge  Ge18  1  0.170698  0.544309  0.455720  1
  Ge  Ge19  1  0.172839  0.543291  0.044124  1
  Ge  Ge20  1  0.669554  0.956552  0.455409  1
  Ge  Ge21  1  0.829876  0.456021  0.544795  1
  Ge  Ge22  1  0.327461  0.044586  0.956561  1
  Ge  Ge23  1  0.807771  0.366683  0.249180  1
  Ge  Ge24  1  0.309153  0.132751  0.250458  1
  Ge  Ge25  1  0.692497  0.866152  0.750075  1
  Ge  Ge26  1  0.193782  0.633601  0.750371  1
  Ge  Ge27  1  0.037596  0.872359  0.250594  1
  Ge  Ge28  1  0.536241  0.629976  0.249080  1
  Ge  Ge29  1  0.462618  0.370561  0.750319  1
  Ge  Ge30  1  0.963312  0.129431  0.750149  1
  Mo  Mo31  1  0.335488  0.832339  0.127254  1
  Mo  Mo32  1  0.333816  0.009949  0.750192  1
  Mo  Mo33  1  0.666792  0.987048  0.249062  1
  Mo  Mo34  1  0.165315  0.513525  0.248852  1
  Mo  Mo35  1  0.835215  0.488098  0.750237  1
