# generated using pymatgen
data_Y4Tm4B24Os3W
_symmetry_space_group_name_H-M   'P 1'
_cell_length_a   3.62731300
_cell_length_b   9.15120138
_cell_length_c   11.55817204
_cell_angle_alpha   89.89362171
_cell_angle_beta   90.00000000
_cell_angle_gamma   90.00000000
_symmetry_Int_Tables_number   1
_chemical_formula_structural   Y4Tm4B24Os3W
_chemical_formula_sum   'Y4 Tm4 B24 Os3 W1'
_cell_volume   383.66444201
_cell_formula_units_Z   1
loop_
 _symmetry_equiv_pos_site_id
 _symmetry_equiv_pos_as_xyz
  1  'x, y, z'
loop_
 _atom_site_type_symbol
 _atom_site_label
 _atom_site_symmetry_multiplicity
 _atom_site_fract_x
 _atom_site_fract_y
 _atom_site_fract_z
 _atom_site_occupancy
  Y  Y0  1  0.000000  0.320524  0.413371  1
  Y  Y1  1  0.000000  0.678427  0.585629  1
  Y  Y2  1  0.000000  0.819894  0.086695  1
  Y  Y3  1  0.000000  0.177757  0.914251  1
  Tm  Tm4  1  0.000000  0.945793  0.373432  1
  Tm  Tm5  1  0.000000  0.057317  0.628227  1
  Tm  Tm6  1  0.000000  0.442796  0.125988  1
  Tm  Tm7  1  0.000000  0.556619  0.871729  1
  B  B8  1  0.500000  0.550155  0.436112  1
  B  B9  1  0.500000  0.445695  0.568887  1
  B  B10  1  0.500000  0.054167  0.067156  1
  B  B11  1  0.500000  0.946127  0.932719  1
  B  B12  1  0.500000  0.752835  0.421956  1
  B  B13  1  0.500000  0.251113  0.581809  1
  B  B14  1  0.500000  0.249011  0.080366  1
  B  B15  1  0.500000  0.750881  0.918522  1
  B  B16  1  0.500000  0.795754  0.264443  1
  B  B17  1  0.500000  0.208499  0.734130  1
  B  B18  1  0.500000  0.290607  0.232086  1
  B  B19  1  0.500000  0.709309  0.766216  1
  B  B20  1  0.500000  0.631240  0.181930  1
  B  B21  1  0.500000  0.368742  0.815133  1
  B  B22  1  0.500000  0.131064  0.314024  1
  B  B23  1  0.500000  0.870105  0.685600  1
  B  B24  1  0.500000  0.983593  0.213192  1
  B  B25  1  0.500000  0.017382  0.787542  1
  B  B26  1  0.500000  0.477060  0.285594  1
  B  B27  1  0.500000  0.516547  0.713803  1
  B  B28  1  0.500000  0.604262  0.027154  1
  B  B29  1  0.500000  0.394690  0.970067  1
  B  B30  1  0.500000  0.105552  0.471667  1
  B  B31  1  0.500000  0.898002  0.530175  1
  Os  Os32  1  0.000000  0.361144  0.680776  1
  Os  Os33  1  0.000000  0.137605  0.178275  1
  Os  Os34  1  0.000000  0.862020  0.820282  1
  W  W35  1  0.000000  0.637711  0.321063  1
