# generated using pymatgen
data_Ca4Tb4Mn3Fe(SbO6)4
_symmetry_space_group_name_H-M   'P 1'
_cell_length_a   7.86142002
_cell_length_b   8.01098211
_cell_length_c   7.96572600
_cell_angle_alpha   89.44442626
_cell_angle_beta   89.02422745
_cell_angle_gamma   92.88314524
_symmetry_Int_Tables_number   1
_chemical_formula_structural   Ca4Tb4Mn3Fe(SbO6)4
_chemical_formula_sum   'Ca4 Tb4 Mn3 Fe1 Sb4 O24'
_cell_volume   500.92742618
_cell_formula_units_Z   1
loop_
 _symmetry_equiv_pos_site_id
 _symmetry_equiv_pos_as_xyz
  1  'x, y, z'
loop_
 _atom_site_type_symbol
 _atom_site_label
 _atom_site_symmetry_multiplicity
 _atom_site_fract_x
 _atom_site_fract_y
 _atom_site_fract_z
 _atom_site_occupancy
  Ca  Ca0  1  0.537314  0.981698  0.251872  1
  Ca  Ca1  1  0.036918  0.482169  0.250543  1
  Ca  Ca2  1  0.481091  0.534537  0.750470  1
  Ca  Ca3  1  0.978686  0.033592  0.750187  1
  Tb  Tb4  1  0.523535  0.456365  0.244678  1
  Tb  Tb5  1  0.020202  0.955184  0.245531  1
  Tb  Tb6  1  0.454320  0.020300  0.745615  1
  Tb  Tb7  1  0.953644  0.521065  0.745423  1
  Mn  Mn8  1  0.251799  0.745867  0.999680  1
  Mn  Mn9  1  0.246573  0.251350  0.499211  1
  Mn  Mn10  1  0.752039  0.245799  0.999415  1
  Fe  Fe11  1  0.746578  0.750549  0.498786  1
  Sb  Sb12  1  0.752324  0.247847  0.499320  1
  Sb  Sb13  1  0.252444  0.747524  0.499118  1
  Sb  Sb14  1  0.747262  0.752206  0.999293  1
  Sb  Sb15  1  0.247388  0.251885  0.999645  1
  O  O16  1  0.332155  0.277963  0.761257  1
  O  O17  1  0.831364  0.778179  0.760825  1
  O  O18  1  0.278799  0.830395  0.261798  1
  O  O19  1  0.780915  0.330397  0.261340  1
  O  O20  1  0.199681  0.009303  0.947102  1
  O  O21  1  0.699607  0.509384  0.948400  1
  O  O22  1  0.507291  0.201356  0.445661  1
  O  O23  1  0.004149  0.700568  0.448378  1
  O  O24  1  0.206967  0.983473  0.568509  1
  O  O25  1  0.706812  0.485029  0.567980  1
  O  O26  1  0.486165  0.205634  0.069177  1
  O  O27  1  0.986154  0.706247  0.068667  1
  O  O28  1  0.709664  0.162749  0.736893  1
  O  O29  1  0.211510  0.662091  0.736052  1
  O  O30  1  0.661151  0.710966  0.237436  1
  O  O31  1  0.159724  0.210139  0.237140  1
  O  O32  1  0.496791  0.808628  0.555629  1
  O  O33  1  0.993306  0.307996  0.559579  1
  O  O34  1  0.807618  0.991265  0.057167  1
  O  O35  1  0.308097  0.491061  0.058020  1
  O  O36  1  0.512854  0.813771  0.933364  1
  O  O37  1  0.013274  0.314980  0.933913  1
  O  O38  1  0.811728  0.014881  0.434060  1
  O  O39  1  0.312108  0.515601  0.432867  1
