# generated using pymatgen
data_Y4Re3Os2Ru3
_symmetry_space_group_name_H-M   'P 1'
_cell_length_a   5.30141778
_cell_length_b   5.31603186
_cell_length_c   9.15838100
_cell_angle_alpha   90.00000000
_cell_angle_beta   90.00000000
_cell_angle_gamma   121.06925212
_symmetry_Int_Tables_number   1
_chemical_formula_structural   Y4Re3Os2Ru3
_chemical_formula_sum   'Y4 Re3 Os2 Ru3'
_cell_volume   221.07929485
_cell_formula_units_Z   1
loop_
 _symmetry_equiv_pos_site_id
 _symmetry_equiv_pos_as_xyz
  1  'x, y, z'
loop_
 _atom_site_type_symbol
 _atom_site_label
 _atom_site_symmetry_multiplicity
 _atom_site_fract_x
 _atom_site_fract_y
 _atom_site_fract_z
 _atom_site_occupancy
  Y  Y0  1  0.340448  0.671333  0.434525  1
  Y  Y1  1  0.669200  0.335408  0.563350  1
  Y  Y2  1  0.669200  0.335408  0.936650  1
  Y  Y3  1  0.340448  0.671333  0.065475  1
  Re  Re4  1  0.162883  0.332081  0.750000  1
  Re  Re5  1  0.163459  0.829459  0.750000  1
  Re  Re6  1  0.316857  0.163667  0.250000  1
  Os  Os7  1  0.818032  0.649735  0.250000  1
  Os  Os8  1  0.651246  0.826233  0.750000  1
  Ru  Ru9  1  0.022454  0.005889  0.002199  1
  Ru  Ru10  1  0.823319  0.173565  0.250000  1
  Ru  Ru11  1  0.022454  0.005889  0.497801  1
