# generated using pymatgen
data_ErTm11InGaCo4
_symmetry_space_group_name_H-M   'P 1'
_cell_length_a   8.21605689
_cell_length_b   8.21362835
_cell_length_c   8.21363001
_cell_angle_alpha   112.14201995
_cell_angle_beta   109.71373561
_cell_angle_gamma   106.59420799
_symmetry_Int_Tables_number   1
_chemical_formula_structural   ErTm11InGaCo4
_chemical_formula_sum   'Er1 Tm11 In1 Ga1 Co4'
_cell_volume   425.74654865
_cell_formula_units_Z   1
loop_
 _symmetry_equiv_pos_site_id
 _symmetry_equiv_pos_as_xyz
  1  'x, y, z'
loop_
 _atom_site_type_symbol
 _atom_site_label
 _atom_site_symmetry_multiplicity
 _atom_site_fract_x
 _atom_site_fract_y
 _atom_site_fract_z
 _atom_site_occupancy
  Er  Er0  1  0.566333  0.266554  0.299779  1
  Tm  Tm1  1  0.181115  0.218281  0.399466  1
  Tm  Tm2  1  0.181115  0.781649  0.962836  1
  Tm  Tm3  1  0.675251  0.487114  0.812630  1
  Tm  Tm4  1  0.675251  0.862621  0.188136  1
  Tm  Tm5  1  0.967302  0.266711  0.700591  1
  Tm  Tm6  1  0.033617  0.734225  0.299392  1
  Tm  Tm7  1  0.324361  0.136578  0.811876  1
  Tm  Tm8  1  0.324361  0.512485  0.187782  1
  Tm  Tm9  1  0.818374  0.217946  0.035976  1
  Tm  Tm10  1  0.818374  0.782395  0.600427  1
  Tm  Tm11  1  0.434369  0.733331  0.701036  1
  In  In12  1  0.500302  0.999686  0.500616  1
  Ga  Ga13  1  0.000604  0.500976  0.499628  1
  Co  Co14  1  0.885087  0.884823  0.000265  1
  Co  Co15  1  0.342735  0.499792  0.842943  1
  Co  Co16  1  0.658488  0.500274  0.158214  1
  Co  Co17  1  0.112961  0.114556  0.998405  1
