# generated using pymatgen
data_Li13Ga3
_symmetry_space_group_name_H-M   'P 1'
_cell_length_a   9.02434969
_cell_length_b   9.02434912
_cell_length_c   9.02434900
_cell_angle_alpha   59.99999677
_cell_angle_beta   59.99999888
_cell_angle_gamma   59.99999926
_symmetry_Int_Tables_number   1
_chemical_formula_structural   Li13Ga3
_chemical_formula_sum   'Li26 Ga6'
_cell_volume   519.67601395
_cell_formula_units_Z   2
loop_
 _symmetry_equiv_pos_site_id
 _symmetry_equiv_pos_as_xyz
  1  'x, y, z'
loop_
 _atom_site_type_symbol
 _atom_site_label
 _atom_site_symmetry_multiplicity
 _atom_site_fract_x
 _atom_site_fract_y
 _atom_site_fract_z
 _atom_site_occupancy
  Li  Li0  1  0.750000  0.750000  0.750000  1
  Li  Li1  1  0.500000  0.500000  0.500000  1
  Li  Li2  1  0.125000  0.625000  0.125000  1
  Li  Li3  1  0.125000  0.125000  0.625000  1
  Li  Li4  1  0.625000  0.125000  0.125000  1
  Li  Li5  1  0.125000  0.125000  0.125000  1
  Li  Li6  1  0.380149  0.859552  0.380149  1
  Li  Li7  1  0.869851  0.869851  0.390448  1
  Li  Li8  1  0.390448  0.869851  0.869851  1
  Li  Li9  1  0.869851  0.869851  0.869851  1
  Li  Li10  1  0.859552  0.380149  0.380149  1
  Li  Li11  1  0.380149  0.380149  0.380149  1
  Li  Li12  1  0.380149  0.380149  0.859552  1
  Li  Li13  1  0.869851  0.390448  0.869851  1
  Li  Li14  1  0.999347  0.999347  0.500653  1
  Li  Li15  1  0.749347  0.250653  0.250653  1
  Li  Li16  1  0.250653  0.749347  0.749347  1
  Li  Li17  1  0.749347  0.749347  0.250653  1
  Li  Li18  1  0.749347  0.250653  0.749347  1
  Li  Li19  1  0.250653  0.749347  0.250653  1
  Li  Li20  1  0.500653  0.999347  0.500653  1
  Li  Li21  1  0.500653  0.999347  0.999347  1
  Li  Li22  1  0.999347  0.500653  0.500653  1
  Li  Li23  1  0.999347  0.500653  0.999347  1
  Li  Li24  1  0.250653  0.250653  0.749347  1
  Li  Li25  1  0.500653  0.500653  0.999347  1
  Ga  Ga26  1  0.250000  0.250000  0.250000  1
  Ga  Ga27  1  0.000000  0.000000  0.000000  1
  Ga  Ga28  1  0.625000  0.125000  0.625000  1
  Ga  Ga29  1  0.625000  0.625000  0.125000  1
  Ga  Ga30  1  0.125000  0.625000  0.625000  1
  Ga  Ga31  1  0.625000  0.625000  0.625000  1
