# generated using pymatgen
data_Tb3Tm13(AgRh)4
_symmetry_space_group_name_H-M   'P 1'
_cell_length_a   9.43410178
_cell_length_b   9.43208740
_cell_length_c   9.41360622
_cell_angle_alpha   60.07894753
_cell_angle_beta   60.05767904
_cell_angle_gamma   60.16760530
_symmetry_Int_Tables_number   1
_chemical_formula_structural   Tb3Tm13(AgRh)4
_chemical_formula_sum   'Tb3 Tm13 Ag4 Rh4'
_cell_volume   593.67022069
_cell_formula_units_Z   1
loop_
 _symmetry_equiv_pos_site_id
 _symmetry_equiv_pos_as_xyz
  1  'x, y, z'
loop_
 _atom_site_type_symbol
 _atom_site_label
 _atom_site_symmetry_multiplicity
 _atom_site_fract_x
 _atom_site_fract_y
 _atom_site_fract_z
 _atom_site_occupancy
  Tb  Tb0  1  0.064304  0.064304  0.435696  1
  Tb  Tb1  1  0.435799  0.065723  0.434778  1
  Tb  Tb2  1  0.065723  0.435799  0.063699  1
  Tm  Tm3  1  0.057946  0.646730  0.647126  1
  Tm  Tm4  1  0.435555  0.435555  0.064445  1
  Tm  Tm5  1  0.646730  0.057946  0.648200  1
  Tm  Tm6  1  0.187688  0.812432  0.186827  1
  Tm  Tm7  1  0.187366  0.187366  0.812634  1
  Tm  Tm8  1  0.813329  0.813329  0.186671  1
  Tm  Tm9  1  0.436515  0.064597  0.063366  1
  Tm  Tm10  1  0.813001  0.187078  0.186270  1
  Tm  Tm11  1  0.064597  0.436515  0.435522  1
  Tm  Tm12  1  0.812432  0.187688  0.813053  1
  Tm  Tm13  1  0.187078  0.813001  0.813651  1
  Tm  Tm14  1  0.646248  0.647053  0.059494  1
  Tm  Tm15  1  0.647053  0.646248  0.647208  1
  Ag  Ag16  1  0.417295  0.418656  0.417572  1
  Ag  Ag17  1  0.745150  0.418520  0.418955  1
  Ag  Ag18  1  0.418520  0.745150  0.417372  1
  Ag  Ag19  1  0.418656  0.417295  0.746475  1
  Rh  Rh20  1  0.856866  0.855487  0.430513  1
  Rh  Rh21  1  0.855487  0.856866  0.857135  1
  Rh  Rh22  1  0.431043  0.855618  0.857124  1
  Rh  Rh23  1  0.855618  0.431043  0.856215  1
