# generated using pymatgen
data_TbDy2Ga4Pd7
_symmetry_space_group_name_H-M   'P 1'
_cell_length_a   8.08408520
_cell_length_b   8.08408478
_cell_length_c   9.64116000
_cell_angle_alpha   56.20519333
_cell_angle_beta   56.20519530
_cell_angle_gamma   29.44832820
_symmetry_Int_Tables_number   1
_chemical_formula_structural   TbDy2Ga4Pd7
_chemical_formula_sum   'Tb1 Dy2 Ga4 Pd7'
_cell_volume   253.41475774
_cell_formula_units_Z   1
loop_
 _symmetry_equiv_pos_site_id
 _symmetry_equiv_pos_as_xyz
  1  'x, y, z'
loop_
 _atom_site_type_symbol
 _atom_site_label
 _atom_site_symmetry_multiplicity
 _atom_site_fract_x
 _atom_site_fract_y
 _atom_site_fract_z
 _atom_site_occupancy
  Tb  Tb0  1  0.000000  0.000000  0.000000  1
  Dy  Dy1  1  0.672740  0.672740  0.333226  1
  Dy  Dy2  1  0.327260  0.327260  0.666774  1
  Ga  Ga3  1  0.337765  0.337765  0.267917  1
  Ga  Ga4  1  0.662235  0.662235  0.732083  1
  Ga  Ga5  1  0.887161  0.887161  0.834610  1
  Ga  Ga6  1  0.112839  0.112839  0.165390  1
  Pd  Pd7  1  0.308919  0.308919  0.036385  1
  Pd  Pd8  1  0.691081  0.691081  0.963615  1
  Pd  Pd9  1  0.507077  0.507077  0.711558  1
  Pd  Pd10  1  0.836383  0.836383  0.426605  1
  Pd  Pd11  1  0.492923  0.492923  0.288442  1
  Pd  Pd12  1  0.163617  0.163617  0.573395  1
  Pd  Pd13  1  0.000000  0.000000  0.500000  1
