# generated using pymatgen
data_Ac12MgGe11Pd12
_symmetry_space_group_name_H-M   'P 1'
_cell_length_a   4.64345000
_cell_length_b   7.89583603
_cell_length_c   22.63745000
_cell_angle_alpha   89.72791094
_cell_angle_beta   90.00000000
_cell_angle_gamma   90.00000000
_symmetry_Int_Tables_number   1
_chemical_formula_structural   Ac12MgGe11Pd12
_chemical_formula_sum   'Ac12 Mg1 Ge11 Pd12'
_cell_volume   829.96829312
_cell_formula_units_Z   1
loop_
 _symmetry_equiv_pos_site_id
 _symmetry_equiv_pos_as_xyz
  1  'x, y, z'
loop_
 _atom_site_type_symbol
 _atom_site_label
 _atom_site_symmetry_multiplicity
 _atom_site_fract_x
 _atom_site_fract_y
 _atom_site_fract_z
 _atom_site_occupancy
  Ac  Ac0  1  0.250000  0.711689  0.333237  1
  Ac  Ac1  1  0.750000  0.291360  0.665327  1
  Ac  Ac2  1  0.750000  0.210899  0.167827  1
  Ac  Ac3  1  0.250000  0.793378  0.830330  1
  Ac  Ac4  1  0.250000  0.793895  0.168098  1
  Ac  Ac5  1  0.750000  0.199633  0.828112  1
  Ac  Ac6  1  0.750000  0.294253  0.333906  1
  Ac  Ac7  1  0.250000  0.701007  0.665155  1
  Ac  Ac8  1  0.250000  0.721369  0.005111  1
  Ac  Ac9  1  0.750000  0.285412  0.001135  1
  Ac  Ac10  1  0.750000  0.210904  0.497201  1
  Ac  Ac11  1  0.250000  0.786838  0.501635  1
  Mg  Mg12  1  0.250000  0.410882  0.893447  1
  Ge  Ge13  1  0.250000  0.090600  0.070908  1
  Ge  Ge14  1  0.750000  0.920806  0.928560  1
  Ge  Ge15  1  0.750000  0.588882  0.429822  1
  Ge  Ge16  1  0.250000  0.409913  0.566995  1
  Ge  Ge17  1  0.250000  0.085502  0.271678  1
  Ge  Ge18  1  0.750000  0.911676  0.726035  1
  Ge  Ge19  1  0.750000  0.583913  0.229555  1
  Ge  Ge20  1  0.250000  0.411358  0.767361  1
  Ge  Ge21  1  0.250000  0.084127  0.395032  1
  Ge  Ge22  1  0.750000  0.916039  0.604300  1
  Ge  Ge23  1  0.750000  0.585157  0.106977  1
  Pd  Pd24  1  0.250000  0.419174  0.239310  1
  Pd  Pd25  1  0.750000  0.581628  0.764217  1
  Pd  Pd26  1  0.750000  0.919899  0.262111  1
  Pd  Pd27  1  0.250000  0.075319  0.735416  1
  Pd  Pd28  1  0.250000  0.418496  0.435406  1
  Pd  Pd29  1  0.750000  0.580868  0.564360  1
  Pd  Pd30  1  0.750000  0.916051  0.069837  1
  Pd  Pd31  1  0.250000  0.075954  0.937487  1
  Pd  Pd32  1  0.250000  0.421473  0.094444  1
  Pd  Pd33  1  0.750000  0.593169  0.910140  1
  Pd  Pd34  1  0.750000  0.919418  0.406746  1
  Pd  Pd35  1  0.250000  0.079060  0.592776  1
