# generated using pymatgen
data_Ba9Sr4Si14O
_symmetry_space_group_name_H-M   'P 1'
_cell_length_a   11.70167082
_cell_length_b   11.70167213
_cell_length_c   17.27103696
_cell_angle_alpha   56.30080694
_cell_angle_beta   56.30080254
_cell_angle_gamma   24.72286474
_symmetry_Int_Tables_number   1
_chemical_formula_structural   Ba9Sr4Si14O
_chemical_formula_sum   'Ba9 Sr4 Si14 O1'
_cell_volume   814.03586389
_cell_formula_units_Z   1
loop_
 _symmetry_equiv_pos_site_id
 _symmetry_equiv_pos_as_xyz
  1  'x, y, z'
loop_
 _atom_site_type_symbol
 _atom_site_label
 _atom_site_symmetry_multiplicity
 _atom_site_fract_x
 _atom_site_fract_y
 _atom_site_fract_z
 _atom_site_occupancy
  Ba  Ba0  1  0.191107  0.191107  0.854408  1
  Ba  Ba1  1  0.998252  0.998252  0.348286  1
  Ba  Ba2  1  0.998180  0.998180  0.120673  1
  Ba  Ba3  1  0.188528  0.188528  0.615330  1
  Ba  Ba4  1  0.184561  0.184561  0.105675  1
  Ba  Ba5  1  0.155933  0.155933  0.381109  1
  Ba  Ba6  1  0.847974  0.847974  0.616666  1
  Ba  Ba7  1  0.808140  0.808140  0.385731  1
  Ba  Ba8  1  0.816141  0.816141  0.894076  1
  Sr  Sr9  1  0.501227  0.501227  0.501113  1
  Sr  Sr10  1  0.815296  0.815296  0.137475  1
  Sr  Sr11  1  0.000640  0.000640  0.880159  1
  Sr  Sr12  1  0.001856  0.001856  0.650682  1
  Si  Si13  1  0.437731  0.437731  0.811467  1
  Si  Si14  1  0.562586  0.562586  0.952005  1
  Si  Si15  1  0.431999  0.431999  0.286910  1
  Si  Si16  1  0.563236  0.563236  0.188670  1
  Si  Si17  1  0.564991  0.564991  0.714942  1
  Si  Si18  1  0.435858  0.435858  0.047168  1
  Si  Si19  1  0.630210  0.630210  0.018630  1
  Si  Si20  1  0.631001  0.631001  0.783959  1
  Si  Si21  1  0.363379  0.363379  0.217351  1
  Si  Si22  1  0.376457  0.376457  0.736425  1
  Si  Si23  1  0.370889  0.370889  0.454756  1
  Si  Si24  1  0.624932  0.624932  0.548774  1
  Si  Si25  1  0.629896  0.629896  0.260450  1
  Si  Si26  1  0.370216  0.370216  0.979731  1
  O  O27  1  0.998784  0.998784  0.507379  1
