# generated using pymatgen
data_Er3Co8P6Os
_symmetry_space_group_name_H-M   'P 1'
_cell_length_a   3.69191100
_cell_length_b   10.41223100
_cell_length_c   12.16691600
_cell_angle_alpha   90.00000000
_cell_angle_beta   90.00000000
_cell_angle_gamma   90.00000000
_symmetry_Int_Tables_number   1
_chemical_formula_structural   Er3Co8P6Os
_chemical_formula_sum   'Er6 Co16 P12 Os2'
_cell_volume   467.70878495
_cell_formula_units_Z   2
loop_
 _symmetry_equiv_pos_site_id
 _symmetry_equiv_pos_as_xyz
  1  'x, y, z'
loop_
 _atom_site_type_symbol
 _atom_site_label
 _atom_site_symmetry_multiplicity
 _atom_site_fract_x
 _atom_site_fract_y
 _atom_site_fract_z
 _atom_site_occupancy
  Er  Er0  1  0.750000  0.250000  0.475771  1
  Er  Er1  1  0.250000  0.750000  0.524229  1
  Er  Er2  1  0.250000  0.932305  0.792881  1
  Er  Er3  1  0.250000  0.567695  0.792881  1
  Er  Er4  1  0.750000  0.067695  0.207119  1
  Er  Er5  1  0.750000  0.432305  0.207119  1
  Co  Co6  1  0.250000  0.250000  0.296709  1
  Co  Co7  1  0.750000  0.750000  0.703291  1
  Co  Co8  1  0.750000  0.250000  0.013450  1
  Co  Co9  1  0.250000  0.750000  0.986550  1
  Co  Co10  1  0.250000  0.417343  0.010097  1
  Co  Co11  1  0.250000  0.082657  0.010097  1
  Co  Co12  1  0.750000  0.582657  0.989903  1
  Co  Co13  1  0.750000  0.917343  0.989903  1
  Co  Co14  1  0.250000  0.452339  0.569038  1
  Co  Co15  1  0.250000  0.047661  0.569038  1
  Co  Co16  1  0.750000  0.547661  0.430962  1
  Co  Co17  1  0.750000  0.952339  0.430962  1
  Co  Co18  1  0.250000  0.871178  0.291307  1
  Co  Co19  1  0.250000  0.628822  0.291307  1
  Co  Co20  1  0.750000  0.128822  0.708693  1
  Co  Co21  1  0.750000  0.371178  0.708693  1
  P  P22  1  0.250000  0.250000  0.120019  1
  P  P23  1  0.750000  0.750000  0.879981  1
  P  P24  1  0.250000  0.250000  0.648554  1
  P  P25  1  0.750000  0.750000  0.351446  1
  P  P26  1  0.250000  0.437259  0.383668  1
  P  P27  1  0.250000  0.062741  0.383668  1
  P  P28  1  0.750000  0.562741  0.616332  1
  P  P29  1  0.750000  0.937259  0.616332  1
  P  P30  1  0.250000  0.904127  0.107472  1
  P  P31  1  0.250000  0.595873  0.107472  1
  P  P32  1  0.750000  0.095873  0.892528  1
  P  P33  1  0.750000  0.404127  0.892528  1
  Os  Os34  1  0.250000  0.250000  0.841212  1
  Os  Os35  1  0.750000  0.750000  0.158788  1
