# generated using pymatgen
data_Tb3Dy8Y9(CoSb2)4
_symmetry_space_group_name_H-M   'P 1'
_cell_length_a   7.93302408
_cell_length_b   8.73795300
_cell_length_c   12.21048760
_cell_angle_alpha   90.00000000
_cell_angle_beta   90.06845795
_cell_angle_gamma   90.00000000
_symmetry_Int_Tables_number   1
_chemical_formula_structural   Tb3Dy8Y9(CoSb2)4
_chemical_formula_sum   'Tb3 Dy8 Y9 Co4 Sb8'
_cell_volume   846.41075612
_cell_formula_units_Z   1
loop_
 _symmetry_equiv_pos_site_id
 _symmetry_equiv_pos_as_xyz
  1  'x, y, z'
loop_
 _atom_site_type_symbol
 _atom_site_label
 _atom_site_symmetry_multiplicity
 _atom_site_fract_x
 _atom_site_fract_y
 _atom_site_fract_z
 _atom_site_occupancy
  Tb  Tb0  1  0.122771  0.250000  0.194583  1
  Tb  Tb1  1  0.377467  0.250000  0.694260  1
  Tb  Tb2  1  0.877382  0.750000  0.805476  1
  Dy  Dy3  1  0.822050  0.965300  0.064781  1
  Dy  Dy4  1  0.321955  0.034577  0.434969  1
  Dy  Dy5  1  0.178190  0.465200  0.934995  1
  Dy  Dy6  1  0.677985  0.534797  0.564990  1
  Dy  Dy7  1  0.178190  0.034800  0.934995  1
  Dy  Dy8  1  0.677985  0.965203  0.564990  1
  Dy  Dy9  1  0.822050  0.534700  0.064781  1
  Dy  Dy10  1  0.321955  0.465423  0.434969  1
  Y  Y11  1  0.155108  0.750000  0.203766  1
  Y  Y12  1  0.654936  0.250000  0.296464  1
  Y  Y13  1  0.844590  0.250000  0.796042  1
  Y  Y14  1  0.344519  0.750000  0.704207  1
  Y  Y15  1  0.456401  0.750000  0.998398  1
  Y  Y16  1  0.955832  0.250000  0.501726  1
  Y  Y17  1  0.543879  0.250000  0.001745  1
  Y  Y18  1  0.043690  0.750000  0.498390  1
  Y  Y19  1  0.623358  0.750000  0.304923  1
  Co  Co20  1  0.435516  0.750000  0.490184  1
  Co  Co21  1  0.936184  0.250000  0.010334  1
  Co  Co22  1  0.563940  0.250000  0.510303  1
  Co  Co23  1  0.064005  0.750000  0.989516  1
  Sb  Sb24  1  0.927840  0.991441  0.326946  1
  Sb  Sb25  1  0.428396  0.008219  0.173018  1
  Sb  Sb26  1  0.071800  0.491445  0.672967  1
  Sb  Sb27  1  0.571996  0.508397  0.827175  1
  Sb  Sb28  1  0.071800  0.008555  0.672967  1
  Sb  Sb29  1  0.571996  0.991603  0.827175  1
  Sb  Sb30  1  0.927840  0.508559  0.326946  1
  Sb  Sb31  1  0.428396  0.491781  0.173018  1
