# generated using pymatgen
data_NdDy4(TcB3)2
_symmetry_space_group_name_H-M   'P 1'
_cell_length_a   5.52652505
_cell_length_b   5.52652547
_cell_length_c   8.65003461
_cell_angle_alpha   71.37027250
_cell_angle_beta   71.37026934
_cell_angle_gamma   60.00001419
_symmetry_Int_Tables_number   1
_chemical_formula_structural   NdDy4(TcB3)2
_chemical_formula_sum   'Nd1 Dy4 Tc2 B6'
_cell_volume   212.66367535
_cell_formula_units_Z   1
loop_
 _symmetry_equiv_pos_site_id
 _symmetry_equiv_pos_as_xyz
  1  'x, y, z'
loop_
 _atom_site_type_symbol
 _atom_site_label
 _atom_site_symmetry_multiplicity
 _atom_site_fract_x
 _atom_site_fract_y
 _atom_site_fract_z
 _atom_site_occupancy
  Nd  Nd0  1  0.000000  0.000000  0.000000  1
  Dy  Dy1  1  0.246181  0.246181  0.261455  1
  Dy  Dy2  1  0.753819  0.753819  0.738545  1
  Dy  Dy3  1  0.420173  0.420173  0.739482  1
  Dy  Dy4  1  0.579827  0.579827  0.260518  1
  Tc  Tc5  1  0.111871  0.111871  0.664389  1
  Tc  Tc6  1  0.888129  0.888129  0.335611  1
  B  B7  1  0.170430  0.829570  0.500000  1
  B  B8  1  0.829570  0.500000  0.500000  1
  B  B9  1  0.500000  0.170430  0.500000  1
  B  B10  1  0.170430  0.500000  0.500000  1
  B  B11  1  0.500000  0.829570  0.500000  1
  B  B12  1  0.829570  0.170430  0.500000  1
