# generated using pymatgen
data_Sr2Rh2Br
_symmetry_space_group_name_H-M   'P 1'
_cell_length_a   4.36937500
_cell_length_b   4.36937497
_cell_length_c   17.24369900
_cell_angle_alpha   90.00000000
_cell_angle_beta   90.00000000
_cell_angle_gamma   119.99999267
_symmetry_Int_Tables_number   1
_chemical_formula_structural   Sr2Rh2Br
_chemical_formula_sum   'Sr4 Rh4 Br2'
_cell_volume   285.10165137
_cell_formula_units_Z   2
loop_
 _symmetry_equiv_pos_site_id
 _symmetry_equiv_pos_as_xyz
  1  'x, y, z'
loop_
 _atom_site_type_symbol
 _atom_site_label
 _atom_site_symmetry_multiplicity
 _atom_site_fract_x
 _atom_site_fract_y
 _atom_site_fract_z
 _atom_site_occupancy
  Sr  Sr0  1  0.000000  0.000000  0.116370  1
  Sr  Sr1  1  0.000000  0.000000  0.883630  1
  Sr  Sr2  1  0.000000  0.000000  0.616370  1
  Sr  Sr3  1  0.000000  0.000000  0.383630  1
  Rh  Rh4  1  0.333333  0.666667  0.501263  1
  Rh  Rh5  1  0.666667  0.333333  0.498737  1
  Rh  Rh6  1  0.666667  0.333333  0.001263  1
  Rh  Rh7  1  0.333333  0.666667  0.998737  1
  Br  Br8  1  0.333333  0.666667  0.250000  1
  Br  Br9  1  0.666667  0.333333  0.750000  1
