# generated using pymatgen
data_Dy16Er4Sn15Te
_symmetry_space_group_name_H-M   'P 1'
_cell_length_a   8.06857856
_cell_length_b   8.14803560
_cell_length_c   15.46538500
_cell_angle_alpha   89.98920611
_cell_angle_beta   90.07841747
_cell_angle_gamma   89.90822806
_symmetry_Int_Tables_number   1
_chemical_formula_structural   Dy16Er4Sn15Te
_chemical_formula_sum   'Dy16 Er4 Sn15 Te1'
_cell_volume   1016.73954133
_cell_formula_units_Z   1
loop_
 _symmetry_equiv_pos_site_id
 _symmetry_equiv_pos_as_xyz
  1  'x, y, z'
loop_
 _atom_site_type_symbol
 _atom_site_label
 _atom_site_symmetry_multiplicity
 _atom_site_fract_x
 _atom_site_fract_y
 _atom_site_fract_z
 _atom_site_occupancy
  Dy  Dy0  1  0.378871  0.836870  0.878853  1
  Dy  Dy1  1  0.876607  0.660525  0.621543  1
  Dy  Dy2  1  0.623711  0.162364  0.377944  1
  Dy  Dy3  1  0.122757  0.337985  0.119492  1
  Dy  Dy4  1  0.619718  0.158614  0.121542  1
  Dy  Dy5  1  0.123955  0.338390  0.377903  1
  Dy  Dy6  1  0.377759  0.836563  0.621167  1
  Dy  Dy7  1  0.879618  0.661811  0.879779  1
  Dy  Dy8  1  0.528435  0.319169  0.897520  1
  Dy  Dy9  1  0.030154  0.177420  0.599980  1
  Dy  Dy10  1  0.469007  0.676914  0.399812  1
  Dy  Dy11  1  0.968586  0.832755  0.101420  1
  Dy  Dy12  1  0.456975  0.680516  0.103450  1
  Dy  Dy13  1  0.969560  0.824136  0.400121  1
  Dy  Dy14  1  0.532003  0.323133  0.600087  1
  Dy  Dy15  1  0.042814  0.165796  0.894556  1
  Er  Er16  1  0.207761  0.501518  0.749447  1
  Er  Er17  1  0.708510  0.996708  0.748802  1
  Er  Er18  1  0.792039  0.498918  0.255586  1
  Er  Er19  1  0.292277  0.003293  0.250915  1
  Sn  Sn20  1  0.284863  0.032196  0.042894  1
  Sn  Sn21  1  0.785774  0.466844  0.457751  1
  Sn  Sn22  1  0.715375  0.966705  0.542281  1
  Sn  Sn23  1  0.218595  0.529497  0.956631  1
  Sn  Sn24  1  0.720758  0.971289  0.956891  1
  Sn  Sn25  1  0.215707  0.532355  0.542309  1
  Sn  Sn26  1  0.285499  0.033305  0.457237  1
  Sn  Sn27  1  0.575452  0.620850  0.751631  1
  Sn  Sn28  1  0.074701  0.875029  0.749738  1
  Sn  Sn29  1  0.425744  0.378853  0.247971  1
  Sn  Sn30  1  0.926279  0.124321  0.248003  1
  Sn  Sn31  1  0.342415  0.145355  0.748656  1
  Sn  Sn32  1  0.840927  0.351842  0.751253  1
  Sn  Sn33  1  0.658640  0.853026  0.249640  1
  Sn  Sn34  1  0.155869  0.647990  0.249337  1
  Te  Te35  1  0.772286  0.477141  0.047858  1
