# generated using pymatgen
data_YbEr2Al3Si2Pt
_symmetry_space_group_name_H-M   'P 1'
_cell_length_a   6.88991700
_cell_length_b   6.88705027
_cell_length_c   4.21782200
_cell_angle_alpha   90.00000000
_cell_angle_beta   90.00000000
_cell_angle_gamma   120.01376555
_symmetry_Int_Tables_number   1
_chemical_formula_structural   YbEr2Al3Si2Pt
_chemical_formula_sum   'Yb1 Er2 Al3 Si2 Pt1'
_cell_volume   173.30291381
_cell_formula_units_Z   1
loop_
 _symmetry_equiv_pos_site_id
 _symmetry_equiv_pos_as_xyz
  1  'x, y, z'
loop_
 _atom_site_type_symbol
 _atom_site_label
 _atom_site_symmetry_multiplicity
 _atom_site_fract_x
 _atom_site_fract_y
 _atom_site_fract_z
 _atom_site_occupancy
  Yb  Yb0  1  0.418761  0.000000  0.000000  1
  Er  Er1  1  0.001382  0.418797  0.000000  1
  Er  Er2  1  0.582586  0.581204  0.000000  1
  Al  Al3  1  0.762692  0.000000  0.499999  1
  Al  Al4  1  0.236192  0.239391  0.499999  1
  Al  Al5  1  0.996801  0.760609  0.499999  1
  Si  Si6  1  0.672371  0.339647  0.499999  1
  Si  Si7  1  0.332725  0.660353  0.499999  1
  Pt  Pt8  1  0.996492  0.000000  0.000000  1
