# generated using pymatgen
data_Tb3Cd13Hg2
_symmetry_space_group_name_H-M   'P 1'
_cell_length_a   16.52357961
_cell_length_b   16.52358019
_cell_length_c   6.95899952
_cell_angle_alpha   93.58202581
_cell_angle_beta   93.58202543
_cell_angle_gamma   13.11417071
_symmetry_Int_Tables_number   1
_chemical_formula_structural   Tb3Cd13Hg2
_chemical_formula_sum   'Tb3 Cd13 Hg2'
_cell_volume   430.24330618
_cell_formula_units_Z   1
loop_
 _symmetry_equiv_pos_site_id
 _symmetry_equiv_pos_as_xyz
  1  'x, y, z'
loop_
 _atom_site_type_symbol
 _atom_site_label
 _atom_site_symmetry_multiplicity
 _atom_site_fract_x
 _atom_site_fract_y
 _atom_site_fract_z
 _atom_site_occupancy
  Tb  Tb0  1  0.001061  0.001061  0.990521  1
  Tb  Tb1  1  0.668098  0.668098  0.342718  1
  Tb  Tb2  1  0.883429  0.883429  0.447974  1
  Cd  Cd3  1  0.104756  0.104756  0.043360  1
  Cd  Cd4  1  0.228055  0.228055  0.102832  1
  Cd  Cd5  1  0.330355  0.330355  0.151095  1
  Cd  Cd6  1  0.443406  0.443406  0.224959  1
  Cd  Cd7  1  0.557855  0.557855  0.289678  1
  Cd  Cd8  1  0.776423  0.776423  0.390740  1
  Cd  Cd9  1  0.996905  0.996905  0.477438  1
  Cd  Cd10  1  0.223023  0.223023  0.627238  1
  Cd  Cd11  1  0.445178  0.445178  0.708837  1
  Cd  Cd12  1  0.555773  0.555773  0.737616  1
  Cd  Cd13  1  0.667158  0.667158  0.871622  1
  Cd  Cd14  1  0.777592  0.777592  0.877321  1
  Cd  Cd15  1  0.893556  0.893556  0.954802  1
  Hg  Hg16  1  0.114740  0.114740  0.573490  1
  Hg  Hg17  1  0.332634  0.332634  0.687759  1
