# generated using pymatgen
data_Pr7Th(BeSi3)4
_symmetry_space_group_name_H-M   'P 1'
_cell_length_a   7.98389502
_cell_length_b   7.98389486
_cell_length_c   8.65497800
_cell_angle_alpha   90.00000000
_cell_angle_beta   90.00000000
_cell_angle_gamma   119.99238228
_symmetry_Int_Tables_number   1
_chemical_formula_structural   Pr7Th(BeSi3)4
_chemical_formula_sum   'Pr7 Th1 Be4 Si12'
_cell_volume   477.81475698
_cell_formula_units_Z   1
loop_
 _symmetry_equiv_pos_site_id
 _symmetry_equiv_pos_as_xyz
  1  'x, y, z'
loop_
 _atom_site_type_symbol
 _atom_site_label
 _atom_site_symmetry_multiplicity
 _atom_site_fract_x
 _atom_site_fract_y
 _atom_site_fract_z
 _atom_site_occupancy
  Pr  Pr0  1  0.500102  0.499898  0.250000  1
  Pr  Pr1  1  0.000196  0.500127  0.750000  1
  Pr  Pr2  1  0.999811  0.499918  0.250000  1
  Pr  Pr3  1  0.499873  0.999804  0.750000  1
  Pr  Pr4  1  0.500082  0.000189  0.250000  1
  Pr  Pr5  1  0.000034  0.999966  0.750000  1
  Pr  Pr6  1  0.000011  0.999989  0.250000  1
  Th  Th7  1  0.499911  0.500089  0.750000  1
  Be  Be8  1  0.666478  0.333522  0.997048  1
  Be  Be9  1  0.333525  0.666475  0.002837  1
  Be  Be10  1  0.333525  0.666475  0.497163  1
  Be  Be11  1  0.666478  0.333522  0.502952  1
  Si  Si12  1  0.827900  0.172100  0.000313  1
  Si  Si13  1  0.172091  0.827909  0.999740  1
  Si  Si14  1  0.344521  0.172625  0.000080  1
  Si  Si15  1  0.172091  0.827909  0.500260  1
  Si  Si16  1  0.655479  0.827378  0.999491  1
  Si  Si17  1  0.827900  0.172100  0.499687  1
  Si  Si18  1  0.827375  0.655479  0.000080  1
  Si  Si19  1  0.655479  0.827378  0.500509  1
  Si  Si20  1  0.172622  0.344521  0.999491  1
  Si  Si21  1  0.344521  0.172625  0.499920  1
  Si  Si22  1  0.172622  0.344521  0.500509  1
  Si  Si23  1  0.827375  0.655479  0.499920  1
