# generated using pymatgen
data_LaEr(CoB)8
_symmetry_space_group_name_H-M   'P 1'
_cell_length_a   7.02095300
_cell_length_b   7.02095300
_cell_length_c   3.80562600
_cell_angle_alpha   90.00000000
_cell_angle_beta   90.00000000
_cell_angle_gamma   90.00000000
_symmetry_Int_Tables_number   1
_chemical_formula_structural   LaEr(CoB)8
_chemical_formula_sum   'La1 Er1 Co8 B8'
_cell_volume   187.59369472
_cell_formula_units_Z   1
loop_
 _symmetry_equiv_pos_site_id
 _symmetry_equiv_pos_as_xyz
  1  'x, y, z'
loop_
 _atom_site_type_symbol
 _atom_site_label
 _atom_site_symmetry_multiplicity
 _atom_site_fract_x
 _atom_site_fract_y
 _atom_site_fract_z
 _atom_site_occupancy
  La  La0  1  0.500000  0.500000  0.500000  1
  Er  Er1  1  0.000000  0.000000  0.000000  1
  Co  Co2  1  0.380460  0.137029  0.890927  1
  Co  Co3  1  0.619540  0.862971  0.890927  1
  Co  Co4  1  0.353562  0.885169  0.393472  1
  Co  Co5  1  0.646438  0.114831  0.393472  1
  Co  Co6  1  0.114831  0.353562  0.606528  1
  Co  Co7  1  0.885169  0.646438  0.606528  1
  Co  Co8  1  0.137029  0.619540  0.109073  1
  Co  Co9  1  0.862971  0.380460  0.109073  1
  B  B10  1  0.804784  0.665161  0.102166  1
  B  B11  1  0.195216  0.334839  0.102166  1
  B  B12  1  0.841177  0.289649  0.608047  1
  B  B13  1  0.158823  0.710351  0.608047  1
  B  B14  1  0.710351  0.841177  0.391953  1
  B  B15  1  0.289649  0.158823  0.391953  1
  B  B16  1  0.665161  0.195216  0.897834  1
  B  B17  1  0.334839  0.804784  0.897834  1
