# generated using pymatgen
data_Nd5In4RuAu
_symmetry_space_group_name_H-M   'P 1'
_cell_length_a   8.39001900
_cell_length_b   18.81523978
_cell_length_c   3.70673000
_cell_angle_alpha   90.00000000
_cell_angle_beta   90.00000000
_cell_angle_gamma   90.07181753
_symmetry_Int_Tables_number   1
_chemical_formula_structural   Nd5In4RuAu
_chemical_formula_sum   'Nd10 In8 Ru2 Au2'
_cell_volume   585.14475083
_cell_formula_units_Z   2
loop_
 _symmetry_equiv_pos_site_id
 _symmetry_equiv_pos_as_xyz
  1  'x, y, z'
loop_
 _atom_site_type_symbol
 _atom_site_label
 _atom_site_symmetry_multiplicity
 _atom_site_fract_x
 _atom_site_fract_y
 _atom_site_fract_z
 _atom_site_occupancy
  Nd  Nd0  1  0.500000  0.500000  0.000000  1
  Nd  Nd1  1  0.000000  0.000000  0.000000  1
  Nd  Nd2  1  0.766560  0.282136  0.000000  1
  Nd  Nd3  1  0.233440  0.717864  0.000000  1
  Nd  Nd4  1  0.773551  0.777586  0.000000  1
  Nd  Nd5  1  0.226449  0.222414  0.000000  1
  Nd  Nd6  1  0.625013  0.080345  0.000000  1
  Nd  Nd7  1  0.374987  0.919655  0.000000  1
  Nd  Nd8  1  0.879868  0.585854  0.000000  1
  Nd  Nd9  1  0.120132  0.414146  0.000000  1
  In  In10  1  0.709350  0.929953  0.500000  1
  In  In11  1  0.290650  0.070047  0.500000  1
  In  In12  1  0.796554  0.430357  0.500000  1
  In  In13  1  0.203446  0.569643  0.500000  1
  In  In14  1  0.570605  0.648227  0.500000  1
  In  In15  1  0.429395  0.351773  0.500000  1
  In  In16  1  0.934120  0.150480  0.500000  1
  In  In17  1  0.065880  0.849520  0.500000  1
  Ru  Ru18  1  0.978050  0.694856  0.500000  1
  Ru  Ru19  1  0.021950  0.305144  0.500000  1
  Au  Au20  1  0.524748  0.199643  0.500000  1
  Au  Au21  1  0.475252  0.800357  0.500000  1
