# generated using pymatgen
data_Dy2AlCo6SiB2
_symmetry_space_group_name_H-M   'P 1'
_cell_length_a   5.14084028
_cell_length_b   5.14125095
_cell_length_c   6.52002500
_cell_angle_alpha   90.00000000
_cell_angle_beta   90.00000000
_cell_angle_gamma   120.03543495
_symmetry_Int_Tables_number   1
_chemical_formula_structural   Dy2AlCo6SiB2
_chemical_formula_sum   'Dy2 Al1 Co6 Si1 B2'
_cell_volume   149.18584710
_cell_formula_units_Z   1
loop_
 _symmetry_equiv_pos_site_id
 _symmetry_equiv_pos_as_xyz
  1  'x, y, z'
loop_
 _atom_site_type_symbol
 _atom_site_label
 _atom_site_symmetry_multiplicity
 _atom_site_fract_x
 _atom_site_fract_y
 _atom_site_fract_z
 _atom_site_occupancy
  Dy  Dy0  1  0.999974  0.999998  0.000000  1
  Dy  Dy1  1  0.999986  0.000001  0.500000  1
  Al  Al2  1  0.666756  0.333389  0.000000  1
  Co  Co3  1  0.498266  0.996576  0.288854  1
  Co  Co4  1  0.498264  0.501724  0.288896  1
  Co  Co5  1  0.003403  0.501718  0.288870  1
  Co  Co6  1  0.498266  0.996576  0.711146  1
  Co  Co7  1  0.498264  0.501724  0.711104  1
  Co  Co8  1  0.003403  0.501718  0.711130  1
  Si  Si9  1  0.333241  0.666564  0.000000  1
  B  B10  1  0.333263  0.666711  0.500000  1
  B  B11  1  0.666714  0.333302  0.500000  1
