# generated using pymatgen
data_Nd4Al4CuRh3
_symmetry_space_group_name_H-M   'P 1'
_cell_length_a   4.39448400
_cell_length_b   7.03885379
_cell_length_c   7.99693411
_cell_angle_alpha   89.66594027
_cell_angle_beta   90.00000000
_cell_angle_gamma   90.00000000
_symmetry_Int_Tables_number   1
_chemical_formula_structural   Nd4Al4CuRh3
_chemical_formula_sum   'Nd4 Al4 Cu1 Rh3'
_cell_volume   247.35800418
_cell_formula_units_Z   1
loop_
 _symmetry_equiv_pos_site_id
 _symmetry_equiv_pos_as_xyz
  1  'x, y, z'
loop_
 _atom_site_type_symbol
 _atom_site_label
 _atom_site_symmetry_multiplicity
 _atom_site_fract_x
 _atom_site_fract_y
 _atom_site_fract_z
 _atom_site_occupancy
  Nd  Nd0  1  0.250000  0.532959  0.181446  1
  Nd  Nd1  1  0.750000  0.460231  0.821161  1
  Nd  Nd2  1  0.750000  0.966438  0.679252  1
  Nd  Nd3  1  0.250000  0.036215  0.321435  1
  Al  Al4  1  0.250000  0.632442  0.559573  1
  Al  Al5  1  0.750000  0.364515  0.437465  1
  Al  Al6  1  0.750000  0.862825  0.062741  1
  Al  Al7  1  0.250000  0.141797  0.938105  1
  Cu  Cu8  1  0.250000  0.779594  0.879807  1
  Rh  Rh9  1  0.750000  0.225535  0.116279  1
  Rh  Rh10  1  0.750000  0.728600  0.384364  1
  Rh  Rh11  1  0.250000  0.268849  0.618374  1
