# generated using pymatgen
data_Tb3Dy3Ni2
_symmetry_space_group_name_H-M   'P 1'
_cell_length_a   6.35245035
_cell_length_b   6.83089400
_cell_length_c   9.57376503
_cell_angle_alpha   90.00000000
_cell_angle_beta   90.10811858
_cell_angle_gamma   90.00000000
_symmetry_Int_Tables_number   1
_chemical_formula_structural   Tb3Dy3Ni2
_chemical_formula_sum   'Tb6 Dy6 Ni4'
_cell_volume   415.43283278
_cell_formula_units_Z   2
loop_
 _symmetry_equiv_pos_site_id
 _symmetry_equiv_pos_as_xyz
  1  'x, y, z'
loop_
 _atom_site_type_symbol
 _atom_site_label
 _atom_site_symmetry_multiplicity
 _atom_site_fract_x
 _atom_site_fract_y
 _atom_site_fract_z
 _atom_site_occupancy
  Tb  Tb0  1  0.321657  0.677898  0.065500  1
  Tb  Tb1  1  0.178343  0.177898  0.434500  1
  Tb  Tb2  1  0.860109  0.533448  0.250320  1
  Tb  Tb3  1  0.639891  0.033448  0.249680  1
  Tb  Tb4  1  0.139488  0.466231  0.749803  1
  Tb  Tb5  1  0.360512  0.966231  0.750197  1
  Dy  Dy6  1  0.677771  0.322103  0.566229  1
  Dy  Dy7  1  0.822229  0.822103  0.933771  1
  Dy  Dy8  1  0.678237  0.322245  0.933974  1
  Dy  Dy9  1  0.821763  0.822245  0.566026  1
  Dy  Dy10  1  0.322298  0.677973  0.434523  1
  Dy  Dy11  1  0.177702  0.177973  0.065477  1
  Ni  Ni12  1  0.055258  0.891243  0.249906  1
  Ni  Ni13  1  0.444742  0.391243  0.250094  1
  Ni  Ni14  1  0.944110  0.108860  0.750498  1
  Ni  Ni15  1  0.555890  0.608860  0.749502  1
