# generated using pymatgen
data_V2CuF12
_symmetry_space_group_name_H-M   'P 1'
_cell_length_a   5.18662593
_cell_length_b   5.31061532
_cell_length_c   8.94294342
_cell_angle_alpha   103.87622659
_cell_angle_beta   87.75396850
_cell_angle_gamma   117.12208425
_symmetry_Int_Tables_number   1
_chemical_formula_structural   V2CuF12
_chemical_formula_sum   'V2 Cu1 F12'
_cell_volume   212.13857204
_cell_formula_units_Z   1
loop_
 _symmetry_equiv_pos_site_id
 _symmetry_equiv_pos_as_xyz
  1  'x, y, z'
loop_
 _atom_site_type_symbol
 _atom_site_label
 _atom_site_symmetry_multiplicity
 _atom_site_fract_x
 _atom_site_fract_y
 _atom_site_fract_z
 _atom_site_occupancy
  V  V0  1  0.775985  0.503780  0.259834  1
  V  V1  1  0.224015  0.496220  0.740166  1
  Cu  Cu2  1  0.000000  0.000000  0.000000  1
  F  F3  1  0.842969  0.282778  0.724713  1
  F  F4  1  0.157031  0.717222  0.275287  1
  F  F5  1  0.178706  0.751258  0.924930  1
  F  F6  1  0.718266  0.732976  0.418533  1
  F  F7  1  0.281734  0.267024  0.581467  1
  F  F8  1  0.781064  0.268628  0.365983  1
  F  F9  1  0.218936  0.731372  0.634017  1
  F  F10  1  0.391578  0.290106  0.199529  1
  F  F11  1  0.608422  0.709894  0.800471  1
  F  F12  1  0.768022  0.738510  0.124398  1
  F  F13  1  0.231978  0.261490  0.875602  1
  F  F14  1  0.821294  0.248742  0.075070  1
