# generated using pymatgen
data_Tb10In8Ag3Ru
_symmetry_space_group_name_H-M   'P 1'
_cell_length_a   8.28567503
_cell_length_b   18.60416206
_cell_length_c   3.63398700
_cell_angle_alpha   90.00000000
_cell_angle_beta   90.00000000
_cell_angle_gamma   89.99096640
_symmetry_Int_Tables_number   1
_chemical_formula_structural   Tb10In8Ag3Ru
_chemical_formula_sum   'Tb10 In8 Ag3 Ru1'
_cell_volume   560.17196988
_cell_formula_units_Z   1
loop_
 _symmetry_equiv_pos_site_id
 _symmetry_equiv_pos_as_xyz
  1  'x, y, z'
loop_
 _atom_site_type_symbol
 _atom_site_label
 _atom_site_symmetry_multiplicity
 _atom_site_fract_x
 _atom_site_fract_y
 _atom_site_fract_z
 _atom_site_occupancy
  Tb  Tb0  1  0.502861  0.498886  0.000000  1
  Tb  Tb1  1  0.000413  0.001361  0.000000  1
  Tb  Tb2  1  0.714290  0.277703  0.000000  1
  Tb  Tb3  1  0.267628  0.713633  0.000000  1
  Tb  Tb4  1  0.766652  0.785912  0.000000  1
  Tb  Tb5  1  0.266405  0.216429  0.000000  1
  Tb  Tb6  1  0.615588  0.086332  0.000000  1
  Tb  Tb7  1  0.373107  0.924294  0.000000  1
  Tb  Tb8  1  0.873661  0.576296  0.000000  1
  Tb  Tb9  1  0.122390  0.422550  0.000000  1
  In  In10  1  0.706703  0.933746  0.500000  1
  In  In11  1  0.293222  0.069978  0.500000  1
  In  In12  1  0.791854  0.429636  0.500000  1
  In  In13  1  0.209203  0.568011  0.500000  1
  In  In14  1  0.583012  0.649235  0.500000  1
  In  In15  1  0.420111  0.349417  0.500000  1
  In  In16  1  0.917886  0.149843  0.500000  1
  In  In17  1  0.084950  0.850291  0.500000  1
  Ag  Ag18  1  0.473182  0.803987  0.500000  1
  Ag  Ag19  1  0.972986  0.696570  0.500000  1
  Ag  Ag20  1  0.021604  0.300935  0.500000  1
  Ru  Ru21  1  0.522292  0.194955  0.500000  1
