# generated using pymatgen
data_Sc(Re2Si)2
_symmetry_space_group_name_H-M   'P 1'
_cell_length_a   7.31655700
_cell_length_b   7.31655700
_cell_length_c   4.13848500
_cell_angle_alpha   90.00000000
_cell_angle_beta   90.00000000
_cell_angle_gamma   90.00000000
_symmetry_Int_Tables_number   1
_chemical_formula_structural   Sc(Re2Si)2
_chemical_formula_sum   'Sc2 Re8 Si4'
_cell_volume   221.54140523
_cell_formula_units_Z   2
loop_
 _symmetry_equiv_pos_site_id
 _symmetry_equiv_pos_as_xyz
  1  'x, y, z'
loop_
 _atom_site_type_symbol
 _atom_site_label
 _atom_site_symmetry_multiplicity
 _atom_site_fract_x
 _atom_site_fract_y
 _atom_site_fract_z
 _atom_site_occupancy
  Sc  Sc0  1  0.500000  0.500000  0.000000  1
  Sc  Sc1  1  0.000000  0.000000  0.500000  1
  Re  Re2  1  0.595259  0.157980  0.500000  1
  Re  Re3  1  0.404741  0.842020  0.500000  1
  Re  Re4  1  0.095259  0.342020  0.000000  1
  Re  Re5  1  0.904741  0.657980  0.000000  1
  Re  Re6  1  0.157980  0.595259  0.500000  1
  Re  Re7  1  0.842020  0.404741  0.500000  1
  Re  Re8  1  0.342020  0.095259  0.000000  1
  Re  Re9  1  0.657980  0.904741  0.000000  1
  Si  Si10  1  0.707470  0.707470  0.500000  1
  Si  Si11  1  0.292530  0.292530  0.500000  1
  Si  Si12  1  0.207470  0.792530  0.000000  1
  Si  Si13  1  0.792530  0.207470  0.000000  1
