# generated using pymatgen
data_Co8Re4Mo12C3N
_symmetry_space_group_name_H-M   'P 1'
_cell_length_a   7.96573846
_cell_length_b   7.95324671
_cell_length_c   7.96573900
_cell_angle_alpha   59.94803167
_cell_angle_beta   60.00000191
_cell_angle_gamma   59.94802863
_symmetry_Int_Tables_number   1
_chemical_formula_structural   Co8Re4Mo12C3N
_chemical_formula_sum   'Co8 Re4 Mo12 C3 N1'
_cell_volume   356.56604387
_cell_formula_units_Z   1
loop_
 _symmetry_equiv_pos_site_id
 _symmetry_equiv_pos_as_xyz
  1  'x, y, z'
loop_
 _atom_site_type_symbol
 _atom_site_label
 _atom_site_symmetry_multiplicity
 _atom_site_fract_x
 _atom_site_fract_y
 _atom_site_fract_z
 _atom_site_occupancy
  Co  Co0  1  0.831118  0.506644  0.831118  1
  Co  Co1  1  0.418585  0.419068  0.743762  1
  Co  Co2  1  0.743762  0.419068  0.418585  1
  Co  Co3  1  0.418585  0.419068  0.418585  1
  Co  Co4  1  0.506238  0.830932  0.831415  1
  Co  Co5  1  0.831415  0.830932  0.831415  1
  Co  Co6  1  0.831415  0.830932  0.506238  1
  Co  Co7  1  0.418882  0.743356  0.418882  1
  Re  Re8  1  0.625000  0.125000  0.625000  1
  Re  Re9  1  0.625000  0.625000  0.125000  1
  Re  Re10  1  0.125000  0.625000  0.625000  1
  Re  Re11  1  0.625000  0.625000  0.625000  1
  Mo  Mo12  1  0.190144  0.191833  0.809011  1
  Mo  Mo13  1  0.440989  0.058167  0.059856  1
  Mo  Mo14  1  0.058966  0.440882  0.441186  1
  Mo  Mo15  1  0.441186  0.440882  0.058966  1
  Mo  Mo16  1  0.440989  0.058167  0.440989  1
  Mo  Mo17  1  0.058966  0.440882  0.058966  1
  Mo  Mo18  1  0.809011  0.191833  0.809011  1
  Mo  Mo19  1  0.809011  0.191833  0.190144  1
  Mo  Mo20  1  0.191034  0.809118  0.808814  1
  Mo  Mo21  1  0.191034  0.809118  0.191034  1
  Mo  Mo22  1  0.059856  0.058167  0.440989  1
  Mo  Mo23  1  0.808814  0.809118  0.191034  1
  C  C24  1  0.125000  0.125000  0.625000  1
  C  C25  1  0.625000  0.125000  0.125000  1
  C  C26  1  0.125000  0.125000  0.125000  1
  N  N27  1  0.125000  0.625000  0.125000  1
