# generated using pymatgen
data_Ba8Ga3Si12Rh
_symmetry_space_group_name_H-M   'P 1'
_cell_length_a   12.60020642
_cell_length_b   11.04241254
_cell_length_c   8.44572226
_cell_angle_alpha   79.35554571
_cell_angle_beta   59.32996063
_cell_angle_gamma   41.77388917
_symmetry_Int_Tables_number   1
_chemical_formula_structural   Ba8Ga3Si12Rh
_chemical_formula_sum   'Ba8 Ga3 Si12 Rh1'
_cell_volume   632.85419071
_cell_formula_units_Z   1
loop_
 _symmetry_equiv_pos_site_id
 _symmetry_equiv_pos_as_xyz
  1  'x, y, z'
loop_
 _atom_site_type_symbol
 _atom_site_label
 _atom_site_symmetry_multiplicity
 _atom_site_fract_x
 _atom_site_fract_y
 _atom_site_fract_z
 _atom_site_occupancy
  Ba  Ba0  1  0.122040  0.123892  0.381044  1
  Ba  Ba1  1  0.876182  0.877474  0.120342  1
  Ba  Ba2  1  0.120946  0.124561  0.878565  1
  Ba  Ba3  1  0.379304  0.373784  0.121735  1
  Ba  Ba4  1  0.623760  0.624250  0.374816  1
  Ba  Ba5  1  0.376566  0.375682  0.622785  1
  Ba  Ba6  1  0.628075  0.623031  0.874061  1
  Ba  Ba7  1  0.874787  0.875361  0.628893  1
  Ga  Ga8  1  0.083438  0.416004  0.081919  1
  Ga  Ga9  1  0.167650  0.833642  0.166883  1
  Ga  Ga10  1  0.417047  0.084343  0.417869  1
  Si  Si11  1  0.339050  0.657315  0.819259  1
  Si  Si12  1  0.156822  0.846386  0.671611  1
  Si  Si13  1  0.817401  0.183502  0.339917  1
  Si  Si14  1  0.670311  0.325096  0.158288  1
  Si  Si15  1  0.917757  0.591293  0.419500  1
  Si  Si16  1  0.076767  0.419633  0.586238  1
  Si  Si17  1  0.418164  0.074956  0.918408  1
  Si  Si18  1  0.915552  0.586298  0.914698  1
  Si  Si19  1  0.671487  0.330782  0.671143  1
  Si  Si20  1  0.341830  0.658630  0.340124  1
  Si  Si21  1  0.586207  0.913056  0.584036  1
  Si  Si22  1  0.587610  0.912291  0.076026  1
  Rh  Rh23  1  0.831249  0.168737  0.831844  1
