# generated using pymatgen
data_TbY2Be2Co9B4
_symmetry_space_group_name_H-M   'P 1'
_cell_length_a   5.05006100
_cell_length_b   5.04917473
_cell_length_c   9.34765100
_cell_angle_alpha   89.99995983
_cell_angle_beta   90.00008033
_cell_angle_gamma   120.00580002
_symmetry_Int_Tables_number   1
_chemical_formula_structural   TbY2Be2Co9B4
_chemical_formula_sum   'Tb1 Y2 Be2 Co9 B4'
_cell_volume   206.40716076
_cell_formula_units_Z   1
loop_
 _symmetry_equiv_pos_site_id
 _symmetry_equiv_pos_as_xyz
  1  'x, y, z'
loop_
 _atom_site_type_symbol
 _atom_site_label
 _atom_site_symmetry_multiplicity
 _atom_site_fract_x
 _atom_site_fract_y
 _atom_site_fract_z
 _atom_site_occupancy
  Tb  Tb0  1  0.999999  0.000000  0.662196  1
  Y  Y1  1  0.999991  0.000000  0.999957  1
  Y  Y2  1  0.999995  0.000000  0.337843  1
  Be  Be3  1  0.333116  0.666247  0.000036  1
  Be  Be4  1  0.666868  0.333753  0.000036  1
  Co  Co5  1  0.499996  0.000000  0.499975  1
  Co  Co6  1  0.499996  0.500000  0.499971  1
  Co  Co7  1  0.999996  0.500000  0.499971  1
  Co  Co8  1  0.499992  0.000000  0.190358  1
  Co  Co9  1  0.499991  0.500000  0.190298  1
  Co  Co10  1  0.999991  0.500000  0.190298  1
  Co  Co11  1  0.499998  0.000000  0.809644  1
  Co  Co12  1  0.499997  0.500000  0.809730  1
  Co  Co13  1  0.999996  0.500000  0.809730  1
  B  B14  1  0.333275  0.666565  0.341919  1
  B  B15  1  0.666711  0.333435  0.341919  1
  B  B16  1  0.666757  0.333522  0.658060  1
  B  B17  1  0.333234  0.666478  0.658060  1
