# generated using pymatgen
data_Hf6ScInF30
_symmetry_space_group_name_H-M   'P 1'
_cell_length_a   7.94353946
_cell_length_b   7.94353952
_cell_length_c   7.94353831
_cell_angle_alpha   99.96226673
_cell_angle_beta   99.96227146
_cell_angle_gamma   99.96227745
_symmetry_Int_Tables_number   1
_chemical_formula_structural   Hf6ScInF30
_chemical_formula_sum   'Hf6 Sc1 In1 F30'
_cell_volume   475.47654415
_cell_formula_units_Z   1
loop_
 _symmetry_equiv_pos_site_id
 _symmetry_equiv_pos_as_xyz
  1  'x, y, z'
loop_
 _atom_site_type_symbol
 _atom_site_label
 _atom_site_symmetry_multiplicity
 _atom_site_fract_x
 _atom_site_fract_y
 _atom_site_fract_z
 _atom_site_occupancy
  Hf  Hf0  1  0.679815  0.820185  0.250000  1
  Hf  Hf1  1  0.750000  0.319717  0.180283  1
  Hf  Hf2  1  0.820185  0.250000  0.679815  1
  Hf  Hf3  1  0.180283  0.750000  0.319717  1
  Hf  Hf4  1  0.250000  0.679815  0.820185  1
  Hf  Hf5  1  0.319717  0.180283  0.750000  1
  Sc  Sc6  1  0.750000  0.750000  0.750000  1
  In  In7  1  0.250000  0.250000  0.250000  1
  F  F8  1  0.963323  0.536677  0.250000  1
  F  F9  1  0.285016  0.522415  0.280029  1
  F  F10  1  0.150202  0.674914  0.048729  1
  F  F11  1  0.750000  0.038984  0.461016  1
  F  F12  1  0.779299  0.015517  0.778295  1
  F  F13  1  0.549726  0.177581  0.651905  1
  F  F14  1  0.977585  0.214984  0.219971  1
  F  F15  1  0.214984  0.219971  0.977585  1
  F  F16  1  0.674914  0.048729  0.150202  1
  F  F17  1  0.825086  0.349798  0.451271  1
  F  F18  1  0.536677  0.250000  0.963323  1
  F  F19  1  0.048729  0.150202  0.674914  1
  F  F20  1  0.349798  0.451271  0.825086  1
  F  F21  1  0.522415  0.280029  0.285016  1
  F  F22  1  0.280029  0.285016  0.522415  1
  F  F23  1  0.720701  0.721705  0.484483  1
  F  F24  1  0.484483  0.720701  0.721705  1
  F  F25  1  0.651905  0.549726  0.177581  1
  F  F26  1  0.950274  0.848095  0.322419  1
  F  F27  1  0.461016  0.750000  0.038984  1
  F  F28  1  0.177581  0.651905  0.549726  1
  F  F29  1  0.322419  0.950274  0.848095  1
  F  F30  1  0.778295  0.779299  0.015517  1
  F  F31  1  0.015517  0.778295  0.779299  1
  F  F32  1  0.451271  0.825086  0.349798  1
  F  F33  1  0.219971  0.977585  0.214984  1
  F  F34  1  0.250000  0.963323  0.536677  1
  F  F35  1  0.848095  0.322419  0.950274  1
  F  F36  1  0.721705  0.484483  0.720701  1
  F  F37  1  0.038984  0.461016  0.750000  1
