# generated using pymatgen
data_Y2Ho3Er(B7W)2
_symmetry_space_group_name_H-M   'P 1'
_cell_length_a   8.13129532
_cell_length_b   8.13129336
_cell_length_c   9.48385439
_cell_angle_alpha   89.96799627
_cell_angle_beta   90.03200396
_cell_angle_gamma   155.52313891
_symmetry_Int_Tables_number   1
_chemical_formula_structural   Y2Ho3Er(B7W)2
_chemical_formula_sum   'Y2 Ho3 Er1 B14 W2'
_cell_volume   259.80413865
_cell_formula_units_Z   1
loop_
 _symmetry_equiv_pos_site_id
 _symmetry_equiv_pos_as_xyz
  1  'x, y, z'
loop_
 _atom_site_type_symbol
 _atom_site_label
 _atom_site_symmetry_multiplicity
 _atom_site_fract_x
 _atom_site_fract_y
 _atom_site_fract_z
 _atom_site_occupancy
  Y  Y0  1  0.754012  0.245988  0.250050  1
  Y  Y1  1  0.245883  0.754117  0.749966  1
  Ho  Ho2  1  0.892887  0.107113  0.940290  1
  Ho  Ho3  1  0.107146  0.892854  0.059740  1
  Ho  Ho4  1  0.892853  0.107147  0.559670  1
  Er  Er5  1  0.106968  0.893032  0.440613  1
  B  B6  1  0.545858  0.454142  0.250318  1
  B  B7  1  0.454340  0.545660  0.749963  1
  B  B8  1  0.519422  0.480578  0.908373  1
  B  B9  1  0.480634  0.519366  0.091666  1
  B  B10  1  0.480752  0.519248  0.408496  1
  B  B11  1  0.519514  0.480486  0.591417  1
  B  B12  1  0.634996  0.365004  0.853247  1
  B  B13  1  0.365012  0.634988  0.146802  1
  B  B14  1  0.727565  0.272435  0.967324  1
  B  B15  1  0.272436  0.727564  0.032687  1
  B  B16  1  0.272266  0.727734  0.467247  1
  B  B17  1  0.727405  0.272595  0.532531  1
  B  B18  1  0.634945  0.365055  0.646443  1
  B  B19  1  0.364999  0.635001  0.353195  1
  W  W20  1  0.053035  0.946965  0.749865  1
  W  W21  1  0.947072  0.052928  0.250099  1
