# generated using pymatgen
data_Sc6Mn5Al14Si10Ru
_symmetry_space_group_name_H-M   'P 1'
_cell_length_a   8.35273274
_cell_length_b   8.35273192
_cell_length_c   8.99449825
_cell_angle_alpha   90.05231598
_cell_angle_beta   89.94768282
_cell_angle_gamma   120.07679453
_symmetry_Int_Tables_number   1
_chemical_formula_structural   Sc6Mn5Al14Si10Ru
_chemical_formula_sum   'Sc6 Mn5 Al14 Si10 Ru1'
_cell_volume   543.03505920
_cell_formula_units_Z   1
loop_
 _symmetry_equiv_pos_site_id
 _symmetry_equiv_pos_as_xyz
  1  'x, y, z'
loop_
 _atom_site_type_symbol
 _atom_site_label
 _atom_site_symmetry_multiplicity
 _atom_site_fract_x
 _atom_site_fract_y
 _atom_site_fract_z
 _atom_site_occupancy
  Sc  Sc0  1  0.199746  0.800254  0.247657  1
  Sc  Sc1  1  0.198424  0.400582  0.249009  1
  Sc  Sc2  1  0.599418  0.801576  0.249009  1
  Sc  Sc3  1  0.800254  0.199746  0.752343  1
  Sc  Sc4  1  0.801576  0.599418  0.750991  1
  Sc  Sc5  1  0.400582  0.198424  0.750991  1
  Mn  Mn6  1  0.500000  0.000000  0.500000  1
  Mn  Mn7  1  0.000000  0.500000  0.500000  1
  Mn  Mn8  1  0.500000  0.500000  0.000000  1
  Mn  Mn9  1  0.500000  0.000000  0.000000  1
  Mn  Mn10  1  0.000000  0.500000  0.000000  1
  Al  Al11  1  0.164212  0.835788  0.920524  1
  Al  Al12  1  0.162690  0.326272  0.921353  1
  Al  Al13  1  0.673728  0.837310  0.921353  1
  Al  Al14  1  0.835788  0.164212  0.079476  1
  Al  Al15  1  0.837310  0.673728  0.078647  1
  Al  Al16  1  0.326272  0.162690  0.078647  1
  Al  Al17  1  0.836389  0.163611  0.419837  1
  Al  Al18  1  0.841628  0.676178  0.419804  1
  Al  Al19  1  0.323822  0.158372  0.419804  1
  Al  Al20  1  0.163611  0.836389  0.580163  1
  Al  Al21  1  0.158372  0.323822  0.580196  1
  Al  Al22  1  0.676178  0.841628  0.580196  1
  Al  Al23  1  0.999834  0.000166  0.250516  1
  Al  Al24  1  0.000166  0.999834  0.749484  1
  Si  Si25  1  0.562166  0.437834  0.244110  1
  Si  Si26  1  0.559275  0.119745  0.250077  1
  Si  Si27  1  0.880255  0.440725  0.250077  1
  Si  Si28  1  0.437834  0.562166  0.755890  1
  Si  Si29  1  0.440725  0.880255  0.749923  1
  Si  Si30  1  0.119745  0.559275  0.749923  1
  Si  Si31  1  0.329372  0.670628  0.457780  1
  Si  Si32  1  0.670628  0.329372  0.542220  1
  Si  Si33  1  0.666579  0.333421  0.960344  1
  Si  Si34  1  0.333421  0.666579  0.039656  1
  Ru  Ru35  1  0.500000  0.500000  0.500000  1
