# generated using pymatgen
data_Ta8Tc3B8W
_symmetry_space_group_name_H-M   'P 1'
_cell_length_a   6.05412900
_cell_length_b   6.05412900
_cell_length_c   6.61126600
_cell_angle_alpha   90.00000000
_cell_angle_beta   90.00000000
_cell_angle_gamma   90.00000000
_symmetry_Int_Tables_number   1
_chemical_formula_structural   Ta8Tc3B8W
_chemical_formula_sum   'Ta8 Tc3 B8 W1'
_cell_volume   242.31928128
_cell_formula_units_Z   1
loop_
 _symmetry_equiv_pos_site_id
 _symmetry_equiv_pos_as_xyz
  1  'x, y, z'
loop_
 _atom_site_type_symbol
 _atom_site_label
 _atom_site_symmetry_multiplicity
 _atom_site_fract_x
 _atom_site_fract_y
 _atom_site_fract_z
 _atom_site_occupancy
  Ta  Ta0  1  0.675805  0.823440  0.499447  1
  Ta  Ta1  1  0.324195  0.176560  0.499447  1
  Ta  Ta2  1  0.824000  0.323948  0.000515  1
  Ta  Ta3  1  0.176000  0.676052  0.000515  1
  Ta  Ta4  1  0.823440  0.324195  0.499447  1
  Ta  Ta5  1  0.176560  0.675805  0.499447  1
  Ta  Ta6  1  0.323948  0.176000  0.000515  1
  Ta  Ta7  1  0.676052  0.824000  0.000515  1
  Tc  Tc8  1  0.500000  0.500000  0.248938  1
  Tc  Tc9  1  0.000000  0.000000  0.749890  1
  Tc  Tc10  1  0.500000  0.500000  0.751248  1
  B  B11  1  0.389011  0.888426  0.250041  1
  B  B12  1  0.610989  0.111574  0.250041  1
  B  B13  1  0.110884  0.387730  0.749883  1
  B  B14  1  0.889116  0.612270  0.749883  1
  B  B15  1  0.888426  0.610989  0.250041  1
  B  B16  1  0.111574  0.389011  0.250041  1
  B  B17  1  0.387730  0.889116  0.749883  1
  B  B18  1  0.612270  0.110884  0.749883  1
  W  W19  1  0.000000  0.000000  0.250382  1
