# generated using pymatgen
data_Ca2Hf(SiO3)4
_symmetry_space_group_name_H-M   'P 1'
_cell_length_a   13.78037600
_cell_length_b   5.36712834
_cell_length_c   7.46588745
_cell_angle_alpha   71.08728160
_cell_angle_beta   90.00000000
_cell_angle_gamma   90.00000000
_symmetry_Int_Tables_number   1
_chemical_formula_structural   Ca2Hf(SiO3)4
_chemical_formula_sum   'Ca4 Hf2 Si8 O24'
_cell_volume   522.37428477
_cell_formula_units_Z   2
loop_
 _symmetry_equiv_pos_site_id
 _symmetry_equiv_pos_as_xyz
  1  'x, y, z'
loop_
 _atom_site_type_symbol
 _atom_site_label
 _atom_site_symmetry_multiplicity
 _atom_site_fract_x
 _atom_site_fract_y
 _atom_site_fract_z
 _atom_site_occupancy
  Ca  Ca0  1  0.000000  0.000000  0.500000  1
  Ca  Ca1  1  0.250000  0.166432  0.185654  1
  Ca  Ca2  1  0.750000  0.833568  0.814346  1
  Ca  Ca3  1  0.500000  0.000000  0.500000  1
  Hf  Hf4  1  0.500000  0.000000  0.000000  1
  Hf  Hf5  1  0.000000  0.000000  0.000000  1
  Si  Si6  1  0.639353  0.430673  0.616597  1
  Si  Si7  1  0.863233  0.433444  0.180968  1
  Si  Si8  1  0.860647  0.430673  0.616597  1
  Si  Si9  1  0.136767  0.566556  0.819032  1
  Si  Si10  1  0.139353  0.569327  0.383403  1
  Si  Si11  1  0.636767  0.433444  0.180968  1
  Si  Si12  1  0.363233  0.566556  0.819032  1
  Si  Si13  1  0.360647  0.569327  0.383403  1
  O  O14  1  0.067445  0.794604  0.845279  1
  O  O15  1  0.867213  0.725504  0.621422  1
  O  O16  1  0.882872  0.734037  0.045694  1
  O  O17  1  0.122479  0.599709  0.593699  1
  O  O18  1  0.935649  0.212242  0.746388  1
  O  O19  1  0.750000  0.303890  0.688505  1
  O  O20  1  0.877521  0.400291  0.406301  1
  O  O21  1  0.250000  0.696110  0.311495  1
  O  O22  1  0.367213  0.274496  0.378578  1
  O  O23  1  0.750000  0.372785  0.135628  1
  O  O24  1  0.250000  0.627215  0.864372  1
  O  O25  1  0.622479  0.400291  0.406301  1
  O  O26  1  0.117128  0.265963  0.954306  1
  O  O27  1  0.432555  0.794604  0.845279  1
  O  O28  1  0.064351  0.787758  0.253612  1
  O  O29  1  0.932555  0.205396  0.154721  1
  O  O30  1  0.564351  0.212242  0.746388  1
  O  O31  1  0.617128  0.734037  0.045694  1
  O  O32  1  0.632787  0.725504  0.621422  1
  O  O33  1  0.377521  0.599709  0.593699  1
  O  O34  1  0.132787  0.274496  0.378578  1
  O  O35  1  0.435649  0.787758  0.253612  1
  O  O36  1  0.382872  0.265963  0.954306  1
  O  O37  1  0.567445  0.205396  0.154721  1
