# generated using pymatgen
data_NdDy5(Ga2Si)4
_symmetry_space_group_name_H-M   'P 1'
_cell_length_a   4.09041574
_cell_length_b   4.18783801
_cell_length_c   21.68305028
_cell_angle_alpha   84.45834622
_cell_angle_beta   84.58765429
_cell_angle_gamma   90.00001295
_symmetry_Int_Tables_number   1
_chemical_formula_structural   NdDy5(Ga2Si)4
_chemical_formula_sum   'Nd1 Dy5 Ga8 Si4'
_cell_volume   368.03087257
_cell_formula_units_Z   1
loop_
 _symmetry_equiv_pos_site_id
 _symmetry_equiv_pos_as_xyz
  1  'x, y, z'
loop_
 _atom_site_type_symbol
 _atom_site_label
 _atom_site_symmetry_multiplicity
 _atom_site_fract_x
 _atom_site_fract_y
 _atom_site_fract_z
 _atom_site_occupancy
  Nd  Nd0  1  0.041504  0.291504  0.916991  1
  Dy  Dy1  1  0.957377  0.707377  0.085245  1
  Dy  Dy2  1  0.290225  0.040225  0.419552  1
  Dy  Dy3  1  0.623803  0.373803  0.752392  1
  Dy  Dy4  1  0.377073  0.627073  0.245855  1
  Dy  Dy5  1  0.709832  0.959832  0.580334  1
  Ga  Ga6  1  0.820039  0.570039  0.359922  1
  Ga  Ga7  1  0.153157  0.903157  0.693687  1
  Ga  Ga8  1  0.431197  0.181197  0.137607  1
  Ga  Ga9  1  0.764296  0.514296  0.471407  1
  Ga  Ga10  1  0.097715  0.847715  0.804570  1
  Ga  Ga11  1  0.847698  0.097698  0.304604  1
  Ga  Ga12  1  0.180633  0.430633  0.638733  1
  Ga  Ga13  1  0.512797  0.762797  0.974407  1
  Si  Si14  1  0.902456  0.152456  0.195089  1
  Si  Si15  1  0.235501  0.485501  0.528998  1
  Si  Si16  1  0.568833  0.818833  0.862333  1
  Si  Si17  1  0.485863  0.235863  0.028272  1
