# generated using pymatgen
data_Sc7Pa(CdCo)2
_symmetry_space_group_name_H-M   'P 1'
_cell_length_a   9.00713063
_cell_length_b   9.00713034
_cell_length_c   8.90776101
_cell_angle_alpha   60.44305262
_cell_angle_beta   60.44305137
_cell_angle_gamma   59.47873177
_symmetry_Int_Tables_number   1
_chemical_formula_structural   Sc7Pa(CdCo)2
_chemical_formula_sum   'Sc14 Pa2 Cd4 Co4'
_cell_volume   512.31864265
_cell_formula_units_Z   2
loop_
 _symmetry_equiv_pos_site_id
 _symmetry_equiv_pos_as_xyz
  1  'x, y, z'
loop_
 _atom_site_type_symbol
 _atom_site_label
 _atom_site_symmetry_multiplicity
 _atom_site_fract_x
 _atom_site_fract_y
 _atom_site_fract_z
 _atom_site_occupancy
  Sc  Sc0  1  0.187732  0.811319  0.810473  1
  Sc  Sc1  1  0.062972  0.062972  0.438862  1
  Sc  Sc2  1  0.435907  0.059315  0.063692  1
  Sc  Sc3  1  0.811319  0.187732  0.810473  1
  Sc  Sc4  1  0.433229  0.059640  0.447002  1
  Sc  Sc5  1  0.593126  0.206314  0.599452  1
  Sc  Sc6  1  0.817131  0.817131  0.182828  1
  Sc  Sc7  1  0.206314  0.593126  0.599452  1
  Sc  Sc8  1  0.808163  0.189542  0.193217  1
  Sc  Sc9  1  0.059640  0.433229  0.447002  1
  Sc  Sc10  1  0.189542  0.808163  0.193217  1
  Sc  Sc11  1  0.604631  0.604631  0.195071  1
  Sc  Sc12  1  0.179920  0.179920  0.823398  1
  Sc  Sc13  1  0.059315  0.435907  0.063692  1
  Pa  Pa14  1  0.431630  0.431630  0.072747  1
  Pa  Pa15  1  0.595248  0.595248  0.573539  1
  Cd  Cd16  1  0.834435  0.834435  0.498128  1
  Cd  Cd17  1  0.833104  0.833104  0.830556  1
  Cd  Cd18  1  0.498477  0.837046  0.831373  1
  Cd  Cd19  1  0.837046  0.498477  0.831373  1
  Co  Co20  1  0.403125  0.403125  0.357459  1
  Co  Co21  1  0.820313  0.394616  0.399628  1
  Co  Co22  1  0.394616  0.820313  0.399628  1
  Co  Co23  1  0.403066  0.403066  0.837739  1
