# generated using pymatgen
data_Ho2Mn9V3P7
_symmetry_space_group_name_H-M   'P 1'
_cell_length_a   9.43918200
_cell_length_b   9.43918165
_cell_length_c   3.53536500
_cell_angle_alpha   90.00000000
_cell_angle_beta   90.00000000
_cell_angle_gamma   120.00000122
_symmetry_Int_Tables_number   1
_chemical_formula_structural   Ho2Mn9V3P7
_chemical_formula_sum   'Ho2 Mn9 V3 P7'
_cell_volume   272.79323012
_cell_formula_units_Z   1
loop_
 _symmetry_equiv_pos_site_id
 _symmetry_equiv_pos_as_xyz
  1  'x, y, z'
loop_
 _atom_site_type_symbol
 _atom_site_label
 _atom_site_symmetry_multiplicity
 _atom_site_fract_x
 _atom_site_fract_y
 _atom_site_fract_z
 _atom_site_occupancy
  Ho  Ho0  1  0.666667  0.333333  0.000000  1
  Ho  Ho1  1  0.333333  0.666667  0.500000  1
  Mn  Mn2  1  0.050029  0.430297  0.000000  1
  Mn  Mn3  1  0.569703  0.619731  0.000000  1
  Mn  Mn4  1  0.380269  0.949971  0.000000  1
  Mn  Mn5  1  0.279091  0.159821  0.000000  1
  Mn  Mn6  1  0.840179  0.119270  0.000000  1
  Mn  Mn7  1  0.880730  0.720909  0.000000  1
  Mn  Mn8  1  0.432025  0.384551  0.500000  1
  Mn  Mn9  1  0.615449  0.047474  0.500000  1
  Mn  Mn10  1  0.952526  0.567975  0.500000  1
  V  V11  1  0.094103  0.216556  0.500000  1
  V  V12  1  0.783444  0.877548  0.500000  1
  V  V13  1  0.122452  0.905897  0.500000  1
  P  P14  1  0.288236  0.411714  0.000000  1
  P  P15  1  0.588286  0.876523  0.000000  1
  P  P16  1  0.123477  0.711764  0.000000  1
  P  P17  1  0.415927  0.124699  0.500000  1
  P  P18  1  0.875301  0.291228  0.500000  1
  P  P19  1  0.708772  0.584073  0.500000  1
  P  P20  1  0.000000  0.000000  0.000000  1
