# generated using pymatgen
data_Pr2P7PdRu11
_symmetry_space_group_name_H-M   'P 1'
_cell_length_a   9.49897247
_cell_length_b   9.53896779
_cell_length_c   3.96417500
_cell_angle_alpha   90.00000000
_cell_angle_beta   90.00000000
_cell_angle_gamma   119.72858343
_symmetry_Int_Tables_number   1
_chemical_formula_structural   Pr2P7PdRu11
_chemical_formula_sum   'Pr2 P7 Pd1 Ru11'
_cell_volume   311.91966811
_cell_formula_units_Z   1
loop_
 _symmetry_equiv_pos_site_id
 _symmetry_equiv_pos_as_xyz
  1  'x, y, z'
loop_
 _atom_site_type_symbol
 _atom_site_label
 _atom_site_symmetry_multiplicity
 _atom_site_fract_x
 _atom_site_fract_y
 _atom_site_fract_z
 _atom_site_occupancy
  Pr  Pr0  1  0.333813  0.666972  0.000000  1
  Pr  Pr1  1  0.667236  0.334539  0.500000  1
  P  P2  1  0.110234  0.396154  0.500000  1
  P  P3  1  0.602683  0.714353  0.500000  1
  P  P4  1  0.274642  0.874581  0.500000  1
  P  P5  1  0.000200  0.999066  0.000000  1
  P  P6  1  0.418677  0.320485  0.000000  1
  P  P7  1  0.702529  0.111740  0.000000  1
  P  P8  1  0.890221  0.581518  0.000000  1
  Pd  Pd9  1  0.429056  0.071186  0.000000  1
  Ru  Ru10  1  0.934048  0.359944  0.000000  1
  Ru  Ru11  1  0.641300  0.575880  0.000000  1
  Ru  Ru12  1  0.388662  0.439584  0.500000  1
  Ru  Ru13  1  0.560006  0.953087  0.500000  1
  Ru  Ru14  1  0.045918  0.606376  0.500000  1
  Ru  Ru15  1  0.157973  0.267610  0.000000  1
  Ru  Ru16  1  0.729705  0.889340  0.000000  1
  Ru  Ru17  1  0.109780  0.838453  0.000000  1
  Ru  Ru18  1  0.214926  0.087904  0.500000  1
  Ru  Ru19  1  0.911831  0.121111  0.500000  1
  Ru  Ru20  1  0.876560  0.790118  0.500000  1
