# generated using pymatgen
data_TbY5Br18
_symmetry_space_group_name_H-M   'P 1'
_cell_length_a   7.30599510
_cell_length_b   7.30433570
_cell_length_c   23.32445943
_cell_angle_alpha   89.97681334
_cell_angle_beta   90.01159375
_cell_angle_gamma   119.99248189
_symmetry_Int_Tables_number   1
_chemical_formula_structural   TbY5Br18
_chemical_formula_sum   'Tb1 Y5 Br18'
_cell_volume   1078.04075919
_cell_formula_units_Z   1
loop_
 _symmetry_equiv_pos_site_id
 _symmetry_equiv_pos_as_xyz
  1  'x, y, z'
loop_
 _atom_site_type_symbol
 _atom_site_label
 _atom_site_symmetry_multiplicity
 _atom_site_fract_x
 _atom_site_fract_y
 _atom_site_fract_z
 _atom_site_occupancy
  Tb  Tb0  1  0.221817  0.110909  0.000000  1
  Y  Y1  1  0.555088  0.777543  0.000000  1
  Y  Y2  1  0.222397  0.444963  0.333408  1
  Y  Y3  1  0.889075  0.778382  0.333408  1
  Y  Y4  1  0.889076  0.110694  0.666591  1
  Y  Y5  1  0.222395  0.777433  0.666591  1
  Br  Br6  1  0.519539  0.445503  0.069824  1
  Br  Br7  1  0.887355  0.074405  0.069735  1
  Br  Br8  1  0.258700  0.812957  0.069916  1
  Br  Br9  1  0.185879  0.741737  0.263883  1
  Br  Br10  1  0.925665  0.111543  0.263924  1
  Br  Br11  1  0.555720  0.481531  0.263943  1
  Br  Br12  1  0.925371  0.481165  0.402875  1
  Br  Br13  1  0.186174  0.111449  0.402824  1
  Br  Br14  1  0.555674  0.742101  0.402920  1
  Br  Br15  1  0.555674  0.813572  0.597080  1
  Br  Br16  1  0.186173  0.074726  0.597176  1
  Br  Br17  1  0.925371  0.444207  0.597125  1
  Br  Br18  1  0.555720  0.074190  0.736057  1
  Br  Br19  1  0.925665  0.814122  0.736076  1
  Br  Br20  1  0.185878  0.444142  0.736117  1
  Br  Br21  1  0.258701  0.445743  0.930084  1
  Br  Br22  1  0.887354  0.812949  0.930265  1
  Br  Br23  1  0.519538  0.074036  0.930176  1
