# generated using pymatgen
data_Ho3ErF12
_symmetry_space_group_name_H-M   'P 1'
_cell_length_a   4.76159365
_cell_length_b   6.16533912
_cell_length_c   6.88040900
_cell_angle_alpha   90.00000000
_cell_angle_beta   90.00000000
_cell_angle_gamma   90.02914014
_symmetry_Int_Tables_number   1
_chemical_formula_structural   Ho3ErF12
_chemical_formula_sum   'Ho3 Er1 F12'
_cell_volume   201.98703722
_cell_formula_units_Z   1
loop_
 _symmetry_equiv_pos_site_id
 _symmetry_equiv_pos_as_xyz
  1  'x, y, z'
loop_
 _atom_site_type_symbol
 _atom_site_label
 _atom_site_symmetry_multiplicity
 _atom_site_fract_x
 _atom_site_fract_y
 _atom_site_fract_z
 _atom_site_occupancy
  Ho  Ho0  1  0.960190  0.634799  0.750000  1
  Ho  Ho1  1  0.459875  0.864539  0.250000  1
  Ho  Ho2  1  0.537982  0.136016  0.750000  1
  Er  Er3  1  0.037661  0.363850  0.250000  1
  F  F4  1  0.347866  0.162652  0.435900  1
  F  F5  1  0.850280  0.337487  0.563413  1
  F  F6  1  0.150997  0.659024  0.064101  1
  F  F7  1  0.650241  0.839338  0.936471  1
  F  F8  1  0.633689  0.536408  0.250000  1
  F  F9  1  0.129373  0.964475  0.750000  1
  F  F10  1  0.869605  0.035708  0.250000  1
  F  F11  1  0.372856  0.467204  0.750000  1
  F  F12  1  0.347866  0.162652  0.064100  1
  F  F13  1  0.850280  0.337487  0.936587  1
  F  F14  1  0.150997  0.659024  0.435899  1
  F  F15  1  0.650241  0.839338  0.563529  1
