# generated using pymatgen
data_NdThSc3Ga(Si2Pt3)3
_symmetry_space_group_name_H-M   'P 1'
_cell_length_a   10.08812700
_cell_length_b   10.08812703
_cell_length_c   4.04517400
_cell_angle_alpha   90.00000000
_cell_angle_beta   90.00000000
_cell_angle_gamma   120.00000319
_symmetry_Int_Tables_number   1
_chemical_formula_structural   NdThSc3Ga(Si2Pt3)3
_chemical_formula_sum   'Nd1 Th1 Sc3 Ga1 Si6 Pt9'
_cell_volume   356.52411290
_cell_formula_units_Z   1
loop_
 _symmetry_equiv_pos_site_id
 _symmetry_equiv_pos_as_xyz
  1  'x, y, z'
loop_
 _atom_site_type_symbol
 _atom_site_label
 _atom_site_symmetry_multiplicity
 _atom_site_fract_x
 _atom_site_fract_y
 _atom_site_fract_z
 _atom_site_occupancy
  Nd  Nd0  1  0.998848  0.999178  0.000000  1
  Th  Th1  1  0.332419  0.666692  0.500000  1
  Sc  Sc2  1  0.890931  0.452918  0.500000  1
  Sc  Sc3  1  0.560014  0.107956  0.500000  1
  Sc  Sc4  1  0.548223  0.439135  0.500000  1
  Ga  Ga5  1  0.245843  0.198017  0.500000  1
  Si  Si6  1  0.802993  0.051454  0.500000  1
  Si  Si7  1  0.950491  0.752657  0.500000  1
  Si  Si8  1  0.562394  0.645973  0.000000  1
  Si  Si9  1  0.354405  0.916594  0.000000  1
  Si  Si10  1  0.084228  0.438560  0.000000  1
  Si  Si11  1  0.668812  0.334661  0.000000  1
  Pt  Pt12  1  0.221542  0.928564  0.500000  1
  Pt  Pt13  1  0.057813  0.290551  0.500000  1
  Pt  Pt14  1  0.714595  0.778520  0.500000  1
  Pt  Pt15  1  0.314797  0.414506  0.000000  1
  Pt  Pt16  1  0.586407  0.898618  0.000000  1
  Pt  Pt17  1  0.099563  0.685236  0.000000  1
  Pt  Pt18  1  0.392387  0.174728  0.000000  1
  Pt  Pt19  1  0.823710  0.209301  0.000000  1
  Pt  Pt20  1  0.789587  0.616181  0.000000  1
