# generated using pymatgen
data_Er3In3Ni2Hg
_symmetry_space_group_name_H-M   'P 1'
_cell_length_a   7.76531900
_cell_length_b   7.76531880
_cell_length_c   3.66216200
_cell_angle_alpha   90.00000000
_cell_angle_beta   90.00000000
_cell_angle_gamma   119.99999774
_symmetry_Int_Tables_number   1
_chemical_formula_structural   Er3In3Ni2Hg
_chemical_formula_sum   'Er3 In3 Ni2 Hg1'
_cell_volume   191.24354469
_cell_formula_units_Z   1
loop_
 _symmetry_equiv_pos_site_id
 _symmetry_equiv_pos_as_xyz
  1  'x, y, z'
loop_
 _atom_site_type_symbol
 _atom_site_label
 _atom_site_symmetry_multiplicity
 _atom_site_fract_x
 _atom_site_fract_y
 _atom_site_fract_z
 _atom_site_occupancy
  Er  Er0  1  0.969576  0.579065  0.500000  1
  Er  Er1  1  0.420935  0.390511  0.500000  1
  Er  Er2  1  0.609489  0.030424  0.500000  1
  In  In3  1  0.250884  0.001631  0.000000  1
  In  In4  1  0.750748  0.749116  0.000000  1
  In  In5  1  0.998369  0.249252  0.000000  1
  Ni  Ni6  1  0.000000  0.000000  0.500000  1
  Ni  Ni7  1  0.666667  0.333333  0.000000  1
  Hg  Hg8  1  0.333333  0.666667  0.000000  1
