# generated using pymatgen
data_Dy16Al4OsRh3
_symmetry_space_group_name_H-M   'P 1'
_cell_length_a   9.56054098
_cell_length_b   9.56054166
_cell_length_c   9.56054058
_cell_angle_alpha   59.71335933
_cell_angle_beta   59.71335924
_cell_angle_gamma   59.71335991
_symmetry_Int_Tables_number   1
_chemical_formula_structural   Dy16Al4OsRh3
_chemical_formula_sum   'Dy16 Al4 Os1 Rh3'
_cell_volume   613.89728198
_cell_formula_units_Z   1
loop_
 _symmetry_equiv_pos_site_id
 _symmetry_equiv_pos_as_xyz
  1  'x, y, z'
loop_
 _atom_site_type_symbol
 _atom_site_label
 _atom_site_symmetry_multiplicity
 _atom_site_fract_x
 _atom_site_fract_y
 _atom_site_fract_z
 _atom_site_occupancy
  Dy  Dy0  1  0.691740  0.308058  0.308058  1
  Dy  Dy1  1  0.692985  0.692985  0.310237  1
  Dy  Dy2  1  0.308058  0.691740  0.308058  1
  Dy  Dy3  1  0.935701  0.935701  0.564772  1
  Dy  Dy4  1  0.146642  0.146642  0.556605  1
  Dy  Dy5  1  0.560560  0.942164  0.560560  1
  Dy  Dy6  1  0.148769  0.148769  0.148769  1
  Dy  Dy7  1  0.308058  0.308058  0.691740  1
  Dy  Dy8  1  0.942164  0.560560  0.560560  1
  Dy  Dy9  1  0.560560  0.560560  0.942164  1
  Dy  Dy10  1  0.564772  0.935701  0.935701  1
  Dy  Dy11  1  0.935701  0.564772  0.935701  1
  Dy  Dy12  1  0.146642  0.556605  0.146642  1
  Dy  Dy13  1  0.310237  0.692985  0.692985  1
  Dy  Dy14  1  0.692985  0.310237  0.692985  1
  Dy  Dy15  1  0.556605  0.146642  0.146642  1
  Al  Al16  1  0.923275  0.923275  0.232033  1
  Al  Al17  1  0.232033  0.923275  0.923275  1
  Al  Al18  1  0.923275  0.232033  0.923275  1
  Al  Al19  1  0.922430  0.922430  0.922430  1
  Os  Os20  1  0.356650  0.356650  0.356650  1
  Rh  Rh21  1  0.925594  0.357282  0.357282  1
  Rh  Rh22  1  0.357282  0.357282  0.925594  1
  Rh  Rh23  1  0.357282  0.925594  0.357282  1
