# generated using pymatgen
data_TmLu3NbOs7
_symmetry_space_group_name_H-M   'P 1'
_cell_length_a   5.41004707
_cell_length_b   5.41057817
_cell_length_c   8.59651311
_cell_angle_alpha   90.01631393
_cell_angle_beta   89.98337556
_cell_angle_gamma   120.00473639
_symmetry_Int_Tables_number   1
_chemical_formula_structural   TmLu3NbOs7
_chemical_formula_sum   'Tm1 Lu3 Nb1 Os7'
_cell_volume   217.90988287
_cell_formula_units_Z   1
loop_
 _symmetry_equiv_pos_site_id
 _symmetry_equiv_pos_as_xyz
  1  'x, y, z'
loop_
 _atom_site_type_symbol
 _atom_site_label
 _atom_site_symmetry_multiplicity
 _atom_site_fract_x
 _atom_site_fract_y
 _atom_site_fract_z
 _atom_site_occupancy
  Tm  Tm0  1  0.666675  0.333319  0.938531  1
  Lu  Lu1  1  0.666676  0.333359  0.571643  1
  Lu  Lu2  1  0.333338  0.666644  0.428113  1
  Lu  Lu3  1  0.333348  0.666694  0.061575  1
  Nb  Nb4  1  0.999997  0.999992  0.500016  1
  Os  Os5  1  0.999974  0.999983  0.000078  1
  Os  Os6  1  0.174347  0.348683  0.751484  1
  Os  Os7  1  0.174347  0.825669  0.751481  1
  Os  Os8  1  0.651300  0.825651  0.751504  1
  Os  Os9  1  0.825737  0.651494  0.248520  1
  Os  Os10  1  0.825734  0.174251  0.248528  1
  Os  Os11  1  0.348528  0.174262  0.248526  1
