# generated using pymatgen
data_Zr5V2CrCo16(As3P)3
_symmetry_space_group_name_H-M   'P 1'
_cell_length_a   12.31404700
_cell_length_b   12.31715034
_cell_length_c   3.71572200
_cell_angle_alpha   90.00000000
_cell_angle_beta   90.00000000
_cell_angle_gamma   120.00833573
_symmetry_Int_Tables_number   1
_chemical_formula_structural   Zr5V2CrCo16(As3P)3
_chemical_formula_sum   'Zr5 V2 Cr1 Co16 As9 P3'
_cell_volume   488.03212379
_cell_formula_units_Z   1
loop_
 _symmetry_equiv_pos_site_id
 _symmetry_equiv_pos_as_xyz
  1  'x, y, z'
loop_
 _atom_site_type_symbol
 _atom_site_label
 _atom_site_symmetry_multiplicity
 _atom_site_fract_x
 _atom_site_fract_y
 _atom_site_fract_z
 _atom_site_occupancy
  Zr  Zr0  1  0.665683  0.333918  0.000000  1
  Zr  Zr1  1  0.334317  0.668235  0.000000  1
  Zr  Zr2  1  0.826961  0.826980  0.500000  1
  Zr  Zr3  1  0.173039  0.000019  0.500000  1
  Zr  Zr4  1  0.000000  0.172723  0.500000  1
  V  V5  1  0.442482  0.443465  0.000000  1
  V  V6  1  0.557518  0.000982  0.000000  1
  Cr  Cr7  1  0.000000  0.556143  0.000000  1
  Co  Co8  1  0.194142  0.364133  0.000000  1
  Co  Co9  1  0.172896  0.805550  0.000000  1
  Co  Co10  1  0.827104  0.632654  0.000000  1
  Co  Co11  1  0.805858  0.169992  0.000000  1
  Co  Co12  1  0.366301  0.195563  0.000000  1
  Co  Co13  1  0.127753  0.479568  0.500000  1
  Co  Co14  1  0.353584  0.875534  0.500000  1
  Co  Co15  1  0.520119  0.647511  0.500000  1
  Co  Co16  1  0.646416  0.521951  0.500000  1
  Co  Co17  1  0.872247  0.351815  0.500000  1
  Co  Co18  1  0.479881  0.127391  0.500000  1
  Co  Co19  1  0.000000  0.998970  0.000000  1
  Co  Co20  1  0.725862  0.999591  0.500000  1
  Co  Co21  1  0.000000  0.725563  0.500000  1
  Co  Co22  1  0.633699  0.829263  0.000000  1
  Co  Co23  1  0.274138  0.273729  0.500000  1
  As  As24  1  0.644765  0.645351  0.000000  1
  As  As25  1  0.355235  0.000586  0.000000  1
  As  As26  1  0.000000  0.354572  0.000000  1
  As  As27  1  0.482270  0.317972  0.500000  1
  As  As28  1  0.683355  0.164960  0.500000  1
  As  As29  1  0.835234  0.518317  0.500000  1
  As  As30  1  0.517730  0.835702  0.500000  1
  As  As31  1  0.164766  0.683084  0.500000  1
  As  As32  1  0.316645  0.481604  0.500000  1
  P  P33  1  0.826332  0.999139  0.000000  1
  P  P34  1  0.000000  0.824660  0.000000  1
  P  P35  1  0.173668  0.172807  0.000000  1
