# generated using pymatgen
data_Sr2CdIr4PbO14
_symmetry_space_group_name_H-M   'P 1'
_cell_length_a   7.39556803
_cell_length_b   7.39556662
_cell_length_c   7.30049524
_cell_angle_alpha   59.93913846
_cell_angle_beta   59.93914914
_cell_angle_gamma   60.25577674
_symmetry_Int_Tables_number   1
_chemical_formula_structural   Sr2CdIr4PbO14
_chemical_formula_sum   'Sr2 Cd1 Ir4 Pb1 O14'
_cell_volume   282.62536838
_cell_formula_units_Z   1
loop_
 _symmetry_equiv_pos_site_id
 _symmetry_equiv_pos_as_xyz
  1  'x, y, z'
loop_
 _atom_site_type_symbol
 _atom_site_label
 _atom_site_symmetry_multiplicity
 _atom_site_fract_x
 _atom_site_fract_y
 _atom_site_fract_z
 _atom_site_occupancy
  Sr  Sr0  1  0.625000  0.125000  0.125000  1
  Sr  Sr1  1  0.125000  0.625000  0.125000  1
  Cd  Cd2  1  0.125000  0.125000  0.625000  1
  Ir  Ir3  1  0.125000  0.625000  0.625000  1
  Ir  Ir4  1  0.625000  0.125000  0.625000  1
  Ir  Ir5  1  0.625000  0.625000  0.125000  1
  Ir  Ir6  1  0.625000  0.625000  0.625000  1
  Pb  Pb7  1  0.125000  0.125000  0.125000  1
  O  O8  1  0.699481  0.699481  0.299199  1
  O  O9  1  0.304341  0.304341  0.712225  1
  O  O10  1  0.701537  0.302108  0.690983  1
  O  O11  1  0.301228  0.711272  0.299852  1
  O  O12  1  0.302108  0.701537  0.690983  1
  O  O13  1  0.711272  0.301228  0.299852  1
  O  O14  1  0.550519  0.550519  0.950801  1
  O  O15  1  0.945659  0.945659  0.537775  1
  O  O16  1  0.548463  0.947892  0.559017  1
  O  O17  1  0.948772  0.538728  0.950148  1
  O  O18  1  0.947892  0.548463  0.559017  1
  O  O19  1  0.538728  0.948772  0.950148  1
  O  O20  1  0.231253  0.231253  0.271735  1
  O  O21  1  0.018747  0.018747  0.978265  1
