# generated using pymatgen
data_YbEr3Co12(SiB3)2
_symmetry_space_group_name_H-M   'P 1'
_cell_length_a   5.10145900
_cell_length_b   5.10145867
_cell_length_c   12.11929600
_cell_angle_alpha   90.00000000
_cell_angle_beta   90.00000000
_cell_angle_gamma   119.99999564
_symmetry_Int_Tables_number   1
_chemical_formula_structural   YbEr3Co12(SiB3)2
_chemical_formula_sum   'Yb1 Er3 Co12 Si2 B6'
_cell_volume   273.14724014
_cell_formula_units_Z   1
loop_
 _symmetry_equiv_pos_site_id
 _symmetry_equiv_pos_as_xyz
  1  'x, y, z'
loop_
 _atom_site_type_symbol
 _atom_site_label
 _atom_site_symmetry_multiplicity
 _atom_site_fract_x
 _atom_site_fract_y
 _atom_site_fract_z
 _atom_site_occupancy
  Yb  Yb0  1  0.000000  0.000000  0.500000  1
  Er  Er1  1  0.000000  0.000000  0.000000  1
  Er  Er2  1  0.000000  0.000000  0.738443  1
  Er  Er3  1  0.000000  0.000000  0.261557  1
  Co  Co4  1  0.500000  0.500000  0.848980  1
  Co  Co5  1  0.500000  0.000000  0.848980  1
  Co  Co6  1  0.000000  0.500000  0.848980  1
  Co  Co7  1  0.500000  0.500000  0.151020  1
  Co  Co8  1  0.500000  0.000000  0.151020  1
  Co  Co9  1  0.000000  0.500000  0.151020  1
  Co  Co10  1  0.500000  0.500000  0.615995  1
  Co  Co11  1  0.500000  0.000000  0.615995  1
  Co  Co12  1  0.000000  0.500000  0.615995  1
  Co  Co13  1  0.500000  0.500000  0.384005  1
  Co  Co14  1  0.500000  0.000000  0.384005  1
  Co  Co15  1  0.000000  0.500000  0.384005  1
  Si  Si16  1  0.666667  0.333333  0.000000  1
  Si  Si17  1  0.333333  0.666667  0.000000  1
  B  B18  1  0.666667  0.333333  0.500000  1
  B  B19  1  0.333333  0.666667  0.500000  1
  B  B20  1  0.666667  0.333333  0.734765  1
  B  B21  1  0.333333  0.666667  0.734765  1
  B  B22  1  0.333333  0.666667  0.265235  1
  B  B23  1  0.666667  0.333333  0.265235  1
