# generated using pymatgen
data_YbY7SbPd24
_symmetry_space_group_name_H-M   'P 1'
_cell_length_a   8.40762400
_cell_length_b   8.40762400
_cell_length_c   8.40762400
_cell_angle_alpha   90.00021807
_cell_angle_beta   90.00021807
_cell_angle_gamma   90.00021807
_symmetry_Int_Tables_number   1
_chemical_formula_structural   YbY7SbPd24
_chemical_formula_sum   'Yb1 Y7 Sb1 Pd24'
_cell_volume   594.31931352
_cell_formula_units_Z   1
loop_
 _symmetry_equiv_pos_site_id
 _symmetry_equiv_pos_as_xyz
  1  'x, y, z'
loop_
 _atom_site_type_symbol
 _atom_site_label
 _atom_site_symmetry_multiplicity
 _atom_site_fract_x
 _atom_site_fract_y
 _atom_site_fract_z
 _atom_site_occupancy
  Yb  Yb0  1  0.252958  0.252958  0.252958  1
  Y  Y1  1  0.746002  0.746002  0.253835  1
  Y  Y2  1  0.746002  0.253835  0.746002  1
  Y  Y3  1  0.253835  0.746002  0.746002  1
  Y  Y4  1  0.746452  0.746452  0.746452  1
  Y  Y5  1  0.746142  0.253822  0.253822  1
  Y  Y6  1  0.253822  0.253822  0.746142  1
  Y  Y7  1  0.253822  0.746142  0.253822  1
  Sb  Sb8  1  0.000443  0.000443  0.000443  1
  Pd  Pd9  1  0.000374  0.000374  0.306081  1
  Pd  Pd10  1  0.735429  0.999712  0.500031  1
  Pd  Pd11  1  0.735429  0.500031  0.999712  1
  Pd  Pd12  1  0.500031  0.999712  0.735429  1
  Pd  Pd13  1  0.999712  0.735429  0.500031  1
  Pd  Pd14  1  0.500036  0.999939  0.264811  1
  Pd  Pd15  1  0.999939  0.264811  0.500036  1
  Pd  Pd16  1  0.500031  0.735429  0.999712  1
  Pd  Pd17  1  0.254672  0.499779  0.499779  1
  Pd  Pd18  1  0.500155  0.500155  0.745130  1
  Pd  Pd19  1  0.499779  0.499779  0.254672  1
  Pd  Pd20  1  0.499779  0.254672  0.499779  1
  Pd  Pd21  1  0.500155  0.745130  0.500155  1
  Pd  Pd22  1  0.745130  0.500155  0.500155  1
  Pd  Pd23  1  0.306081  0.000374  0.000374  1
  Pd  Pd24  1  0.000070  0.000070  0.693971  1
  Pd  Pd25  1  0.999939  0.500036  0.264811  1
  Pd  Pd26  1  0.000374  0.306081  0.000374  1
  Pd  Pd27  1  0.000070  0.693971  0.000070  1
  Pd  Pd28  1  0.693971  0.000070  0.000070  1
  Pd  Pd29  1  0.264811  0.500036  0.999939  1
  Pd  Pd30  1  0.264811  0.999939  0.500036  1
  Pd  Pd31  1  0.999712  0.500031  0.735429  1
  Pd  Pd32  1  0.500036  0.264811  0.999939  1
