# generated using pymatgen
data_Nd2TmHf3(SnIr)6
_symmetry_space_group_name_H-M   'P 1'
_cell_length_a   7.49098600
_cell_length_b   7.47217261
_cell_length_c   7.72710600
_cell_angle_alpha   90.00000000
_cell_angle_beta   90.00000000
_cell_angle_gamma   120.08635515
_symmetry_Int_Tables_number   1
_chemical_formula_structural   Nd2TmHf3(SnIr)6
_chemical_formula_sum   'Nd2 Tm1 Hf3 Sn6 Ir6'
_cell_volume   374.24397216
_cell_formula_units_Z   1
loop_
 _symmetry_equiv_pos_site_id
 _symmetry_equiv_pos_as_xyz
  1  'x, y, z'
loop_
 _atom_site_type_symbol
 _atom_site_label
 _atom_site_symmetry_multiplicity
 _atom_site_fract_x
 _atom_site_fract_y
 _atom_site_fract_z
 _atom_site_occupancy
  Nd  Nd0  1  0.999677  0.408084  0.750000  1
  Nd  Nd1  1  0.591503  0.591949  0.750000  1
  Tm  Tm2  1  0.404876  0.000093  0.750000  1
  Hf  Hf3  1  0.999183  0.391094  0.250000  1
  Hf  Hf4  1  0.608777  0.608280  0.250000  1
  Hf  Hf5  1  0.392293  0.000672  0.250000  1
  Sn  Sn6  1  0.265560  0.264179  0.489608  1
  Sn  Sn7  1  0.002276  0.736277  0.489675  1
  Sn  Sn8  1  0.002276  0.736277  0.010325  1
  Sn  Sn9  1  0.733182  0.999532  0.493023  1
  Sn  Sn10  1  0.733182  0.999532  0.006977  1
  Sn  Sn11  1  0.265560  0.264179  0.010392  1
  Ir  Ir12  1  0.333782  0.669296  0.455923  1
  Ir  Ir13  1  0.664416  0.330635  0.457249  1
  Ir  Ir14  1  0.333782  0.669296  0.044077  1
  Ir  Ir15  1  0.006695  0.000022  0.750000  1
  Ir  Ir16  1  0.998561  0.999972  0.250000  1
  Ir  Ir17  1  0.664416  0.330635  0.042751  1
