# generated using pymatgen
data_Tm20Zn3Cd3Ru2
_symmetry_space_group_name_H-M   'P 1'
_cell_length_a   9.39154000
_cell_length_b   9.39154031
_cell_length_c   9.56581100
_cell_angle_alpha   90.00000000
_cell_angle_beta   90.00000000
_cell_angle_gamma   120.00000596
_symmetry_Int_Tables_number   1
_chemical_formula_structural   Tm20Zn3Cd3Ru2
_chemical_formula_sum   'Tm20 Zn3 Cd3 Ru2'
_cell_volume   730.67801613
_cell_formula_units_Z   1
loop_
 _symmetry_equiv_pos_site_id
 _symmetry_equiv_pos_as_xyz
  1  'x, y, z'
loop_
 _atom_site_type_symbol
 _atom_site_label
 _atom_site_symmetry_multiplicity
 _atom_site_fract_x
 _atom_site_fract_y
 _atom_site_fract_z
 _atom_site_occupancy
  Tm  Tm0  1  0.000000  0.000000  0.474775  1
  Tm  Tm1  1  0.000000  0.000000  0.025225  1
  Tm  Tm2  1  0.208064  0.791936  0.438774  1
  Tm  Tm3  1  0.208064  0.416128  0.438774  1
  Tm  Tm4  1  0.583872  0.791936  0.438774  1
  Tm  Tm5  1  0.790997  0.209003  0.556821  1
  Tm  Tm6  1  0.790997  0.581994  0.556821  1
  Tm  Tm7  1  0.418006  0.209003  0.556821  1
  Tm  Tm8  1  0.790997  0.209003  0.943179  1
  Tm  Tm9  1  0.790997  0.581994  0.943179  1
  Tm  Tm10  1  0.418006  0.209003  0.943179  1
  Tm  Tm11  1  0.208064  0.791936  0.061226  1
  Tm  Tm12  1  0.208064  0.416128  0.061226  1
  Tm  Tm13  1  0.583872  0.791936  0.061226  1
  Tm  Tm14  1  0.541602  0.458398  0.250000  1
  Tm  Tm15  1  0.541602  0.083205  0.250000  1
  Tm  Tm16  1  0.916795  0.458398  0.250000  1
  Tm  Tm17  1  0.458851  0.541149  0.750000  1
  Tm  Tm18  1  0.458851  0.917702  0.750000  1
  Tm  Tm19  1  0.082298  0.541149  0.750000  1
  Zn  Zn20  1  0.878289  0.121711  0.250000  1
  Zn  Zn21  1  0.878289  0.756580  0.250000  1
  Zn  Zn22  1  0.243420  0.121711  0.250000  1
  Cd  Cd23  1  0.110549  0.889451  0.750000  1
  Cd  Cd24  1  0.110549  0.221097  0.750000  1
  Cd  Cd25  1  0.778903  0.889451  0.750000  1
  Ru  Ru26  1  0.333333  0.666667  0.250000  1
  Ru  Ru27  1  0.666667  0.333333  0.750000  1
