# generated using pymatgen
data_TbY6IrI12
_symmetry_space_group_name_H-M   'P 1'
_cell_length_a   9.81892784
_cell_length_b   9.81339696
_cell_length_c   9.81432249
_cell_angle_alpha   106.84624901
_cell_angle_beta   106.87992300
_cell_angle_gamma   106.88531342
_symmetry_Int_Tables_number   1
_chemical_formula_structural   TbY6IrI12
_chemical_formula_sum   'Tb1 Y6 Ir1 I12'
_cell_volume   790.33624540
_cell_formula_units_Z   1
loop_
 _symmetry_equiv_pos_site_id
 _symmetry_equiv_pos_as_xyz
  1  'x, y, z'
loop_
 _atom_site_type_symbol
 _atom_site_label
 _atom_site_symmetry_multiplicity
 _atom_site_fract_x
 _atom_site_fract_y
 _atom_site_fract_z
 _atom_site_occupancy
  Tb  Tb0  1  0.296321  0.094821  0.022347  1
  Y  Y1  1  0.499857  0.500001  0.500062  1
  Y  Y2  1  0.904947  0.977525  0.703219  1
  Y  Y3  1  0.977425  0.703039  0.905081  1
  Y  Y4  1  0.704177  0.905364  0.977529  1
  Y  Y5  1  0.094796  0.022391  0.296642  1
  Y  Y6  1  0.022397  0.296729  0.094878  1
  Ir  Ir7  1  0.000222  0.999985  0.999914  1
  I  I8  1  0.536434  0.838377  0.613645  1
  I  I9  1  0.838097  0.613514  0.536468  1
  I  I10  1  0.613471  0.536519  0.838399  1
  I  I11  1  0.463488  0.161955  0.386920  1
  I  I12  1  0.161589  0.386457  0.463565  1
  I  I13  1  0.386437  0.464222  0.162256  1
  I  I14  1  0.676040  0.224457  0.070532  1
  I  I15  1  0.223746  0.069954  0.674055  1
  I  I16  1  0.070173  0.674684  0.224258  1
  I  I17  1  0.325090  0.775060  0.929403  1
  I  I18  1  0.775645  0.929704  0.325160  1
  I  I19  1  0.929645  0.325243  0.775667  1
