# generated using pymatgen
data_Er3In3Ir2Rh
_symmetry_space_group_name_H-M   'P 1'
_cell_length_a   7.53828312
_cell_length_b   7.53828254
_cell_length_c   3.86835500
_cell_angle_alpha   90.00000000
_cell_angle_beta   90.00000000
_cell_angle_gamma   119.97984431
_symmetry_Int_Tables_number   1
_chemical_formula_structural   Er3In3Ir2Rh
_chemical_formula_sum   'Er3 In3 Ir2 Rh1'
_cell_volume   190.41009948
_cell_formula_units_Z   1
loop_
 _symmetry_equiv_pos_site_id
 _symmetry_equiv_pos_as_xyz
  1  'x, y, z'
loop_
 _atom_site_type_symbol
 _atom_site_label
 _atom_site_symmetry_multiplicity
 _atom_site_fract_x
 _atom_site_fract_y
 _atom_site_fract_z
 _atom_site_occupancy
  Er  Er0  1  0.000064  0.591620  0.500000  1
  Er  Er1  1  0.408521  0.408521  0.500000  1
  Er  Er2  1  0.591620  0.000064  0.500000  1
  In  In3  1  0.258136  0.000005  0.000000  1
  In  In4  1  0.741827  0.741827  0.000000  1
  In  In5  1  0.000005  0.258136  0.000000  1
  Ir  Ir6  1  0.666653  0.333277  0.000000  1
  Ir  Ir7  1  0.333277  0.666653  0.000000  1
  Rh  Rh8  1  0.999896  0.999896  0.500000  1
