# generated using pymatgen
data_Dy8YHo(SiB4)4
_symmetry_space_group_name_H-M   'P 1'
_cell_length_a   7.22932100
_cell_length_b   7.22932100
_cell_length_c   8.09218700
_cell_angle_alpha   90.00000000
_cell_angle_beta   90.00000000
_cell_angle_gamma   90.00000000
_symmetry_Int_Tables_number   1
_chemical_formula_structural   Dy8YHo(SiB4)4
_chemical_formula_sum   'Dy8 Y1 Ho1 Si4 B16'
_cell_volume   422.92263372
_cell_formula_units_Z   1
loop_
 _symmetry_equiv_pos_site_id
 _symmetry_equiv_pos_as_xyz
  1  'x, y, z'
loop_
 _atom_site_type_symbol
 _atom_site_label
 _atom_site_symmetry_multiplicity
 _atom_site_fract_x
 _atom_site_fract_y
 _atom_site_fract_z
 _atom_site_occupancy
  Dy  Dy0  1  0.680185  0.180393  0.223980  1
  Dy  Dy1  1  0.319815  0.819607  0.776020  1
  Dy  Dy2  1  0.319815  0.819607  0.223980  1
  Dy  Dy3  1  0.819607  0.680185  0.223980  1
  Dy  Dy4  1  0.819607  0.680185  0.776020  1
  Dy  Dy5  1  0.680185  0.180393  0.776020  1
  Dy  Dy6  1  0.180393  0.319815  0.776020  1
  Dy  Dy7  1  0.180393  0.319815  0.223980  1
  Y  Y8  1  0.000000  0.000000  0.500000  1
  Ho  Ho9  1  0.500000  0.500000  0.500000  1
  Si  Si10  1  0.115354  0.614788  0.500000  1
  Si  Si11  1  0.884646  0.385212  0.500000  1
  Si  Si12  1  0.385212  0.115354  0.500000  1
  Si  Si13  1  0.614788  0.884646  0.500000  1
  B  B14  1  0.172327  0.039095  0.000000  1
  B  B15  1  0.827673  0.960905  0.000000  1
  B  B16  1  0.960905  0.172327  0.000000  1
  B  B17  1  0.327718  0.539107  0.000000  1
  B  B18  1  0.039095  0.827673  0.000000  1
  B  B19  1  0.672282  0.460893  0.000000  1
  B  B20  1  0.539107  0.672282  0.000000  1
  B  B21  1  0.460893  0.327718  0.000000  1
  B  B22  1  0.089886  0.589897  0.000000  1
  B  B23  1  0.910114  0.410103  0.000000  1
  B  B24  1  0.410103  0.089886  0.000000  1
  B  B25  1  0.589897  0.910114  0.000000  1
  B  B26  1  0.000000  0.000000  0.162031  1
  B  B27  1  0.000000  0.000000  0.837969  1
  B  B28  1  0.500000  0.500000  0.837675  1
  B  B29  1  0.500000  0.500000  0.162325  1
