# generated using pymatgen
data_Nb3Ga2SiTc3
_symmetry_space_group_name_H-M   'P 1'
_cell_length_a   7.02665900
_cell_length_b   7.02665808
_cell_length_c   3.26150000
_cell_angle_alpha   90.00000000
_cell_angle_beta   90.00000000
_cell_angle_gamma   119.99999021
_symmetry_Int_Tables_number   1
_chemical_formula_structural   Nb3Ga2SiTc3
_chemical_formula_sum   'Nb3 Ga2 Si1 Tc3'
_cell_volume   139.45874620
_cell_formula_units_Z   1
loop_
 _symmetry_equiv_pos_site_id
 _symmetry_equiv_pos_as_xyz
  1  'x, y, z'
loop_
 _atom_site_type_symbol
 _atom_site_label
 _atom_site_symmetry_multiplicity
 _atom_site_fract_x
 _atom_site_fract_y
 _atom_site_fract_z
 _atom_site_occupancy
  Nb  Nb0  1  0.395855  0.000000  0.500000  1
  Nb  Nb1  1  0.000000  0.395855  0.500000  1
  Nb  Nb2  1  0.604145  0.604145  0.500000  1
  Ga  Ga3  1  0.333333  0.666667  0.000000  1
  Ga  Ga4  1  0.666667  0.333333  0.000000  1
  Si  Si5  1  0.000000  0.000000  0.500000  1
  Tc  Tc6  1  0.747526  0.000000  0.000000  1
  Tc  Tc7  1  0.000000  0.747526  0.000000  1
  Tc  Tc8  1  0.252474  0.252474  0.000000  1
