# generated using pymatgen
data_Tb3Th5(Pt2Pb)4
_symmetry_space_group_name_H-M   'P 1'
_cell_length_a   8.07172200
_cell_length_b   8.07172215
_cell_length_c   7.41304800
_cell_angle_alpha   90.00000000
_cell_angle_beta   90.00000000
_cell_angle_gamma   90.33156503
_symmetry_Int_Tables_number   1
_chemical_formula_structural   Tb3Th5(Pt2Pb)4
_chemical_formula_sum   'Tb3 Th5 Pt8 Pb4'
_cell_volume   482.97198524
_cell_formula_units_Z   1
loop_
 _symmetry_equiv_pos_site_id
 _symmetry_equiv_pos_as_xyz
  1  'x, y, z'
loop_
 _atom_site_type_symbol
 _atom_site_label
 _atom_site_symmetry_multiplicity
 _atom_site_fract_x
 _atom_site_fract_y
 _atom_site_fract_z
 _atom_site_occupancy
  Tb  Tb0  1  0.664927  0.664927  0.500000  1
  Tb  Tb1  1  0.837462  0.161169  0.000000  1
  Tb  Tb2  1  0.161169  0.837462  0.000000  1
  Th  Th3  1  0.676878  0.676878  0.000000  1
  Th  Th4  1  0.338252  0.338252  0.500000  1
  Th  Th5  1  0.824497  0.173904  0.500000  1
  Th  Th6  1  0.325441  0.325441  0.000000  1
  Th  Th7  1  0.173904  0.824497  0.500000  1
  Pt  Pt8  1  0.873024  0.873024  0.736369  1
  Pt  Pt9  1  0.129191  0.129191  0.738441  1
  Pt  Pt10  1  0.627334  0.371286  0.763663  1
  Pt  Pt11  1  0.627334  0.371286  0.236337  1
  Pt  Pt12  1  0.371286  0.627334  0.236337  1
  Pt  Pt13  1  0.129191  0.129191  0.261559  1
  Pt  Pt14  1  0.873024  0.873024  0.263631  1
  Pt  Pt15  1  0.371286  0.627334  0.763663  1
  Pb  Pb16  1  0.501387  0.996512  0.752338  1
  Pb  Pb17  1  0.501387  0.996512  0.247662  1
  Pb  Pb18  1  0.996512  0.501387  0.752338  1
  Pb  Pb19  1  0.996512  0.501387  0.247662  1
