# generated using pymatgen
data_Tb12SiGe7Ru8
_symmetry_space_group_name_H-M   'P 1'
_cell_length_a   5.60436900
_cell_length_b   7.74253769
_cell_length_c   13.57480647
_cell_angle_alpha   90.14979144
_cell_angle_beta   90.00000000
_cell_angle_gamma   90.00000000
_symmetry_Int_Tables_number   1
_chemical_formula_structural   Tb12SiGe7Ru8
_chemical_formula_sum   'Tb12 Si1 Ge7 Ru8'
_cell_volume   589.03650792
_cell_formula_units_Z   1
loop_
 _symmetry_equiv_pos_site_id
 _symmetry_equiv_pos_as_xyz
  1  'x, y, z'
loop_
 _atom_site_type_symbol
 _atom_site_label
 _atom_site_symmetry_multiplicity
 _atom_site_fract_x
 _atom_site_fract_y
 _atom_site_fract_z
 _atom_site_occupancy
  Tb  Tb0  1  0.851035  0.902942  0.599252  1
  Tb  Tb1  1  0.150942  0.402554  0.900540  1
  Tb  Tb2  1  0.849045  0.598085  0.099148  1
  Tb  Tb3  1  0.628207  0.266209  0.749954  1
  Tb  Tb4  1  0.628207  0.233791  0.250046  1
  Tb  Tb5  1  0.851035  0.597058  0.400748  1
  Tb  Tb6  1  0.371742  0.734863  0.250509  1
  Tb  Tb7  1  0.150942  0.097446  0.099460  1
  Tb  Tb8  1  0.149709  0.097893  0.401509  1
  Tb  Tb9  1  0.371742  0.765137  0.749491  1
  Tb  Tb10  1  0.149709  0.402107  0.598491  1
  Tb  Tb11  1  0.849045  0.901915  0.900852  1
  Si  Si12  1  0.389910  0.750000  0.500000  1
  Ge  Ge13  1  0.374160  0.750000  0.000000  1
  Ge  Ge14  1  0.127900  0.113405  0.749275  1
  Ge  Ge15  1  0.621712  0.250000  0.500000  1
  Ge  Ge16  1  0.127900  0.386595  0.250725  1
  Ge  Ge17  1  0.872989  0.886095  0.250151  1
  Ge  Ge18  1  0.872989  0.613905  0.749849  1
  Ge  Ge19  1  0.626098  0.250000  0.000000  1
  Ru  Ru20  1  0.352492  0.034580  0.908493  1
  Ru  Ru21  1  0.352492  0.465420  0.091507  1
  Ru  Ru22  1  0.647287  0.966677  0.091419  1
  Ru  Ru23  1  0.647287  0.533323  0.908581  1
  Ru  Ru24  1  0.642085  0.961067  0.409017  1
  Ru  Ru25  1  0.642085  0.538933  0.590983  1
  Ru  Ru26  1  0.350627  0.475551  0.411193  1
  Ru  Ru27  1  0.350627  0.024449  0.588807  1
