# generated using pymatgen
data_Zr4Fe3NiP4
_symmetry_space_group_name_H-M   'P 1'
_cell_length_a   3.72908400
_cell_length_b   6.36538800
_cell_length_c   7.15381126
_cell_angle_alpha   89.77841900
_cell_angle_beta   90.00000000
_cell_angle_gamma   90.00000000
_symmetry_Int_Tables_number   1
_chemical_formula_structural   Zr4Fe3NiP4
_chemical_formula_sum   'Zr4 Fe3 Ni1 P4'
_cell_volume   169.80922413
_cell_formula_units_Z   1
loop_
 _symmetry_equiv_pos_site_id
 _symmetry_equiv_pos_as_xyz
  1  'x, y, z'
loop_
 _atom_site_type_symbol
 _atom_site_label
 _atom_site_symmetry_multiplicity
 _atom_site_fract_x
 _atom_site_fract_y
 _atom_site_fract_z
 _atom_site_occupancy
  Zr  Zr0  1  0.250000  0.517119  0.684724  1
  Zr  Zr1  1  0.750000  0.481693  0.314819  1
  Zr  Zr2  1  0.250000  0.019841  0.819149  1
  Zr  Zr3  1  0.750000  0.987936  0.181946  1
  Fe  Fe4  1  0.250000  0.137290  0.443432  1
  Fe  Fe5  1  0.750000  0.356298  0.938788  1
  Fe  Fe6  1  0.250000  0.641028  0.059920  1
  Ni  Ni7  1  0.750000  0.854160  0.561242  1
  P  P8  1  0.250000  0.283246  0.109372  1
  P  P9  1  0.750000  0.718982  0.897424  1
  P  P10  1  0.250000  0.777792  0.377159  1
  P  P11  1  0.750000  0.224614  0.612025  1
