# generated using pymatgen
data_Tl3Cr11Se18
_symmetry_space_group_name_H-M   'P 1'
_cell_length_a   3.69524100
_cell_length_b   11.36217032
_cell_length_c   17.40407400
_cell_angle_alpha   99.72264323
_cell_angle_beta   90.00021707
_cell_angle_gamma   99.36252245
_symmetry_Int_Tables_number   1
_chemical_formula_structural   Tl3Cr11Se18
_chemical_formula_sum   'Tl3 Cr11 Se18'
_cell_volume   710.35308711
_cell_formula_units_Z   1
loop_
 _symmetry_equiv_pos_site_id
 _symmetry_equiv_pos_as_xyz
  1  'x, y, z'
loop_
 _atom_site_type_symbol
 _atom_site_label
 _atom_site_symmetry_multiplicity
 _atom_site_fract_x
 _atom_site_fract_y
 _atom_site_fract_z
 _atom_site_occupancy
  Tl  Tl0  1  0.805320  0.611017  0.906129  1
  Tl  Tl1  1  0.194533  0.388273  0.093738  1
  Tl  Tl2  1  0.501325  0.999653  0.499821  1
  Cr  Cr3  1  0.847637  0.694021  0.276845  1
  Cr  Cr4  1  0.153178  0.305432  0.722901  1
  Cr  Cr5  1  0.294978  0.588008  0.429696  1
  Cr  Cr6  1  0.590983  0.182152  0.869052  1
  Cr  Cr7  1  0.468858  0.940371  0.747383  1
  Cr  Cr8  1  0.529922  0.059014  0.252180  1
  Cr  Cr9  1  0.707681  0.411793  0.570254  1
  Cr  Cr10  1  0.408813  0.817055  0.130567  1
  Cr  Cr11  1  0.833021  0.666441  0.678556  1
  Cr  Cr12  1  0.167282  0.333135  0.321432  1
  Cr  Cr13  1  0.999390  0.999637  0.999798  1
  Se  Se14  1  0.635726  0.270148  0.225940  1
  Se  Se15  1  0.419679  0.840481  0.989709  1
  Se  Se16  1  0.832286  0.664147  0.125908  1
  Se  Se17  1  0.728263  0.455739  0.717421  1
  Se  Se18  1  0.293850  0.586760  0.575560  1
  Se  Se19  1  0.577332  0.154484  0.720943  1
  Se  Se20  1  0.364375  0.729473  0.773996  1
  Se  Se21  1  0.937922  0.878138  0.650382  1
  Se  Se22  1  0.167690  0.335053  0.873797  1
  Se  Se23  1  0.133260  0.263668  0.573767  1
  Se  Se24  1  0.060999  0.121193  0.349224  1
  Se  Se25  1  0.423015  0.844872  0.278653  1
  Se  Se26  1  0.869104  0.736117  0.425980  1
  Se  Se27  1  0.579079  0.158796  0.009943  1
  Se  Se28  1  0.995677  0.990752  0.145967  1
  Se  Se29  1  0.272601  0.543769  0.282525  1
  Se  Se30  1  0.003458  0.008593  0.853649  1
  Se  Se31  1  0.707465  0.413011  0.424422  1
