# generated using pymatgen
data_Dy10Sn5BiP2
_symmetry_space_group_name_H-M   'P 1'
_cell_length_a   9.11291352
_cell_length_b   9.11291328
_cell_length_c   6.68542800
_cell_angle_alpha   90.00000000
_cell_angle_beta   90.00000000
_cell_angle_gamma   120.11417125
_symmetry_Int_Tables_number   1
_chemical_formula_structural   Dy10Sn5BiP2
_chemical_formula_sum   'Dy10 Sn5 Bi1 P2'
_cell_volume   480.25682235
_cell_formula_units_Z   1
loop_
 _symmetry_equiv_pos_site_id
 _symmetry_equiv_pos_as_xyz
  1  'x, y, z'
loop_
 _atom_site_type_symbol
 _atom_site_label
 _atom_site_symmetry_multiplicity
 _atom_site_fract_x
 _atom_site_fract_y
 _atom_site_fract_z
 _atom_site_occupancy
  Dy  Dy0  1  0.670236  0.332184  0.002476  1
  Dy  Dy1  1  0.332184  0.670236  0.002476  1
  Dy  Dy2  1  0.332184  0.670236  0.497524  1
  Dy  Dy3  1  0.670236  0.332184  0.497524  1
  Dy  Dy4  1  0.760966  0.760966  0.750000  1
  Dy  Dy5  1  0.238062  0.995237  0.750000  1
  Dy  Dy6  1  0.995237  0.238062  0.750000  1
  Dy  Dy7  1  0.240520  0.240520  0.250000  1
  Dy  Dy8  1  0.759042  0.998980  0.250000  1
  Dy  Dy9  1  0.998980  0.759042  0.250000  1
  Sn  Sn10  1  0.600367  0.000278  0.750000  1
  Sn  Sn11  1  0.000278  0.600367  0.750000  1
  Sn  Sn12  1  0.601788  0.601788  0.250000  1
  Sn  Sn13  1  0.399323  0.000785  0.250000  1
  Sn  Sn14  1  0.000785  0.399323  0.250000  1
  Bi  Bi15  1  0.398131  0.398131  0.750000  1
  P  P16  1  0.000841  0.000841  0.999639  1
  P  P17  1  0.000841  0.000841  0.500361  1
