# generated using pymatgen
data_Dy7S8
_symmetry_space_group_name_H-M   'P 1'
_cell_length_a   7.79115872
_cell_length_b   7.78956764
_cell_length_c   7.79115872
_cell_angle_alpha   119.98103938
_cell_angle_beta   90.04913913
_cell_angle_gamma   119.97573491
_symmetry_Int_Tables_number   1
_chemical_formula_structural   Dy7S8
_chemical_formula_sum   'Dy7 S8'
_cell_volume   334.42582938
_cell_formula_units_Z   1
loop_
 _symmetry_equiv_pos_site_id
 _symmetry_equiv_pos_as_xyz
  1  'x, y, z'
loop_
 _atom_site_type_symbol
 _atom_site_label
 _atom_site_symmetry_multiplicity
 _atom_site_fract_x
 _atom_site_fract_y
 _atom_site_fract_z
 _atom_site_occupancy
  Dy  Dy0  1  0.249968  0.000000  0.249968  1
  Dy  Dy1  1  0.249959  0.499933  0.249971  1
  Dy  Dy2  1  0.750038  0.000013  0.249972  1
  Dy  Dy3  1  0.249985  0.500001  0.749986  1
  Dy  Dy4  1  0.249959  0.999987  0.750025  1
  Dy  Dy5  1  0.750039  0.000000  0.750039  1
  Dy  Dy6  1  0.750037  0.500066  0.750025  1
  S  S7  1  0.999992  0.000000  0.999992  1
  S  S8  1  0.500006  0.000000  0.500006  1
  S  S9  1  0.999057  0.998085  0.499037  1
  S  S10  1  0.999018  0.500001  0.499020  1
  S  S11  1  0.500923  0.499993  0.499077  1
  S  S12  1  0.999085  0.500009  0.000930  1
  S  S13  1  0.500987  0.500001  0.000988  1
  S  S14  1  0.500950  0.001914  0.000973  1
