# generated using pymatgen
data_Er2Sc3(In2Co)2
_symmetry_space_group_name_H-M   'P 1'
_cell_length_a   3.46497100
_cell_length_b   7.68919200
_cell_length_c   17.44354300
_cell_angle_alpha   90.00000000
_cell_angle_beta   90.00000000
_cell_angle_gamma   90.00000000
_symmetry_Int_Tables_number   1
_chemical_formula_structural   Er2Sc3(In2Co)2
_chemical_formula_sum   'Er4 Sc6 In8 Co4'
_cell_volume   464.74530353
_cell_formula_units_Z   2
loop_
 _symmetry_equiv_pos_site_id
 _symmetry_equiv_pos_as_xyz
  1  'x, y, z'
loop_
 _atom_site_type_symbol
 _atom_site_label
 _atom_site_symmetry_multiplicity
 _atom_site_fract_x
 _atom_site_fract_y
 _atom_site_fract_z
 _atom_site_occupancy
  Er  Er0  1  0.000000  0.246280  0.220056  1
  Er  Er1  1  0.000000  0.753720  0.779944  1
  Er  Er2  1  0.000000  0.253720  0.720056  1
  Er  Er3  1  0.000000  0.746280  0.279944  1
  Sc  Sc4  1  0.000000  0.113805  0.409880  1
  Sc  Sc5  1  0.000000  0.886195  0.590120  1
  Sc  Sc6  1  0.000000  0.386195  0.909880  1
  Sc  Sc7  1  0.000000  0.613805  0.090120  1
  Sc  Sc8  1  0.000000  0.000000  0.000000  1
  Sc  Sc9  1  0.000000  0.500000  0.500000  1
  In  In10  1  0.500000  0.420863  0.352246  1
  In  In11  1  0.500000  0.579137  0.647754  1
  In  In12  1  0.500000  0.079137  0.852246  1
  In  In13  1  0.500000  0.920863  0.147754  1
  In  In14  1  0.500000  0.298070  0.062469  1
  In  In15  1  0.500000  0.701930  0.937531  1
  In  In16  1  0.500000  0.201930  0.562469  1
  In  In17  1  0.500000  0.798070  0.437531  1
  Co  Co18  1  0.500000  0.029687  0.307847  1
  Co  Co19  1  0.500000  0.970313  0.692153  1
  Co  Co20  1  0.500000  0.470313  0.807847  1
  Co  Co21  1  0.500000  0.529687  0.192153  1
