# generated using pymatgen
data_Eu2NiH4
_symmetry_space_group_name_H-M   'P 1'
_cell_length_a   5.23781600
_cell_length_b   7.24103700
_cell_length_c   9.21809100
_cell_angle_alpha   90.00000000
_cell_angle_beta   90.00000000
_cell_angle_gamma   90.00000000
_symmetry_Int_Tables_number   1
_chemical_formula_structural   Eu2NiH4
_chemical_formula_sum   'Eu8 Ni4 H16'
_cell_volume   349.61656031
_cell_formula_units_Z   4
loop_
 _symmetry_equiv_pos_site_id
 _symmetry_equiv_pos_as_xyz
  1  'x, y, z'
loop_
 _atom_site_type_symbol
 _atom_site_label
 _atom_site_symmetry_multiplicity
 _atom_site_fract_x
 _atom_site_fract_y
 _atom_site_fract_z
 _atom_site_occupancy
  Eu  Eu0  1  0.250000  0.146225  0.596038  1
  Eu  Eu1  1  0.250000  0.646225  0.903962  1
  Eu  Eu2  1  0.750000  0.853775  0.403962  1
  Eu  Eu3  1  0.750000  0.353775  0.096038  1
  Eu  Eu4  1  0.250000  0.490055  0.334627  1
  Eu  Eu5  1  0.250000  0.990055  0.165373  1
  Eu  Eu6  1  0.750000  0.509945  0.665373  1
  Eu  Eu7  1  0.750000  0.009945  0.834627  1
  Ni  Ni8  1  0.250000  0.241228  0.917885  1
  Ni  Ni9  1  0.250000  0.741228  0.582115  1
  Ni  Ni10  1  0.750000  0.758772  0.082115  1
  Ni  Ni11  1  0.750000  0.258772  0.417885  1
  H  H12  1  0.507296  0.321627  0.843640  1
  H  H13  1  0.992704  0.821627  0.656360  1
  H  H14  1  0.007296  0.678373  0.156360  1
  H  H15  1  0.492704  0.178373  0.343640  1
  H  H16  1  0.492704  0.678373  0.156360  1
  H  H17  1  0.007296  0.178373  0.343640  1
  H  H18  1  0.992704  0.321627  0.843640  1
  H  H19  1  0.507296  0.821627  0.656360  1
  H  H20  1  0.250000  0.018043  0.891519  1
  H  H21  1  0.250000  0.518043  0.608481  1
  H  H22  1  0.750000  0.981957  0.108481  1
  H  H23  1  0.750000  0.481957  0.391519  1
  H  H24  1  0.250000  0.326317  0.082886  1
  H  H25  1  0.250000  0.826317  0.417114  1
  H  H26  1  0.750000  0.673683  0.917114  1
  H  H27  1  0.750000  0.173683  0.582886  1
