# generated using pymatgen
data_Tm3Mg2PaNi4
_symmetry_space_group_name_H-M   'P 1'
_cell_length_a   7.42110811
_cell_length_b   7.42110811
_cell_length_c   3.53540100
_cell_angle_alpha   90.00000000
_cell_angle_beta   90.00000000
_cell_angle_gamma   91.96504810
_symmetry_Int_Tables_number   1
_chemical_formula_structural   Tm3Mg2PaNi4
_chemical_formula_sum   'Tm3 Mg2 Pa1 Ni4'
_cell_volume   194.59009363
_cell_formula_units_Z   1
loop_
 _symmetry_equiv_pos_site_id
 _symmetry_equiv_pos_as_xyz
  1  'x, y, z'
loop_
 _atom_site_type_symbol
 _atom_site_label
 _atom_site_symmetry_multiplicity
 _atom_site_fract_x
 _atom_site_fract_y
 _atom_site_fract_z
 _atom_site_occupancy
  Tm  Tm0  1  0.328136  0.828136  0.500000  1
  Tm  Tm1  1  0.168740  0.333685  0.500000  1
  Tm  Tm2  1  0.833685  0.668740  0.500000  1
  Mg  Mg3  1  0.004694  0.998814  0.000000  1
  Mg  Mg4  1  0.498814  0.504694  0.000000  1
  Pa  Pa5  1  0.666272  0.166272  0.500000  1
  Ni  Ni6  1  0.116660  0.616660  0.000000  1
  Ni  Ni7  1  0.860560  0.360560  0.000000  1
  Ni  Ni8  1  0.631148  0.891291  0.000000  1
  Ni  Ni9  1  0.391291  0.131148  0.000000  1
