# generated using pymatgen
data_Hf18TiV(Re3B)2
_symmetry_space_group_name_H-M   'P 1'
_cell_length_a   8.50074800
_cell_length_b   8.50074774
_cell_length_c   8.46905400
_cell_angle_alpha   90.00000000
_cell_angle_beta   90.00000000
_cell_angle_gamma   119.99999322
_symmetry_Int_Tables_number   1
_chemical_formula_structural   Hf18TiV(Re3B)2
_chemical_formula_sum   'Hf18 Ti1 V1 Re6 B2'
_cell_volume   530.00483825
_cell_formula_units_Z   1
loop_
 _symmetry_equiv_pos_site_id
 _symmetry_equiv_pos_as_xyz
  1  'x, y, z'
loop_
 _atom_site_type_symbol
 _atom_site_label
 _atom_site_symmetry_multiplicity
 _atom_site_fract_x
 _atom_site_fract_y
 _atom_site_fract_z
 _atom_site_occupancy
  Hf  Hf0  1  0.201168  0.798832  0.444055  1
  Hf  Hf1  1  0.201168  0.402336  0.444055  1
  Hf  Hf2  1  0.597664  0.798832  0.444055  1
  Hf  Hf3  1  0.798832  0.201168  0.555945  1
  Hf  Hf4  1  0.798832  0.597664  0.555945  1
  Hf  Hf5  1  0.402336  0.201168  0.555945  1
  Hf  Hf6  1  0.798443  0.201557  0.943772  1
  Hf  Hf7  1  0.798443  0.596887  0.943772  1
  Hf  Hf8  1  0.403113  0.201557  0.943772  1
  Hf  Hf9  1  0.201557  0.798443  0.056228  1
  Hf  Hf10  1  0.201557  0.403113  0.056228  1
  Hf  Hf11  1  0.596887  0.798443  0.056228  1
  Hf  Hf12  1  0.541290  0.458710  0.249898  1
  Hf  Hf13  1  0.541290  0.082578  0.249898  1
  Hf  Hf14  1  0.917422  0.458710  0.249898  1
  Hf  Hf15  1  0.458710  0.541290  0.750102  1
  Hf  Hf16  1  0.458710  0.917422  0.750102  1
  Hf  Hf17  1  0.082578  0.541290  0.750102  1
  Ti  Ti18  1  0.000000  0.000000  0.000000  1
  V  V19  1  0.000000  0.000000  0.500000  1
  Re  Re20  1  0.888767  0.111233  0.252685  1
  Re  Re21  1  0.888767  0.777533  0.252685  1
  Re  Re22  1  0.222467  0.111233  0.252685  1
  Re  Re23  1  0.111233  0.888767  0.747315  1
  Re  Re24  1  0.111233  0.222467  0.747315  1
  Re  Re25  1  0.777533  0.888767  0.747315  1
  B  B26  1  0.333333  0.666667  0.250450  1
  B  B27  1  0.666667  0.333333  0.749550  1
