# generated using pymatgen
data_TbPa(Al3Rh)3
_symmetry_space_group_name_H-M   'P 1'
_cell_length_a   7.60810159
_cell_length_b   7.60722733
_cell_length_c   9.37746100
_cell_angle_alpha   90.00000000
_cell_angle_beta   90.00000000
_cell_angle_gamma   119.59712106
_symmetry_Int_Tables_number   1
_chemical_formula_structural   TbPa(Al3Rh)3
_chemical_formula_sum   'Tb2 Pa2 Al18 Rh6'
_cell_volume   471.91894735
_cell_formula_units_Z   2
loop_
 _symmetry_equiv_pos_site_id
 _symmetry_equiv_pos_as_xyz
  1  'x, y, z'
loop_
 _atom_site_type_symbol
 _atom_site_label
 _atom_site_symmetry_multiplicity
 _atom_site_fract_x
 _atom_site_fract_y
 _atom_site_fract_z
 _atom_site_occupancy
  Tb  Tb0  1  0.670408  0.993670  0.250000  1
  Tb  Tb1  1  0.329592  0.006330  0.750000  1
  Pa  Pa2  1  0.996750  0.671293  0.250000  1
  Pa  Pa3  1  0.003250  0.328707  0.750000  1
  Al  Al4  1  0.129929  0.126844  0.250000  1
  Al  Al5  1  0.870071  0.873156  0.750000  1
  Al  Al6  1  0.000553  0.332724  0.077155  1
  Al  Al7  1  0.999447  0.667276  0.922845  1
  Al  Al8  1  0.999447  0.667276  0.577155  1
  Al  Al9  1  0.337617  0.002683  0.424836  1
  Al  Al10  1  0.000553  0.332724  0.422845  1
  Al  Al11  1  0.662383  0.997317  0.575164  1
  Al  Al12  1  0.662383  0.997317  0.924836  1
  Al  Al13  1  0.337617  0.002683  0.075164  1
  Al  Al14  1  0.334572  0.333219  0.551863  1
  Al  Al15  1  0.665428  0.666781  0.448137  1
  Al  Al16  1  0.665428  0.666781  0.051863  1
  Al  Al17  1  0.334572  0.333219  0.948137  1
  Al  Al18  1  0.339751  0.549113  0.250000  1
  Al  Al19  1  0.660249  0.450887  0.750000  1
  Al  Al20  1  0.550288  0.342183  0.250000  1
  Al  Al21  1  0.449712  0.657817  0.750000  1
  Rh  Rh22  1  0.674708  0.329514  0.999808  1
  Rh  Rh23  1  0.325292  0.670486  0.000192  1
  Rh  Rh24  1  0.325292  0.670486  0.499808  1
  Rh  Rh25  1  0.674708  0.329514  0.500192  1
  Rh  Rh26  1  0.000000  0.000000  0.000000  1
  Rh  Rh27  1  0.000000  0.000000  0.500000  1
