# generated using pymatgen
data_Tm3Al12(RePt)2
_symmetry_space_group_name_H-M   'P 1'
_cell_length_a   8.91101356
_cell_length_b   8.81106022
_cell_length_c   9.59279700
_cell_angle_alpha   90.00000000
_cell_angle_beta   90.00000000
_cell_angle_gamma   119.62963652
_symmetry_Int_Tables_number   1
_chemical_formula_structural   Tm3Al12(RePt)2
_chemical_formula_sum   'Tm6 Al24 Re4 Pt4'
_cell_volume   654.69630677
_cell_formula_units_Z   2
loop_
 _symmetry_equiv_pos_site_id
 _symmetry_equiv_pos_as_xyz
  1  'x, y, z'
loop_
 _atom_site_type_symbol
 _atom_site_label
 _atom_site_symmetry_multiplicity
 _atom_site_fract_x
 _atom_site_fract_y
 _atom_site_fract_z
 _atom_site_occupancy
  Tm  Tm0  1  0.184993  0.388977  0.250000  1
  Tm  Tm1  1  0.815007  0.611023  0.750000  1
  Tm  Tm2  1  0.620065  0.810033  0.250000  1
  Tm  Tm3  1  0.379935  0.189967  0.750000  1
  Tm  Tm4  1  0.184993  0.796017  0.250000  1
  Tm  Tm5  1  0.815007  0.203983  0.750000  1
  Al  Al6  1  0.330549  0.665275  0.029578  1
  Al  Al7  1  0.669451  0.334725  0.970422  1
  Al  Al8  1  0.669451  0.334725  0.529578  1
  Al  Al9  1  0.330549  0.665275  0.470422  1
  Al  Al10  1  0.160001  0.326296  0.577358  1
  Al  Al11  1  0.839999  0.673704  0.422642  1
  Al  Al12  1  0.677248  0.838623  0.579227  1
  Al  Al13  1  0.839999  0.673704  0.077358  1
  Al  Al14  1  0.322752  0.161377  0.420773  1
  Al  Al15  1  0.160001  0.326296  0.922642  1
  Al  Al16  1  0.160001  0.833705  0.577358  1
  Al  Al17  1  0.322752  0.161377  0.079227  1
  Al  Al18  1  0.839999  0.166295  0.422642  1
  Al  Al19  1  0.677248  0.838623  0.920773  1
  Al  Al20  1  0.839999  0.166295  0.077358  1
  Al  Al21  1  0.160001  0.833705  0.922642  1
  Al  Al22  1  0.562997  0.125407  0.250000  1
  Al  Al23  1  0.437003  0.874593  0.750000  1
  Al  Al24  1  0.871242  0.435620  0.250000  1
  Al  Al25  1  0.128758  0.564380  0.750000  1
  Al  Al26  1  0.562997  0.437591  0.250000  1
  Al  Al27  1  0.437003  0.562409  0.750000  1
  Al  Al28  1  0.998460  0.999231  0.250000  1
  Al  Al29  1  0.001540  0.000769  0.750000  1
  Re  Re30  1  0.000000  0.500000  0.000000  1
  Re  Re31  1  0.000000  0.500000  0.500000  1
  Re  Re32  1  0.000000  0.000000  0.000000  1
  Re  Re33  1  0.000000  0.000000  0.500000  1
  Pt  Pt34  1  0.500000  0.000000  0.000000  1
  Pt  Pt35  1  0.500000  0.000000  0.500000  1
  Pt  Pt36  1  0.500000  0.500000  0.000000  1
  Pt  Pt37  1  0.500000  0.500000  0.500000  1
