# generated using pymatgen
data_Pu4Nb3WN8
_symmetry_space_group_name_H-M   'P 1'
_cell_length_a   3.28908400
_cell_length_b   5.68254209
_cell_length_c   10.85998709
_cell_angle_alpha   90.01748082
_cell_angle_beta   90.00000000
_cell_angle_gamma   90.00000000
_symmetry_Int_Tables_number   1
_chemical_formula_structural   Pu4Nb3WN8
_chemical_formula_sum   'Pu4 Nb3 W1 N8'
_cell_volume   202.97703996
_cell_formula_units_Z   1
loop_
 _symmetry_equiv_pos_site_id
 _symmetry_equiv_pos_as_xyz
  1  'x, y, z'
loop_
 _atom_site_type_symbol
 _atom_site_label
 _atom_site_symmetry_multiplicity
 _atom_site_fract_x
 _atom_site_fract_y
 _atom_site_fract_z
 _atom_site_occupancy
  Pu  Pu0  1  0.250000  0.080140  0.856918  1
  Pu  Pu1  1  0.250000  0.577108  0.641377  1
  Pu  Pu2  1  0.750000  0.921817  0.141572  1
  Pu  Pu3  1  0.750000  0.421744  0.358986  1
  Nb  Nb4  1  0.250000  0.421863  0.100417  1
  Nb  Nb5  1  0.250000  0.923381  0.402202  1
  Nb  Nb6  1  0.750000  0.578771  0.897097  1
  W  W7  1  0.750000  0.075780  0.601547  1
  N  N8  1  0.250000  0.158088  0.245879  1
  N  N9  1  0.250000  0.659435  0.256795  1
  N  N10  1  0.750000  0.845395  0.750611  1
  N  N11  1  0.750000  0.337280  0.741525  1
  N  N12  1  0.250000  0.760328  0.993669  1
  N  N13  1  0.250000  0.256098  0.509757  1
  N  N14  1  0.750000  0.241687  0.004585  1
  N  N15  1  0.750000  0.741085  0.497063  1
