# generated using pymatgen
data_Tb13LuTh2(CdNi)4
_symmetry_space_group_name_H-M   'P 1'
_cell_length_a   9.60308545
_cell_length_b   9.59881157
_cell_length_c   9.61917300
_cell_angle_alpha   59.92979460
_cell_angle_beta   59.94455743
_cell_angle_gamma   59.80620070
_symmetry_Int_Tables_number   1
_chemical_formula_structural   Tb13LuTh2(CdNi)4
_chemical_formula_sum   'Tb13 Lu1 Th2 Cd4 Ni4'
_cell_volume   625.45924096
_cell_formula_units_Z   1
loop_
 _symmetry_equiv_pos_site_id
 _symmetry_equiv_pos_as_xyz
  1  'x, y, z'
loop_
 _atom_site_type_symbol
 _atom_site_label
 _atom_site_symmetry_multiplicity
 _atom_site_fract_x
 _atom_site_fract_y
 _atom_site_fract_z
 _atom_site_occupancy
  Tb  Tb0  1  0.951774  0.347504  0.350361  1
  Tb  Tb1  1  0.811531  0.190224  0.187868  1
  Tb  Tb2  1  0.190163  0.811868  0.809304  1
  Tb  Tb3  1  0.190163  0.811868  0.188666  1
  Tb  Tb4  1  0.811531  0.190224  0.810378  1
  Tb  Tb5  1  0.189909  0.189581  0.810255  1
  Tb  Tb6  1  0.810609  0.811614  0.188889  1
  Tb  Tb7  1  0.937228  0.564189  0.565866  1
  Tb  Tb8  1  0.564380  0.937007  0.933208  1
  Tb  Tb9  1  0.564380  0.937007  0.565404  1
  Tb  Tb10  1  0.937228  0.564189  0.932716  1
  Tb  Tb11  1  0.563956  0.564066  0.935989  1
  Tb  Tb12  1  0.936178  0.935621  0.564100  1
  Lu  Lu13  1  0.347759  0.953752  0.349245  1
  Th  Th14  1  0.343648  0.342449  0.350346  1
  Th  Th15  1  0.343648  0.342449  0.963556  1
  Cd  Cd16  1  0.581060  0.583334  0.579319  1
  Cd  Cd17  1  0.581060  0.583334  0.256285  1
  Cd  Cd18  1  0.582458  0.256599  0.580471  1
  Cd  Cd19  1  0.256540  0.584182  0.579638  1
  Ni  Ni20  1  0.144569  0.142204  0.142432  1
  Ni  Ni21  1  0.144569  0.142204  0.570796  1
  Ni  Ni22  1  0.147102  0.569118  0.141890  1
  Ni  Ni23  1  0.568557  0.145412  0.143016  1
