# generated using pymatgen
data_CaLu3(B6Ru)2
_symmetry_space_group_name_H-M   'P 1'
_cell_length_a   3.60126800
_cell_length_b   9.06469321
_cell_length_c   11.45712507
_cell_angle_alpha   89.85565190
_cell_angle_beta   90.00000000
_cell_angle_gamma   90.00000000
_symmetry_Int_Tables_number   1
_chemical_formula_structural   CaLu3(B6Ru)2
_chemical_formula_sum   'Ca2 Lu6 B24 Ru4'
_cell_volume   374.00966729
_cell_formula_units_Z   2
loop_
 _symmetry_equiv_pos_site_id
 _symmetry_equiv_pos_as_xyz
  1  'x, y, z'
loop_
 _atom_site_type_symbol
 _atom_site_label
 _atom_site_symmetry_multiplicity
 _atom_site_fract_x
 _atom_site_fract_y
 _atom_site_fract_z
 _atom_site_occupancy
  Ca  Ca0  1  0.000000  0.323675  0.414485  1
  Ca  Ca1  1  0.000000  0.676325  0.585515  1
  Lu  Lu2  1  0.000000  0.821997  0.086215  1
  Lu  Lu3  1  0.000000  0.178003  0.913785  1
  Lu  Lu4  1  0.000000  0.942381  0.369586  1
  Lu  Lu5  1  0.000000  0.057619  0.630414  1
  Lu  Lu6  1  0.000000  0.442996  0.129672  1
  Lu  Lu7  1  0.000000  0.557004  0.870328  1
  B  B8  1  0.500000  0.554631  0.431746  1
  B  B9  1  0.500000  0.445369  0.568254  1
  B  B10  1  0.500000  0.053338  0.065806  1
  B  B11  1  0.500000  0.946662  0.934194  1
  B  B12  1  0.500000  0.749684  0.417268  1
  B  B13  1  0.500000  0.250316  0.582732  1
  B  B14  1  0.500000  0.248975  0.079856  1
  B  B15  1  0.500000  0.751025  0.920144  1
  B  B16  1  0.500000  0.792773  0.263476  1
  B  B17  1  0.500000  0.207227  0.736524  1
  B  B18  1  0.500000  0.290775  0.233094  1
  B  B19  1  0.500000  0.709225  0.766906  1
  B  B20  1  0.500000  0.631726  0.183601  1
  B  B21  1  0.500000  0.368274  0.816399  1
  B  B22  1  0.500000  0.129807  0.313552  1
  B  B23  1  0.500000  0.870193  0.686448  1
  B  B24  1  0.500000  0.981885  0.211124  1
  B  B25  1  0.500000  0.018115  0.788876  1
  B  B26  1  0.500000  0.483722  0.286538  1
  B  B27  1  0.500000  0.516278  0.713462  1
  B  B28  1  0.500000  0.603339  0.028302  1
  B  B29  1  0.500000  0.396661  0.971698  1
  B  B30  1  0.500000  0.097911  0.473005  1
  B  B31  1  0.500000  0.902089  0.526995  1
  Ru  Ru32  1  0.000000  0.641457  0.316767  1
  Ru  Ru33  1  0.000000  0.358543  0.683233  1
  Ru  Ru34  1  0.000000  0.136675  0.177159  1
  Ru  Ru35  1  0.000000  0.863325  0.822841  1
