# generated using pymatgen
data_Tb7(YbIr2)3
_symmetry_space_group_name_H-M   'P 1'
_cell_length_a   10.93322441
_cell_length_b   11.01247800
_cell_length_c   6.30339301
_cell_angle_alpha   90.00000000
_cell_angle_beta   90.23936729
_cell_angle_gamma   90.00000000
_symmetry_Int_Tables_number   1
_chemical_formula_structural   Tb7(YbIr2)3
_chemical_formula_sum   'Tb14 Yb6 Ir12'
_cell_volume   758.93382941
_cell_formula_units_Z   2
loop_
 _symmetry_equiv_pos_site_id
 _symmetry_equiv_pos_as_xyz
  1  'x, y, z'
loop_
 _atom_site_type_symbol
 _atom_site_label
 _atom_site_symmetry_multiplicity
 _atom_site_fract_x
 _atom_site_fract_y
 _atom_site_fract_z
 _atom_site_occupancy
  Tb  Tb0  1  0.709417  0.088358  0.883053  1
  Tb  Tb1  1  0.709417  0.911642  0.383053  1
  Tb  Tb2  1  0.587390  0.791967  0.881201  1
  Tb  Tb3  1  0.587390  0.208033  0.381201  1
  Tb  Tb4  1  0.408903  0.792780  0.383052  1
  Tb  Tb5  1  0.408903  0.207220  0.883052  1
  Tb  Tb6  1  0.211259  0.411560  0.620248  1
  Tb  Tb7  1  0.211259  0.588440  0.120248  1
  Tb  Tb8  1  0.790256  0.410293  0.117850  1
  Tb  Tb9  1  0.790256  0.589707  0.617850  1
  Tb  Tb10  1  0.911717  0.709807  0.120285  1
  Tb  Tb11  1  0.911717  0.290193  0.620285  1
  Tb  Tb12  1  0.090300  0.710039  0.620075  1
  Tb  Tb13  1  0.090300  0.289961  0.120075  1
  Yb  Yb14  1  0.289017  0.088031  0.377338  1
  Yb  Yb15  1  0.289017  0.911969  0.877338  1
  Yb  Yb16  1  0.002105  0.999816  0.499193  1
  Yb  Yb17  1  0.002105  0.000184  0.999193  1
  Yb  Yb18  1  0.500160  0.499983  0.996879  1
  Yb  Yb19  1  0.500160  0.500017  0.496879  1
  Ir  Ir20  1  0.844507  0.158297  0.250701  1
  Ir  Ir21  1  0.844507  0.841703  0.750701  1
  Ir  Ir22  1  0.152710  0.164900  0.750802  1
  Ir  Ir23  1  0.152710  0.835100  0.250802  1
  Ir  Ir24  1  0.656437  0.341201  0.749599  1
  Ir  Ir25  1  0.656437  0.658799  0.249599  1
  Ir  Ir26  1  0.342372  0.347492  0.245883  1
  Ir  Ir27  1  0.342372  0.652508  0.745883  1
  Ir  Ir28  1  0.503698  0.000279  0.122096  1
  Ir  Ir29  1  0.503698  0.999721  0.622096  1
  Ir  Ir30  1  0.999749  0.500015  0.881744  1
  Ir  Ir31  1  0.999749  0.499985  0.381744  1
