# generated using pymatgen
data_Th6GaSn5Rh6
_symmetry_space_group_name_H-M   'P 1'
_cell_length_a   7.51201900
_cell_length_b   7.52975646
_cell_length_c   8.26046928
_cell_angle_alpha   90.03461326
_cell_angle_beta   90.00000000
_cell_angle_gamma   119.92210194
_symmetry_Int_Tables_number   1
_chemical_formula_structural   Th6GaSn5Rh6
_chemical_formula_sum   'Th6 Ga1 Sn5 Rh6'
_cell_volume   404.96101802
_cell_formula_units_Z   1
loop_
 _symmetry_equiv_pos_site_id
 _symmetry_equiv_pos_as_xyz
  1  'x, y, z'
loop_
 _atom_site_type_symbol
 _atom_site_label
 _atom_site_symmetry_multiplicity
 _atom_site_fract_x
 _atom_site_fract_y
 _atom_site_fract_z
 _atom_site_occupancy
  Th  Th0  1  0.579840  0.999415  0.756074  1
  Th  Th1  1  0.414033  0.409388  0.752617  1
  Th  Th2  1  0.004975  0.590924  0.752561  1
  Th  Th3  1  0.580424  0.000585  0.243926  1
  Th  Th4  1  0.414050  0.409076  0.247439  1
  Th  Th5  1  0.004646  0.590612  0.247383  1
  Ga  Ga6  1  0.248900  0.000000  0.000000  1
  Sn  Sn7  1  0.748087  0.750815  0.499830  1
  Sn  Sn8  1  0.997272  0.249185  0.500170  1
  Sn  Sn9  1  0.002737  0.247429  0.999887  1
  Sn  Sn10  1  0.755309  0.752571  0.000113  1
  Sn  Sn11  1  0.250669  0.000000  0.500000  1
  Rh  Rh12  1  0.660699  0.329107  0.999585  1
  Rh  Rh13  1  0.663981  0.333167  0.501452  1
  Rh  Rh14  1  0.331590  0.670893  0.000415  1
  Rh  Rh15  1  0.330813  0.666833  0.498548  1
  Rh  Rh16  1  0.005841  0.999707  0.751172  1
  Rh  Rh17  1  0.006134  0.000293  0.248828  1
