# generated using pymatgen
data_Pr(AuF4)3
_symmetry_space_group_name_H-M   'P 1'
_cell_length_a   8.29450527
_cell_length_b   8.29450508
_cell_length_c   8.29450468
_cell_angle_alpha   80.32179453
_cell_angle_beta   80.32179392
_cell_angle_gamma   80.32180303
_symmetry_Int_Tables_number   1
_chemical_formula_structural   Pr(AuF4)3
_chemical_formula_sum   'Pr2 Au6 F24'
_cell_volume   548.75115486
_cell_formula_units_Z   2
loop_
 _symmetry_equiv_pos_site_id
 _symmetry_equiv_pos_as_xyz
  1  'x, y, z'
loop_
 _atom_site_type_symbol
 _atom_site_label
 _atom_site_symmetry_multiplicity
 _atom_site_fract_x
 _atom_site_fract_y
 _atom_site_fract_z
 _atom_site_occupancy
  Pr  Pr0  1  0.250000  0.250000  0.250000  1
  Pr  Pr1  1  0.750000  0.750000  0.750000  1
  Au  Au2  1  0.161357  0.338643  0.750000  1
  Au  Au3  1  0.250000  0.838643  0.661357  1
  Au  Au4  1  0.661357  0.250000  0.838643  1
  Au  Au5  1  0.838643  0.661357  0.250000  1
  Au  Au6  1  0.338643  0.750000  0.161357  1
  Au  Au7  1  0.750000  0.161357  0.338643  1
  F  F8  1  0.506961  0.195682  0.373506  1
  F  F9  1  0.373506  0.506961  0.195682  1
  F  F10  1  0.195682  0.373506  0.506961  1
  F  F11  1  0.993039  0.126494  0.304318  1
  F  F12  1  0.304318  0.993039  0.126494  1
  F  F13  1  0.126494  0.304318  0.993039  1
  F  F14  1  0.493039  0.804318  0.626494  1
  F  F15  1  0.626494  0.493039  0.804318  1
  F  F16  1  0.024527  0.475473  0.250000  1
  F  F17  1  0.475473  0.250000  0.024527  1
  F  F18  1  0.250000  0.024527  0.475473  1
  F  F19  1  0.975473  0.524527  0.750000  1
  F  F20  1  0.524527  0.750000  0.975473  1
  F  F21  1  0.750000  0.975473  0.524527  1
  F  F22  1  0.657713  0.842287  0.250000  1
  F  F23  1  0.842287  0.250000  0.657713  1
  F  F24  1  0.250000  0.657713  0.842287  1
  F  F25  1  0.342287  0.157713  0.750000  1
  F  F26  1  0.157713  0.750000  0.342287  1
  F  F27  1  0.750000  0.342287  0.157713  1
  F  F28  1  0.873506  0.695682  0.006961  1
  F  F29  1  0.695682  0.006961  0.873506  1
  F  F30  1  0.006961  0.873506  0.695682  1
  F  F31  1  0.804318  0.626494  0.493039  1
