# generated using pymatgen
data_Dy8Th4TcOs3
_symmetry_space_group_name_H-M   'P 1'
_cell_length_a   6.37825220
_cell_length_b   7.31091026
_cell_length_c   9.50794400
_cell_angle_alpha   90.00000000
_cell_angle_beta   90.00000000
_cell_angle_gamma   89.94949191
_symmetry_Int_Tables_number   1
_chemical_formula_structural   Dy8Th4TcOs3
_chemical_formula_sum   'Dy8 Th4 Tc1 Os3'
_cell_volume   443.36314307
_cell_formula_units_Z   1
loop_
 _symmetry_equiv_pos_site_id
 _symmetry_equiv_pos_as_xyz
  1  'x, y, z'
loop_
 _atom_site_type_symbol
 _atom_site_label
 _atom_site_symmetry_multiplicity
 _atom_site_fract_x
 _atom_site_fract_y
 _atom_site_fract_z
 _atom_site_occupancy
  Dy  Dy0  1  0.334909  0.673409  0.065600  1
  Dy  Dy1  1  0.168782  0.176380  0.433447  1
  Dy  Dy2  1  0.666100  0.325525  0.565641  1
  Dy  Dy3  1  0.835922  0.825058  0.932379  1
  Dy  Dy4  1  0.666100  0.325525  0.934359  1
  Dy  Dy5  1  0.835922  0.825058  0.567621  1
  Dy  Dy6  1  0.334909  0.673409  0.434400  1
  Dy  Dy7  1  0.168782  0.176380  0.066553  1
  Th  Th8  1  0.854169  0.550018  0.250000  1
  Th  Th9  1  0.648287  0.044585  0.250000  1
  Th  Th10  1  0.150110  0.454219  0.750000  1
  Th  Th11  1  0.351556  0.954884  0.750000  1
  Tc  Tc12  1  0.017488  0.868170  0.250000  1
  Os  Os13  1  0.466725  0.373550  0.250000  1
  Os  Os14  1  0.962929  0.127525  0.750000  1
  Os  Os15  1  0.537312  0.626304  0.750000  1
