# generated using pymatgen
data_Lu12Mn2InFeAg
_symmetry_space_group_name_H-M   'P 1'
_cell_length_a   8.15383718
_cell_length_b   8.15369082
_cell_length_c   8.15383601
_cell_angle_alpha   110.15379098
_cell_angle_beta   106.58632410
_cell_angle_gamma   111.71635872
_symmetry_Int_Tables_number   1
_chemical_formula_structural   Lu12Mn2InFeAg
_chemical_formula_sum   'Lu12 Mn2 In1 Fe1 Ag1'
_cell_volume   416.43331537
_cell_formula_units_Z   1
loop_
 _symmetry_equiv_pos_site_id
 _symmetry_equiv_pos_as_xyz
  1  'x, y, z'
loop_
 _atom_site_type_symbol
 _atom_site_label
 _atom_site_symmetry_multiplicity
 _atom_site_fract_x
 _atom_site_fract_y
 _atom_site_fract_z
 _atom_site_occupancy
  Lu  Lu0  1  0.310504  0.308337  0.618788  1
  Lu  Lu1  1  0.689496  0.691663  0.381212  1
  Lu  Lu2  1  0.689549  0.308337  0.997832  1
  Lu  Lu3  1  0.310451  0.691663  0.002168  1
  Lu  Lu4  1  0.191309  0.438936  0.247626  1
  Lu  Lu5  1  0.808691  0.561064  0.752374  1
  Lu  Lu6  1  0.191290  0.943664  0.752374  1
  Lu  Lu7  1  0.960471  0.188167  0.772293  1
  Lu  Lu8  1  0.808710  0.056336  0.247626  1
  Lu  Lu9  1  0.039529  0.811833  0.227707  1
  Lu  Lu10  1  0.415875  0.188167  0.227695  1
  Lu  Lu11  1  0.584125  0.811833  0.772305  1
  Mn  Mn12  1  0.382718  0.382708  0.999989  1
  Mn  Mn13  1  0.617282  0.617292  0.000011  1
  In  In14  1  0.500000  0.000000  0.500000  1
  Fe  Fe15  1  0.000000  0.000000  0.000000  1
  Ag  Ag16  1  0.000000  0.500000  0.500000  1
