# generated using pymatgen
data_YHo5Be2(SiIr3)4
_symmetry_space_group_name_H-M   'P 1'
_cell_length_a   5.53597800
_cell_length_b   5.53597800
_cell_length_c   14.94299300
_cell_angle_alpha   90.00000000
_cell_angle_beta   90.00000000
_cell_angle_gamma   120.00001198
_symmetry_Int_Tables_number   1
_chemical_formula_structural   YHo5Be2(SiIr3)4
_chemical_formula_sum   'Y1 Ho5 Be2 Si4 Ir12'
_cell_volume   396.60381098
_cell_formula_units_Z   1
loop_
 _symmetry_equiv_pos_site_id
 _symmetry_equiv_pos_as_xyz
  1  'x, y, z'
loop_
 _atom_site_type_symbol
 _atom_site_label
 _atom_site_symmetry_multiplicity
 _atom_site_fract_x
 _atom_site_fract_y
 _atom_site_fract_z
 _atom_site_occupancy
  Y  Y0  1  0.666667  0.333333  0.250000  1
  Ho  Ho1  1  0.333333  0.666667  0.538473  1
  Ho  Ho2  1  0.666667  0.333333  0.461658  1
  Ho  Ho3  1  0.666667  0.333333  0.038342  1
  Ho  Ho4  1  0.333333  0.666667  0.961527  1
  Ho  Ho5  1  0.333333  0.666667  0.750000  1
  Be  Be6  1  0.000000  0.000000  0.250000  1
  Be  Be7  1  0.000000  0.000000  0.750000  1
  Si  Si8  1  0.333333  0.666667  0.250000  1
  Si  Si9  1  0.666667  0.333333  0.750000  1
  Si  Si10  1  0.000000  0.000000  0.000002  1
  Si  Si11  1  0.000000  0.000000  0.499998  1
  Ir  Ir12  1  0.164958  0.329917  0.131414  1
  Ir  Ir13  1  0.835031  0.670062  0.868430  1
  Ir  Ir14  1  0.670083  0.835042  0.131414  1
  Ir  Ir15  1  0.835031  0.670062  0.631570  1
  Ir  Ir16  1  0.329938  0.164969  0.868430  1
  Ir  Ir17  1  0.164958  0.329917  0.368586  1
  Ir  Ir18  1  0.164958  0.835042  0.131414  1
  Ir  Ir19  1  0.329938  0.164969  0.631570  1
  Ir  Ir20  1  0.835031  0.164969  0.868430  1
  Ir  Ir21  1  0.670083  0.835042  0.368586  1
  Ir  Ir22  1  0.835031  0.164969  0.631570  1
  Ir  Ir23  1  0.164958  0.835042  0.368586  1
