# generated using pymatgen
data_DyTm5Lu2(WO6)4
_symmetry_space_group_name_H-M   'P 1'
_cell_length_a   5.33897300
_cell_length_b   7.63604307
_cell_length_c   11.34686742
_cell_angle_alpha   75.28020613
_cell_angle_beta   89.99929304
_cell_angle_gamma   90.00437546
_symmetry_Int_Tables_number   1
_chemical_formula_structural   DyTm5Lu2(WO6)4
_chemical_formula_sum   'Dy1 Tm5 Lu2 W4 O24'
_cell_volume   447.41381954
_cell_formula_units_Z   1
loop_
 _symmetry_equiv_pos_site_id
 _symmetry_equiv_pos_as_xyz
  1  'x, y, z'
loop_
 _atom_site_type_symbol
 _atom_site_label
 _atom_site_symmetry_multiplicity
 _atom_site_fract_x
 _atom_site_fract_y
 _atom_site_fract_z
 _atom_site_occupancy
  Dy  Dy0  1  0.315397  0.500510  0.249698  1
  Tm  Tm1  1  0.741640  0.999616  0.749810  1
  Tm  Tm2  1  0.257163  0.999438  0.249803  1
  Tm  Tm3  1  0.684776  0.500511  0.749733  1
  Tm  Tm4  1  0.181278  0.206152  0.921093  1
  Tm  Tm5  1  0.818291  0.205294  0.421954  1
  Lu  Lu6  1  0.182205  0.792963  0.579626  1
  Lu  Lu7  1  0.817185  0.793759  0.078739  1
  W  W8  1  0.256819  0.724303  0.884699  1
  W  W9  1  0.743296  0.724967  0.385833  1
  W  W10  1  0.257238  0.276203  0.615444  1
  W  W11  1  0.742827  0.275392  0.114417  1
  O  O12  1  0.044019  0.941410  0.895129  1
  O  O13  1  0.541484  0.844623  0.931211  1
  O  O14  1  0.956711  0.940776  0.396923  1
  O  O15  1  0.457917  0.794080  0.724438  1
  O  O16  1  0.457560  0.844232  0.431426  1
  O  O17  1  0.978448  0.710948  0.769697  1
  O  O18  1  0.542891  0.794923  0.224659  1
  O  O19  1  0.850061  0.635464  0.550710  1
  O  O20  1  0.361482  0.489014  0.884336  1
  O  O21  1  0.019803  0.714458  0.269244  1
  O  O22  1  0.360409  0.512357  0.616053  1
  O  O23  1  0.847559  0.365537  0.949344  1
  O  O24  1  0.147730  0.634814  0.048817  1
  O  O25  1  0.642971  0.488761  0.385784  1
  O  O26  1  0.977167  0.288935  0.729050  1
  O  O27  1  0.644053  0.512206  0.114739  1
  O  O28  1  0.150252  0.366250  0.451154  1
  O  O29  1  0.459321  0.206915  0.774949  1
  O  O30  1  0.021047  0.285299  0.229587  1
  O  O31  1  0.540847  0.154758  0.569436  1
  O  O32  1  0.541791  0.205719  0.274787  1
  O  O33  1  0.046771  0.056990  0.604988  1
  O  O34  1  0.457807  0.155091  0.069322  1
  O  O35  1  0.953784  0.057333  0.103368  1
