# generated using pymatgen
data_Li4DyPaS6
_symmetry_space_group_name_H-M   'P 1'
_cell_length_a   6.69543521
_cell_length_b   6.69543442
_cell_length_c   6.52965255
_cell_angle_alpha   99.90448597
_cell_angle_beta   99.90447996
_cell_angle_gamma   119.92067231
_symmetry_Int_Tables_number   1
_chemical_formula_structural   Li4DyPaS6
_chemical_formula_sum   'Li4 Dy1 Pa1 S6'
_cell_volume   238.25613175
_cell_formula_units_Z   1
loop_
 _symmetry_equiv_pos_site_id
 _symmetry_equiv_pos_as_xyz
  1  'x, y, z'
loop_
 _atom_site_type_symbol
 _atom_site_label
 _atom_site_symmetry_multiplicity
 _atom_site_fract_x
 _atom_site_fract_y
 _atom_site_fract_z
 _atom_site_occupancy
  Li  Li0  1  0.500507  0.499493  0.000000  1
  Li  Li1  1  0.001917  0.998084  0.500000  1
  Li  Li2  1  0.665430  0.334568  0.500000  1
  Li  Li3  1  0.334505  0.665493  0.500000  1
  Dy  Dy4  1  0.833222  0.166777  0.000000  1
  Pa  Pa5  1  0.166616  0.833384  0.000000  1
  S  S6  1  0.926020  0.590440  0.245114  1
  S  S7  1  0.574886  0.919963  0.248884  1
  S  S8  1  0.245533  0.238236  0.250923  1
  S  S9  1  0.761766  0.754469  0.749079  1
  S  S10  1  0.080039  0.425115  0.751118  1
  S  S11  1  0.409562  0.073982  0.754888  1
