# generated using pymatgen
data_Pr4ErPb4
_symmetry_space_group_name_H-M   'P 1'
_cell_length_a   8.40167500
_cell_length_b   8.52719100
_cell_length_c   16.27603500
_cell_angle_alpha   90.00000000
_cell_angle_beta   90.00000000
_cell_angle_gamma   90.00000000
_symmetry_Int_Tables_number   1
_chemical_formula_structural   Pr4ErPb4
_chemical_formula_sum   'Pr16 Er4 Pb16'
_cell_volume   1166.05888835
_cell_formula_units_Z   4
loop_
 _symmetry_equiv_pos_site_id
 _symmetry_equiv_pos_as_xyz
  1  'x, y, z'
loop_
 _atom_site_type_symbol
 _atom_site_label
 _atom_site_symmetry_multiplicity
 _atom_site_fract_x
 _atom_site_fract_y
 _atom_site_fract_z
 _atom_site_occupancy
  Pr  Pr0  1  0.376373  0.843474  0.880930  1
  Pr  Pr1  1  0.876373  0.656526  0.619070  1
  Pr  Pr2  1  0.623627  0.156526  0.380930  1
  Pr  Pr3  1  0.123627  0.343474  0.119070  1
  Pr  Pr4  1  0.623627  0.156526  0.119070  1
  Pr  Pr5  1  0.123627  0.343474  0.380930  1
  Pr  Pr6  1  0.376373  0.843474  0.619070  1
  Pr  Pr7  1  0.876373  0.656526  0.880930  1
  Pr  Pr8  1  0.534386  0.321848  0.899754  1
  Pr  Pr9  1  0.034386  0.178152  0.600246  1
  Pr  Pr10  1  0.465614  0.678152  0.399754  1
  Pr  Pr11  1  0.965614  0.821848  0.100246  1
  Pr  Pr12  1  0.465614  0.678152  0.100246  1
  Pr  Pr13  1  0.965614  0.821848  0.399754  1
  Pr  Pr14  1  0.534386  0.321848  0.600246  1
  Pr  Pr15  1  0.034386  0.178152  0.899754  1
  Er  Er16  1  0.210386  0.503585  0.750000  1
  Er  Er17  1  0.710386  0.996415  0.750000  1
  Er  Er18  1  0.789614  0.496415  0.250000  1
  Er  Er19  1  0.289614  0.003585  0.250000  1
  Pb  Pb20  1  0.280979  0.029902  0.047525  1
  Pb  Pb21  1  0.780979  0.470098  0.452475  1
  Pb  Pb22  1  0.719021  0.970098  0.547525  1
  Pb  Pb23  1  0.219021  0.529902  0.952475  1
  Pb  Pb24  1  0.719021  0.970098  0.952475  1
  Pb  Pb25  1  0.219021  0.529902  0.547525  1
  Pb  Pb26  1  0.280979  0.029902  0.452475  1
  Pb  Pb27  1  0.780979  0.470098  0.047525  1
  Pb  Pb28  1  0.571228  0.625269  0.750000  1
  Pb  Pb29  1  0.071228  0.874731  0.750000  1
  Pb  Pb30  1  0.428772  0.374731  0.250000  1
  Pb  Pb31  1  0.928772  0.125269  0.250000  1
  Pb  Pb32  1  0.343545  0.153503  0.750000  1
  Pb  Pb33  1  0.843545  0.346497  0.750000  1
  Pb  Pb34  1  0.656455  0.846497  0.250000  1
  Pb  Pb35  1  0.156455  0.653503  0.250000  1
