# generated using pymatgen
data_Ho8Nb11ReSi16
_symmetry_space_group_name_H-M   'P 1'
_cell_length_a   7.02679967
_cell_length_b   7.03285942
_cell_length_c   13.00832950
_cell_angle_alpha   89.86176170
_cell_angle_beta   89.90758547
_cell_angle_gamma   90.08983189
_symmetry_Int_Tables_number   1
_chemical_formula_structural   Ho8Nb11ReSi16
_chemical_formula_sum   'Ho8 Nb11 Re1 Si16'
_cell_volume   642.84855513
_cell_formula_units_Z   1
loop_
 _symmetry_equiv_pos_site_id
 _symmetry_equiv_pos_as_xyz
  1  'x, y, z'
loop_
 _atom_site_type_symbol
 _atom_site_label
 _atom_site_symmetry_multiplicity
 _atom_site_fract_x
 _atom_site_fract_y
 _atom_site_fract_z
 _atom_site_occupancy
  Ho  Ho0  1  0.998732  0.340699  0.220253  1
  Ho  Ho1  1  0.002259  0.659660  0.716512  1
  Ho  Ho2  1  0.159122  0.499325  0.467504  1
  Ho  Ho3  1  0.500685  0.841724  0.033544  1
  Ho  Ho4  1  0.840428  0.502059  0.967778  1
  Ho  Ho5  1  0.498145  0.157920  0.530718  1
  Ho  Ho6  1  0.340872  0.999385  0.781411  1
  Ho  Ho7  1  0.659268  0.001195  0.282156  1
  Nb  Nb8  1  0.170714  0.171099  0.001044  1
  Nb  Nb9  1  0.828640  0.829707  0.499701  1
  Nb  Nb10  1  0.328192  0.668738  0.250412  1
  Nb  Nb11  1  0.670290  0.329813  0.750177  1
  Nb  Nb12  1  0.845729  0.007270  0.875506  1
  Nb  Nb13  1  0.505092  0.656254  0.623997  1
  Nb  Nb14  1  0.345671  0.493468  0.873576  1
  Nb  Nb15  1  0.489482  0.343208  0.127674  1
  Nb  Nb16  1  0.654676  0.505891  0.374149  1
  Nb  Nb17  1  0.995123  0.154412  0.623022  1
  Nb  Nb18  1  0.005200  0.847050  0.124235  1
  Re  Re19  1  0.158548  0.995120  0.376045  1
  Si  Si20  1  0.291854  0.041335  0.189925  1
  Si  Si21  1  0.706713  0.955736  0.686524  1
  Si  Si22  1  0.452023  0.794224  0.434767  1
  Si  Si23  1  0.205538  0.545227  0.063510  1
  Si  Si24  1  0.543945  0.205701  0.936934  1
  Si  Si25  1  0.793067  0.454532  0.563105  1
  Si  Si26  1  0.044511  0.294902  0.813196  1
  Si  Si27  1  0.959435  0.712160  0.313937  1
  Si  Si28  1  0.366983  0.290115  0.319976  1
  Si  Si29  1  0.632497  0.705930  0.816969  1
  Si  Si30  1  0.202468  0.868687  0.564685  1
  Si  Si31  1  0.133270  0.796705  0.932707  1
  Si  Si32  1  0.795880  0.134210  0.068249  1
  Si  Si33  1  0.873273  0.198508  0.431273  1
  Si  Si34  1  0.296676  0.367100  0.681547  1
  Si  Si35  1  0.704999  0.630938  0.183279  1
