# generated using pymatgen
data_LaPPt8Pb
_symmetry_space_group_name_H-M   'P 1'
_cell_length_a   9.12079600
_cell_length_b   9.20494113
_cell_length_c   4.30696800
_cell_angle_alpha   90.00000000
_cell_angle_beta   90.00000000
_cell_angle_gamma   145.26965361
_symmetry_Int_Tables_number   1
_chemical_formula_structural   LaPPt8Pb
_chemical_formula_sum   'La1 P1 Pt8 Pb1'
_cell_volume   206.00747113
_cell_formula_units_Z   1
loop_
 _symmetry_equiv_pos_site_id
 _symmetry_equiv_pos_as_xyz
  1  'x, y, z'
loop_
 _atom_site_type_symbol
 _atom_site_label
 _atom_site_symmetry_multiplicity
 _atom_site_fract_x
 _atom_site_fract_y
 _atom_site_fract_z
 _atom_site_occupancy
  La  La0  1  0.618068  0.370752  0.500000  1
  P  P1  1  0.217036  0.213108  0.000000  1
  Pt  Pt2  1  0.102531  0.882279  0.000000  1
  Pt  Pt3  1  0.888377  0.105600  0.000000  1
  Pt  Pt4  1  0.493324  0.996006  0.000000  1
  Pt  Pt5  1  0.981953  0.490145  0.000000  1
  Pt  Pt6  1  0.194981  0.788735  0.500000  1
  Pt  Pt7  1  0.802969  0.199320  0.500000  1
  Pt  Pt8  1  0.002358  0.998120  0.500000  1
  Pt  Pt9  1  0.616996  0.628624  0.000000  1
  Pb  Pb10  1  0.395004  0.640911  0.500000  1
