# generated using pymatgen
data_Al2HgCl8
_symmetry_space_group_name_H-M   'P 1'
_cell_length_a   8.49254500
_cell_length_b   7.68869889
_cell_length_c   11.76009990
_cell_angle_alpha   96.02011805
_cell_angle_beta   90.00000000
_cell_angle_gamma   90.00000000
_symmetry_Int_Tables_number   1
_chemical_formula_structural   Al2HgCl8
_chemical_formula_sum   'Al4 Hg2 Cl16'
_cell_volume   763.65995101
_cell_formula_units_Z   2
loop_
 _symmetry_equiv_pos_site_id
 _symmetry_equiv_pos_as_xyz
  1  'x, y, z'
loop_
 _atom_site_type_symbol
 _atom_site_label
 _atom_site_symmetry_multiplicity
 _atom_site_fract_x
 _atom_site_fract_y
 _atom_site_fract_z
 _atom_site_occupancy
  Al  Al0  1  0.249537  0.666306  0.561594  1
  Al  Al1  1  0.750463  0.666306  0.061594  1
  Al  Al2  1  0.750463  0.333694  0.438406  1
  Al  Al3  1  0.249537  0.333694  0.938406  1
  Hg  Hg4  1  0.020000  0.500000  0.250000  1
  Hg  Hg5  1  0.980000  0.500000  0.750000  1
  Cl  Cl6  1  0.457796  0.786973  0.624969  1
  Cl  Cl7  1  0.244845  0.676268  0.374930  1
  Cl  Cl8  1  0.777361  0.395606  0.098108  1
  Cl  Cl9  1  0.222639  0.604394  0.901892  1
  Cl  Cl10  1  0.542204  0.213027  0.375031  1
  Cl  Cl11  1  0.244845  0.323732  0.125070  1
  Cl  Cl12  1  0.755155  0.323732  0.625070  1
  Cl  Cl13  1  0.542204  0.786973  0.124969  1
  Cl  Cl14  1  0.222639  0.395606  0.598108  1
  Cl  Cl15  1  0.457796  0.213027  0.875031  1
  Cl  Cl16  1  0.777361  0.604394  0.401892  1
  Cl  Cl17  1  0.964941  0.790056  0.137371  1
  Cl  Cl18  1  0.755155  0.676268  0.874930  1
  Cl  Cl19  1  0.035059  0.209944  0.862629  1
  Cl  Cl20  1  0.964941  0.209944  0.362629  1
  Cl  Cl21  1  0.035059  0.790056  0.637371  1
