# generated using pymatgen
data_Sr4GdY3(BO4)4
_symmetry_space_group_name_H-M   'P 1'
_cell_length_a   3.69929400
_cell_length_b   9.78797067
_cell_length_c   10.99453289
_cell_angle_alpha   89.93288773
_cell_angle_beta   90.00000000
_cell_angle_gamma   90.00000000
_symmetry_Int_Tables_number   1
_chemical_formula_structural   Sr4GdY3(BO4)4
_chemical_formula_sum   'Sr4 Gd1 Y3 B4 O16'
_cell_volume   398.09616369
_cell_formula_units_Z   1
loop_
 _symmetry_equiv_pos_site_id
 _symmetry_equiv_pos_as_xyz
  1  'x, y, z'
loop_
 _atom_site_type_symbol
 _atom_site_label
 _atom_site_symmetry_multiplicity
 _atom_site_fract_x
 _atom_site_fract_y
 _atom_site_fract_z
 _atom_site_occupancy
  Sr  Sr0  1  0.250000  0.659379  0.083379  1
  Sr  Sr1  1  0.750000  0.340824  0.916099  1
  Sr  Sr2  1  0.750000  0.159943  0.417121  1
  Sr  Sr3  1  0.250000  0.840131  0.583406  1
  Gd  Gd4  1  0.250000  0.081485  0.111021  1
  Y  Y5  1  0.750000  0.918275  0.888063  1
  Y  Y6  1  0.750000  0.581164  0.389339  1
  Y  Y7  1  0.250000  0.418938  0.610717  1
  B  B8  1  0.250000  0.364643  0.204600  1
  B  B9  1  0.750000  0.636127  0.796045  1
  B  B10  1  0.750000  0.863048  0.296711  1
  B  B11  1  0.250000  0.136393  0.703876  1
  O  O12  1  0.250000  0.490955  0.262105  1
  O  O13  1  0.750000  0.510194  0.737708  1
  O  O14  1  0.750000  0.989435  0.238997  1
  O  O15  1  0.250000  0.010040  0.761960  1
  O  O16  1  0.250000  0.243366  0.271657  1
  O  O17  1  0.750000  0.758419  0.730172  1
  O  O18  1  0.750000  0.741354  0.230598  1
  O  O19  1  0.250000  0.258587  0.769456  1
  O  O20  1  0.250000  0.357890  0.077117  1
  O  O21  1  0.750000  0.641854  0.923372  1
  O  O22  1  0.750000  0.856793  0.423990  1
  O  O23  1  0.250000  0.142427  0.576551  1
  O  O24  1  0.250000  0.612877  0.499964  1
  O  O25  1  0.750000  0.387154  0.500282  1
  O  O26  1  0.750000  0.112587  0.997178  1
  O  O27  1  0.250000  0.885716  0.998516  1
