# generated using pymatgen
data_Lu20AlHg2Bi9
_symmetry_space_group_name_H-M   'P 1'
_cell_length_a   8.06154173
_cell_length_b   9.33979000
_cell_length_c   11.74578453
_cell_angle_alpha   90.00000000
_cell_angle_beta   89.75843397
_cell_angle_gamma   90.00000000
_symmetry_Int_Tables_number   1
_chemical_formula_structural   Lu20AlHg2Bi9
_chemical_formula_sum   'Lu20 Al1 Hg2 Bi9'
_cell_volume   884.36874884
_cell_formula_units_Z   1
loop_
 _symmetry_equiv_pos_site_id
 _symmetry_equiv_pos_as_xyz
  1  'x, y, z'
loop_
 _atom_site_type_symbol
 _atom_site_label
 _atom_site_symmetry_multiplicity
 _atom_site_fract_x
 _atom_site_fract_y
 _atom_site_fract_z
 _atom_site_occupancy
  Lu  Lu0  1  0.033944  0.250000  0.507944  1
  Lu  Lu1  1  0.965884  0.750000  0.492612  1
  Lu  Lu2  1  0.464760  0.750000  0.007096  1
  Lu  Lu3  1  0.521615  0.250000  0.990950  1
  Lu  Lu4  1  0.347724  0.250000  0.291774  1
  Lu  Lu5  1  0.653498  0.750000  0.707246  1
  Lu  Lu6  1  0.146310  0.750000  0.791188  1
  Lu  Lu7  1  0.847978  0.250000  0.216729  1
  Lu  Lu8  1  0.197092  0.250000  0.777735  1
  Lu  Lu9  1  0.814090  0.750000  0.214422  1
  Lu  Lu10  1  0.316331  0.750000  0.285422  1
  Lu  Lu11  1  0.681535  0.250000  0.710692  1
  Lu  Lu12  1  0.193390  0.055572  0.060505  1
  Lu  Lu13  1  0.810320  0.929608  0.943227  1
  Lu  Lu14  1  0.313044  0.939889  0.556845  1
  Lu  Lu15  1  0.810320  0.570392  0.943227  1
  Lu  Lu16  1  0.685495  0.061961  0.445622  1
  Lu  Lu17  1  0.193390  0.444428  0.060505  1
  Lu  Lu18  1  0.685495  0.438039  0.445622  1
  Lu  Lu19  1  0.313044  0.560111  0.556845  1
  Al  Al20  1  0.404436  0.250000  0.540195  1
  Hg  Hg21  1  0.592077  0.750000  0.458793  1
  Hg  Hg22  1  0.092968  0.750000  0.041743  1
  Bi  Bi23  1  0.907184  0.250000  0.955135  1
  Bi  Bi24  1  0.057919  0.000457  0.322302  1
  Bi  Bi25  1  0.942499  0.000115  0.677422  1
  Bi  Bi26  1  0.443718  0.998470  0.822012  1
  Bi  Bi27  1  0.942499  0.499885  0.677422  1
  Bi  Bi28  1  0.559902  0.002141  0.177226  1
  Bi  Bi29  1  0.057919  0.499543  0.322302  1
  Bi  Bi30  1  0.559902  0.497859  0.177226  1
  Bi  Bi31  1  0.443718  0.501530  0.822012  1
