# generated using pymatgen
data_Nd4DyHoSi4
_symmetry_space_group_name_H-M   'P 1'
_cell_length_a   7.61076300
_cell_length_b   7.61076300
_cell_length_c   4.39261300
_cell_angle_alpha   90.00000000
_cell_angle_beta   90.00000000
_cell_angle_gamma   90.00000000
_symmetry_Int_Tables_number   1
_chemical_formula_structural   Nd4DyHoSi4
_chemical_formula_sum   'Nd4 Dy1 Ho1 Si4'
_cell_volume   254.43645667
_cell_formula_units_Z   1
loop_
 _symmetry_equiv_pos_site_id
 _symmetry_equiv_pos_as_xyz
  1  'x, y, z'
loop_
 _atom_site_type_symbol
 _atom_site_label
 _atom_site_symmetry_multiplicity
 _atom_site_fract_x
 _atom_site_fract_y
 _atom_site_fract_z
 _atom_site_occupancy
  Nd  Nd0  1  0.676996  0.177114  0.500000  1
  Nd  Nd1  1  0.323004  0.822886  0.500000  1
  Nd  Nd2  1  0.177114  0.323004  0.500000  1
  Nd  Nd3  1  0.822886  0.676996  0.500000  1
  Dy  Dy4  1  0.000000  0.000000  0.000000  1
  Ho  Ho5  1  0.500000  0.500000  0.000000  1
  Si  Si6  1  0.113661  0.613573  0.000000  1
  Si  Si7  1  0.886339  0.386427  0.000000  1
  Si  Si8  1  0.613573  0.886339  0.000000  1
  Si  Si9  1  0.386427  0.113661  0.000000  1
