# generated using pymatgen
data_LaNdSc2(NiGe)4
_symmetry_space_group_name_H-M   'P 1'
_cell_length_a   4.22352800
_cell_length_b   7.01994187
_cell_length_c   7.31620299
_cell_angle_alpha   89.81895894
_cell_angle_beta   90.00000000
_cell_angle_gamma   90.00000000
_symmetry_Int_Tables_number   1
_chemical_formula_structural   LaNdSc2(NiGe)4
_chemical_formula_sum   'La1 Nd1 Sc2 Ni4 Ge4'
_cell_volume   216.91644179
_cell_formula_units_Z   1
loop_
 _symmetry_equiv_pos_site_id
 _symmetry_equiv_pos_as_xyz
  1  'x, y, z'
loop_
 _atom_site_type_symbol
 _atom_site_label
 _atom_site_symmetry_multiplicity
 _atom_site_fract_x
 _atom_site_fract_y
 _atom_site_fract_z
 _atom_site_occupancy
  La  La0  1  0.750000  0.999968  0.749924  1
  Nd  Nd1  1  0.250000  0.000042  0.250057  1
  Sc  Sc2  1  0.750000  0.499967  0.750022  1
  Sc  Sc3  1  0.250000  0.500043  0.249976  1
  Ni  Ni4  1  0.750000  0.678059  0.416045  1
  Ni  Ni5  1  0.250000  0.320563  0.582291  1
  Ni  Ni6  1  0.750000  0.322022  0.083954  1
  Ni  Ni7  1  0.250000  0.679338  0.917725  1
  Ge  Ge8  1  0.750000  0.712005  0.084398  1
  Ge  Ge9  1  0.250000  0.289251  0.918121  1
  Ge  Ge10  1  0.750000  0.288135  0.415584  1
  Ge  Ge11  1  0.250000  0.710608  0.581902  1
