# generated using pymatgen
data_NdEr2As4Pd7
_symmetry_space_group_name_H-M   'P 1'
_cell_length_a   8.10942223
_cell_length_b   8.10942202
_cell_length_c   9.69144610
_cell_angle_alpha   55.92070343
_cell_angle_beta   55.92070265
_cell_angle_gamma   29.44980541
_symmetry_Int_Tables_number   1
_chemical_formula_structural   NdEr2As4Pd7
_chemical_formula_sum   'Nd1 Er2 As4 Pd7'
_cell_volume   255.40358664
_cell_formula_units_Z   1
loop_
 _symmetry_equiv_pos_site_id
 _symmetry_equiv_pos_as_xyz
  1  'x, y, z'
loop_
 _atom_site_type_symbol
 _atom_site_label
 _atom_site_symmetry_multiplicity
 _atom_site_fract_x
 _atom_site_fract_y
 _atom_site_fract_z
 _atom_site_occupancy
  Nd  Nd0  1  0.500000  0.500000  0.500000  1
  Er  Er1  1  0.823863  0.823863  0.169310  1
  Er  Er2  1  0.176137  0.176137  0.830690  1
  As  As3  1  0.392731  0.392731  0.319515  1
  As  As4  1  0.607269  0.607269  0.680485  1
  As  As5  1  0.837601  0.837601  0.755846  1
  As  As6  1  0.162399  0.162399  0.244154  1
  Pd  Pd7  1  0.668808  0.668808  0.070336  1
  Pd  Pd8  1  0.012300  0.012300  0.204685  1
  Pd  Pd9  1  0.987700  0.987700  0.795315  1
  Pd  Pd10  1  0.500000  0.500000  0.000000  1
  Pd  Pd11  1  0.194209  0.194209  0.473077  1
  Pd  Pd12  1  0.805791  0.805791  0.526923  1
  Pd  Pd13  1  0.331192  0.331192  0.929664  1
