# generated using pymatgen
data_Sm2Sc3Si7Pt9
_symmetry_space_group_name_H-M   'P 1'
_cell_length_a   10.07562100
_cell_length_b   10.07562147
_cell_length_c   4.00152700
_cell_angle_alpha   90.00000000
_cell_angle_beta   90.00000000
_cell_angle_gamma   120.00000174
_symmetry_Int_Tables_number   1
_chemical_formula_structural   Sm2Sc3Si7Pt9
_chemical_formula_sum   'Sm2 Sc3 Si7 Pt9'
_cell_volume   351.80340765
_cell_formula_units_Z   1
loop_
 _symmetry_equiv_pos_site_id
 _symmetry_equiv_pos_as_xyz
  1  'x, y, z'
loop_
 _atom_site_type_symbol
 _atom_site_label
 _atom_site_symmetry_multiplicity
 _atom_site_fract_x
 _atom_site_fract_y
 _atom_site_fract_z
 _atom_site_occupancy
  Sm  Sm0  1  0.000000  0.000000  0.000000  1
  Sm  Sm1  1  0.333333  0.666667  0.500000  1
  Sc  Sc2  1  0.894447  0.455033  0.500000  1
  Sc  Sc3  1  0.560586  0.105553  0.500000  1
  Sc  Sc4  1  0.544967  0.439414  0.500000  1
  Si  Si5  1  0.247414  0.196584  0.500000  1
  Si  Si6  1  0.803416  0.050832  0.500000  1
  Si  Si7  1  0.949168  0.752586  0.500000  1
  Si  Si8  1  0.557953  0.647325  0.000000  1
  Si  Si9  1  0.352675  0.910627  0.000000  1
  Si  Si10  1  0.089373  0.442047  0.000000  1
  Si  Si11  1  0.666667  0.333333  0.000000  1
  Pt  Pt12  1  0.220004  0.935968  0.500000  1
  Pt  Pt13  1  0.064032  0.284036  0.500000  1
  Pt  Pt14  1  0.715964  0.779996  0.500000  1
  Pt  Pt15  1  0.314159  0.411744  0.000000  1
  Pt  Pt16  1  0.588256  0.902415  0.000000  1
  Pt  Pt17  1  0.097585  0.685841  0.000000  1
  Pt  Pt18  1  0.384382  0.171660  0.000000  1
  Pt  Pt19  1  0.828340  0.212722  0.000000  1
  Pt  Pt20  1  0.787278  0.615618  0.000000  1
