# generated using pymatgen
data_Ho3Mg3Ag2Ru
_symmetry_space_group_name_H-M   'P 1'
_cell_length_a   7.71713500
_cell_length_b   7.71713392
_cell_length_c   3.95479900
_cell_angle_alpha   90.00000000
_cell_angle_beta   90.00000000
_cell_angle_gamma   120.00000033
_symmetry_Int_Tables_number   1
_chemical_formula_structural   Ho3Mg3Ag2Ru
_chemical_formula_sum   'Ho3 Mg3 Ag2 Ru1'
_cell_volume   203.97041554
_cell_formula_units_Z   1
loop_
 _symmetry_equiv_pos_site_id
 _symmetry_equiv_pos_as_xyz
  1  'x, y, z'
loop_
 _atom_site_type_symbol
 _atom_site_label
 _atom_site_symmetry_multiplicity
 _atom_site_fract_x
 _atom_site_fract_y
 _atom_site_fract_z
 _atom_site_occupancy
  Ho  Ho0  1  0.566976  0.964343  0.000000  1
  Ho  Ho1  1  0.035657  0.602633  0.000000  1
  Ho  Ho2  1  0.397367  0.433024  0.000000  1
  Mg  Mg3  1  0.254466  0.998280  0.500000  1
  Mg  Mg4  1  0.001720  0.256186  0.500000  1
  Mg  Mg5  1  0.743814  0.745534  0.500000  1
  Ag  Ag6  1  0.666667  0.333333  0.500000  1
  Ag  Ag7  1  0.000000  0.000000  0.000000  1
  Ru  Ru8  1  0.333333  0.666667  0.500000  1
