# generated using pymatgen
data_Ti2Cu3Rh
_symmetry_space_group_name_H-M   'P 1'
_cell_length_a   4.67792780
_cell_length_b   4.66137335
_cell_length_c   4.50617400
_cell_angle_alpha   90.00000000
_cell_angle_beta   90.00000000
_cell_angle_gamma   122.27987706
_symmetry_Int_Tables_number   1
_chemical_formula_structural   Ti2Cu3Rh
_chemical_formula_sum   'Ti2 Cu3 Rh1'
_cell_volume   83.07359561
_cell_formula_units_Z   1
loop_
 _symmetry_equiv_pos_site_id
 _symmetry_equiv_pos_as_xyz
  1  'x, y, z'
loop_
 _atom_site_type_symbol
 _atom_site_label
 _atom_site_symmetry_multiplicity
 _atom_site_fract_x
 _atom_site_fract_y
 _atom_site_fract_z
 _atom_site_occupancy
  Ti  Ti0  1  0.759439  0.759886  0.250000  1
  Ti  Ti1  1  0.236837  0.246211  0.750000  1
  Cu  Cu2  1  0.558659  0.909487  0.750000  1
  Cu  Cu3  1  0.898559  0.573117  0.750000  1
  Cu  Cu4  1  0.437405  0.092883  0.250000  1
  Rh  Rh5  1  0.109101  0.418415  0.250000  1
