# generated using pymatgen
data_Dy2Y7Th3(Si2Ni)4
_symmetry_space_group_name_H-M   'P 1'
_cell_length_a   4.16853700
_cell_length_b   11.47671635
_cell_length_c   11.28139042
_cell_angle_alpha   89.45319887
_cell_angle_beta   90.00000000
_cell_angle_gamma   90.00000000
_symmetry_Int_Tables_number   1
_chemical_formula_structural   Dy2Y7Th3(Si2Ni)4
_chemical_formula_sum   'Dy2 Y7 Th3 Si8 Ni4'
_cell_volume   539.68973857
_cell_formula_units_Z   1
loop_
 _symmetry_equiv_pos_site_id
 _symmetry_equiv_pos_as_xyz
  1  'x, y, z'
loop_
 _atom_site_type_symbol
 _atom_site_label
 _atom_site_symmetry_multiplicity
 _atom_site_fract_x
 _atom_site_fract_y
 _atom_site_fract_z
 _atom_site_occupancy
  Dy  Dy0  1  0.250000  0.692066  0.209639  1
  Dy  Dy1  1  0.750000  0.311052  0.791211  1
  Y  Y2  1  0.750000  0.559477  0.616136  1
  Y  Y3  1  0.250000  0.120148  0.562682  1
  Y  Y4  1  0.250000  0.379750  0.060382  1
  Y  Y5  1  0.750000  0.875427  0.438263  1
  Y  Y6  1  0.750000  0.621935  0.936265  1
  Y  Y7  1  0.250000  0.801953  0.708698  1
  Y  Y8  1  0.750000  0.197809  0.292083  1
  Th  Th9  1  0.250000  0.062184  0.883115  1
  Th  Th10  1  0.250000  0.439341  0.386466  1
  Th  Th11  1  0.750000  0.939378  0.116651  1
  Si  Si12  1  0.250000  0.806394  0.970275  1
  Si  Si13  1  0.250000  0.689742  0.471550  1
  Si  Si14  1  0.750000  0.194727  0.029226  1
  Si  Si15  1  0.750000  0.308306  0.532809  1
  Si  Si16  1  0.250000  0.494871  0.800775  1
  Si  Si17  1  0.250000  0.014817  0.308125  1
  Si  Si18  1  0.750000  0.508438  0.193942  1
  Si  Si19  1  0.750000  0.984662  0.692560  1
  Ni  Ni20  1  0.250000  0.361623  0.630943  1
  Ni  Ni21  1  0.250000  0.135374  0.128799  1
  Ni  Ni22  1  0.750000  0.633564  0.367155  1
  Ni  Ni23  1  0.750000  0.866963  0.872252  1
