# generated using pymatgen
data_Na2Nb5V(Co4P3)4
_symmetry_space_group_name_H-M   'P 1'
_cell_length_a   11.95444600
_cell_length_b   11.98092588
_cell_length_c   3.59590600
_cell_angle_alpha   90.00000000
_cell_angle_beta   90.00000000
_cell_angle_gamma   119.92691507
_symmetry_Int_Tables_number   1
_chemical_formula_structural   Na2Nb5V(Co4P3)4
_chemical_formula_sum   'Na2 Nb5 V1 Co16 P12'
_cell_volume   446.35269811
_cell_formula_units_Z   1
loop_
 _symmetry_equiv_pos_site_id
 _symmetry_equiv_pos_as_xyz
  1  'x, y, z'
loop_
 _atom_site_type_symbol
 _atom_site_label
 _atom_site_symmetry_multiplicity
 _atom_site_fract_x
 _atom_site_fract_y
 _atom_site_fract_z
 _atom_site_occupancy
  Na  Na0  1  0.333109  0.668441  0.000000  1
  Na  Na1  1  0.664670  0.331559  0.000000  1
  Nb  Nb2  1  0.818584  0.000000  0.500000  1
  Nb  Nb3  1  0.001378  0.821486  0.500000  1
  Nb  Nb4  1  0.179892  0.178514  0.500000  1
  Nb  Nb5  1  0.999861  0.444361  0.000000  1
  Nb  Nb6  1  0.555500  0.555639  0.000000  1
  V  V7  1  0.443558  0.000000  0.000000  1
  Co  Co8  1  0.278810  0.000000  0.500000  1
  Co  Co9  1  0.999089  0.274485  0.500000  1
  Co  Co10  1  0.724603  0.725515  0.500000  1
  Co  Co11  1  0.634879  0.810208  0.000000  1
  Co  Co12  1  0.195741  0.829430  0.000000  1
  Co  Co13  1  0.173156  0.363385  0.000000  1
  Co  Co14  1  0.366311  0.170570  0.000000  1
  Co  Co15  1  0.809771  0.636615  0.000000  1
  Co  Co16  1  0.824671  0.189792  0.000000  1
  Co  Co17  1  0.523306  0.877409  0.500000  1
  Co  Co18  1  0.126581  0.652943  0.500000  1
  Co  Co19  1  0.350700  0.474057  0.500000  1
  Co  Co20  1  0.473638  0.347057  0.500000  1
  Co  Co21  1  0.876643  0.525943  0.500000  1
  Co  Co22  1  0.645897  0.122591  0.500000  1
  Co  Co23  1  0.000803  0.000000  0.000000  1
  P  P24  1  0.173847  0.000000  0.000000  1
  P  P25  1  0.998729  0.171405  0.000000  1
  P  P26  1  0.827324  0.828595  0.000000  1
  P  P27  1  0.516573  0.688699  0.500000  1
  P  P28  1  0.317870  0.835354  0.500000  1
  P  P29  1  0.171093  0.483481  0.500000  1
  P  P30  1  0.482516  0.164646  0.500000  1
  P  P31  1  0.687612  0.516519  0.500000  1
  P  P32  1  0.827874  0.311301  0.500000  1
  P  P33  1  0.640834  0.000000  0.000000  1
  P  P34  1  0.002849  0.651117  0.000000  1
  P  P35  1  0.351732  0.348883  0.000000  1
