# generated using pymatgen
data_NaSmB12
_symmetry_space_group_name_H-M   'P 1'
_cell_length_a   5.85740379
_cell_length_b   5.85740326
_cell_length_c   5.85740400
_cell_angle_alpha   60.00000709
_cell_angle_beta   60.00001011
_cell_angle_gamma   60.00000372
_symmetry_Int_Tables_number   1
_chemical_formula_structural   NaSmB12
_chemical_formula_sum   'Na1 Sm1 B12'
_cell_volume   142.10211389
_cell_formula_units_Z   1
loop_
 _symmetry_equiv_pos_site_id
 _symmetry_equiv_pos_as_xyz
  1  'x, y, z'
loop_
 _atom_site_type_symbol
 _atom_site_label
 _atom_site_symmetry_multiplicity
 _atom_site_fract_x
 _atom_site_fract_y
 _atom_site_fract_z
 _atom_site_occupancy
  Na  Na0  1  0.000000  0.000000  0.000000  1
  Sm  Sm1  1  0.500000  0.500000  0.500000  1
  B  B2  1  0.399166  0.100834  0.100834  1
  B  B3  1  0.899166  0.600834  0.600834  1
  B  B4  1  0.399166  0.399166  0.100834  1
  B  B5  1  0.899166  0.899166  0.600834  1
  B  B6  1  0.100834  0.399166  0.100834  1
  B  B7  1  0.600834  0.899166  0.600834  1
  B  B8  1  0.100834  0.100834  0.399166  1
  B  B9  1  0.600834  0.600834  0.899166  1
  B  B10  1  0.399166  0.100834  0.399166  1
  B  B11  1  0.899166  0.600834  0.899166  1
  B  B12  1  0.100834  0.399166  0.399166  1
  B  B13  1  0.600834  0.899166  0.899166  1
