# generated using pymatgen
data_Zr10CoSiSn6
_symmetry_space_group_name_H-M   'P 1'
_cell_length_a   8.68727400
_cell_length_b   8.68727269
_cell_length_c   5.86024700
_cell_angle_alpha   89.99989512
_cell_angle_beta   90.00003934
_cell_angle_gamma   120.00009684
_symmetry_Int_Tables_number   1
_chemical_formula_structural   Zr10CoSiSn6
_chemical_formula_sum   'Zr10 Co1 Si1 Sn6'
_cell_volume   383.01263671
_cell_formula_units_Z   1
loop_
 _symmetry_equiv_pos_site_id
 _symmetry_equiv_pos_as_xyz
  1  'x, y, z'
loop_
 _atom_site_type_symbol
 _atom_site_label
 _atom_site_symmetry_multiplicity
 _atom_site_fract_x
 _atom_site_fract_y
 _atom_site_fract_z
 _atom_site_occupancy
  Zr  Zr0  1  0.666666  0.333333  0.000000  1
  Zr  Zr1  1  0.333334  0.666667  0.000000  1
  Zr  Zr2  1  0.333333  0.666666  0.500000  1
  Zr  Zr3  1  0.666667  0.333334  0.500000  1
  Zr  Zr4  1  0.746556  0.746556  0.754876  1
  Zr  Zr5  1  0.253444  0.000000  0.754876  1
  Zr  Zr6  1  0.000000  0.253444  0.754876  1
  Zr  Zr7  1  0.253444  0.253444  0.245124  1
  Zr  Zr8  1  0.746556  0.000000  0.245124  1
  Zr  Zr9  1  0.000000  0.746556  0.245124  1
  Co  Co10  1  0.000000  0.000000  0.000000  1
  Si  Si11  1  0.000000  0.000000  0.500000  1
  Sn  Sn12  1  0.392397  0.392396  0.749422  1
  Sn  Sn13  1  0.607604  0.000000  0.749423  1
  Sn  Sn14  1  0.000000  0.607604  0.749425  1
  Sn  Sn15  1  0.607603  0.607604  0.250578  1
  Sn  Sn16  1  0.392396  0.000000  0.250577  1
  Sn  Sn17  1  0.000000  0.392396  0.250575  1
