# generated using pymatgen
data_DyMg3Ge5PIr7
_symmetry_space_group_name_H-M   'P 1'
_cell_length_a   7.13636636
_cell_length_b   7.13636616
_cell_length_c   7.11474508
_cell_angle_alpha   109.53794197
_cell_angle_beta   109.53794576
_cell_angle_gamma   110.61616368
_symmetry_Int_Tables_number   1
_chemical_formula_structural   DyMg3Ge5PIr7
_chemical_formula_sum   'Dy1 Mg3 Ge5 P1 Ir7'
_cell_volume   274.41468978
_cell_formula_units_Z   1
loop_
 _symmetry_equiv_pos_site_id
 _symmetry_equiv_pos_as_xyz
  1  'x, y, z'
loop_
 _atom_site_type_symbol
 _atom_site_label
 _atom_site_symmetry_multiplicity
 _atom_site_fract_x
 _atom_site_fract_y
 _atom_site_fract_z
 _atom_site_occupancy
  Dy  Dy0  1  0.510365  0.510365  0.510454  1
  Mg  Mg1  1  0.001018  0.001018  0.490366  1
  Mg  Mg2  1  0.001143  0.508203  0.999826  1
  Mg  Mg3  1  0.508203  0.001143  0.999826  1
  Ge  Ge4  1  0.310093  0.995248  0.308620  1
  Ge  Ge5  1  0.995248  0.310093  0.308620  1
  Ge  Ge6  1  0.296283  0.296283  0.991983  1
  Ge  Ge7  1  0.693836  0.011301  0.693612  1
  Ge  Ge8  1  0.011301  0.693836  0.693612  1
  P  P9  1  0.676782  0.676782  0.004288  1
  Ir  Ir10  1  0.753656  0.247414  0.497373  1
  Ir  Ir11  1  0.752548  0.505508  0.244671  1
  Ir  Ir12  1  0.502073  0.252465  0.757806  1
  Ir  Ir13  1  0.252465  0.502073  0.757806  1
  Ir  Ir14  1  0.247414  0.753656  0.497373  1
  Ir  Ir15  1  0.505508  0.752548  0.244671  1
  Ir  Ir16  1  0.982064  0.982064  0.999093  1
