# generated using pymatgen
data_YPa5Ni6(SnBi)4
_symmetry_space_group_name_H-M   'P 1'
_cell_length_a   8.26687505
_cell_length_b   8.26107469
_cell_length_c   8.26780253
_cell_angle_alpha   109.46563393
_cell_angle_beta   109.56717989
_cell_angle_gamma   109.52586354
_symmetry_Int_Tables_number   1
_chemical_formula_structural   YPa5Ni6(SnBi)4
_chemical_formula_sum   'Y1 Pa5 Ni6 Sn4 Bi4'
_cell_volume   433.87654846
_cell_formula_units_Z   1
loop_
 _symmetry_equiv_pos_site_id
 _symmetry_equiv_pos_as_xyz
  1  'x, y, z'
loop_
 _atom_site_type_symbol
 _atom_site_label
 _atom_site_symmetry_multiplicity
 _atom_site_fract_x
 _atom_site_fract_y
 _atom_site_fract_z
 _atom_site_occupancy
  Y  Y0  1  0.753034  0.376196  0.624143  1
  Pa  Pa1  1  0.126569  0.883792  0.246642  1
  Pa  Pa2  1  0.368359  0.612649  0.745357  1
  Pa  Pa3  1  0.888454  0.249489  0.129722  1
  Pa  Pa4  1  0.619758  0.745045  0.374019  1
  Pa  Pa5  1  0.243672  0.130917  0.881381  1
  Ni  Ni6  1  0.610066  0.374869  0.236253  1
  Ni  Ni7  1  0.890865  0.120250  0.758846  1
  Ni  Ni8  1  0.359172  0.245682  0.621703  1
  Ni  Ni9  1  0.127818  0.763397  0.887148  1
  Ni  Ni10  1  0.249388  0.617974  0.368310  1
  Ni  Ni11  1  0.761835  0.881253  0.125764  1
  Sn  Sn12  1  0.339965  0.336660  0.339939  1
  Sn  Sn13  1  0.162082  0.501912  0.996884  1
  Sn  Sn14  1  0.994984  0.163436  0.500061  1
  Sn  Sn15  1  0.826350  0.827299  0.827866  1
  Bi  Bi16  1  0.505000  0.000633  0.167327  1
  Bi  Bi17  1  0.670778  0.499589  0.997318  1
  Bi  Bi18  1  0.501618  0.001366  0.669545  1
  Bi  Bi19  1  0.000229  0.667592  0.501776  1
