# generated using pymatgen
data_Lu6Al24ZnOs7
_symmetry_space_group_name_H-M   'P 1'
_cell_length_a   8.80577368
_cell_length_b   8.80577478
_cell_length_c   9.48354480
_cell_angle_alpha   89.85864867
_cell_angle_beta   90.14135378
_cell_angle_gamma   120.00856249
_symmetry_Int_Tables_number   1
_chemical_formula_structural   Lu6Al24ZnOs7
_chemical_formula_sum   'Lu6 Al24 Zn1 Os7'
_cell_volume   636.79139327
_cell_formula_units_Z   1
loop_
 _symmetry_equiv_pos_site_id
 _symmetry_equiv_pos_as_xyz
  1  'x, y, z'
loop_
 _atom_site_type_symbol
 _atom_site_label
 _atom_site_symmetry_multiplicity
 _atom_site_fract_x
 _atom_site_fract_y
 _atom_site_fract_z
 _atom_site_occupancy
  Lu  Lu0  1  0.192061  0.389271  0.249211  1
  Lu  Lu1  1  0.807939  0.610729  0.750789  1
  Lu  Lu2  1  0.610729  0.807939  0.249211  1
  Lu  Lu3  1  0.389271  0.192061  0.750789  1
  Lu  Lu4  1  0.196182  0.803818  0.253519  1
  Lu  Lu5  1  0.803818  0.196182  0.746481  1
  Al  Al6  1  0.330172  0.669828  0.023479  1
  Al  Al7  1  0.669828  0.330172  0.976521  1
  Al  Al8  1  0.666051  0.333949  0.519044  1
  Al  Al9  1  0.333949  0.666051  0.480956  1
  Al  Al10  1  0.162645  0.325701  0.574545  1
  Al  Al11  1  0.837355  0.674299  0.425455  1
  Al  Al12  1  0.674299  0.837355  0.574545  1
  Al  Al13  1  0.848807  0.677349  0.081757  1
  Al  Al14  1  0.325701  0.162645  0.425455  1
  Al  Al15  1  0.151193  0.322651  0.918243  1
  Al  Al16  1  0.163024  0.836976  0.575493  1
  Al  Al17  1  0.322651  0.151193  0.081757  1
  Al  Al18  1  0.836976  0.163024  0.424507  1
  Al  Al19  1  0.677349  0.848807  0.918243  1
  Al  Al20  1  0.836729  0.163271  0.077363  1
  Al  Al21  1  0.163271  0.836729  0.922637  1
  Al  Al22  1  0.561475  0.121231  0.249481  1
  Al  Al23  1  0.438525  0.878769  0.750519  1
  Al  Al24  1  0.878769  0.438525  0.249481  1
  Al  Al25  1  0.121231  0.561475  0.750519  1
  Al  Al26  1  0.563012  0.436988  0.253827  1
  Al  Al27  1  0.436988  0.563012  0.746173  1
  Al  Al28  1  0.999050  0.000950  0.250539  1
  Al  Al29  1  0.000950  0.999050  0.749461  1
  Zn  Zn30  1  0.500000  0.500000  0.000000  1
  Os  Os31  1  0.500000  0.000000  0.000000  1
  Os  Os32  1  0.000000  0.500000  0.000000  1
  Os  Os33  1  0.500000  0.000000  0.500000  1
  Os  Os34  1  0.000000  0.500000  0.500000  1
  Os  Os35  1  0.500000  0.500000  0.500000  1
  Os  Os36  1  0.000000  0.000000  0.000000  1
  Os  Os37  1  0.000000  0.000000  0.500000  1
