# generated using pymatgen
data_DyY2Pa(Al3Co)6
_symmetry_space_group_name_H-M   'P 1'
_cell_length_a   7.41876200
_cell_length_b   7.41707144
_cell_length_c   9.30158700
_cell_angle_alpha   90.00000000
_cell_angle_beta   90.00000000
_cell_angle_gamma   119.26721120
_symmetry_Int_Tables_number   1
_chemical_formula_structural   DyY2Pa(Al3Co)6
_chemical_formula_sum   'Dy1 Y2 Pa1 Al18 Co6'
_cell_volume   446.48956697
_cell_formula_units_Z   1
loop_
 _symmetry_equiv_pos_site_id
 _symmetry_equiv_pos_as_xyz
  1  'x, y, z'
loop_
 _atom_site_type_symbol
 _atom_site_label
 _atom_site_symmetry_multiplicity
 _atom_site_fract_x
 _atom_site_fract_y
 _atom_site_fract_z
 _atom_site_occupancy
  Dy  Dy0  1  0.006482  0.328004  0.750000  1
  Y  Y1  1  0.673351  0.993061  0.250000  1
  Y  Y2  1  0.327848  0.006411  0.750000  1
  Pa  Pa3  1  0.994517  0.672906  0.250000  1
  Al  Al4  1  0.128578  0.127938  0.250000  1
  Al  Al5  1  0.875769  0.876805  0.750000  1
  Al  Al6  1  0.331754  0.331803  0.543945  1
  Al  Al7  1  0.664929  0.667331  0.041430  1
  Al  Al8  1  0.331754  0.331803  0.956055  1
  Al  Al9  1  0.664929  0.667331  0.458570  1
  Al  Al10  1  0.339934  0.552183  0.250000  1
  Al  Al11  1  0.659690  0.444928  0.750000  1
  Al  Al12  1  0.551233  0.340373  0.250000  1
  Al  Al13  1  0.445354  0.660660  0.750000  1
  Al  Al14  1  0.998016  0.332534  0.071163  1
  Al  Al15  1  0.001383  0.664523  0.574405  1
  Al  Al16  1  0.338510  0.000996  0.428894  1
  Al  Al17  1  0.665312  0.002943  0.927974  1
  Al  Al18  1  0.001383  0.664523  0.925595  1
  Al  Al19  1  0.998016  0.332534  0.428837  1
  Al  Al20  1  0.665312  0.002943  0.572026  1
  Al  Al21  1  0.338510  0.000996  0.071106  1
  Co  Co22  1  0.999284  0.995466  0.004298  1
  Co  Co23  1  0.999284  0.995466  0.495702  1
  Co  Co24  1  0.673785  0.331959  0.002754  1
  Co  Co25  1  0.325647  0.670811  0.497200  1
  Co  Co26  1  0.325647  0.670811  0.002800  1
  Co  Co27  1  0.673785  0.331959  0.497246  1
