# generated using pymatgen
data_SrZn5Au3
_symmetry_space_group_name_H-M   'P 1'
_cell_length_a   4.34969300
_cell_length_b   12.24149800
_cell_length_c   13.04374600
_cell_angle_alpha   90.00000000
_cell_angle_beta   90.00000000
_cell_angle_gamma   90.00000000
_symmetry_Int_Tables_number   1
_chemical_formula_structural   SrZn5Au3
_chemical_formula_sum   'Sr4 Zn20 Au12'
_cell_volume   694.53718876
_cell_formula_units_Z   4
loop_
 _symmetry_equiv_pos_site_id
 _symmetry_equiv_pos_as_xyz
  1  'x, y, z'
loop_
 _atom_site_type_symbol
 _atom_site_label
 _atom_site_symmetry_multiplicity
 _atom_site_fract_x
 _atom_site_fract_y
 _atom_site_fract_z
 _atom_site_occupancy
  Sr  Sr0  1  0.250000  0.893560  0.299291  1
  Sr  Sr1  1  0.750000  0.106440  0.700709  1
  Sr  Sr2  1  0.750000  0.393560  0.200709  1
  Sr  Sr3  1  0.250000  0.606440  0.799291  1
  Zn  Zn4  1  0.250000  0.410399  0.999740  1
  Zn  Zn5  1  0.750000  0.589601  0.000260  1
  Zn  Zn6  1  0.750000  0.910399  0.500260  1
  Zn  Zn7  1  0.250000  0.089601  0.499740  1
  Zn  Zn8  1  0.250000  0.601140  0.325421  1
  Zn  Zn9  1  0.750000  0.398860  0.674579  1
  Zn  Zn10  1  0.750000  0.101140  0.174579  1
  Zn  Zn11  1  0.250000  0.898860  0.825421  1
  Zn  Zn12  1  0.250000  0.005775  0.068751  1
  Zn  Zn13  1  0.750000  0.994225  0.931249  1
  Zn  Zn14  1  0.750000  0.505775  0.431249  1
  Zn  Zn15  1  0.250000  0.494225  0.568751  1
  Zn  Zn16  1  0.250000  0.780157  0.022440  1
  Zn  Zn17  1  0.750000  0.219843  0.977560  1
  Zn  Zn18  1  0.750000  0.280157  0.477560  1
  Zn  Zn19  1  0.250000  0.719843  0.522440  1
  Zn  Zn20  1  0.250000  0.191008  0.303449  1
  Zn  Zn21  1  0.750000  0.808992  0.696551  1
  Zn  Zn22  1  0.750000  0.691008  0.196551  1
  Zn  Zn23  1  0.250000  0.308992  0.803449  1
  Au  Au24  1  0.250000  0.588947  0.120347  1
  Au  Au25  1  0.750000  0.411053  0.879653  1
  Au  Au26  1  0.750000  0.088947  0.379653  1
  Au  Au27  1  0.250000  0.911053  0.620347  1
  Au  Au28  1  0.250000  0.220618  0.103578  1
  Au  Au29  1  0.750000  0.779382  0.896422  1
  Au  Au30  1  0.750000  0.720618  0.396422  1
  Au  Au31  1  0.250000  0.279382  0.603578  1
  Au  Au32  1  0.250000  0.386560  0.388288  1
  Au  Au33  1  0.750000  0.613440  0.611712  1
  Au  Au34  1  0.750000  0.886560  0.111712  1
  Au  Au35  1  0.250000  0.113440  0.888288  1
