# generated using pymatgen
data_Sr13Ce(Th3Pt8)2
_symmetry_space_group_name_H-M   'P 1'
_cell_length_a   7.95646097
_cell_length_b   8.08111371
_cell_length_c   15.35226600
_cell_angle_alpha   90.00893351
_cell_angle_beta   89.89654082
_cell_angle_gamma   90.05421975
_symmetry_Int_Tables_number   1
_chemical_formula_structural   Sr13Ce(Th3Pt8)2
_chemical_formula_sum   'Sr13 Ce1 Th6 Pt16'
_cell_volume   987.10359533
_cell_formula_units_Z   1
loop_
 _symmetry_equiv_pos_site_id
 _symmetry_equiv_pos_as_xyz
  1  'x, y, z'
loop_
 _atom_site_type_symbol
 _atom_site_label
 _atom_site_symmetry_multiplicity
 _atom_site_fract_x
 _atom_site_fract_y
 _atom_site_fract_z
 _atom_site_occupancy
  Sr  Sr0  1  0.838096  0.665419  0.882203  1
  Sr  Sr1  1  0.496675  0.323457  0.903837  1
  Sr  Sr2  1  0.990836  0.176267  0.596734  1
  Sr  Sr3  1  0.506707  0.675657  0.406150  1
  Sr  Sr4  1  0.007901  0.820942  0.091942  1
  Sr  Sr5  1  0.505270  0.679496  0.089145  1
  Sr  Sr6  1  0.007229  0.824002  0.406203  1
  Sr  Sr7  1  0.491969  0.322154  0.596977  1
  Sr  Sr8  1  0.997223  0.174836  0.906223  1
  Sr  Sr9  1  0.178714  0.482587  0.754035  1
  Sr  Sr10  1  0.682710  0.016710  0.753318  1
  Sr  Sr11  1  0.814134  0.527033  0.249623  1
  Sr  Sr12  1  0.314011  0.972239  0.249774  1
  Ce  Ce13  1  0.337477  0.839546  0.877833  1
  Th  Th14  1  0.839760  0.660801  0.620586  1
  Th  Th15  1  0.660981  0.161864  0.378776  1
  Th  Th16  1  0.162098  0.336246  0.121658  1
  Th  Th17  1  0.659605  0.162198  0.123112  1
  Th  Th18  1  0.160191  0.337096  0.378699  1
  Th  Th19  1  0.339519  0.836733  0.621171  1
  Pt  Pt20  1  0.323409  0.056275  0.039712  1
  Pt  Pt21  1  0.832553  0.445224  0.459245  1
  Pt  Pt22  1  0.668859  0.945655  0.539153  1
  Pt  Pt23  1  0.193136  0.548406  0.966121  1
  Pt  Pt24  1  0.654095  0.973541  0.963566  1
  Pt  Pt25  1  0.168746  0.551179  0.539215  1
  Pt  Pt26  1  0.332711  0.054398  0.460106  1
  Pt  Pt27  1  0.838954  0.435462  0.047507  1
  Pt  Pt28  1  0.538046  0.645420  0.742968  1
  Pt  Pt29  1  0.049859  0.857050  0.738171  1
  Pt  Pt30  1  0.455715  0.349238  0.251677  1
  Pt  Pt31  1  0.956883  0.147076  0.252672  1
  Pt  Pt32  1  0.301482  0.104792  0.751754  1
  Pt  Pt33  1  0.790909  0.392818  0.740280  1
  Pt  Pt34  1  0.701012  0.898834  0.249814  1
  Pt  Pt35  1  0.202528  0.599346  0.250045  1
