# generated using pymatgen
data_Sm2Tm4FeBr10
_symmetry_space_group_name_H-M   'P 1'
_cell_length_a   7.31103950
_cell_length_b   9.18234913
_cell_length_c   9.07123498
_cell_angle_alpha   107.15705320
_cell_angle_beta   95.74921804
_cell_angle_gamma   106.01650656
_symmetry_Int_Tables_number   1
_chemical_formula_structural   Sm2Tm4FeBr10
_chemical_formula_sum   'Sm2 Tm4 Fe1 Br10'
_cell_volume   548.24961502
_cell_formula_units_Z   1
loop_
 _symmetry_equiv_pos_site_id
 _symmetry_equiv_pos_as_xyz
  1  'x, y, z'
loop_
 _atom_site_type_symbol
 _atom_site_label
 _atom_site_symmetry_multiplicity
 _atom_site_fract_x
 _atom_site_fract_y
 _atom_site_fract_z
 _atom_site_occupancy
  Sm  Sm0  1  0.617065  0.044979  0.272592  1
  Sm  Sm1  1  0.382935  0.955021  0.727408  1
  Tm  Tm2  1  0.858691  0.134449  0.676485  1
  Tm  Tm3  1  0.526805  0.702601  0.406382  1
  Tm  Tm4  1  0.473195  0.297399  0.593618  1
  Tm  Tm5  1  0.141309  0.865551  0.323515  1
  Fe  Fe6  1  0.500000  0.000000  0.500000  1
  Br  Br7  1  0.414304  0.623917  0.669455  1
  Br  Br8  1  0.757923  0.087052  0.951938  1
  Br  Br9  1  0.242077  0.912948  0.048062  1
  Br  Br10  1  0.952141  0.823043  0.583553  1
  Br  Br11  1  0.283899  0.260105  0.843268  1
  Br  Br12  1  0.716101  0.739895  0.156732  1
  Br  Br13  1  0.047859  0.176957  0.416447  1
  Br  Br14  1  0.585696  0.376083  0.330545  1
  Br  Br15  1  0.850826  0.450515  0.770444  1
  Br  Br16  1  0.149174  0.549485  0.229556  1
