# generated using pymatgen
data_ThSi2IrPd
_symmetry_space_group_name_H-M   'P 1'
_cell_length_a   4.25920700
_cell_length_b   4.25920700
_cell_length_c   9.88860500
_cell_angle_alpha   90.00000000
_cell_angle_beta   90.00000000
_cell_angle_gamma   90.00000000
_symmetry_Int_Tables_number   1
_chemical_formula_structural   ThSi2IrPd
_chemical_formula_sum   'Th2 Si4 Ir2 Pd2'
_cell_volume   179.38764334
_cell_formula_units_Z   2
loop_
 _symmetry_equiv_pos_site_id
 _symmetry_equiv_pos_as_xyz
  1  'x, y, z'
loop_
 _atom_site_type_symbol
 _atom_site_label
 _atom_site_symmetry_multiplicity
 _atom_site_fract_x
 _atom_site_fract_y
 _atom_site_fract_z
 _atom_site_occupancy
  Th  Th0  1  0.000000  0.500000  0.255122  1
  Th  Th1  1  0.500000  0.000000  0.744878  1
  Si  Si2  1  0.000000  0.000000  0.500000  1
  Si  Si3  1  0.500000  0.500000  0.500000  1
  Si  Si4  1  0.000000  0.500000  0.864145  1
  Si  Si5  1  0.500000  0.000000  0.135855  1
  Ir  Ir6  1  0.000000  0.500000  0.622771  1
  Ir  Ir7  1  0.500000  0.000000  0.377229  1
  Pd  Pd8  1  0.000000  0.000000  0.000000  1
  Pd  Pd9  1  0.500000  0.500000  0.000000  1
