# generated using pymatgen
data_Sc3Nb3C5
_symmetry_space_group_name_H-M   'P 1'
_cell_length_a   5.60096786
_cell_length_b   5.57725921
_cell_length_c   5.58837662
_cell_angle_alpha   80.32999200
_cell_angle_beta   81.51407783
_cell_angle_gamma   120.08596663
_symmetry_Int_Tables_number   1
_chemical_formula_structural   Sc3Nb3C5
_chemical_formula_sum   'Sc3 Nb3 C5'
_cell_volume   143.30239275
_cell_formula_units_Z   1
loop_
 _symmetry_equiv_pos_site_id
 _symmetry_equiv_pos_as_xyz
  1  'x, y, z'
loop_
 _atom_site_type_symbol
 _atom_site_label
 _atom_site_symmetry_multiplicity
 _atom_site_fract_x
 _atom_site_fract_y
 _atom_site_fract_z
 _atom_site_occupancy
  Sc  Sc0  1  0.750754  0.745659  0.743321  1
  Sc  Sc1  1  0.252247  0.255891  0.254896  1
  Sc  Sc2  1  0.093664  0.429418  0.748940  1
  Nb  Nb3  1  0.547853  0.905121  0.259758  1
  Nb  Nb4  1  0.907045  0.557992  0.257805  1
  Nb  Nb5  1  0.447583  0.094398  0.741298  1
  C  C6  1  0.510518  0.502443  0.494341  1
  C  C7  1  0.664756  0.323979  0.004052  1
  C  C8  1  0.328164  0.678772  0.004728  1
  C  C9  1  0.820606  0.171697  0.497973  1
  C  C10  1  0.176811  0.834630  0.492888  1
