# generated using pymatgen
data_Dy2TaB2Ir2Ru3
_symmetry_space_group_name_H-M   'P 1'
_cell_length_a   9.72869900
_cell_length_b   9.71501800
_cell_length_c   3.12210400
_cell_angle_alpha   90.00000000
_cell_angle_beta   90.00000000
_cell_angle_gamma   90.00000000
_symmetry_Int_Tables_number   1
_chemical_formula_structural   Dy2TaB2Ir2Ru3
_chemical_formula_sum   'Dy4 Ta2 B4 Ir4 Ru6'
_cell_volume   295.08405449
_cell_formula_units_Z   2
loop_
 _symmetry_equiv_pos_site_id
 _symmetry_equiv_pos_as_xyz
  1  'x, y, z'
loop_
 _atom_site_type_symbol
 _atom_site_label
 _atom_site_symmetry_multiplicity
 _atom_site_fract_x
 _atom_site_fract_y
 _atom_site_fract_z
 _atom_site_occupancy
  Dy  Dy0  1  0.824973  0.674704  0.000000  1
  Dy  Dy1  1  0.175027  0.325296  0.000000  1
  Dy  Dy2  1  0.324973  0.825296  0.000000  1
  Dy  Dy3  1  0.675027  0.174704  0.000000  1
  Ta  Ta4  1  0.500000  0.500000  0.000000  1
  Ta  Ta5  1  0.000000  0.000000  0.000000  1
  B  B6  1  0.623584  0.885329  0.000000  1
  B  B7  1  0.376416  0.114671  0.000000  1
  B  B8  1  0.123584  0.614671  0.000000  1
  B  B9  1  0.876416  0.385329  0.000000  1
  Ir  Ir10  1  0.570626  0.720416  0.500000  1
  Ir  Ir11  1  0.429374  0.279584  0.500000  1
  Ir  Ir12  1  0.070626  0.779584  0.500000  1
  Ir  Ir13  1  0.929374  0.220416  0.500000  1
  Ru  Ru14  1  0.281935  0.569942  0.500000  1
  Ru  Ru15  1  0.718065  0.430058  0.500000  1
  Ru  Ru16  1  0.218065  0.069942  0.500000  1
  Ru  Ru17  1  0.781935  0.930058  0.500000  1
  Ru  Ru18  1  0.500000  0.000000  0.500000  1
  Ru  Ru19  1  0.000000  0.500000  0.500000  1
