# generated using pymatgen
data_Er4TmRuRh
_symmetry_space_group_name_H-M   'P 1'
_cell_length_a   6.32130738
_cell_length_b   7.22966066
_cell_length_c   8.41882290
_cell_angle_alpha   96.74125040
_cell_angle_beta   112.05071629
_cell_angle_gamma   90.00000096
_symmetry_Int_Tables_number   1
_chemical_formula_structural   Er4TmRuRh
_chemical_formula_sum   'Er8 Tm2 Ru2 Rh2'
_cell_volume   353.73270640
_cell_formula_units_Z   2
loop_
 _symmetry_equiv_pos_site_id
 _symmetry_equiv_pos_as_xyz
  1  'x, y, z'
loop_
 _atom_site_type_symbol
 _atom_site_label
 _atom_site_symmetry_multiplicity
 _atom_site_fract_x
 _atom_site_fract_y
 _atom_site_fract_z
 _atom_site_occupancy
  Er  Er0  1  0.792142  0.082149  0.812466  1
  Er  Er1  1  0.979675  0.417851  0.187534  1
  Er  Er2  1  0.209633  0.914853  0.184693  1
  Er  Er3  1  0.024939  0.585147  0.815307  1
  Er  Er4  1  0.207723  0.183472  0.565196  1
  Er  Er5  1  0.642527  0.316528  0.434804  1
  Er  Er6  1  0.792019  0.813083  0.437094  1
  Er  Er7  1  0.354924  0.686917  0.562906  1
  Tm  Tm8  1  0.419454  0.250000  0.000000  1
  Tm  Tm9  1  0.577879  0.750000  0.000000  1
  Ru  Ru10  1  0.396800  0.574851  0.219614  1
  Ru  Ru11  1  0.177186  0.925149  0.780386  1
  Rh  Rh12  1  0.602369  0.423776  0.779638  1
  Rh  Rh13  1  0.822729  0.076224  0.220362  1
