# generated using pymatgen
data_Er4Tm6OsRu3
_symmetry_space_group_name_H-M   'P 1'
_cell_length_a   6.26243185
_cell_length_b   7.27214426
_cell_length_c   8.34567606
_cell_angle_alpha   96.85159496
_cell_angle_beta   112.10003210
_cell_angle_gamma   90.05400296
_symmetry_Int_Tables_number   1
_chemical_formula_structural   Er4Tm6OsRu3
_chemical_formula_sum   'Er4 Tm6 Os1 Ru3'
_cell_volume   349.19948052
_cell_formula_units_Z   1
loop_
 _symmetry_equiv_pos_site_id
 _symmetry_equiv_pos_as_xyz
  1  'x, y, z'
loop_
 _atom_site_type_symbol
 _atom_site_label
 _atom_site_symmetry_multiplicity
 _atom_site_fract_x
 _atom_site_fract_y
 _atom_site_fract_z
 _atom_site_occupancy
  Er  Er0  1  0.791907  0.083028  0.813744  1
  Er  Er1  1  0.975861  0.415741  0.183769  1
  Er  Er2  1  0.207947  0.915675  0.185984  1
  Er  Er3  1  0.023884  0.584199  0.814209  1
  Tm  Tm4  1  0.206116  0.184465  0.565527  1
  Tm  Tm5  1  0.640231  0.316781  0.436382  1
  Tm  Tm6  1  0.794714  0.815902  0.434723  1
  Tm  Tm7  1  0.358754  0.683880  0.564486  1
  Tm  Tm8  1  0.419420  0.249976  0.999427  1
  Tm  Tm9  1  0.580852  0.750300  0.000052  1
  Os  Os10  1  0.602389  0.423328  0.780826  1
  Ru  Ru11  1  0.823528  0.076682  0.220811  1
  Ru  Ru12  1  0.397304  0.576840  0.220255  1
  Ru  Ru13  1  0.177094  0.923201  0.779805  1
