# generated using pymatgen
data_Y5Co19(Si2P)4
_symmetry_space_group_name_H-M   'P 1'
_cell_length_a   12.14296994
_cell_length_b   12.13638810
_cell_length_c   3.70109900
_cell_angle_alpha   90.00000000
_cell_angle_beta   90.00000000
_cell_angle_gamma   119.95312929
_symmetry_Int_Tables_number   1
_chemical_formula_structural   Y5Co19(Si2P)4
_chemical_formula_sum   'Y5 Co19 Si8 P4'
_cell_volume   472.58576214
_cell_formula_units_Z   1
loop_
 _symmetry_equiv_pos_site_id
 _symmetry_equiv_pos_as_xyz
  1  'x, y, z'
loop_
 _atom_site_type_symbol
 _atom_site_label
 _atom_site_symmetry_multiplicity
 _atom_site_fract_x
 _atom_site_fract_y
 _atom_site_fract_z
 _atom_site_occupancy
  Y  Y0  1  0.333186  0.666383  0.500000  1
  Y  Y1  1  0.666849  0.331681  0.500000  1
  Y  Y2  1  0.000822  0.183790  0.000000  1
  Y  Y3  1  0.815768  0.816483  0.000000  1
  Y  Y4  1  0.184692  0.000036  0.000000  1
  Co  Co5  1  0.627466  0.825420  0.500000  1
  Co  Co6  1  0.176020  0.802649  0.500000  1
  Co  Co7  1  0.196866  0.372452  0.500000  1
  Co  Co8  1  0.374769  0.197306  0.500000  1
  Co  Co9  1  0.824082  0.626655  0.500000  1
  Co  Co10  1  0.797324  0.175233  0.500000  1
  Co  Co11  1  0.999234  0.557200  0.500000  1
  Co  Co12  1  0.441553  0.441920  0.500000  1
  Co  Co13  1  0.555318  0.996936  0.500000  1
  Co  Co14  1  0.521135  0.644945  0.000000  1
  Co  Co15  1  0.355300  0.876513  0.000000  1
  Co  Co16  1  0.122448  0.478077  0.000000  1
  Co  Co17  1  0.485961  0.124033  0.000000  1
  Co  Co18  1  0.644351  0.520750  0.000000  1
  Co  Co19  1  0.874521  0.353173  0.000000  1
  Co  Co20  1  0.999823  0.722101  0.000000  1
  Co  Co21  1  0.278270  0.277397  0.000000  1
  Co  Co22  1  0.721058  0.004633  0.000000  1
  Co  Co23  1  0.999322  0.000085  0.500000  1
  Si  Si24  1  0.999463  0.369730  0.500000  1
  Si  Si25  1  0.629653  0.629697  0.500000  1
  Si  Si26  1  0.370506  0.000512  0.500000  1
  Si  Si27  1  0.522390  0.840610  0.000000  1
  Si  Si28  1  0.158984  0.681468  0.000000  1
  Si  Si29  1  0.317957  0.477186  0.000000  1
  Si  Si30  1  0.478098  0.317752  0.000000  1
  Si  Si31  1  0.840283  0.522261  0.000000  1
  P  P32  1  0.686128  0.164674  0.000000  1
  P  P33  1  0.999951  0.818396  0.500000  1
  P  P34  1  0.182242  0.181064  0.500000  1
  P  P35  1  0.818207  0.000798  0.500000  1
