# generated using pymatgen
data_Yb11Pr(DySn2)8
_symmetry_space_group_name_H-M   'P 1'
_cell_length_a   7.84051002
_cell_length_b   8.43984216
_cell_length_c   16.05099000
_cell_angle_alpha   90.01027813
_cell_angle_beta   90.00436998
_cell_angle_gamma   90.00473775
_symmetry_Int_Tables_number   1
_chemical_formula_structural   Yb11Pr(DySn2)8
_chemical_formula_sum   'Yb11 Pr1 Dy8 Sn16'
_cell_volume   1062.13679381
_cell_formula_units_Z   1
loop_
 _symmetry_equiv_pos_site_id
 _symmetry_equiv_pos_as_xyz
  1  'x, y, z'
loop_
 _atom_site_type_symbol
 _atom_site_label
 _atom_site_symmetry_multiplicity
 _atom_site_fract_x
 _atom_site_fract_y
 _atom_site_fract_z
 _atom_site_occupancy
  Yb  Yb0  1  0.005349  0.812017  0.907861  1
  Yb  Yb1  1  0.494514  0.312306  0.092762  1
  Yb  Yb2  1  0.995538  0.188079  0.406858  1
  Yb  Yb3  1  0.494422  0.313873  0.406740  1
  Yb  Yb4  1  0.994467  0.188286  0.092855  1
  Yb  Yb5  1  0.505218  0.687720  0.906933  1
  Yb  Yb6  1  0.005861  0.812775  0.592281  1
  Yb  Yb7  1  0.837092  0.510149  0.751202  1
  Yb  Yb8  1  0.335702  0.989849  0.750768  1
  Yb  Yb9  1  0.163625  0.488516  0.249822  1
  Yb  Yb10  1  0.663697  0.011262  0.249681  1
  Pr  Pr11  1  0.506586  0.684855  0.593121  1
  Dy  Dy12  1  0.672707  0.167557  0.622380  1
  Dy  Dy13  1  0.173230  0.333412  0.878371  1
  Dy  Dy14  1  0.325982  0.834038  0.122202  1
  Dy  Dy15  1  0.826326  0.666477  0.377845  1
  Dy  Dy16  1  0.325752  0.833920  0.376909  1
  Dy  Dy17  1  0.826086  0.666046  0.122071  1
  Dy  Dy18  1  0.674412  0.166162  0.877860  1
  Dy  Dy19  1  0.172542  0.332751  0.621848  1
  Sn  Sn20  1  0.671722  0.964013  0.459958  1
  Sn  Sn21  1  0.172037  0.536544  0.040464  1
  Sn  Sn22  1  0.328934  0.035402  0.959006  1
  Sn  Sn23  1  0.828184  0.463019  0.540585  1
  Sn  Sn24  1  0.328860  0.034496  0.541067  1
  Sn  Sn25  1  0.828308  0.464111  0.959248  1
  Sn  Sn26  1  0.671352  0.964342  0.040748  1
  Sn  Sn27  1  0.174445  0.537710  0.459837  1
  Sn  Sn28  1  0.471765  0.375388  0.749582  1
  Sn  Sn29  1  0.971293  0.125762  0.749362  1
  Sn  Sn30  1  0.527396  0.625019  0.249766  1
  Sn  Sn31  1  0.027152  0.874791  0.249769  1
  Sn  Sn32  1  0.717222  0.870896  0.750127  1
  Sn  Sn33  1  0.219204  0.627750  0.749684  1
  Sn  Sn34  1  0.281747  0.127776  0.250062  1
  Sn  Sn35  1  0.781270  0.372934  0.250364  1
