# generated using pymatgen
data_Li4Nd3TmPt4
_symmetry_space_group_name_H-M   'P 1'
_cell_length_a   4.07089700
_cell_length_b   7.18863398
_cell_length_c   8.53838782
_cell_angle_alpha   89.38408034
_cell_angle_beta   90.00000000
_cell_angle_gamma   90.00000000
_symmetry_Int_Tables_number   1
_chemical_formula_structural   Li4Nd3TmPt4
_chemical_formula_sum   'Li4 Nd3 Tm1 Pt4'
_cell_volume   249.85455346
_cell_formula_units_Z   1
loop_
 _symmetry_equiv_pos_site_id
 _symmetry_equiv_pos_as_xyz
  1  'x, y, z'
loop_
 _atom_site_type_symbol
 _atom_site_label
 _atom_site_symmetry_multiplicity
 _atom_site_fract_x
 _atom_site_fract_y
 _atom_site_fract_z
 _atom_site_occupancy
  Li  Li0  1  0.250000  0.373925  0.560211  1
  Li  Li1  1  0.250000  0.870568  0.939946  1
  Li  Li2  1  0.750000  0.623094  0.447123  1
  Li  Li3  1  0.750000  0.133604  0.054054  1
  Nd  Nd4  1  0.250000  0.950982  0.315303  1
  Nd  Nd5  1  0.250000  0.455504  0.182334  1
  Nd  Nd6  1  0.750000  0.043218  0.688655  1
  Tm  Tm7  1  0.750000  0.547378  0.818184  1
  Pt  Pt8  1  0.250000  0.266275  0.874919  1
  Pt  Pt9  1  0.250000  0.741707  0.628432  1
  Pt  Pt10  1  0.750000  0.749481  0.110324  1
  Pt  Pt11  1  0.750000  0.244264  0.380515  1
