# generated using pymatgen
data_Tc5IrRuRh
_symmetry_space_group_name_H-M   'P 1'
_cell_length_a   5.53353794
_cell_length_b   5.53353731
_cell_length_c   4.34876500
_cell_angle_alpha   90.00000000
_cell_angle_beta   90.00000000
_cell_angle_gamma   120.05268239
_symmetry_Int_Tables_number   1
_chemical_formula_structural   Tc5IrRuRh
_chemical_formula_sum   'Tc5 Ir1 Ru1 Rh1'
_cell_volume   115.25811441
_cell_formula_units_Z   1
loop_
 _symmetry_equiv_pos_site_id
 _symmetry_equiv_pos_as_xyz
  1  'x, y, z'
loop_
 _atom_site_type_symbol
 _atom_site_label
 _atom_site_symmetry_multiplicity
 _atom_site_fract_x
 _atom_site_fract_y
 _atom_site_fract_z
 _atom_site_occupancy
  Tc  Tc0  1  0.157554  0.321152  0.250000  1
  Tc  Tc1  1  0.678848  0.842446  0.250000  1
  Tc  Tc2  1  0.161165  0.838835  0.250000  1
  Tc  Tc3  1  0.838541  0.677129  0.750000  1
  Tc  Tc4  1  0.322871  0.161459  0.750000  1
  Ir  Ir5  1  0.335142  0.664858  0.750000  1
  Ru  Ru6  1  0.837841  0.162159  0.750000  1
  Rh  Rh7  1  0.668038  0.331962  0.250000  1
