# generated using pymatgen
data_Cd2Ge(PdO4)2
_symmetry_space_group_name_H-M   'P 1'
_cell_length_a   5.23571319
_cell_length_b   6.06495109
_cell_length_c   6.25880753
_cell_angle_alpha   118.98058212
_cell_angle_beta   105.99070425
_cell_angle_gamma   90.00000172
_symmetry_Int_Tables_number   1
_chemical_formula_structural   Cd2Ge(PdO4)2
_chemical_formula_sum   'Cd2 Ge1 Pd2 O8'
_cell_volume   165.01249614
_cell_formula_units_Z   1
loop_
 _symmetry_equiv_pos_site_id
 _symmetry_equiv_pos_as_xyz
  1  'x, y, z'
loop_
 _atom_site_type_symbol
 _atom_site_label
 _atom_site_symmetry_multiplicity
 _atom_site_fract_x
 _atom_site_fract_y
 _atom_site_fract_z
 _atom_site_occupancy
  Cd  Cd0  1  0.651788  0.719997  0.431702  1
  Cd  Cd1  1  0.348213  0.288295  0.568299  1
  Ge  Ge2  1  0.000000  0.737495  0.999999  1
  Pd  Pd3  1  0.500001  0.997804  0.000000  1
  Pd  Pd4  1  0.000001  0.252400  0.000001  1
  O  O5  1  0.056995  0.406419  0.789941  1
  O  O6  1  0.943006  0.616480  0.210060  1
  O  O7  1  0.096832  0.893472  0.805037  1
  O  O8  1  0.903167  0.088435  0.194963  1
  O  O9  1  0.387285  0.334149  0.223113  1
  O  O10  1  0.370513  0.883590  0.213160  1
  O  O11  1  0.612716  0.111034  0.776887  1
  O  O12  1  0.629488  0.670431  0.786840  1
