# generated using pymatgen
data_Hf3Co8P6Ru
_symmetry_space_group_name_H-M   'P 1'
_cell_length_a   11.90835216
_cell_length_b   11.92336713
_cell_length_c   3.63519700
_cell_angle_alpha   90.00000000
_cell_angle_beta   90.00000000
_cell_angle_gamma   120.04172758
_symmetry_Int_Tables_number   1
_chemical_formula_structural   Hf3Co8P6Ru
_chemical_formula_sum   'Hf6 Co16 P12 Ru2'
_cell_volume   446.81362205
_cell_formula_units_Z   2
loop_
 _symmetry_equiv_pos_site_id
 _symmetry_equiv_pos_as_xyz
  1  'x, y, z'
loop_
 _atom_site_type_symbol
 _atom_site_label
 _atom_site_symmetry_multiplicity
 _atom_site_fract_x
 _atom_site_fract_y
 _atom_site_fract_z
 _atom_site_occupancy
  Hf  Hf0  1  0.821309  0.819100  0.500000  1
  Hf  Hf1  1  0.000000  0.174858  0.500000  1
  Hf  Hf2  1  0.333668  0.667072  0.000000  1
  Hf  Hf3  1  0.666332  0.333403  0.000000  1
  Hf  Hf4  1  0.000000  0.556414  0.000000  1
  Hf  Hf5  1  0.178691  0.997792  0.500000  1
  Co  Co6  1  0.624787  0.820654  0.000000  1
  Co  Co7  1  0.375213  0.195867  0.000000  1
  Co  Co8  1  0.000000  0.721831  0.500000  1
  Co  Co9  1  0.282251  0.281234  0.500000  1
  Co  Co10  1  0.871154  0.351754  0.500000  1
  Co  Co11  1  0.717749  0.998983  0.500000  1
  Co  Co12  1  0.816996  0.627808  0.000000  1
  Co  Co13  1  0.183004  0.810812  0.000000  1
  Co  Co14  1  0.358106  0.873940  0.500000  1
  Co  Co15  1  0.128846  0.480600  0.500000  1
  Co  Co16  1  0.641894  0.515834  0.500000  1
  Co  Co17  1  0.000000  0.001370  0.000000  1
  Co  Co18  1  0.514421  0.645503  0.500000  1
  Co  Co19  1  0.485579  0.131083  0.500000  1
  Co  Co20  1  0.195876  0.371374  0.000000  1
  Co  Co21  1  0.804124  0.175498  0.000000  1
  P  P22  1  0.000000  0.345245  0.000000  1
  P  P23  1  0.824880  0.515543  0.500000  1
  P  P24  1  0.684705  0.165526  0.500000  1
  P  P25  1  0.177751  0.175466  0.000000  1
  P  P26  1  0.641135  0.645064  0.000000  1
  P  P27  1  0.822249  0.997714  0.000000  1
  P  P28  1  0.517977  0.833718  0.500000  1
  P  P29  1  0.175120  0.690661  0.500000  1
  P  P30  1  0.358865  0.003929  0.000000  1
  P  P31  1  0.482023  0.315741  0.500000  1
  P  P32  1  0.000000  0.825266  0.000000  1
  P  P33  1  0.315295  0.480820  0.500000  1
  Ru  Ru34  1  0.449635  0.451078  0.000000  1
  Ru  Ru35  1  0.550365  0.001443  0.000000  1
