# generated using pymatgen
data_PrTh7(AgSn)8
_symmetry_space_group_name_H-M   'P 1'
_cell_length_a   9.78039300
_cell_length_b   9.78039206
_cell_length_c   7.42895500
_cell_angle_alpha   90.00000000
_cell_angle_beta   90.00000000
_cell_angle_gamma   119.99999980
_symmetry_Int_Tables_number   1
_chemical_formula_structural   PrTh7(AgSn)8
_chemical_formula_sum   'Pr1 Th7 Ag8 Sn8'
_cell_volume   615.41904334
_cell_formula_units_Z   1
loop_
 _symmetry_equiv_pos_site_id
 _symmetry_equiv_pos_as_xyz
  1  'x, y, z'
loop_
 _atom_site_type_symbol
 _atom_site_label
 _atom_site_symmetry_multiplicity
 _atom_site_fract_x
 _atom_site_fract_y
 _atom_site_fract_z
 _atom_site_occupancy
  Pr  Pr0  1  0.000000  0.000000  0.999256  1
  Th  Th1  1  0.489123  0.510877  0.511077  1
  Th  Th2  1  0.489123  0.978245  0.511077  1
  Th  Th3  1  0.021755  0.510877  0.511077  1
  Th  Th4  1  0.510751  0.489249  0.011418  1
  Th  Th5  1  0.510751  0.021502  0.011418  1
  Th  Th6  1  0.978498  0.489249  0.011418  1
  Th  Th7  1  0.000000  0.000000  0.500262  1
  Ag  Ag8  1  0.833508  0.166492  0.706924  1
  Ag  Ag9  1  0.833508  0.667016  0.706924  1
  Ag  Ag10  1  0.332984  0.166492  0.706924  1
  Ag  Ag11  1  0.166595  0.833405  0.208905  1
  Ag  Ag12  1  0.166595  0.333190  0.208905  1
  Ag  Ag13  1  0.666810  0.833405  0.208905  1
  Ag  Ag14  1  0.666667  0.333333  0.316058  1
  Ag  Ag15  1  0.333333  0.666667  0.816135  1
  Sn  Sn16  1  0.833414  0.166586  0.273078  1
  Sn  Sn17  1  0.833414  0.666829  0.273078  1
  Sn  Sn18  1  0.333171  0.166586  0.273078  1
  Sn  Sn19  1  0.166825  0.833175  0.769196  1
  Sn  Sn20  1  0.166825  0.333649  0.769196  1
  Sn  Sn21  1  0.666351  0.833175  0.769196  1
  Sn  Sn22  1  0.666667  0.333333  0.741839  1
  Sn  Sn23  1  0.333333  0.666667  0.242656  1
