# generated using pymatgen
data_Ba4Er(ReO6)2
_symmetry_space_group_name_H-M   'P 1'
_cell_length_a   10.11406849
_cell_length_b   10.11406843
_cell_length_c   10.11406893
_cell_angle_alpha   33.81549838
_cell_angle_beta   33.81549692
_cell_angle_gamma   33.81549644
_symmetry_Int_Tables_number   1
_chemical_formula_structural   Ba4Er(ReO6)2
_chemical_formula_sum   'Ba4 Er1 Re2 O12'
_cell_volume   285.54053807
_cell_formula_units_Z   1
loop_
 _symmetry_equiv_pos_site_id
 _symmetry_equiv_pos_as_xyz
  1  'x, y, z'
loop_
 _atom_site_type_symbol
 _atom_site_label
 _atom_site_symmetry_multiplicity
 _atom_site_fract_x
 _atom_site_fract_y
 _atom_site_fract_z
 _atom_site_occupancy
  Ba  Ba0  1  0.711040  0.711040  0.711040  1
  Ba  Ba1  1  0.288960  0.288960  0.288960  1
  Ba  Ba2  1  0.866250  0.866250  0.866250  1
  Ba  Ba3  1  0.133750  0.133750  0.133750  1
  Er  Er4  1  0.000000  0.000000  0.000000  1
  Re  Re5  1  0.579227  0.579227  0.579227  1
  Re  Re6  1  0.420773  0.420773  0.420773  1
  O  O7  1  0.222914  0.687687  0.222914  1
  O  O8  1  0.222914  0.222914  0.687687  1
  O  O9  1  0.687687  0.222914  0.222914  1
  O  O10  1  0.777086  0.312313  0.777086  1
  O  O11  1  0.777086  0.777086  0.312313  1
  O  O12  1  0.312313  0.777086  0.777086  1
  O  O13  1  0.389273  0.858361  0.389273  1
  O  O14  1  0.389273  0.389273  0.858361  1
  O  O15  1  0.858361  0.389273  0.389273  1
  O  O16  1  0.610727  0.141639  0.610727  1
  O  O17  1  0.610727  0.610727  0.141639  1
  O  O18  1  0.141639  0.610727  0.610727  1
