# generated using pymatgen
data_Tb5Y2IrI12
_symmetry_space_group_name_H-M   'P 1'
_cell_length_a   9.83902272
_cell_length_b   9.83713548
_cell_length_c   9.83293027
_cell_angle_alpha   106.91460865
_cell_angle_beta   106.92461943
_cell_angle_gamma   106.96026038
_symmetry_Int_Tables_number   1
_chemical_formula_structural   Tb5Y2IrI12
_chemical_formula_sum   'Tb5 Y2 Ir1 I12'
_cell_volume   794.03181410
_cell_formula_units_Z   1
loop_
 _symmetry_equiv_pos_site_id
 _symmetry_equiv_pos_as_xyz
  1  'x, y, z'
loop_
 _atom_site_type_symbol
 _atom_site_label
 _atom_site_symmetry_multiplicity
 _atom_site_fract_x
 _atom_site_fract_y
 _atom_site_fract_z
 _atom_site_occupancy
  Tb  Tb0  1  0.976888  0.703619  0.904959  1
  Tb  Tb1  1  0.703661  0.905007  0.976781  1
  Tb  Tb2  1  0.095163  0.023017  0.296838  1
  Tb  Tb3  1  0.023048  0.296326  0.094803  1
  Tb  Tb4  1  0.296242  0.094975  0.022932  1
  Y  Y5  1  0.499970  0.499995  0.499921  1
  Y  Y6  1  0.904977  0.976922  0.703212  1
  Ir  Ir7  1  0.000022  0.999944  0.000246  1
  I  I8  1  0.536178  0.837469  0.612793  1
  I  I9  1  0.837301  0.613153  0.535733  1
  I  I10  1  0.612687  0.535634  0.836902  1
  I  I11  1  0.464395  0.162954  0.387227  1
  I  I12  1  0.162905  0.387288  0.464312  1
  I  I13  1  0.387286  0.464370  0.162924  1
  I  I14  1  0.676202  0.224575  0.070641  1
  I  I15  1  0.223968  0.070449  0.676177  1
  I  I16  1  0.070655  0.676202  0.224525  1
  I  I17  1  0.323744  0.775363  0.929247  1
  I  I18  1  0.775535  0.929451  0.324667  1
  I  I19  1  0.929172  0.323289  0.775160  1
