# generated using pymatgen
data_SrDy6PtBr12
_symmetry_space_group_name_H-M   'P 1'
_cell_length_a   9.29506905
_cell_length_b   9.29506785
_cell_length_c   9.29506935
_cell_angle_alpha   106.01185523
_cell_angle_beta   106.01185120
_cell_angle_gamma   106.01184901
_symmetry_Int_Tables_number   1
_chemical_formula_structural   SrDy6PtBr12
_chemical_formula_sum   'Sr1 Dy6 Pt1 Br12'
_cell_volume   686.04165153
_cell_formula_units_Z   1
loop_
 _symmetry_equiv_pos_site_id
 _symmetry_equiv_pos_as_xyz
  1  'x, y, z'
loop_
 _atom_site_type_symbol
 _atom_site_label
 _atom_site_symmetry_multiplicity
 _atom_site_fract_x
 _atom_site_fract_y
 _atom_site_fract_z
 _atom_site_occupancy
  Sr  Sr0  1  0.500000  0.500000  0.500000  1
  Dy  Dy1  1  0.100148  0.019872  0.310537  1
  Dy  Dy2  1  0.310537  0.100148  0.019872  1
  Dy  Dy3  1  0.019872  0.310537  0.100148  1
  Dy  Dy4  1  0.899852  0.980128  0.689463  1
  Dy  Dy5  1  0.689463  0.899852  0.980128  1
  Dy  Dy6  1  0.980128  0.689463  0.899852  1
  Pt  Pt7  1  0.000000  0.000000  0.000000  1
  Br  Br8  1  0.072997  0.674754  0.219143  1
  Br  Br9  1  0.219143  0.072997  0.674754  1
  Br  Br10  1  0.674754  0.219143  0.072997  1
  Br  Br11  1  0.927003  0.325246  0.780857  1
  Br  Br12  1  0.780857  0.927003  0.325246  1
  Br  Br13  1  0.325246  0.780857  0.927003  1
  Br  Br14  1  0.445135  0.141054  0.365562  1
  Br  Br15  1  0.365562  0.445135  0.141054  1
  Br  Br16  1  0.141054  0.365562  0.445135  1
  Br  Br17  1  0.554865  0.858946  0.634438  1
  Br  Br18  1  0.634438  0.554865  0.858946  1
  Br  Br19  1  0.858946  0.634438  0.554865  1
