# generated using pymatgen
data_Ho6Er2Tc3B24Rh
_symmetry_space_group_name_H-M   'P 1'
_cell_length_a   3.66606100
_cell_length_b   9.13076297
_cell_length_c   11.51012904
_cell_angle_alpha   90.11516244
_cell_angle_beta   90.00000000
_cell_angle_gamma   90.00000000
_symmetry_Int_Tables_number   1
_chemical_formula_structural   Ho6Er2Tc3B24Rh
_chemical_formula_sum   'Ho6 Er2 Tc3 B24 Rh1'
_cell_volume   385.28852161
_cell_formula_units_Z   1
loop_
 _symmetry_equiv_pos_site_id
 _symmetry_equiv_pos_as_xyz
  1  'x, y, z'
loop_
 _atom_site_type_symbol
 _atom_site_label
 _atom_site_symmetry_multiplicity
 _atom_site_fract_x
 _atom_site_fract_y
 _atom_site_fract_z
 _atom_site_occupancy
  Ho  Ho0  1  0.500000  0.318655  0.415858  1
  Ho  Ho1  1  0.500000  0.677964  0.591019  1
  Ho  Ho2  1  0.500000  0.176804  0.912738  1
  Ho  Ho3  1  0.500000  0.827425  0.081281  1
  Ho  Ho4  1  0.500000  0.440699  0.129136  1
  Ho  Ho5  1  0.500000  0.556960  0.871009  1
  Er  Er6  1  0.500000  0.056117  0.629551  1
  Er  Er7  1  0.500000  0.943978  0.369826  1
  Tc  Tc8  1  0.500000  0.138354  0.180388  1
  Tc  Tc9  1  0.500000  0.861658  0.820556  1
  Tc  Tc10  1  0.500000  0.362154  0.677714  1
  B  B11  1  0.000000  0.101654  0.471310  1
  B  B12  1  0.000000  0.895380  0.528184  1
  B  B13  1  0.000000  0.396522  0.971841  1
  B  B14  1  0.000000  0.604429  0.029405  1
  B  B15  1  0.000000  0.130767  0.315183  1
  B  B16  1  0.000000  0.868516  0.685255  1
  B  B17  1  0.000000  0.368950  0.814162  1
  B  B18  1  0.000000  0.631990  0.184086  1
  B  B19  1  0.000000  0.053588  0.066545  1
  B  B20  1  0.000000  0.947181  0.932625  1
  B  B21  1  0.000000  0.446351  0.566542  1
  B  B22  1  0.000000  0.554061  0.433781  1
  B  B23  1  0.000000  0.483314  0.288051  1
  B  B24  1  0.000000  0.517806  0.712203  1
  B  B25  1  0.000000  0.017469  0.787007  1
  B  B26  1  0.000000  0.982861  0.212032  1
  B  B27  1  0.000000  0.249023  0.081151  1
  B  B28  1  0.000000  0.751855  0.918982  1
  B  B29  1  0.000000  0.250105  0.580884  1
  B  B30  1  0.000000  0.749410  0.420289  1
  B  B31  1  0.000000  0.291662  0.235422  1
  B  B32  1  0.000000  0.708269  0.765676  1
  B  B33  1  0.000000  0.208072  0.734181  1
  B  B34  1  0.000000  0.791593  0.264979  1
  Rh  Rh35  1  0.500000  0.638408  0.321149  1
