# generated using pymatgen
data_Sm2Be2Si2NiO10
_symmetry_space_group_name_H-M   'P 1'
_cell_length_a   7.61498500
_cell_length_b   4.78052924
_cell_length_c   10.10230491
_cell_angle_alpha   90.76873201
_cell_angle_beta   90.00000000
_cell_angle_gamma   90.00000000
_symmetry_Int_Tables_number   1
_chemical_formula_structural   Sm2Be2Si2NiO10
_chemical_formula_sum   'Sm4 Be4 Si4 Ni2 O20'
_cell_volume   367.72775687
_cell_formula_units_Z   2
loop_
 _symmetry_equiv_pos_site_id
 _symmetry_equiv_pos_as_xyz
  1  'x, y, z'
loop_
 _atom_site_type_symbol
 _atom_site_label
 _atom_site_symmetry_multiplicity
 _atom_site_fract_x
 _atom_site_fract_y
 _atom_site_fract_z
 _atom_site_occupancy
  Sm  Sm0  1  0.389876  0.996891  0.826800  1
  Sm  Sm1  1  0.889876  0.003109  0.673200  1
  Sm  Sm2  1  0.610124  0.003109  0.173200  1
  Sm  Sm3  1  0.110124  0.996891  0.326800  1
  Be  Be4  1  0.913309  0.464012  0.160194  1
  Be  Be5  1  0.086691  0.535988  0.839806  1
  Be  Be6  1  0.586691  0.464012  0.660194  1
  Be  Be7  1  0.413309  0.535988  0.339806  1
  Si  Si8  1  0.223699  0.481351  0.579478  1
  Si  Si9  1  0.723699  0.518649  0.920522  1
  Si  Si10  1  0.776301  0.518649  0.420522  1
  Si  Si11  1  0.276301  0.481351  0.079478  1
  Ni  Ni12  1  0.500000  0.000000  0.500000  1
  Ni  Ni13  1  0.000000  0.000000  0.000000  1
  O  O14  1  0.395168  0.304787  0.636693  1
  O  O15  1  0.895168  0.695213  0.863307  1
  O  O16  1  0.604832  0.695213  0.363307  1
  O  O17  1  0.104832  0.304787  0.136693  1
  O  O18  1  0.157446  0.685846  0.701912  1
  O  O19  1  0.657446  0.314154  0.798088  1
  O  O20  1  0.411804  0.205402  0.335848  1
  O  O21  1  0.088196  0.205402  0.835848  1
  O  O22  1  0.911804  0.794598  0.164152  1
  O  O23  1  0.588196  0.794598  0.664152  1
  O  O24  1  0.415553  0.246022  0.029242  1
  O  O25  1  0.915553  0.753978  0.470758  1
  O  O26  1  0.584447  0.753978  0.970758  1
  O  O27  1  0.084447  0.246022  0.529242  1
  O  O28  1  0.292786  0.685186  0.458811  1
  O  O29  1  0.792786  0.314814  0.041189  1
  O  O30  1  0.707214  0.314814  0.541189  1
  O  O31  1  0.207214  0.685186  0.958811  1
  O  O32  1  0.342554  0.685846  0.201912  1
  O  O33  1  0.842554  0.314154  0.298088  1
