# generated using pymatgen
data_Tb6DyEr9Cd4Ir3Pt
_symmetry_space_group_name_H-M   'P 1'
_cell_length_a   9.61127178
_cell_length_b   9.61127180
_cell_length_c   9.61127349
_cell_angle_alpha   60.13958714
_cell_angle_beta   60.13957745
_cell_angle_gamma   60.13959113
_symmetry_Int_Tables_number   1
_chemical_formula_structural   Tb6DyEr9Cd4Ir3Pt
_chemical_formula_sum   'Tb6 Dy1 Er9 Cd4 Ir3 Pt1'
_cell_volume   629.79427058
_cell_formula_units_Z   1
loop_
 _symmetry_equiv_pos_site_id
 _symmetry_equiv_pos_as_xyz
  1  'x, y, z'
loop_
 _atom_site_type_symbol
 _atom_site_label
 _atom_site_symmetry_multiplicity
 _atom_site_fract_x
 _atom_site_fract_y
 _atom_site_fract_z
 _atom_site_occupancy
  Tb  Tb0  1  0.188914  0.811859  0.811859  1
  Tb  Tb1  1  0.812874  0.188322  0.188322  1
  Tb  Tb2  1  0.811859  0.188914  0.811859  1
  Tb  Tb3  1  0.188322  0.812874  0.188322  1
  Tb  Tb4  1  0.811859  0.811859  0.188914  1
  Tb  Tb5  1  0.188322  0.188322  0.812874  1
  Dy  Dy6  1  0.598315  0.598315  0.598315  1
  Er  Er7  1  0.601534  0.601534  0.200799  1
  Er  Er8  1  0.601534  0.200799  0.601534  1
  Er  Er9  1  0.200799  0.601534  0.601534  1
  Er  Er10  1  0.057133  0.439510  0.439510  1
  Er  Er11  1  0.436839  0.061339  0.061339  1
  Er  Er12  1  0.439510  0.057133  0.439510  1
  Er  Er13  1  0.061339  0.436839  0.061339  1
  Er  Er14  1  0.439510  0.439510  0.057133  1
  Er  Er15  1  0.061339  0.061339  0.436839  1
  Cd  Cd16  1  0.830467  0.830467  0.830467  1
  Cd  Cd17  1  0.830923  0.830923  0.507461  1
  Cd  Cd18  1  0.830923  0.507461  0.830923  1
  Cd  Cd19  1  0.507461  0.830923  0.830923  1
  Ir  Ir20  1  0.391374  0.391374  0.825001  1
  Ir  Ir21  1  0.391374  0.825001  0.391374  1
  Ir  Ir22  1  0.825001  0.391374  0.391374  1
  Pt  Pt23  1  0.392477  0.392477  0.392477  1
