# generated using pymatgen
data_Er6Al25Fe7
_symmetry_space_group_name_H-M   'P 1'
_cell_length_a   8.72275635
_cell_length_b   8.72275544
_cell_length_c   9.34835401
_cell_angle_alpha   90.28877273
_cell_angle_beta   89.71122612
_cell_angle_gamma   119.85872642
_symmetry_Int_Tables_number   1
_chemical_formula_structural   Er6Al25Fe7
_chemical_formula_sum   'Er6 Al25 Fe7'
_cell_volume   616.85394005
_cell_formula_units_Z   1
loop_
 _symmetry_equiv_pos_site_id
 _symmetry_equiv_pos_as_xyz
  1  'x, y, z'
loop_
 _atom_site_type_symbol
 _atom_site_label
 _atom_site_symmetry_multiplicity
 _atom_site_fract_x
 _atom_site_fract_y
 _atom_site_fract_z
 _atom_site_occupancy
  Er  Er0  1  0.194311  0.386996  0.246650  1
  Er  Er1  1  0.805689  0.613004  0.753350  1
  Er  Er2  1  0.613004  0.805689  0.246650  1
  Er  Er3  1  0.386996  0.194311  0.753350  1
  Er  Er4  1  0.194853  0.805147  0.257056  1
  Er  Er5  1  0.805147  0.194853  0.742944  1
  Al  Al6  1  0.323455  0.676545  0.014951  1
  Al  Al7  1  0.676545  0.323455  0.985049  1
  Al  Al8  1  0.666526  0.333474  0.515946  1
  Al  Al9  1  0.333474  0.666526  0.484054  1
  Al  Al10  1  0.160385  0.322630  0.571267  1
  Al  Al11  1  0.839615  0.677370  0.428733  1
  Al  Al12  1  0.677370  0.839615  0.571267  1
  Al  Al13  1  0.855890  0.681630  0.080243  1
  Al  Al14  1  0.322630  0.160385  0.428733  1
  Al  Al15  1  0.144110  0.318370  0.919757  1
  Al  Al16  1  0.161816  0.838184  0.576888  1
  Al  Al17  1  0.318370  0.144110  0.080243  1
  Al  Al18  1  0.838184  0.161816  0.423112  1
  Al  Al19  1  0.681630  0.855890  0.919757  1
  Al  Al20  1  0.839671  0.160329  0.077878  1
  Al  Al21  1  0.160329  0.839671  0.922122  1
  Al  Al22  1  0.558968  0.115064  0.249432  1
  Al  Al23  1  0.441032  0.884936  0.750568  1
  Al  Al24  1  0.884936  0.441032  0.249432  1
  Al  Al25  1  0.115064  0.558968  0.750568  1
  Al  Al26  1  0.564251  0.435749  0.263741  1
  Al  Al27  1  0.435749  0.564251  0.736259  1
  Al  Al28  1  0.999097  0.000903  0.250614  1
  Al  Al29  1  0.000903  0.999097  0.749386  1
  Al  Al30  1  0.500000  0.500000  0.000000  1
  Fe  Fe31  1  0.500000  0.000000  0.000000  1
  Fe  Fe32  1  0.000000  0.500000  0.000000  1
  Fe  Fe33  1  0.500000  0.000000  0.500000  1
  Fe  Fe34  1  0.000000  0.500000  0.500000  1
  Fe  Fe35  1  0.500000  0.500000  0.500000  1
  Fe  Fe36  1  0.000000  0.000000  0.000000  1
  Fe  Fe37  1  0.000000  0.000000  0.500000  1
