# generated using pymatgen
data_Pr3Nd3In10
_symmetry_space_group_name_H-M   'P 1'
_cell_length_a   6.61502146
_cell_length_b   6.61877777
_cell_length_c   10.58969674
_cell_angle_alpha   90.02202635
_cell_angle_beta   90.07326690
_cell_angle_gamma   101.70724339
_symmetry_Int_Tables_number   1
_chemical_formula_structural   Pr3Nd3In10
_chemical_formula_sum   'Pr3 Nd3 In10'
_cell_volume   454.00671799
_cell_formula_units_Z   1
loop_
 _symmetry_equiv_pos_site_id
 _symmetry_equiv_pos_as_xyz
  1  'x, y, z'
loop_
 _atom_site_type_symbol
 _atom_site_label
 _atom_site_symmetry_multiplicity
 _atom_site_fract_x
 _atom_site_fract_y
 _atom_site_fract_z
 _atom_site_occupancy
  Pr  Pr0  1  0.203300  0.796815  0.499776  1
  Pr  Pr1  1  0.202655  0.796747  0.999878  1
  Pr  Pr2  1  0.796283  0.202816  0.500187  1
  Nd  Nd3  1  0.631265  0.630960  0.250056  1
  Nd  Nd4  1  0.369409  0.369431  0.750209  1
  Nd  Nd5  1  0.797022  0.202969  0.999977  1
  In  In6  1  0.013169  0.013896  0.249620  1
  In  In7  1  0.986989  0.987472  0.750225  1
  In  In8  1  0.309141  0.309314  0.049443  1
  In  In9  1  0.690348  0.690471  0.950461  1
  In  In10  1  0.309450  0.309073  0.450242  1
  In  In11  1  0.690411  0.690106  0.550086  1
  In  In12  1  0.502540  0.075280  0.249278  1
  In  In13  1  0.924673  0.497420  0.750543  1
  In  In14  1  0.498532  0.925666  0.750253  1
  In  In15  1  0.074814  0.501562  0.249766  1
