# generated using pymatgen
data_CaYbPa(SnIr)3
_symmetry_space_group_name_H-M   'P 1'
_cell_length_a   7.46945645
_cell_length_b   7.69440140
_cell_length_c   3.97941800
_cell_angle_alpha   90.00000000
_cell_angle_beta   90.00000000
_cell_angle_gamma   121.04983047
_symmetry_Int_Tables_number   1
_chemical_formula_structural   CaYbPa(SnIr)3
_chemical_formula_sum   'Ca1 Yb1 Pa1 Sn3 Ir3'
_cell_volume   195.93942074
_cell_formula_units_Z   1
loop_
 _symmetry_equiv_pos_site_id
 _symmetry_equiv_pos_as_xyz
  1  'x, y, z'
loop_
 _atom_site_type_symbol
 _atom_site_label
 _atom_site_symmetry_multiplicity
 _atom_site_fract_x
 _atom_site_fract_y
 _atom_site_fract_z
 _atom_site_occupancy
  Ca  Ca0  1  0.595169  0.593485  0.500000  1
  Yb  Yb1  1  0.405398  0.998742  0.500000  1
  Pa  Pa2  1  0.999947  0.411418  0.500000  1
  Sn  Sn3  1  0.000551  0.760914  0.000000  1
  Sn  Sn4  1  0.274056  0.257906  0.000000  1
  Sn  Sn5  1  0.725719  0.984200  0.000000  1
  Ir  Ir6  1  0.289833  0.633520  0.000000  1
  Ir  Ir7  1  0.707361  0.336673  0.000000  1
  Ir  Ir8  1  0.001965  0.023142  0.500000  1
