# generated using pymatgen
data_Dy4Y4HoEr3Co5Sn
_symmetry_space_group_name_H-M   'P 1'
_cell_length_a   8.28200674
_cell_length_b   8.28377833
_cell_length_c   8.28200538
_cell_angle_alpha   107.13512594
_cell_angle_beta   110.60972403
_cell_angle_gamma   110.68529549
_symmetry_Int_Tables_number   1
_chemical_formula_structural   Dy4Y4HoEr3Co5Sn
_chemical_formula_sum   'Dy4 Y4 Ho1 Er3 Co5 Sn1'
_cell_volume   436.90284163
_cell_formula_units_Z   1
loop_
 _symmetry_equiv_pos_site_id
 _symmetry_equiv_pos_as_xyz
  1  'x, y, z'
loop_
 _atom_site_type_symbol
 _atom_site_label
 _atom_site_symmetry_multiplicity
 _atom_site_fract_x
 _atom_site_fract_y
 _atom_site_fract_z
 _atom_site_occupancy
  Dy  Dy0  1  0.192815  0.207735  0.400824  1
  Dy  Dy1  1  0.807400  0.792296  0.599449  1
  Dy  Dy2  1  0.192846  0.792296  0.984895  1
  Dy  Dy3  1  0.806913  0.207735  0.014921  1
  Y  Y4  1  0.479585  0.291810  0.187247  1
  Y  Y5  1  0.104561  0.291810  0.812225  1
  Y  Y6  1  0.894975  0.707932  0.187234  1
  Y  Y7  1  0.520699  0.707932  0.812960  1
  Ho  Ho8  1  0.307213  0.620781  0.313568  1
  Er  Er9  1  0.307321  0.993606  0.686284  1
  Er  Er10  1  0.692586  0.378793  0.686207  1
  Er  Er11  1  0.692840  0.006795  0.313957  1
  Co  Co12  1  0.500168  0.612354  0.112186  1
  Co  Co13  1  0.499841  0.387014  0.887173  1
  Co  Co14  1  0.378859  0.000444  0.378786  1
  Co  Co15  1  0.621658  0.000444  0.621586  1
  Co  Co16  1  0.000004  0.999992  0.999988  1
  Sn  Sn17  1  0.999717  0.500228  0.500511  1
