# generated using pymatgen
data_Dy3Y5(ErSi3)2
_symmetry_space_group_name_H-M   'P 1'
_cell_length_a   8.45121685
_cell_length_b   8.45119026
_cell_length_c   6.35000700
_cell_angle_alpha   89.99936613
_cell_angle_beta   89.99879240
_cell_angle_gamma   120.01401069
_symmetry_Int_Tables_number   1
_chemical_formula_structural   Dy3Y5(ErSi3)2
_chemical_formula_sum   'Dy3 Y5 Er2 Si6'
_cell_volume   392.71783805
_cell_formula_units_Z   1
loop_
 _symmetry_equiv_pos_site_id
 _symmetry_equiv_pos_as_xyz
  1  'x, y, z'
loop_
 _atom_site_type_symbol
 _atom_site_label
 _atom_site_symmetry_multiplicity
 _atom_site_fract_x
 _atom_site_fract_y
 _atom_site_fract_z
 _atom_site_occupancy
  Dy  Dy0  1  0.666798  0.333038  0.250015  1
  Dy  Dy1  1  0.333029  0.666802  0.250012  1
  Dy  Dy2  1  0.755602  0.755607  0.500522  1
  Y  Y3  1  0.243685  0.000213  0.500544  1
  Y  Y4  1  0.000207  0.243694  0.500542  1
  Y  Y5  1  0.244429  0.244436  0.999463  1
  Y  Y6  1  0.756424  0.999727  0.999461  1
  Y  Y7  1  0.999720  0.756429  0.999459  1
  Er  Er8  1  0.333127  0.666797  0.749972  1
  Er  Er9  1  0.666784  0.333031  0.749995  1
  Si  Si10  1  0.394761  0.394768  0.501410  1
  Si  Si11  1  0.605781  0.999590  0.501416  1
  Si  Si12  1  0.999587  0.605788  0.501421  1
  Si  Si13  1  0.605529  0.605534  0.998606  1
  Si  Si14  1  0.394537  0.000047  0.998583  1
  Si  Si15  1  0.000047  0.394545  0.998579  1
