# generated using pymatgen
data_Tm2Zn2IrRh
_symmetry_space_group_name_H-M   'P 1'
_cell_length_a   4.02177400
_cell_length_b   6.90402042
_cell_length_c   8.02606232
_cell_angle_alpha   89.85635964
_cell_angle_beta   90.00000000
_cell_angle_gamma   90.00000000
_symmetry_Int_Tables_number   1
_chemical_formula_structural   Tm2Zn2IrRh
_chemical_formula_sum   'Tm4 Zn4 Ir2 Rh2'
_cell_volume   222.85423502
_cell_formula_units_Z   2
loop_
 _symmetry_equiv_pos_site_id
 _symmetry_equiv_pos_as_xyz
  1  'x, y, z'
loop_
 _atom_site_type_symbol
 _atom_site_label
 _atom_site_symmetry_multiplicity
 _atom_site_fract_x
 _atom_site_fract_y
 _atom_site_fract_z
 _atom_site_occupancy
  Tm  Tm0  1  0.250000  0.534814  0.182542  1
  Tm  Tm1  1  0.750000  0.465186  0.817458  1
  Tm  Tm2  1  0.750000  0.963253  0.684133  1
  Tm  Tm3  1  0.250000  0.036747  0.315867  1
  Zn  Zn4  1  0.250000  0.638811  0.565339  1
  Zn  Zn5  1  0.750000  0.361189  0.434661  1
  Zn  Zn6  1  0.750000  0.860921  0.065548  1
  Zn  Zn7  1  0.250000  0.139079  0.934452  1
  Ir  Ir8  1  0.250000  0.756200  0.877045  1
  Ir  Ir9  1  0.750000  0.243800  0.122955  1
  Rh  Rh10  1  0.750000  0.744764  0.378746  1
  Rh  Rh11  1  0.250000  0.255236  0.621254  1
