# generated using pymatgen
data_Nd3DyIr3RhO14
_symmetry_space_group_name_H-M   'P 1'
_cell_length_a   7.34903548
_cell_length_b   7.37835984
_cell_length_c   7.37836000
_cell_angle_alpha   59.99999927
_cell_angle_beta   59.86791545
_cell_angle_gamma   59.86792216
_symmetry_Int_Tables_number   1
_chemical_formula_structural   Nd3DyIr3RhO14
_chemical_formula_sum   'Nd3 Dy1 Ir3 Rh1 O14'
_cell_volume   282.33524581
_cell_formula_units_Z   1
loop_
 _symmetry_equiv_pos_site_id
 _symmetry_equiv_pos_as_xyz
  1  'x, y, z'
loop_
 _atom_site_type_symbol
 _atom_site_label
 _atom_site_symmetry_multiplicity
 _atom_site_fract_x
 _atom_site_fract_y
 _atom_site_fract_z
 _atom_site_occupancy
  Nd  Nd0  1  0.125000  0.625000  0.125000  1
  Nd  Nd1  1  0.125000  0.125000  0.625000  1
  Nd  Nd2  1  0.125000  0.125000  0.125000  1
  Dy  Dy3  1  0.625000  0.125000  0.125000  1
  Ir  Ir4  1  0.625000  0.125000  0.625000  1
  Ir  Ir5  1  0.625000  0.625000  0.125000  1
  Ir  Ir6  1  0.625000  0.625000  0.625000  1
  Rh  Rh7  1  0.125000  0.625000  0.625000  1
  O  O8  1  0.698150  0.716122  0.292864  1
  O  O9  1  0.294172  0.286836  0.709496  1
  O  O10  1  0.698150  0.292864  0.716122  1
  O  O11  1  0.294172  0.709496  0.286836  1
  O  O12  1  0.294172  0.709496  0.709496  1
  O  O13  1  0.698150  0.292864  0.292864  1
  O  O14  1  0.551850  0.533878  0.957136  1
  O  O15  1  0.955828  0.963164  0.540504  1
  O  O16  1  0.551850  0.957136  0.533878  1
  O  O17  1  0.955828  0.540504  0.963164  1
  O  O18  1  0.955828  0.540504  0.540504  1
  O  O19  1  0.551850  0.957136  0.957136  1
  O  O20  1  0.262178  0.245941  0.245941  1
  O  O21  1  0.987822  0.004059  0.004059  1
