# generated using pymatgen
data_Dy4Al18ZnRh5
_symmetry_space_group_name_H-M   'P 1'
_cell_length_a   7.59431914
_cell_length_b   7.59431914
_cell_length_c   9.46086436
_cell_angle_alpha   89.96938063
_cell_angle_beta   89.96937769
_cell_angle_gamma   119.63860061
_symmetry_Int_Tables_number   1
_chemical_formula_structural   Dy4Al18ZnRh5
_chemical_formula_sum   'Dy4 Al18 Zn1 Rh5'
_cell_volume   474.25177881
_cell_formula_units_Z   1
loop_
 _symmetry_equiv_pos_site_id
 _symmetry_equiv_pos_as_xyz
  1  'x, y, z'
loop_
 _atom_site_type_symbol
 _atom_site_label
 _atom_site_symmetry_multiplicity
 _atom_site_fract_x
 _atom_site_fract_y
 _atom_site_fract_z
 _atom_site_occupancy
  Dy  Dy0  1  0.990404  0.665008  0.749317  1
  Dy  Dy1  1  0.000657  0.329102  0.251272  1
  Dy  Dy2  1  0.670898  0.999343  0.748728  1
  Dy  Dy3  1  0.334992  0.009596  0.250683  1
  Al  Al4  1  0.126192  0.123548  0.751990  1
  Al  Al5  1  0.876452  0.873808  0.248010  1
  Al  Al6  1  0.012336  0.335372  0.578427  1
  Al  Al7  1  0.008041  0.675206  0.422145  1
  Al  Al8  1  0.002721  0.665676  0.072297  1
  Al  Al9  1  0.334324  0.997279  0.927703  1
  Al  Al10  1  0.999893  0.334461  0.926398  1
  Al  Al11  1  0.665539  0.000107  0.073602  1
  Al  Al12  1  0.664628  0.987664  0.421573  1
  Al  Al13  1  0.324794  0.991959  0.577855  1
  Al  Al14  1  0.330624  0.331263  0.048796  1
  Al  Al15  1  0.668737  0.669376  0.951204  1
  Al  Al16  1  0.665329  0.671379  0.558659  1
  Al  Al17  1  0.328621  0.334671  0.441341  1
  Al  Al18  1  0.341358  0.552503  0.752146  1
  Al  Al19  1  0.660596  0.458022  0.240676  1
  Al  Al20  1  0.541978  0.339404  0.759324  1
  Al  Al21  1  0.447497  0.658642  0.247854  1
  Zn  Zn22  1  0.673860  0.326140  0.500000  1
  Rh  Rh23  1  0.328708  0.671292  0.500000  1
  Rh  Rh24  1  0.328454  0.671546  0.000000  1
  Rh  Rh25  1  0.672720  0.327280  0.000000  1
  Rh  Rh26  1  0.999371  0.000629  0.500000  1
  Rh  Rh27  1  0.000274  0.999726  0.000000  1
