# generated using pymatgen
data_Dy5Er11Cd4IrOs2Pt
_symmetry_space_group_name_H-M   'P 1'
_cell_length_a   9.63841434
_cell_length_b   9.61140383
_cell_length_c   9.65181531
_cell_angle_alpha   59.35282061
_cell_angle_beta   59.43878050
_cell_angle_gamma   59.33671119
_symmetry_Int_Tables_number   1
_chemical_formula_structural   Dy5Er11Cd4IrOs2Pt
_chemical_formula_sum   'Dy5 Er11 Cd4 Ir1 Os2 Pt1'
_cell_volume   623.26761523
_cell_formula_units_Z   1
loop_
 _symmetry_equiv_pos_site_id
 _symmetry_equiv_pos_as_xyz
  1  'x, y, z'
loop_
 _atom_site_type_symbol
 _atom_site_label
 _atom_site_symmetry_multiplicity
 _atom_site_fract_x
 _atom_site_fract_y
 _atom_site_fract_z
 _atom_site_occupancy
  Dy  Dy0  1  0.806705  0.188865  0.190081  1
  Dy  Dy1  1  0.806373  0.189297  0.811835  1
  Dy  Dy2  1  0.190080  0.802611  0.190210  1
  Dy  Dy3  1  0.816449  0.810366  0.187269  1
  Dy  Dy4  1  0.189517  0.188565  0.809399  1
  Er  Er5  1  0.602285  0.599028  0.600148  1
  Er  Er6  1  0.602277  0.598293  0.204626  1
  Er  Er7  1  0.595467  0.211207  0.596478  1
  Er  Er8  1  0.204470  0.596961  0.601123  1
  Er  Er9  1  0.062286  0.437484  0.438894  1
  Er  Er10  1  0.436941  0.064209  0.056135  1
  Er  Er11  1  0.438769  0.065448  0.438499  1
  Er  Er12  1  0.062459  0.433736  0.060368  1
  Er  Er13  1  0.439199  0.437997  0.060474  1
  Er  Er14  1  0.055293  0.061015  0.440080  1
  Er  Er15  1  0.191169  0.802433  0.815226  1
  Cd  Cd16  1  0.829519  0.829234  0.829815  1
  Cd  Cd17  1  0.829411  0.830833  0.507705  1
  Cd  Cd18  1  0.830932  0.505932  0.831105  1
  Cd  Cd19  1  0.505729  0.831380  0.830559  1
  Ir  Ir20  1  0.827650  0.394032  0.393093  1
  Os  Os21  1  0.390713  0.397194  0.387207  1
  Os  Os22  1  0.393729  0.397173  0.825874  1
  Pt  Pt23  1  0.392582  0.826708  0.393795  1
