# generated using pymatgen
data_Pr10InSi4Ge
_symmetry_space_group_name_H-M   'P 1'
_cell_length_a   7.86533300
_cell_length_b   9.25337201
_cell_length_c   7.86533300
_cell_angle_alpha   115.15055327
_cell_angle_beta   90.00000000
_cell_angle_gamma   115.15055327
_symmetry_Int_Tables_number   1
_chemical_formula_structural   Pr10InSi4Ge
_chemical_formula_sum   'Pr10 In1 Si4 Ge1'
_cell_volume   457.51012856
_cell_formula_units_Z   1
loop_
 _symmetry_equiv_pos_site_id
 _symmetry_equiv_pos_as_xyz
  1  'x, y, z'
loop_
 _atom_site_type_symbol
 _atom_site_label
 _atom_site_symmetry_multiplicity
 _atom_site_fract_x
 _atom_site_fract_y
 _atom_site_fract_z
 _atom_site_occupancy
  Pr  Pr0  1  0.974007  0.948014  0.974007  1
  Pr  Pr1  1  0.525993  0.051986  0.525993  1
  Pr  Pr2  1  0.523924  0.721392  0.672303  1
  Pr  Pr3  1  0.197470  0.721392  0.049090  1
  Pr  Pr4  1  0.672303  0.721392  0.197470  1
  Pr  Pr5  1  0.049090  0.721392  0.523924  1
  Pr  Pr6  1  0.450910  0.278608  0.302530  1
  Pr  Pr7  1  0.827697  0.278608  0.976076  1
  Pr  Pr8  1  0.302530  0.278608  0.827697  1
  Pr  Pr9  1  0.976076  0.278608  0.450910  1
  In  In10  1  0.750000  0.500000  0.750000  1
  Si  Si11  1  0.884711  0.000000  0.615289  1
  Si  Si12  1  0.115289  0.000000  0.384711  1
  Si  Si13  1  0.615289  0.000000  0.115289  1
  Si  Si14  1  0.384711  0.000000  0.884711  1
  Ge  Ge15  1  0.250000  0.500000  0.250000  1
