# generated using pymatgen
data_YLu19Cd6OsRh
_symmetry_space_group_name_H-M   'P 1'
_cell_length_a   9.41367630
_cell_length_b   9.40513073
_cell_length_c   9.65990700
_cell_angle_alpha   90.00000000
_cell_angle_beta   90.00000000
_cell_angle_gamma   119.96996439
_symmetry_Int_Tables_number   1
_chemical_formula_structural   YLu19Cd6OsRh
_chemical_formula_sum   'Y1 Lu19 Cd6 Os1 Rh1'
_cell_volume   740.89904972
_cell_formula_units_Z   1
loop_
 _symmetry_equiv_pos_site_id
 _symmetry_equiv_pos_as_xyz
  1  'x, y, z'
loop_
 _atom_site_type_symbol
 _atom_site_label
 _atom_site_symmetry_multiplicity
 _atom_site_fract_x
 _atom_site_fract_y
 _atom_site_fract_z
 _atom_site_occupancy
  Y  Y0  1  0.917949  0.458974  0.250000  1
  Lu  Lu1  1  0.001492  0.000746  0.500237  1
  Lu  Lu2  1  0.001492  0.000746  0.999763  1
  Lu  Lu3  1  0.537153  0.461449  0.250000  1
  Lu  Lu4  1  0.537153  0.075703  0.250000  1
  Lu  Lu5  1  0.456526  0.541949  0.750000  1
  Lu  Lu6  1  0.456526  0.914578  0.750000  1
  Lu  Lu7  1  0.081919  0.540960  0.750000  1
  Lu  Lu8  1  0.210887  0.790611  0.442544  1
  Lu  Lu9  1  0.210887  0.420278  0.442544  1
  Lu  Lu10  1  0.581160  0.790580  0.442970  1
  Lu  Lu11  1  0.789780  0.207583  0.559670  1
  Lu  Lu12  1  0.789780  0.582197  0.559670  1
  Lu  Lu13  1  0.419618  0.209810  0.559284  1
  Lu  Lu14  1  0.789780  0.207583  0.940330  1
  Lu  Lu15  1  0.789780  0.582197  0.940330  1
  Lu  Lu16  1  0.419618  0.209810  0.940716  1
  Lu  Lu17  1  0.210887  0.790611  0.057456  1
  Lu  Lu18  1  0.210887  0.420278  0.057456  1
  Lu  Lu19  1  0.581160  0.790580  0.057030  1
  Cd  Cd20  1  0.884742  0.110910  0.250000  1
  Cd  Cd21  1  0.884742  0.773832  0.250000  1
  Cd  Cd22  1  0.228040  0.114020  0.250000  1
  Cd  Cd23  1  0.114517  0.887629  0.750000  1
  Cd  Cd24  1  0.114517  0.226888  0.750000  1
  Cd  Cd25  1  0.772848  0.886423  0.750000  1
  Os  Os26  1  0.335994  0.667998  0.250000  1
  Rh  Rh27  1  0.670159  0.335079  0.750000  1
