# generated using pymatgen
data_Yb2Zn2SiAu
_symmetry_space_group_name_H-M   'P 1'
_cell_length_a   4.28592600
_cell_length_b   7.10818000
_cell_length_c   7.93237500
_cell_angle_alpha   90.00000000
_cell_angle_beta   90.00000000
_cell_angle_gamma   90.00000000
_symmetry_Int_Tables_number   1
_chemical_formula_structural   Yb2Zn2SiAu
_chemical_formula_sum   'Yb4 Zn4 Si2 Au2'
_cell_volume   241.66086315
_cell_formula_units_Z   2
loop_
 _symmetry_equiv_pos_site_id
 _symmetry_equiv_pos_as_xyz
  1  'x, y, z'
loop_
 _atom_site_type_symbol
 _atom_site_label
 _atom_site_symmetry_multiplicity
 _atom_site_fract_x
 _atom_site_fract_y
 _atom_site_fract_z
 _atom_site_occupancy
  Yb  Yb0  1  0.750000  0.486225  0.810499  1
  Yb  Yb1  1  0.250000  0.012657  0.290992  1
  Yb  Yb2  1  0.750000  0.986225  0.689501  1
  Yb  Yb3  1  0.250000  0.512657  0.209008  1
  Zn  Zn4  1  0.250000  0.659808  0.590893  1
  Zn  Zn5  1  0.250000  0.159808  0.909107  1
  Zn  Zn6  1  0.750000  0.320979  0.437783  1
  Zn  Zn7  1  0.750000  0.820979  0.062217  1
  Si  Si8  1  0.250000  0.792949  0.897733  1
  Si  Si9  1  0.250000  0.292949  0.602267  1
  Au  Au10  1  0.750000  0.727382  0.393005  1
  Au  Au11  1  0.750000  0.227382  0.106995  1
