# generated using pymatgen
data_Tb8Ta5Si16W7
_symmetry_space_group_name_H-M   'P 1'
_cell_length_a   6.95525914
_cell_length_b   6.95076759
_cell_length_c   12.93226367
_cell_angle_alpha   89.99342775
_cell_angle_beta   90.16474859
_cell_angle_gamma   90.02223304
_symmetry_Int_Tables_number   1
_chemical_formula_structural   Tb8Ta5Si16W7
_chemical_formula_sum   'Tb8 Ta5 Si16 W7'
_cell_volume   625.19975996
_cell_formula_units_Z   1
loop_
 _symmetry_equiv_pos_site_id
 _symmetry_equiv_pos_as_xyz
  1  'x, y, z'
loop_
 _atom_site_type_symbol
 _atom_site_label
 _atom_site_symmetry_multiplicity
 _atom_site_fract_x
 _atom_site_fract_y
 _atom_site_fract_z
 _atom_site_occupancy
  Tb  Tb0  1  0.338644  0.001154  0.467477  1
  Tb  Tb1  1  0.498358  0.837912  0.718815  1
  Tb  Tb2  1  0.500636  0.161992  0.218373  1
  Tb  Tb3  1  0.837830  0.498613  0.280776  1
  Tb  Tb4  1  0.162414  0.500664  0.782404  1
  Tb  Tb5  1  0.661486  0.998611  0.969070  1
  Tb  Tb6  1  0.001654  0.337903  0.531666  1
  Tb  Tb7  1  0.998763  0.662297  0.031541  1
  Ta  Ta8  1  0.331536  0.332179  0.000188  1
  Ta  Ta9  1  0.168229  0.831258  0.249473  1
  Ta  Ta10  1  0.830979  0.169296  0.750709  1
  Ta  Ta11  1  0.668129  0.667185  0.499122  1
  Ta  Ta12  1  0.994415  0.841359  0.625439  1
  Si  Si13  1  0.205250  0.130621  0.683864  1
  Si  Si14  1  0.372925  0.702287  0.934059  1
  Si  Si15  1  0.628603  0.297579  0.433409  1
  Si  Si16  1  0.701753  0.372487  0.066267  1
  Si  Si17  1  0.300571  0.626772  0.565359  1
  Si  Si18  1  0.796744  0.872850  0.183575  1
  Si  Si19  1  0.126495  0.202072  0.316238  1
  Si  Si20  1  0.872226  0.796721  0.817672  1
  Si  Si21  1  0.290109  0.961283  0.062966  1
  Si  Si22  1  0.539452  0.790024  0.312646  1
  Si  Si23  1  0.460477  0.209731  0.813037  1
  Si  Si24  1  0.789603  0.538585  0.687738  1
  Si  Si25  1  0.209114  0.460226  0.186984  1
  Si  Si26  1  0.706594  0.042185  0.562828  1
  Si  Si27  1  0.959994  0.291331  0.937697  1
  Si  Si28  1  0.041003  0.707511  0.435737  1
  W  W29  1  0.160631  0.007268  0.874711  1
  W  W30  1  0.493883  0.661347  0.124208  1
  W  W31  1  0.505744  0.338208  0.624156  1
  W  W32  1  0.660726  0.493446  0.876557  1
  W  W33  1  0.340435  0.503878  0.374928  1
  W  W34  1  0.839878  0.993506  0.374990  1
  W  W35  1  0.004716  0.159662  0.125319  1
