# generated using pymatgen
data_YTm2Th(Ga3Ir)6
_symmetry_space_group_name_H-M   'P 1'
_cell_length_a   7.61604193
_cell_length_b   7.61405882
_cell_length_c   9.48209900
_cell_angle_alpha   90.00000000
_cell_angle_beta   90.00000000
_cell_angle_gamma   119.93577535
_symmetry_Int_Tables_number   1
_chemical_formula_structural   YTm2Th(Ga3Ir)6
_chemical_formula_sum   'Y1 Tm2 Th1 Ga18 Ir6'
_cell_volume   476.49831534
_cell_formula_units_Z   1
loop_
 _symmetry_equiv_pos_site_id
 _symmetry_equiv_pos_as_xyz
  1  'x, y, z'
loop_
 _atom_site_type_symbol
 _atom_site_label
 _atom_site_symmetry_multiplicity
 _atom_site_fract_x
 _atom_site_fract_y
 _atom_site_fract_z
 _atom_site_occupancy
  Y  Y0  1  0.669584  0.997052  0.750000  1
  Tm  Tm1  1  0.002904  0.331565  0.250000  1
  Tm  Tm2  1  0.330697  0.002213  0.250000  1
  Th  Th3  1  0.996805  0.668488  0.750000  1
  Ga  Ga4  1  0.130091  0.132228  0.750000  1
  Ga  Ga5  1  0.873804  0.875093  0.250000  1
  Ga  Ga6  1  0.998934  0.329003  0.577345  1
  Ga  Ga7  1  0.001961  0.665715  0.413497  1
  Ga  Ga8  1  0.001961  0.665715  0.086503  1
  Ga  Ga9  1  0.339593  0.003972  0.922671  1
  Ga  Ga10  1  0.998934  0.329003  0.922655  1
  Ga  Ga11  1  0.665937  0.002405  0.082238  1
  Ga  Ga12  1  0.665937  0.002405  0.417762  1
  Ga  Ga13  1  0.339593  0.003972  0.577329  1
  Ga  Ga14  1  0.331187  0.331105  0.067806  1
  Ga  Ga15  1  0.662701  0.667758  0.937906  1
  Ga  Ga16  1  0.662701  0.667758  0.562094  1
  Ga  Ga17  1  0.331187  0.331105  0.432194  1
  Ga  Ga18  1  0.341733  0.545105  0.750000  1
  Ga  Ga19  1  0.659427  0.451723  0.250000  1
  Ga  Ga20  1  0.541192  0.336643  0.750000  1
  Ga  Ga21  1  0.452129  0.660501  0.250000  1
  Ir  Ir22  1  0.673573  0.330936  0.499915  1
  Ir  Ir23  1  0.325908  0.670763  0.500111  1
  Ir  Ir24  1  0.325908  0.670763  0.999889  1
  Ir  Ir25  1  0.673573  0.330936  0.000085  1
  Ir  Ir26  1  0.001025  0.998040  0.500052  1
  Ir  Ir27  1  0.001025  0.998040  0.999948  1
