# generated using pymatgen
data_Na8Ca4TiSiAs8
_symmetry_space_group_name_H-M   'P 1'
_cell_length_a   9.46459118
_cell_length_b   9.49765945
_cell_length_c   7.25955457
_cell_angle_alpha   88.82177242
_cell_angle_beta   88.92335981
_cell_angle_gamma   119.88223989
_symmetry_Int_Tables_number   1
_chemical_formula_structural   Na8Ca4TiSiAs8
_chemical_formula_sum   'Na8 Ca4 Ti1 Si1 As8'
_cell_volume   565.37632014
_cell_formula_units_Z   1
loop_
 _symmetry_equiv_pos_site_id
 _symmetry_equiv_pos_as_xyz
  1  'x, y, z'
loop_
 _atom_site_type_symbol
 _atom_site_label
 _atom_site_symmetry_multiplicity
 _atom_site_fract_x
 _atom_site_fract_y
 _atom_site_fract_z
 _atom_site_occupancy
  Na  Na0  1  0.473729  0.940618  0.378811  1
  Na  Na1  1  0.941334  0.473828  0.884669  1
  Na  Na2  1  0.866628  0.726382  0.181948  1
  Na  Na3  1  0.278086  0.131610  0.227611  1
  Na  Na4  1  0.854620  0.136905  0.205863  1
  Na  Na5  1  0.136223  0.289811  0.727246  1
  Na  Na6  1  0.711955  0.859881  0.678570  1
  Na  Na7  1  0.142711  0.847684  0.703174  1
  Ca  Ca8  1  0.048743  0.525257  0.384923  1
  Ca  Ca9  1  0.480796  0.526549  0.377245  1
  Ca  Ca10  1  0.531330  0.059703  0.885233  1
  Ca  Ca11  1  0.532158  0.478342  0.879294  1
  Ti  Ti12  1  0.330962  0.664719  0.993017  1
  Si  Si13  1  0.661667  0.330149  0.498360  1
  As  As14  1  0.198627  0.383459  0.121977  1
  As  As15  1  0.620318  0.807407  0.082791  1
  As  As16  1  0.197566  0.813273  0.100641  1
  As  As17  1  0.803645  0.612416  0.584824  1
  As  As18  1  0.387152  0.199976  0.623700  1
  As  As19  1  0.808069  0.200490  0.601833  1
  As  As20  1  0.659594  0.335546  0.165842  1
  As  As21  1  0.333935  0.655839  0.652389  1
