# generated using pymatgen
data_Ba6Mn2NbO12
_symmetry_space_group_name_H-M   'P 1'
_cell_length_a   9.17013094
_cell_length_b   9.17013063
_cell_length_c   7.29037298
_cell_angle_alpha   67.85152853
_cell_angle_beta   67.85152939
_cell_angle_gamma   36.86397223
_symmetry_Int_Tables_number   1
_chemical_formula_structural   Ba6Mn2NbO12
_chemical_formula_sum   'Ba6 Mn2 Nb1 O12'
_cell_volume   337.49569786
_cell_formula_units_Z   1
loop_
 _symmetry_equiv_pos_site_id
 _symmetry_equiv_pos_as_xyz
  1  'x, y, z'
loop_
 _atom_site_type_symbol
 _atom_site_label
 _atom_site_symmetry_multiplicity
 _atom_site_fract_x
 _atom_site_fract_y
 _atom_site_fract_z
 _atom_site_occupancy
  Ba  Ba0  1  0.877058  0.877058  0.716784  1
  Ba  Ba1  1  0.218314  0.218314  0.712013  1
  Ba  Ba2  1  0.548482  0.548482  0.707549  1
  Ba  Ba3  1  0.451518  0.451518  0.292451  1
  Ba  Ba4  1  0.781686  0.781686  0.287987  1
  Ba  Ba5  1  0.122942  0.122942  0.283216  1
  Mn  Mn6  1  0.668423  0.668423  0.999691  1
  Mn  Mn7  1  0.331577  0.331577  0.000309  1
  Nb  Nb8  1  0.000000  0.000000  0.000000  1
  O  O9  1  0.948913  0.948913  0.305007  1
  O  O10  1  0.284563  0.284563  0.296226  1
  O  O11  1  0.616960  0.616960  0.296625  1
  O  O12  1  0.383040  0.383040  0.703375  1
  O  O13  1  0.715437  0.715437  0.703774  1
  O  O14  1  0.051087  0.051087  0.694993  1
  O  O15  1  0.500000  0.000000  0.000000  1
  O  O16  1  0.834673  0.329530  0.999837  1
  O  O17  1  0.165327  0.670470  0.000163  1
  O  O18  1  0.000000  0.500000  0.000000  1
  O  O19  1  0.329530  0.834673  0.999837  1
  O  O20  1  0.670470  0.165327  0.000163  1
