# generated using pymatgen
data_Nb12Al8CrNi3C3N
_symmetry_space_group_name_H-M   'P 1'
_cell_length_a   8.30504231
_cell_length_b   8.25449805
_cell_length_c   8.25449800
_cell_angle_alpha   60.00000823
_cell_angle_beta   60.20112713
_cell_angle_gamma   60.20113110
_symmetry_Int_Tables_number   1
_chemical_formula_structural   Nb12Al8CrNi3C3N
_chemical_formula_sum   'Nb12 Al8 Cr1 Ni3 C3 N1'
_cell_volume   401.34867216
_cell_formula_units_Z   1
loop_
 _symmetry_equiv_pos_site_id
 _symmetry_equiv_pos_as_xyz
  1  'x, y, z'
loop_
 _atom_site_type_symbol
 _atom_site_label
 _atom_site_symmetry_multiplicity
 _atom_site_fract_x
 _atom_site_fract_y
 _atom_site_fract_z
 _atom_site_occupancy
  Nb  Nb0  1  0.815541  0.812277  0.185617  1
  Nb  Nb1  1  0.181373  0.201001  0.809292  1
  Nb  Nb2  1  0.815541  0.185617  0.812277  1
  Nb  Nb3  1  0.181373  0.809292  0.201001  1
  Nb  Nb4  1  0.181907  0.808076  0.808076  1
  Nb  Nb5  1  0.816948  0.185362  0.185362  1
  Nb  Nb6  1  0.434459  0.437723  0.064383  1
  Nb  Nb7  1  0.068627  0.048999  0.440708  1
  Nb  Nb8  1  0.434459  0.064383  0.437723  1
  Nb  Nb9  1  0.068627  0.440708  0.048999  1
  Nb  Nb10  1  0.068093  0.441924  0.441924  1
  Nb  Nb11  1  0.433052  0.064638  0.064638  1
  Al  Al12  1  0.754599  0.415356  0.415356  1
  Al  Al13  1  0.424790  0.744904  0.415377  1
  Al  Al14  1  0.424790  0.415377  0.744904  1
  Al  Al15  1  0.424326  0.415118  0.415118  1
  Al  Al16  1  0.495401  0.834644  0.834644  1
  Al  Al17  1  0.825210  0.505096  0.834623  1
  Al  Al18  1  0.825210  0.834623  0.505096  1
  Al  Al19  1  0.825674  0.834882  0.834882  1
  Cr  Cr20  1  0.125000  0.625000  0.625000  1
  Ni  Ni21  1  0.625000  0.125000  0.625000  1
  Ni  Ni22  1  0.625000  0.625000  0.125000  1
  Ni  Ni23  1  0.625000  0.625000  0.625000  1
  C  C24  1  0.625000  0.125000  0.125000  1
  C  C25  1  0.125000  0.625000  0.125000  1
  C  C26  1  0.125000  0.125000  0.625000  1
  N  N27  1  0.125000  0.125000  0.125000  1
