# generated using pymatgen
data_Lu5ReTcO12
_symmetry_space_group_name_H-M   'P 1'
_cell_length_a   6.71570772
_cell_length_b   6.71570821
_cell_length_c   7.34520600
_cell_angle_alpha   73.92137533
_cell_angle_beta   73.92136526
_cell_angle_gamma   49.24508050
_symmetry_Int_Tables_number   1
_chemical_formula_structural   Lu5ReTcO12
_chemical_formula_sum   'Lu5 Re1 Tc1 O12'
_cell_volume   239.01375456
_cell_formula_units_Z   1
loop_
 _symmetry_equiv_pos_site_id
 _symmetry_equiv_pos_as_xyz
  1  'x, y, z'
loop_
 _atom_site_type_symbol
 _atom_site_label
 _atom_site_symmetry_multiplicity
 _atom_site_fract_x
 _atom_site_fract_y
 _atom_site_fract_z
 _atom_site_occupancy
  Lu  Lu0  1  0.689520  0.706491  0.640182  1
  Lu  Lu1  1  0.293509  0.310480  0.359818  1
  Lu  Lu2  1  0.682743  0.687211  0.179071  1
  Lu  Lu3  1  0.312789  0.317257  0.820929  1
  Lu  Lu4  1  0.992795  0.007205  0.500000  1
  Re  Re5  1  0.791726  0.208274  0.000000  1
  Tc  Tc6  1  0.223417  0.776583  0.000000  1
  O  O7  1  0.001459  0.006439  0.208835  1
  O  O8  1  0.993561  0.998541  0.791165  1
  O  O9  1  0.587626  0.084749  0.089022  1
  O  O10  1  0.430196  0.913287  0.912373  1
  O  O11  1  0.915251  0.412374  0.910978  1
  O  O12  1  0.086713  0.569804  0.087627  1
  O  O13  1  0.508970  0.490355  0.184490  1
  O  O14  1  0.509645  0.491030  0.815510  1
  O  O15  1  0.401374  0.907774  0.425737  1
  O  O16  1  0.590893  0.104412  0.569454  1
  O  O17  1  0.092226  0.598626  0.574263  1
  O  O18  1  0.895588  0.409107  0.430546  1
