# generated using pymatgen
data_TiBe(VFe2)2
_symmetry_space_group_name_H-M   'P 1'
_cell_length_a   6.97253545
_cell_length_b   6.97253491
_cell_length_c   6.97253500
_cell_angle_alpha   33.52839616
_cell_angle_beta   33.52840281
_cell_angle_gamma   33.52838887
_symmetry_Int_Tables_number   1
_chemical_formula_structural   TiBe(VFe2)2
_chemical_formula_sum   'Ti1 Be1 V2 Fe4'
_cell_volume   92.11353338
_cell_formula_units_Z   1
loop_
 _symmetry_equiv_pos_site_id
 _symmetry_equiv_pos_as_xyz
  1  'x, y, z'
loop_
 _atom_site_type_symbol
 _atom_site_label
 _atom_site_symmetry_multiplicity
 _atom_site_fract_x
 _atom_site_fract_y
 _atom_site_fract_z
 _atom_site_occupancy
  Ti  Ti0  1  0.500000  0.500000  0.500000  1
  Be  Be1  1  0.000000  0.000000  0.000000  1
  V  V2  1  0.256412  0.256412  0.256412  1
  V  V3  1  0.743588  0.743588  0.743588  1
  Fe  Fe4  1  0.876562  0.876562  0.876562  1
  Fe  Fe5  1  0.374143  0.374143  0.374143  1
  Fe  Fe6  1  0.123438  0.123438  0.123438  1
  Fe  Fe7  1  0.625857  0.625857  0.625857  1
