# generated using pymatgen
data_LaYbOsC2
_symmetry_space_group_name_H-M   'P 1'
_cell_length_a   5.24977500
_cell_length_b   6.46134600
_cell_length_c   10.70759600
_cell_angle_alpha   90.00000000
_cell_angle_beta   90.00000000
_cell_angle_gamma   90.00000000
_symmetry_Int_Tables_number   1
_chemical_formula_structural   LaYbOsC2
_chemical_formula_sum   'La4 Yb4 Os4 C8'
_cell_volume   363.20821683
_cell_formula_units_Z   4
loop_
 _symmetry_equiv_pos_site_id
 _symmetry_equiv_pos_as_xyz
  1  'x, y, z'
loop_
 _atom_site_type_symbol
 _atom_site_label
 _atom_site_symmetry_multiplicity
 _atom_site_fract_x
 _atom_site_fract_y
 _atom_site_fract_z
 _atom_site_occupancy
  La  La0  1  0.250000  0.712184  0.550473  1
  La  La1  1  0.750000  0.287816  0.449527  1
  La  La2  1  0.750000  0.787816  0.050473  1
  La  La3  1  0.250000  0.212184  0.949527  1
  Yb  Yb4  1  0.250000  0.529559  0.232418  1
  Yb  Yb5  1  0.750000  0.470441  0.767582  1
  Yb  Yb6  1  0.750000  0.970441  0.732418  1
  Yb  Yb7  1  0.250000  0.029559  0.267582  1
  Os  Os8  1  0.250000  0.732903  0.850726  1
  Os  Os9  1  0.750000  0.267097  0.149274  1
  Os  Os10  1  0.750000  0.767097  0.350726  1
  Os  Os11  1  0.250000  0.232903  0.649274  1
  C  C12  1  0.250000  0.478055  0.752770  1
  C  C13  1  0.750000  0.521945  0.247230  1
  C  C14  1  0.750000  0.021945  0.252770  1
  C  C15  1  0.250000  0.978055  0.747230  1
  C  C16  1  0.250000  0.789812  0.025323  1
  C  C17  1  0.750000  0.210188  0.974677  1
  C  C18  1  0.750000  0.710188  0.525323  1
  C  C19  1  0.250000  0.289812  0.474677  1
