# generated using pymatgen
data_La8Te(WO8)3
_symmetry_space_group_name_H-M   'P 1'
_cell_length_a   5.53189200
_cell_length_b   9.53810058
_cell_length_c   10.46684870
_cell_angle_alpha   89.99209153
_cell_angle_beta   89.87066856
_cell_angle_gamma   89.91615287
_symmetry_Int_Tables_number   1
_chemical_formula_structural   La8Te(WO8)3
_chemical_formula_sum   'La8 Te1 W3 O24'
_cell_volume   552.26810372
_cell_formula_units_Z   1
loop_
 _symmetry_equiv_pos_site_id
 _symmetry_equiv_pos_as_xyz
  1  'x, y, z'
loop_
 _atom_site_type_symbol
 _atom_site_label
 _atom_site_symmetry_multiplicity
 _atom_site_fract_x
 _atom_site_fract_y
 _atom_site_fract_z
 _atom_site_occupancy
  La  La0  1  0.023689  0.397192  0.041511  1
  La  La1  1  0.030744  0.280378  0.634622  1
  La  La2  1  0.471716  0.717051  0.137704  1
  La  La3  1  0.475915  0.603269  0.540299  1
  La  La4  1  0.521493  0.106997  0.958023  1
  La  La5  1  0.531798  0.216867  0.363024  1
  La  La6  1  0.968723  0.779841  0.863171  1
  La  La7  1  0.974945  0.896537  0.460045  1
  Te  Te8  1  0.039808  0.003615  0.143150  1
  W  W9  1  0.459899  0.996331  0.645458  1
  W  W10  1  0.539645  0.497206  0.854408  1
  W  W11  1  0.961116  0.502317  0.355356  1
  O  O12  1  0.078380  0.650777  0.470802  1
  O  O13  1  0.170506  0.547324  0.215762  1
  O  O14  1  0.196121  0.866298  0.677686  1
  O  O15  1  0.176084  0.861821  0.254243  1
  O  O16  1  0.220087  0.387763  0.436039  1
  O  O17  1  0.254455  0.086831  0.509629  1
  O  O18  1  0.245515  0.915504  0.008572  1
  O  O19  1  0.281627  0.614027  0.935336  1
  O  O20  1  0.320042  0.137681  0.755478  1
  O  O21  1  0.303302  0.135254  0.177781  1
  O  O22  1  0.329977  0.451347  0.716516  1
  O  O23  1  0.423044  0.351793  0.973756  1
  O  O24  1  0.575032  0.849224  0.528082  1
  O  O25  1  0.664885  0.949089  0.785483  1
  O  O26  1  0.696547  0.633532  0.324664  1
  O  O27  1  0.683122  0.634922  0.742734  1
  O  O28  1  0.721834  0.110163  0.565081  1
  O  O29  1  0.754837  0.412697  0.491324  1
  O  O30  1  0.747532  0.587681  0.989794  1
  O  O31  1  0.779626  0.887798  0.067161  1
  O  O32  1  0.816970  0.365473  0.243268  1
  O  O33  1  0.800718  0.364243  0.824170  1
  O  O34  1  0.832953  0.053072  0.285233  1
  O  O35  1  0.927317  0.148079  0.024634  1
