# generated using pymatgen
data_Ho3TmAl7Ga5
_symmetry_space_group_name_H-M   'P 1'
_cell_length_a   6.11678500
_cell_length_b   6.09345281
_cell_length_c   9.42686500
_cell_angle_alpha   89.99982100
_cell_angle_beta   89.99991999
_cell_angle_gamma   120.12676947
_symmetry_Int_Tables_number   1
_chemical_formula_structural   Ho3TmAl7Ga5
_chemical_formula_sum   'Ho3 Tm1 Al7 Ga5'
_cell_volume   303.89838704
_cell_formula_units_Z   1
loop_
 _symmetry_equiv_pos_site_id
 _symmetry_equiv_pos_as_xyz
  1  'x, y, z'
loop_
 _atom_site_type_symbol
 _atom_site_label
 _atom_site_symmetry_multiplicity
 _atom_site_fract_x
 _atom_site_fract_y
 _atom_site_fract_z
 _atom_site_occupancy
  Ho  Ho0  1  0.000606  0.001215  0.501530  1
  Ho  Ho1  1  0.000610  0.001218  0.998468  1
  Ho  Ho2  1  0.666751  0.333514  0.750000  1
  Tm  Tm3  1  0.332828  0.665653  0.250001  1
  Al  Al4  1  0.501007  0.501059  0.498950  1
  Al  Al5  1  0.500294  0.000589  0.499680  1
  Al  Al6  1  0.000053  0.501060  0.498952  1
  Al  Al7  1  0.501009  0.501060  0.001051  1
  Al  Al8  1  0.500295  0.000590  0.000321  1
  Al  Al9  1  0.000054  0.501061  0.001048  1
  Al  Al10  1  0.815426  0.630851  0.249998  1
  Ga  Ga11  1  0.365246  0.181659  0.249999  1
  Ga  Ga12  1  0.816417  0.181658  0.250000  1
  Ga  Ga13  1  0.183469  0.366940  0.750001  1
  Ga  Ga14  1  0.632857  0.815936  0.749999  1
  Ga  Ga15  1  0.183080  0.815935  0.750000  1
