# generated using pymatgen
data_SbRuOF10
_symmetry_space_group_name_H-M   'P 1'
_cell_length_a   6.51229300
_cell_length_b   8.22800827
_cell_length_c   8.24847027
_cell_angle_alpha   84.82087298
_cell_angle_beta   90.00000000
_cell_angle_gamma   90.00000000
_symmetry_Int_Tables_number   1
_chemical_formula_structural   SbRuOF10
_chemical_formula_sum   'Sb2 Ru2 O2 F20'
_cell_volume   440.17499058
_cell_formula_units_Z   2
loop_
 _symmetry_equiv_pos_site_id
 _symmetry_equiv_pos_as_xyz
  1  'x, y, z'
loop_
 _atom_site_type_symbol
 _atom_site_label
 _atom_site_symmetry_multiplicity
 _atom_site_fract_x
 _atom_site_fract_y
 _atom_site_fract_z
 _atom_site_occupancy
  Sb  Sb0  1  0.514090  0.331252  0.328206  1
  Sb  Sb1  1  0.514090  0.668748  0.671794  1
  Ru  Ru2  1  0.010845  0.810884  0.187793  1
  Ru  Ru3  1  0.010845  0.189116  0.812207  1
  O  O4  1  0.021879  0.339070  0.662892  1
  O  O5  1  0.021879  0.660930  0.337108  1
  F  F6  1  0.282089  0.762762  0.557459  1
  F  F7  1  0.999142  0.012363  0.688159  1
  F  F8  1  0.993459  0.000000  0.000000  1
  F  F9  1  0.336369  0.481614  0.208209  1
  F  F10  1  0.020737  0.312034  0.989728  1
  F  F11  1  0.289000  0.148858  0.840604  1
  F  F12  1  0.507975  0.500000  0.500000  1
  F  F13  1  0.728603  0.823860  0.162869  1
  F  F14  1  0.999142  0.987637  0.311841  1
  F  F15  1  0.518394  0.177506  0.171124  1
  F  F16  1  0.745143  0.547974  0.759031  1
  F  F17  1  0.289000  0.851142  0.159396  1
  F  F18  1  0.691792  0.211400  0.478153  1
  F  F19  1  0.020737  0.687966  0.010272  1
  F  F20  1  0.728603  0.176140  0.837131  1
  F  F21  1  0.518394  0.822494  0.828876  1
  F  F22  1  0.691792  0.788600  0.521847  1
  F  F23  1  0.336369  0.518386  0.791791  1
  F  F24  1  0.745143  0.452026  0.240969  1
  F  F25  1  0.282089  0.237238  0.442541  1
