# generated using pymatgen
data_Li4ScTlTe8
_symmetry_space_group_name_H-M   'P 1'
_cell_length_a   11.71517879
_cell_length_b   11.71517829
_cell_length_c   10.85904300
_cell_angle_alpha   81.59540585
_cell_angle_beta   81.59540621
_cell_angle_gamma   15.17071143
_symmetry_Int_Tables_number   1
_chemical_formula_structural   Li4ScTlTe8
_chemical_formula_sum   'Li4 Sc1 Tl1 Te8'
_cell_volume   385.75613734
_cell_formula_units_Z   1
loop_
 _symmetry_equiv_pos_site_id
 _symmetry_equiv_pos_as_xyz
  1  'x, y, z'
loop_
 _atom_site_type_symbol
 _atom_site_label
 _atom_site_symmetry_multiplicity
 _atom_site_fract_x
 _atom_site_fract_y
 _atom_site_fract_z
 _atom_site_occupancy
  Li  Li0  1  0.225685  0.225685  0.123432  1
  Li  Li1  1  0.838477  0.838477  0.473447  1
  Li  Li2  1  0.161523  0.161523  0.526553  1
  Li  Li3  1  0.774315  0.774315  0.876568  1
  Sc  Sc4  1  0.500000  0.500000  0.500000  1
  Tl  Tl5  1  0.000000  0.000000  0.000000  1
  Te  Te6  1  0.915571  0.915571  0.671399  1
  Te  Te7  1  0.084429  0.084429  0.328601  1
  Te  Te8  1  0.576467  0.576467  0.700743  1
  Te  Te9  1  0.423533  0.423533  0.299257  1
  Te  Te10  1  0.652029  0.652029  0.984958  1
  Te  Te11  1  0.347971  0.347971  0.015042  1
  Te  Te12  1  0.743233  0.743233  0.333482  1
  Te  Te13  1  0.256767  0.256767  0.666518  1
