# generated using pymatgen
data_Cs6K2UAs4
_symmetry_space_group_name_H-M   'P 1'
_cell_length_a   12.01699256
_cell_length_b   12.01699163
_cell_length_c   12.01699100
_cell_angle_alpha   59.99999899
_cell_angle_beta   60.00000155
_cell_angle_gamma   59.99999370
_symmetry_Int_Tables_number   1
_chemical_formula_structural   Cs6K2UAs4
_chemical_formula_sum   'Cs12 K4 U2 As8'
_cell_volume   1227.07828407
_cell_formula_units_Z   2
loop_
 _symmetry_equiv_pos_site_id
 _symmetry_equiv_pos_as_xyz
  1  'x, y, z'
loop_
 _atom_site_type_symbol
 _atom_site_label
 _atom_site_symmetry_multiplicity
 _atom_site_fract_x
 _atom_site_fract_y
 _atom_site_fract_z
 _atom_site_occupancy
  Cs  Cs0  1  0.027932  0.472068  0.472068  1
  Cs  Cs1  1  0.777932  0.222068  0.222068  1
  Cs  Cs2  1  0.472068  0.027932  0.472068  1
  Cs  Cs3  1  0.472068  0.472068  0.027932  1
  Cs  Cs4  1  0.027932  0.027932  0.472068  1
  Cs  Cs5  1  0.027932  0.472068  0.027932  1
  Cs  Cs6  1  0.472068  0.027932  0.027932  1
  Cs  Cs7  1  0.777932  0.222068  0.777932  1
  Cs  Cs8  1  0.222068  0.777932  0.222068  1
  Cs  Cs9  1  0.222068  0.222068  0.777932  1
  Cs  Cs10  1  0.777932  0.777932  0.222068  1
  Cs  Cs11  1  0.222068  0.777932  0.777932  1
  K  K12  1  0.625000  0.625000  0.125000  1
  K  K13  1  0.625000  0.125000  0.625000  1
  K  K14  1  0.125000  0.625000  0.625000  1
  K  K15  1  0.625000  0.625000  0.625000  1
  U  U16  1  0.750000  0.750000  0.750000  1
  U  U17  1  0.500000  0.500000  0.500000  1
  As  As18  1  0.845512  0.845512  0.463466  1
  As  As19  1  0.845512  0.463466  0.845512  1
  As  As20  1  0.404488  0.404488  0.786534  1
  As  As21  1  0.404488  0.786534  0.404488  1
  As  As22  1  0.786534  0.404488  0.404488  1
  As  As23  1  0.845512  0.845512  0.845512  1
  As  As24  1  0.463466  0.845512  0.845512  1
  As  As25  1  0.404488  0.404488  0.404488  1
