# generated using pymatgen
data_AcLa2Al7Cu2
_symmetry_space_group_name_H-M   'P 1'
_cell_length_a   9.41633259
_cell_length_b   9.41633292
_cell_length_c   9.41633331
_cell_angle_alpha   35.10368835
_cell_angle_beta   35.10368241
_cell_angle_gamma   35.10368786
_symmetry_Int_Tables_number   1
_chemical_formula_structural   AcLa2Al7Cu2
_chemical_formula_sum   'Ac1 La2 Al7 Cu2'
_cell_volume   246.56930692
_cell_formula_units_Z   1
loop_
 _symmetry_equiv_pos_site_id
 _symmetry_equiv_pos_as_xyz
  1  'x, y, z'
loop_
 _atom_site_type_symbol
 _atom_site_label
 _atom_site_symmetry_multiplicity
 _atom_site_fract_x
 _atom_site_fract_y
 _atom_site_fract_z
 _atom_site_occupancy
  Ac  Ac0  1  0.000000  0.000000  0.000000  1
  La  La1  1  0.142674  0.142674  0.142674  1
  La  La2  1  0.857326  0.857326  0.857326  1
  Al  Al3  1  0.581237  0.581237  0.071192  1
  Al  Al4  1  0.928808  0.418762  0.418762  1
  Al  Al5  1  0.418762  0.928808  0.418762  1
  Al  Al6  1  0.500000  0.500000  0.500000  1
  Al  Al7  1  0.581238  0.071192  0.581237  1
  Al  Al8  1  0.071192  0.581238  0.581237  1
  Al  Al9  1  0.418762  0.418762  0.928808  1
  Cu  Cu10  1  0.335975  0.335975  0.335975  1
  Cu  Cu11  1  0.664025  0.664025  0.664025  1
