# generated using pymatgen
data_CeSm3PdRh3Pb2
_symmetry_space_group_name_H-M   'P 1'
_cell_length_a   7.86842218
_cell_length_b   7.86842269
_cell_length_c   3.71646200
_cell_angle_alpha   90.00000000
_cell_angle_beta   90.00000000
_cell_angle_gamma   91.67646928
_symmetry_Int_Tables_number   1
_chemical_formula_structural   CeSm3PdRh3Pb2
_chemical_formula_sum   'Ce1 Sm3 Pd1 Rh3 Pb2'
_cell_volume   229.99537200
_cell_formula_units_Z   1
loop_
 _symmetry_equiv_pos_site_id
 _symmetry_equiv_pos_as_xyz
  1  'x, y, z'
loop_
 _atom_site_type_symbol
 _atom_site_label
 _atom_site_symmetry_multiplicity
 _atom_site_fract_x
 _atom_site_fract_y
 _atom_site_fract_z
 _atom_site_occupancy
  Ce  Ce0  1  0.326870  0.826870  0.500000  1
  Sm  Sm1  1  0.663794  0.163794  0.500000  1
  Sm  Sm2  1  0.179711  0.328649  0.500000  1
  Sm  Sm3  1  0.828649  0.679711  0.500000  1
  Pd  Pd4  1  0.880472  0.380472  0.000000  1
  Rh  Rh5  1  0.362515  0.113710  0.000000  1
  Rh  Rh6  1  0.144311  0.644311  0.000000  1
  Rh  Rh7  1  0.613710  0.862515  0.000000  1
  Pb  Pb8  1  0.997425  0.002542  0.000000  1
  Pb  Pb9  1  0.502542  0.497425  0.000000  1
