# generated using pymatgen
data_Tm4Hf3ScRh4
_symmetry_space_group_name_H-M   'P 1'
_cell_length_a   4.55299600
_cell_length_b   6.93685907
_cell_length_c   8.25835001
_cell_angle_alpha   90.18165526
_cell_angle_beta   90.00000000
_cell_angle_gamma   90.00000000
_symmetry_Int_Tables_number   1
_chemical_formula_structural   Tm4Hf3ScRh4
_chemical_formula_sum   'Tm4 Hf3 Sc1 Rh4'
_cell_volume   260.82621720
_cell_formula_units_Z   1
loop_
 _symmetry_equiv_pos_site_id
 _symmetry_equiv_pos_as_xyz
  1  'x, y, z'
loop_
 _atom_site_type_symbol
 _atom_site_label
 _atom_site_symmetry_multiplicity
 _atom_site_fract_x
 _atom_site_fract_y
 _atom_site_fract_z
 _atom_site_occupancy
  Tm  Tm0  1  0.250000  0.985719  0.324286  1
  Tm  Tm1  1  0.250000  0.483492  0.174075  1
  Tm  Tm2  1  0.750000  0.018598  0.679429  1
  Tm  Tm3  1  0.750000  0.513061  0.822082  1
  Hf  Hf4  1  0.250000  0.363512  0.574156  1
  Hf  Hf5  1  0.250000  0.855859  0.927144  1
  Hf  Hf6  1  0.750000  0.645591  0.423930  1
  Sc  Sc7  1  0.750000  0.138639  0.076670  1
  Rh  Rh8  1  0.250000  0.233382  0.901408  1
  Rh  Rh9  1  0.250000  0.738234  0.589989  1
  Rh  Rh10  1  0.750000  0.755415  0.089530  1
  Rh  Rh11  1  0.750000  0.268500  0.417303  1
