# generated using pymatgen
data_Yb3Ni2B2Pt5
_symmetry_space_group_name_H-M   'P 1'
_cell_length_a   5.40203057
_cell_length_b   5.27370046
_cell_length_c   15.01271846
_cell_angle_alpha   88.45761336
_cell_angle_beta   90.75280316
_cell_angle_gamma   119.21723144
_symmetry_Int_Tables_number   1
_chemical_formula_structural   Yb3Ni2B2Pt5
_chemical_formula_sum   'Yb6 Ni4 B4 Pt10'
_cell_volume   373.14438604
_cell_formula_units_Z   2
loop_
 _symmetry_equiv_pos_site_id
 _symmetry_equiv_pos_as_xyz
  1  'x, y, z'
loop_
 _atom_site_type_symbol
 _atom_site_label
 _atom_site_symmetry_multiplicity
 _atom_site_fract_x
 _atom_site_fract_y
 _atom_site_fract_z
 _atom_site_occupancy
  Yb  Yb0  1  0.667286  0.334779  0.536053  1
  Yb  Yb1  1  0.332714  0.665221  0.463947  1
  Yb  Yb2  1  0.332714  0.667494  0.036053  1
  Yb  Yb3  1  0.664317  0.332158  0.750000  1
  Yb  Yb4  1  0.667286  0.332506  0.963947  1
  Yb  Yb5  1  0.335683  0.667842  0.250000  1
  Ni  Ni6  1  0.162444  0.837729  0.656268  1
  Ni  Ni7  1  0.837556  0.675286  0.156268  1
  Ni  Ni8  1  0.162444  0.324714  0.843732  1
  Ni  Ni9  1  0.837556  0.162271  0.343732  1
  B  B10  1  0.674648  0.337324  0.250000  1
  B  B11  1  0.000067  0.000033  0.750000  1
  B  B12  1  0.325352  0.662676  0.750000  1
  B  B13  1  0.999933  0.999967  0.250000  1
  Pt  Pt14  1  0.163318  0.338749  0.650430  1
  Pt  Pt15  1  0.339053  0.163530  0.350580  1
  Pt  Pt16  1  0.339053  0.175523  0.149420  1
  Pt  Pt17  1  0.163318  0.824569  0.849570  1
  Pt  Pt18  1  0.836682  0.661251  0.349570  1
  Pt  Pt19  1  0.836682  0.175431  0.150430  1
  Pt  Pt20  1  0.660947  0.836470  0.649420  1
  Pt  Pt21  1  0.660947  0.824477  0.850580  1
  Pt  Pt22  1  0.000000  0.000000  0.000000  1
  Pt  Pt23  1  0.000000  0.000000  0.500000  1
