# generated using pymatgen
data_Y13Th3(ZnIr)4
_symmetry_space_group_name_H-M   'P 1'
_cell_length_a   9.63848116
_cell_length_b   9.62241610
_cell_length_c   9.62241700
_cell_angle_alpha   60.00000034
_cell_angle_beta   60.05512112
_cell_angle_gamma   60.05511574
_symmetry_Int_Tables_number   1
_chemical_formula_structural   Y13Th3(ZnIr)4
_chemical_formula_sum   'Y13 Th3 Zn4 Ir4'
_cell_volume   631.57252399
_cell_formula_units_Z   1
loop_
 _symmetry_equiv_pos_site_id
 _symmetry_equiv_pos_as_xyz
  1  'x, y, z'
loop_
 _atom_site_type_symbol
 _atom_site_label
 _atom_site_symmetry_multiplicity
 _atom_site_fract_x
 _atom_site_fract_y
 _atom_site_fract_z
 _atom_site_occupancy
  Y  Y0  1  0.187107  0.604298  0.604298  1
  Y  Y1  1  0.059162  0.441758  0.441758  1
  Y  Y2  1  0.440021  0.060279  0.060279  1
  Y  Y3  1  0.440021  0.060279  0.439421  1
  Y  Y4  1  0.059162  0.441758  0.057320  1
  Y  Y5  1  0.440021  0.439421  0.060279  1
  Y  Y6  1  0.059162  0.057320  0.441758  1
  Y  Y7  1  0.186282  0.813778  0.813778  1
  Y  Y8  1  0.814788  0.184978  0.184978  1
  Y  Y9  1  0.814788  0.184978  0.815256  1
  Y  Y10  1  0.186282  0.813778  0.186161  1
  Y  Y11  1  0.814788  0.815256  0.184978  1
  Y  Y12  1  0.186282  0.186161  0.813778  1
  Th  Th13  1  0.601800  0.602918  0.602918  1
  Th  Th14  1  0.601800  0.602918  0.192365  1
  Th  Th15  1  0.601800  0.192365  0.602918  1
  Zn  Zn16  1  0.834465  0.831357  0.831357  1
  Zn  Zn17  1  0.834465  0.831357  0.502821  1
  Zn  Zn18  1  0.834465  0.502821  0.831357  1
  Zn  Zn19  1  0.499423  0.833526  0.833526  1
  Ir  Ir20  1  0.394733  0.392533  0.392533  1
  Ir  Ir21  1  0.394733  0.392533  0.820200  1
  Ir  Ir22  1  0.394733  0.820200  0.392533  1
  Ir  Ir23  1  0.819715  0.393428  0.393428  1
