# generated using pymatgen
data_Sc12BiPb9
_symmetry_space_group_name_H-M   'P 1'
_cell_length_a   11.14373280
_cell_length_b   11.20895695
_cell_length_c   11.20895634
_cell_angle_alpha   147.51958847
_cell_angle_beta   132.32685498
_cell_angle_gamma   58.93443298
_symmetry_Int_Tables_number   1
_chemical_formula_structural   Sc12BiPb9
_chemical_formula_sum   'Sc12 Bi1 Pb9'
_cell_volume   551.08094521
_cell_formula_units_Z   1
loop_
 _symmetry_equiv_pos_site_id
 _symmetry_equiv_pos_as_xyz
  1  'x, y, z'
loop_
 _atom_site_type_symbol
 _atom_site_label
 _atom_site_symmetry_multiplicity
 _atom_site_fract_x
 _atom_site_fract_y
 _atom_site_fract_z
 _atom_site_occupancy
  Sc  Sc0  1  0.694474  0.946785  0.250406  1
  Sc  Sc1  1  0.249551  0.643432  0.606119  1
  Sc  Sc2  1  0.674813  0.939862  0.734950  1
  Sc  Sc3  1  0.032458  0.141907  0.890552  1
  Sc  Sc4  1  0.967898  0.857780  0.110118  1
  Sc  Sc5  1  0.792523  0.559601  0.232922  1
  Sc  Sc6  1  0.206859  0.439409  0.767450  1
  Sc  Sc7  1  0.305223  0.055038  0.750555  1
  Sc  Sc8  1  0.325792  0.060387  0.265406  1
  Sc  Sc9  1  0.305223  0.554668  0.250185  1
  Sc  Sc10  1  0.748819  0.356767  0.392053  1
  Sc  Sc11  1  0.694474  0.444068  0.747689  1
  Bi  Bi12  1  0.470206  0.576013  0.894193  1
  Pb  Pb13  1  0.595973  0.793041  0.802933  1
  Pb  Pb14  1  0.677986  0.075009  0.602976  1
  Pb  Pb15  1  0.000550  0.749671  0.749699  1
  Pb  Pb16  1  0.991362  0.292917  0.698445  1
  Pb  Pb17  1  0.529230  0.423134  0.106096  1
  Pb  Pb18  1  0.008153  0.707120  0.301033  1
  Pb  Pb19  1  0.404076  0.207036  0.197040  1
  Pb  Pb20  1  0.323805  0.925505  0.398301  1
  Pb  Pb21  1  0.000550  0.250851  0.250879  1
