# generated using pymatgen
data_Cs5Rb5Sr2(TaAs4)2
_symmetry_space_group_name_H-M   'P 1'
_cell_length_a   11.10054565
_cell_length_b   11.10740880
_cell_length_c   8.15758348
_cell_angle_alpha   87.60715079
_cell_angle_beta   88.05352758
_cell_angle_gamma   121.36363638
_symmetry_Int_Tables_number   1
_chemical_formula_structural   Cs5Rb5Sr2(TaAs4)2
_chemical_formula_sum   'Cs5 Rb5 Sr2 Ta2 As8'
_cell_volume   856.26819145
_cell_formula_units_Z   1
loop_
 _symmetry_equiv_pos_site_id
 _symmetry_equiv_pos_as_xyz
  1  'x, y, z'
loop_
 _atom_site_type_symbol
 _atom_site_label
 _atom_site_symmetry_multiplicity
 _atom_site_fract_x
 _atom_site_fract_y
 _atom_site_fract_z
 _atom_site_occupancy
  Cs  Cs0  1  0.290188  0.149841  0.735243  1
  Cs  Cs1  1  0.860598  0.724277  0.654951  1
  Cs  Cs2  1  0.139554  0.866481  0.180937  1
  Cs  Cs3  1  0.723144  0.859184  0.156277  1
  Cs  Cs4  1  0.150343  0.289767  0.235557  1
  Rb  Rb5  1  0.466423  0.525918  0.496570  1
  Rb  Rb6  1  0.058866  0.529306  0.496655  1
  Rb  Rb7  1  0.526368  0.465310  0.997045  1
  Rb  Rb8  1  0.529386  0.058201  0.999016  1
  Rb  Rb9  1  0.857192  0.145387  0.684668  1
  Sr  Sr10  1  0.463618  0.934519  0.489819  1
  Sr  Sr11  1  0.934822  0.461398  0.991946  1
  Ta  Ta12  1  0.672365  0.327056  0.393244  1
  Ta  Ta13  1  0.328225  0.670032  0.887496  1
  As  As14  1  0.692430  0.344590  0.699573  1
  As  As15  1  0.342188  0.690808  0.193937  1
  As  As16  1  0.787800  0.198961  0.286449  1
  As  As17  1  0.416151  0.188778  0.330881  1
  As  As18  1  0.796709  0.571652  0.256174  1
  As  As19  1  0.202294  0.787348  0.780725  1
  As  As20  1  0.575421  0.798699  0.754665  1
  As  As21  1  0.185917  0.412486  0.826745  1
