# generated using pymatgen
data_TaVSb2Pb4O13
_symmetry_space_group_name_H-M   'P 1'
_cell_length_a   7.53440300
_cell_length_b   7.48726332
_cell_length_c   7.48726205
_cell_angle_alpha   60.51462782
_cell_angle_beta   60.47465261
_cell_angle_gamma   60.47465202
_symmetry_Int_Tables_number   1
_chemical_formula_structural   TaVSb2Pb4O13
_chemical_formula_sum   'Ta1 V1 Sb2 Pb4 O13'
_cell_volume   301.95589150
_cell_formula_units_Z   1
loop_
 _symmetry_equiv_pos_site_id
 _symmetry_equiv_pos_as_xyz
  1  'x, y, z'
loop_
 _atom_site_type_symbol
 _atom_site_label
 _atom_site_symmetry_multiplicity
 _atom_site_fract_x
 _atom_site_fract_y
 _atom_site_fract_z
 _atom_site_occupancy
  Ta  Ta0  1  0.002069  0.502010  0.502010  1
  V  V1  1  0.502288  0.498944  0.498944  1
  Sb  Sb2  1  0.498979  0.500068  0.001090  1
  Sb  Sb3  1  0.498979  0.001090  0.500068  1
  Pb  Pb4  1  0.999448  0.997865  0.997865  1
  Pb  Pb5  1  0.502725  0.999246  0.999246  1
  Pb  Pb6  1  0.996131  0.008793  0.502511  1
  Pb  Pb7  1  0.996131  0.502511  0.008793  1
  O  O8  1  0.833853  0.422755  0.422755  1
  O  O9  1  0.422786  0.823649  0.823649  1
  O  O10  1  0.426118  0.425764  0.829696  1
  O  O11  1  0.816694  0.817196  0.429419  1
  O  O12  1  0.816694  0.429419  0.817196  1
  O  O13  1  0.426118  0.829696  0.425764  1
  O  O14  1  0.181302  0.564066  0.564066  1
  O  O15  1  0.573926  0.179750  0.179750  1
  O  O16  1  0.572295  0.572073  0.172763  1
  O  O17  1  0.181996  0.182690  0.570766  1
  O  O18  1  0.181996  0.570766  0.182690  1
  O  O19  1  0.572295  0.172763  0.572073  1
  O  O20  1  0.122170  0.123882  0.123882  1
