# generated using pymatgen
data_Cs8Si7GeSe20
_symmetry_space_group_name_H-M   'P 1'
_cell_length_a   11.96548236
_cell_length_b   11.93795596
_cell_length_c   9.93907092
_cell_angle_alpha   81.53375166
_cell_angle_beta   81.33791462
_cell_angle_gamma   90.28635081
_symmetry_Int_Tables_number   1
_chemical_formula_structural   Cs8Si7GeSe20
_chemical_formula_sum   'Cs8 Si7 Ge1 Se20'
_cell_volume   1387.70617899
_cell_formula_units_Z   1
loop_
 _symmetry_equiv_pos_site_id
 _symmetry_equiv_pos_as_xyz
  1  'x, y, z'
loop_
 _atom_site_type_symbol
 _atom_site_label
 _atom_site_symmetry_multiplicity
 _atom_site_fract_x
 _atom_site_fract_y
 _atom_site_fract_z
 _atom_site_occupancy
  Cs  Cs0  1  0.712638  0.976721  0.370226  1
  Cs  Cs1  1  0.023212  0.287459  0.129961  1
  Cs  Cs2  1  0.287467  0.023479  0.630002  1
  Cs  Cs3  1  0.976269  0.712523  0.870562  1
  Cs  Cs4  1  0.549025  0.709173  0.878617  1
  Cs  Cs5  1  0.290833  0.451053  0.621691  1
  Cs  Cs6  1  0.451317  0.290936  0.121624  1
  Cs  Cs7  1  0.709292  0.548731  0.378479  1
  Si  Si8  1  0.231790  0.641128  0.115273  1
  Si  Si9  1  0.641816  0.231950  0.616138  1
  Si  Si10  1  0.767954  0.358093  0.883723  1
  Si  Si11  1  0.766309  0.041059  0.885478  1
  Si  Si12  1  0.958898  0.233564  0.614311  1
  Si  Si13  1  0.233226  0.959882  0.113485  1
  Si  Si14  1  0.039857  0.766366  0.386034  1
  Ge  Ge15  1  0.359810  0.768316  0.384702  1
  Se  Se16  1  0.746233  0.877242  0.021851  1
  Se  Se17  1  0.122821  0.253721  0.478180  1
  Se  Se18  1  0.253374  0.123606  0.976992  1
  Se  Se19  1  0.875922  0.746244  0.521896  1
  Se  Se20  1  0.495806  0.746323  0.525855  1
  Se  Se21  1  0.251915  0.509866  0.979023  1
  Se  Se22  1  0.510636  0.252433  0.480472  1
  Se  Se23  1  0.747484  0.489554  0.019823  1
  Se  Se24  1  0.620757  0.056025  0.751599  1
  Se  Se25  1  0.943876  0.379372  0.748464  1
  Se  Se26  1  0.380260  0.950812  0.242993  1
  Se  Se27  1  0.056222  0.620575  0.251639  1
  Se  Se28  1  0.746666  0.183363  0.025252  1
  Se  Se29  1  0.816790  0.253261  0.474848  1
  Se  Se30  1  0.253491  0.816595  0.975002  1
  Se  Se31  1  0.177155  0.746091  0.530281  1
  Se  Se32  1  0.942773  0.057164  0.749967  1
  Se  Se33  1  0.057266  0.942848  0.250183  1
  Se  Se34  1  0.378280  0.616889  0.245221  1
  Se  Se35  1  0.622560  0.377583  0.750153  1
