# generated using pymatgen
data_Hf9Mo4Rh
_symmetry_space_group_name_H-M   'P 1'
_cell_length_a   8.52866700
_cell_length_b   8.72127760
_cell_length_c   8.72127729
_cell_angle_alpha   119.99904309
_cell_angle_beta   90.00000000
_cell_angle_gamma   90.00000000
_symmetry_Int_Tables_number   1
_chemical_formula_structural   Hf9Mo4Rh
_chemical_formula_sum   'Hf18 Mo8 Rh2'
_cell_volume   561.79281737
_cell_formula_units_Z   2
loop_
 _symmetry_equiv_pos_site_id
 _symmetry_equiv_pos_as_xyz
  1  'x, y, z'
loop_
 _atom_site_type_symbol
 _atom_site_label
 _atom_site_symmetry_multiplicity
 _atom_site_fract_x
 _atom_site_fract_y
 _atom_site_fract_z
 _atom_site_occupancy
  Hf  Hf0  1  0.553087  0.801763  0.603497  1
  Hf  Hf1  1  0.553095  0.801779  0.198221  1
  Hf  Hf2  1  0.553087  0.396503  0.198237  1
  Hf  Hf3  1  0.446913  0.198237  0.396503  1
  Hf  Hf4  1  0.446905  0.198221  0.801779  1
  Hf  Hf5  1  0.446913  0.603497  0.801763  1
  Hf  Hf6  1  0.053087  0.198237  0.396503  1
  Hf  Hf7  1  0.053095  0.198221  0.801779  1
  Hf  Hf8  1  0.053087  0.603497  0.801763  1
  Hf  Hf9  1  0.946913  0.801763  0.603497  1
  Hf  Hf10  1  0.946905  0.801779  0.198221  1
  Hf  Hf11  1  0.946913  0.396503  0.198237  1
  Hf  Hf12  1  0.750000  0.456368  0.912725  1
  Hf  Hf13  1  0.750000  0.456347  0.543653  1
  Hf  Hf14  1  0.750000  0.087275  0.543632  1
  Hf  Hf15  1  0.250000  0.543632  0.087275  1
  Hf  Hf16  1  0.250000  0.543653  0.456347  1
  Hf  Hf17  1  0.250000  0.912725  0.456368  1
  Mo  Mo18  1  0.750000  0.111851  0.223638  1
  Mo  Mo19  1  0.750000  0.111848  0.888152  1
  Mo  Mo20  1  0.750000  0.776362  0.888149  1
  Mo  Mo21  1  0.250000  0.888149  0.776362  1
  Mo  Mo22  1  0.250000  0.888152  0.111848  1
  Mo  Mo23  1  0.250000  0.223638  0.111851  1
  Mo  Mo24  1  0.500000  0.000000  0.000000  1
  Mo  Mo25  1  0.000000  0.000000  0.000000  1
  Rh  Rh26  1  0.750000  0.666670  0.333330  1
  Rh  Rh27  1  0.250000  0.333330  0.666670  1
