# generated using pymatgen
data_K2VZnF7
_symmetry_space_group_name_H-M   'P 1'
_cell_length_a   7.74566505
_cell_length_b   7.74566492
_cell_length_c   7.74566500
_cell_angle_alpha   120.99376650
_cell_angle_beta   117.05046805
_cell_angle_gamma   91.73518961
_symmetry_Int_Tables_number   1
_chemical_formula_structural   K2VZnF7
_chemical_formula_sum   'K4 V2 Zn2 F14'
_cell_volume   332.81099469
_cell_formula_units_Z   2
loop_
 _symmetry_equiv_pos_site_id
 _symmetry_equiv_pos_as_xyz
  1  'x, y, z'
loop_
 _atom_site_type_symbol
 _atom_site_label
 _atom_site_symmetry_multiplicity
 _atom_site_fract_x
 _atom_site_fract_y
 _atom_site_fract_z
 _atom_site_occupancy
  K  K0  1  0.500000  0.500000  0.000000  1
  K  K1  1  0.000000  0.000000  0.000000  1
  K  K2  1  0.000000  0.500000  0.000000  1
  K  K3  1  0.000000  0.000000  0.500000  1
  V  V4  1  0.000000  0.500000  0.500000  1
  V  V5  1  0.500000  0.000000  0.500000  1
  Zn  Zn6  1  0.500000  0.500000  0.500000  1
  Zn  Zn7  1  0.500000  0.000000  0.000000  1
  F  F8  1  0.876058  0.587277  0.288781  1
  F  F9  1  0.201504  0.912723  0.288781  1
  F  F10  1  0.189608  0.804562  0.762499  1
  F  F11  1  0.457937  0.695438  0.385046  1
  F  F12  1  0.457937  0.072891  0.762499  1
  F  F13  1  0.189608  0.427109  0.385046  1
  F  F14  1  0.810392  0.572891  0.614954  1
  F  F15  1  0.542063  0.927109  0.237501  1
  F  F16  1  0.542063  0.304562  0.614954  1
  F  F17  1  0.810392  0.195438  0.237501  1
  F  F18  1  0.401344  0.250000  0.151344  1
  F  F19  1  0.123942  0.412723  0.711219  1
  F  F20  1  0.798496  0.087277  0.711219  1
  F  F21  1  0.598656  0.750000  0.848656  1
