# generated using pymatgen
data_SrCrSb12RuPt2
_symmetry_space_group_name_H-M   'P 1'
_cell_length_a   8.18441699
_cell_length_b   8.22025770
_cell_length_c   8.21654939
_cell_angle_alpha   109.59696972
_cell_angle_beta   109.42246584
_cell_angle_gamma   109.39224560
_symmetry_Int_Tables_number   1
_chemical_formula_structural   SrCrSb12RuPt2
_chemical_formula_sum   'Sr1 Cr1 Sb12 Ru1 Pt2'
_cell_volume   425.54957731
_cell_formula_units_Z   1
loop_
 _symmetry_equiv_pos_site_id
 _symmetry_equiv_pos_as_xyz
  1  'x, y, z'
loop_
 _atom_site_type_symbol
 _atom_site_label
 _atom_site_symmetry_multiplicity
 _atom_site_fract_x
 _atom_site_fract_y
 _atom_site_fract_z
 _atom_site_occupancy
  Sr  Sr0  1  0.000000  0.000000  0.000000  1
  Cr  Cr1  1  0.500000  0.000000  0.000000  1
  Sb  Sb2  1  0.159562  0.499017  0.347144  1
  Sb  Sb3  1  0.503878  0.670466  0.841923  1
  Sb  Sb4  1  0.349789  0.851348  0.181347  1
  Sb  Sb5  1  0.804935  0.653022  0.152887  1
  Sb  Sb6  1  0.651176  0.838559  0.500884  1
  Sb  Sb7  1  0.195065  0.346978  0.847113  1
  Sb  Sb8  1  0.650211  0.148652  0.818653  1
  Sb  Sb9  1  0.348824  0.161441  0.499116  1
  Sb  Sb10  1  0.496122  0.329534  0.158077  1
  Sb  Sb11  1  0.840438  0.500983  0.652856  1
  Sb  Sb12  1  0.832824  0.181392  0.330373  1
  Sb  Sb13  1  0.167176  0.818608  0.669627  1
  Ru  Ru14  1  0.500000  0.500000  0.500000  1
  Pt  Pt15  1  0.000000  0.500000  0.000000  1
  Pt  Pt16  1  0.000000  0.000000  0.500000  1
