# generated using pymatgen
data_DyHo4Er5In6
_symmetry_space_group_name_H-M   'P 1'
_cell_length_a   9.10845077
_cell_length_b   9.10844930
_cell_length_c   9.11117218
_cell_angle_alpha   96.40477997
_cell_angle_beta   96.39577591
_cell_angle_gamma   140.98542736
_symmetry_Int_Tables_number   1
_chemical_formula_structural   DyHo4Er5In6
_chemical_formula_sum   'Dy1 Ho4 Er5 In6'
_cell_volume   448.55391864
_cell_formula_units_Z   1
loop_
 _symmetry_equiv_pos_site_id
 _symmetry_equiv_pos_as_xyz
  1  'x, y, z'
loop_
 _atom_site_type_symbol
 _atom_site_label
 _atom_site_symmetry_multiplicity
 _atom_site_fract_x
 _atom_site_fract_y
 _atom_site_fract_z
 _atom_site_occupancy
  Dy  Dy0  1  0.081950  0.782043  0.863993  1
  Ho  Ho1  1  0.717665  0.418170  0.135835  1
  Ho  Ho2  1  0.282533  0.581654  0.864187  1
  Ho  Ho3  1  0.581958  0.717686  0.299643  1
  Ho  Ho4  1  0.217582  0.082061  0.299641  1
  Er  Er5  1  0.917841  0.217545  0.135386  1
  Er  Er6  1  0.750057  0.249851  0.499917  1
  Er  Er7  1  0.250066  0.749859  0.499917  1
  Er  Er8  1  0.782491  0.918276  0.700768  1
  Er  Er9  1  0.417860  0.282614  0.700475  1
  In  In10  1  0.838126  0.661588  0.499714  1
  In  In11  1  0.338846  0.838443  0.177289  1
  In  In12  1  0.749742  0.750326  0.000010  1
  In  In13  1  0.661841  0.161453  0.823295  1
  In  In14  1  0.161759  0.338161  0.499921  1
  In  In15  1  0.249683  0.250268  0.000010  1
