# generated using pymatgen
data_SnTePbO6
_symmetry_space_group_name_H-M   'P 1'
_cell_length_a   5.41815000
_cell_length_b   5.41815040
_cell_length_c   5.42518600
_cell_angle_alpha   90.00000000
_cell_angle_beta   90.00000000
_cell_angle_gamma   119.99999758
_symmetry_Int_Tables_number   1
_chemical_formula_structural   SnTePbO6
_chemical_formula_sum   'Sn1 Te1 Pb1 O6'
_cell_volume   137.92638538
_cell_formula_units_Z   1
loop_
 _symmetry_equiv_pos_site_id
 _symmetry_equiv_pos_as_xyz
  1  'x, y, z'
loop_
 _atom_site_type_symbol
 _atom_site_label
 _atom_site_symmetry_multiplicity
 _atom_site_fract_x
 _atom_site_fract_y
 _atom_site_fract_z
 _atom_site_occupancy
  Sn  Sn0  1  0.333334  0.666668  0.500000  1
  Te  Te1  1  0.666666  0.333334  0.500000  1
  Pb  Pb2  1  0.000000  0.000000  0.000000  1
  O  O3  1  0.631528  0.018315  0.293374  1
  O  O4  1  0.386787  0.368472  0.293374  1
  O  O5  1  0.981686  0.613212  0.293374  1
  O  O6  1  0.386788  0.018315  0.706627  1
  O  O7  1  0.981686  0.368472  0.706627  1
  O  O8  1  0.631527  0.613212  0.706627  1
