# generated using pymatgen
data_ZrSc2Cu4(SiGe)2
_symmetry_space_group_name_H-M   'P 1'
_cell_length_a   7.61945949
_cell_length_b   7.61946015
_cell_length_c   7.61945984
_cell_angle_alpha   149.68239378
_cell_angle_beta   129.67072426
_cell_angle_gamma   59.89308119
_symmetry_Int_Tables_number   1
_chemical_formula_structural   ZrSc2Cu4(SiGe)2
_chemical_formula_sum   'Zr1 Sc2 Cu4 Si2 Ge2'
_cell_volume   170.48066486
_cell_formula_units_Z   1
loop_
 _symmetry_equiv_pos_site_id
 _symmetry_equiv_pos_as_xyz
  1  'x, y, z'
loop_
 _atom_site_type_symbol
 _atom_site_label
 _atom_site_symmetry_multiplicity
 _atom_site_fract_x
 _atom_site_fract_y
 _atom_site_fract_z
 _atom_site_occupancy
  Zr  Zr0  1  0.500000  0.000000  0.500000  1
  Sc  Sc1  1  0.872858  0.872858  0.000000  1
  Sc  Sc2  1  0.127142  0.127142  0.000000  1
  Cu  Cu3  1  0.517976  0.325267  0.192709  1
  Cu  Cu4  1  0.867441  0.674733  0.192709  1
  Cu  Cu5  1  0.132559  0.325266  0.807291  1
  Cu  Cu6  1  0.482024  0.674733  0.807291  1
  Si  Si7  1  0.282876  0.782876  0.500000  1
  Si  Si8  1  0.717124  0.217124  0.500000  1
  Ge  Ge9  1  0.803984  0.500000  0.303984  1
  Ge  Ge10  1  0.196016  0.500000  0.696016  1
