# generated using pymatgen
data_Dy4Er8Tc3Pt
_symmetry_space_group_name_H-M   'P 1'
_cell_length_a   6.27493257
_cell_length_b   7.36530215
_cell_length_c   9.12576100
_cell_angle_alpha   90.00000000
_cell_angle_beta   90.00000000
_cell_angle_gamma   90.00332068
_symmetry_Int_Tables_number   1
_chemical_formula_structural   Dy4Er8Tc3Pt
_chemical_formula_sum   'Dy4 Er8 Tc3 Pt1'
_cell_volume   421.76323592
_cell_formula_units_Z   1
loop_
 _symmetry_equiv_pos_site_id
 _symmetry_equiv_pos_as_xyz
  1  'x, y, z'
loop_
 _atom_site_type_symbol
 _atom_site_label
 _atom_site_symmetry_multiplicity
 _atom_site_fract_x
 _atom_site_fract_y
 _atom_site_fract_z
 _atom_site_occupancy
  Dy  Dy0  1  0.874171  0.541579  0.250000  1
  Dy  Dy1  1  0.622647  0.038181  0.250000  1
  Dy  Dy2  1  0.127493  0.456798  0.750000  1
  Dy  Dy3  1  0.372000  0.965398  0.750000  1
  Er  Er4  1  0.328230  0.676753  0.066847  1
  Er  Er5  1  0.165786  0.177634  0.436501  1
  Er  Er6  1  0.668311  0.318573  0.558762  1
  Er  Er7  1  0.836374  0.826585  0.940004  1
  Er  Er8  1  0.668311  0.318573  0.941238  1
  Er  Er9  1  0.836374  0.826585  0.559996  1
  Er  Er10  1  0.328230  0.676753  0.433153  1
  Er  Er11  1  0.165786  0.177634  0.063499  1
  Tc  Tc12  1  0.038915  0.886327  0.250000  1
  Tc  Tc13  1  0.462890  0.387492  0.250000  1
  Tc  Tc14  1  0.956940  0.112992  0.750000  1
  Pt  Pt15  1  0.547541  0.612143  0.750000  1
