# generated using pymatgen
data_Pr3SnBRh6
_symmetry_space_group_name_H-M   'P 1'
_cell_length_a   5.95807600
_cell_length_b   5.95807585
_cell_length_c   13.91285100
_cell_angle_alpha   90.00000000
_cell_angle_beta   90.00000000
_cell_angle_gamma   120.00000084
_symmetry_Int_Tables_number   1
_chemical_formula_structural   Pr3SnBRh6
_chemical_formula_sum   'Pr6 Sn2 B2 Rh12'
_cell_volume   427.71928141
_cell_formula_units_Z   2
loop_
 _symmetry_equiv_pos_site_id
 _symmetry_equiv_pos_as_xyz
  1  'x, y, z'
loop_
 _atom_site_type_symbol
 _atom_site_label
 _atom_site_symmetry_multiplicity
 _atom_site_fract_x
 _atom_site_fract_y
 _atom_site_fract_z
 _atom_site_occupancy
  Pr  Pr0  1  0.000000  0.000000  0.750000  1
  Pr  Pr1  1  0.000000  0.000000  0.250000  1
  Pr  Pr2  1  0.333333  0.666667  0.405252  1
  Pr  Pr3  1  0.666667  0.333333  0.905252  1
  Pr  Pr4  1  0.666667  0.333333  0.594748  1
  Pr  Pr5  1  0.333333  0.666667  0.094748  1
  Sn  Sn6  1  0.333333  0.666667  0.750000  1
  Sn  Sn7  1  0.666667  0.333333  0.250000  1
  B  B8  1  0.000000  0.000000  0.500000  1
  B  B9  1  0.000000  0.000000  0.000000  1
  Rh  Rh10  1  0.344569  0.172285  0.415153  1
  Rh  Rh11  1  0.827715  0.172285  0.415153  1
  Rh  Rh12  1  0.827715  0.655431  0.415153  1
  Rh  Rh13  1  0.172285  0.344569  0.915153  1
  Rh  Rh14  1  0.655431  0.827715  0.584847  1
  Rh  Rh15  1  0.655431  0.827715  0.915153  1
  Rh  Rh16  1  0.344569  0.172285  0.084847  1
  Rh  Rh17  1  0.172285  0.344569  0.584847  1
  Rh  Rh18  1  0.172285  0.827715  0.584847  1
  Rh  Rh19  1  0.827715  0.172285  0.084847  1
  Rh  Rh20  1  0.827715  0.655431  0.084847  1
  Rh  Rh21  1  0.172285  0.827715  0.915153  1
