# generated using pymatgen
data_Cs6Ti2S7
_symmetry_space_group_name_H-M   'P 1'
_cell_length_a   11.70291700
_cell_length_b   8.54364009
_cell_length_c   14.29726048
_cell_angle_alpha   55.36257092
_cell_angle_beta   90.00000000
_cell_angle_gamma   90.00000000
_symmetry_Int_Tables_number   1
_chemical_formula_structural   Cs6Ti2S7
_chemical_formula_sum   'Cs12 Ti4 S14'
_cell_volume   1176.15845915
_cell_formula_units_Z   2
loop_
 _symmetry_equiv_pos_site_id
 _symmetry_equiv_pos_as_xyz
  1  'x, y, z'
loop_
 _atom_site_type_symbol
 _atom_site_label
 _atom_site_symmetry_multiplicity
 _atom_site_fract_x
 _atom_site_fract_y
 _atom_site_fract_z
 _atom_site_occupancy
  Cs  Cs0  1  0.793680  0.577187  0.291129  1
  Cs  Cs1  1  0.648196  0.947819  0.916342  1
  Cs  Cs2  1  0.530279  0.189376  0.561457  1
  Cs  Cs3  1  0.030279  0.810624  0.938543  1
  Cs  Cs4  1  0.293680  0.422813  0.208871  1
  Cs  Cs5  1  0.148196  0.052181  0.583658  1
  Cs  Cs6  1  0.851804  0.947819  0.416342  1
  Cs  Cs7  1  0.706320  0.577187  0.791129  1
  Cs  Cs8  1  0.969721  0.189376  0.061457  1
  Cs  Cs9  1  0.469721  0.810624  0.438543  1
  Cs  Cs10  1  0.351804  0.052181  0.083658  1
  Cs  Cs11  1  0.206320  0.422813  0.708871  1
  Ti  Ti12  1  0.857673  0.318261  0.632534  1
  Ti  Ti13  1  0.357673  0.681739  0.867466  1
  Ti  Ti14  1  0.642327  0.318261  0.132534  1
  Ti  Ti15  1  0.142327  0.681739  0.367466  1
  S  S16  1  0.000000  0.500000  0.500000  1
  S  S17  1  0.090959  0.744908  0.197736  1
  S  S18  1  0.298930  0.496403  0.428227  1
  S  S19  1  0.330554  0.951125  0.860145  1
  S  S20  1  0.830554  0.048875  0.639855  1
  S  S21  1  0.798930  0.503597  0.071773  1
  S  S22  1  0.590959  0.255092  0.302264  1
  S  S23  1  0.500000  0.500000  0.000000  1
  S  S24  1  0.409041  0.744908  0.697736  1
  S  S25  1  0.201070  0.496403  0.928227  1
  S  S26  1  0.169446  0.951125  0.360145  1
  S  S27  1  0.669446  0.048875  0.139855  1
  S  S28  1  0.701070  0.503597  0.571773  1
  S  S29  1  0.909041  0.255092  0.802264  1
