# generated using pymatgen
data_Dy3Ho5In3Pt
_symmetry_space_group_name_H-M   'P 1'
_cell_length_a   10.48796200
_cell_length_b   10.48796154
_cell_length_c   6.98671300
_cell_angle_alpha   90.00000000
_cell_angle_beta   90.00000000
_cell_angle_gamma   120.00000144
_symmetry_Int_Tables_number   1
_chemical_formula_structural   Dy3Ho5In3Pt
_chemical_formula_sum   'Dy6 Ho10 In6 Pt2'
_cell_volume   665.55771267
_cell_formula_units_Z   2
loop_
 _symmetry_equiv_pos_site_id
 _symmetry_equiv_pos_as_xyz
  1  'x, y, z'
loop_
 _atom_site_type_symbol
 _atom_site_label
 _atom_site_symmetry_multiplicity
 _atom_site_fract_x
 _atom_site_fract_y
 _atom_site_fract_z
 _atom_site_occupancy
  Dy  Dy0  1  0.531067  0.062133  0.508704  1
  Dy  Dy1  1  0.937867  0.468933  0.508704  1
  Dy  Dy2  1  0.531067  0.468933  0.508704  1
  Dy  Dy3  1  0.468933  0.937867  0.008704  1
  Dy  Dy4  1  0.062133  0.531067  0.008704  1
  Dy  Dy5  1  0.468933  0.531067  0.008704  1
  Ho  Ho6  1  0.175278  0.350557  0.715098  1
  Ho  Ho7  1  0.649443  0.824722  0.715098  1
  Ho  Ho8  1  0.175278  0.824722  0.715098  1
  Ho  Ho9  1  0.824722  0.649443  0.215098  1
  Ho  Ho10  1  0.350557  0.175278  0.215098  1
  Ho  Ho11  1  0.824722  0.175278  0.215098  1
  Ho  Ho12  1  0.666667  0.333333  0.883697  1
  Ho  Ho13  1  0.333333  0.666667  0.383697  1
  Ho  Ho14  1  0.000000  0.000000  0.489474  1
  Ho  Ho15  1  0.000000  0.000000  0.989474  1
  In  In16  1  0.837487  0.674974  0.750889  1
  In  In17  1  0.325026  0.162513  0.750889  1
  In  In18  1  0.837487  0.162513  0.750889  1
  In  In19  1  0.162513  0.325026  0.250889  1
  In  In20  1  0.674974  0.837487  0.250889  1
  In  In21  1  0.162513  0.837487  0.250889  1
  Pt  Pt22  1  0.666667  0.333333  0.281779  1
  Pt  Pt23  1  0.333333  0.666667  0.781779  1
