# generated using pymatgen
data_Dy6ZrMn(Co4P3)4
_symmetry_space_group_name_H-M   'P 1'
_cell_length_a   3.69281500
_cell_length_b   10.57846700
_cell_length_c   12.28498600
_cell_angle_alpha   90.00000000
_cell_angle_beta   90.00000000
_cell_angle_gamma   90.00000000
_symmetry_Int_Tables_number   1
_chemical_formula_structural   Dy6ZrMn(Co4P3)4
_chemical_formula_sum   'Dy6 Zr1 Mn1 Co16 P12'
_cell_volume   479.90464413
_cell_formula_units_Z   1
loop_
 _symmetry_equiv_pos_site_id
 _symmetry_equiv_pos_as_xyz
  1  'x, y, z'
loop_
 _atom_site_type_symbol
 _atom_site_label
 _atom_site_symmetry_multiplicity
 _atom_site_fract_x
 _atom_site_fract_y
 _atom_site_fract_z
 _atom_site_occupancy
  Dy  Dy0  1  0.000000  0.500000  0.528984  1
  Dy  Dy1  1  0.500000  0.000000  0.477301  1
  Dy  Dy2  1  0.500000  0.821255  0.206449  1
  Dy  Dy3  1  0.500000  0.178745  0.206449  1
  Dy  Dy4  1  0.000000  0.682554  0.795626  1
  Dy  Dy5  1  0.000000  0.317446  0.795626  1
  Zr  Zr6  1  0.500000  0.500000  0.154416  1
  Mn  Mn7  1  0.000000  0.000000  0.837463  1
  Co  Co8  1  0.500000  0.500000  0.702769  1
  Co  Co9  1  0.000000  0.000000  0.296924  1
  Co  Co10  1  0.000000  0.500000  0.982959  1
  Co  Co11  1  0.500000  0.000000  0.012968  1
  Co  Co12  1  0.500000  0.326920  0.987698  1
  Co  Co13  1  0.500000  0.673080  0.987698  1
  Co  Co14  1  0.000000  0.161447  0.001755  1
  Co  Co15  1  0.000000  0.838553  0.001755  1
  Co  Co16  1  0.500000  0.293877  0.435085  1
  Co  Co17  1  0.500000  0.706123  0.435085  1
  Co  Co18  1  0.000000  0.202018  0.570975  1
  Co  Co19  1  0.000000  0.797982  0.570975  1
  Co  Co20  1  0.500000  0.880676  0.707750  1
  Co  Co21  1  0.500000  0.119324  0.707750  1
  Co  Co22  1  0.000000  0.622977  0.298138  1
  Co  Co23  1  0.000000  0.377023  0.298138  1
  P  P24  1  0.500000  0.500000  0.881382  1
  P  P25  1  0.000000  0.000000  0.116905  1
  P  P26  1  0.500000  0.500000  0.361635  1
  P  P27  1  0.000000  0.000000  0.653982  1
  P  P28  1  0.500000  0.309696  0.617863  1
  P  P29  1  0.500000  0.690304  0.617863  1
  P  P30  1  0.000000  0.187949  0.386309  1
  P  P31  1  0.000000  0.812051  0.386309  1
  P  P32  1  0.500000  0.851754  0.888526  1
  P  P33  1  0.500000  0.148246  0.888526  1
  P  P34  1  0.000000  0.665045  0.099985  1
  P  P35  1  0.000000  0.334955  0.099985  1
