# generated using pymatgen
data_Ho8Sc12Si15P
_symmetry_space_group_name_H-M   'P 1'
_cell_length_a   7.06597098
_cell_length_b   7.34702416
_cell_length_c   13.92816600
_cell_angle_alpha   90.00000000
_cell_angle_beta   90.00000000
_cell_angle_gamma   90.12178514
_symmetry_Int_Tables_number   1
_chemical_formula_structural   Ho8Sc12Si15P
_chemical_formula_sum   'Ho8 Sc12 Si15 P1'
_cell_volume   723.06321949
_cell_formula_units_Z   1
loop_
 _symmetry_equiv_pos_site_id
 _symmetry_equiv_pos_as_xyz
  1  'x, y, z'
loop_
 _atom_site_type_symbol
 _atom_site_label
 _atom_site_symmetry_multiplicity
 _atom_site_fract_x
 _atom_site_fract_y
 _atom_site_fract_z
 _atom_site_occupancy
  Ho  Ho0  1  0.010917  0.175267  0.096557  1
  Ho  Ho1  1  0.989986  0.826376  0.900962  1
  Ho  Ho2  1  0.488935  0.675861  0.903634  1
  Ho  Ho3  1  0.989986  0.826376  0.599038  1
  Ho  Ho4  1  0.511588  0.324236  0.096337  1
  Ho  Ho5  1  0.010917  0.175267  0.403443  1
  Ho  Ho6  1  0.511588  0.324236  0.403663  1
  Ho  Ho7  1  0.488935  0.675861  0.596366  1
  Sc  Sc8  1  0.159638  0.502373  0.750000  1
  Sc  Sc9  1  0.839112  0.497317  0.250000  1
  Sc  Sc10  1  0.339545  0.002592  0.250000  1
  Sc  Sc11  1  0.662168  0.999008  0.750000  1
  Sc  Sc12  1  0.327576  0.174182  0.627065  1
  Sc  Sc13  1  0.668382  0.823306  0.375347  1
  Sc  Sc14  1  0.168408  0.677199  0.375170  1
  Sc  Sc15  1  0.668382  0.823306  0.124653  1
  Sc  Sc16  1  0.832891  0.321859  0.626381  1
  Sc  Sc17  1  0.327576  0.174182  0.872935  1
  Sc  Sc18  1  0.832891  0.321859  0.873619  1
  Sc  Sc19  1  0.168408  0.677199  0.124830  1
  Si  Si20  1  0.965555  0.883951  0.250000  1
  Si  Si21  1  0.466275  0.615266  0.250000  1
  Si  Si22  1  0.531777  0.383092  0.750000  1
  Si  Si23  1  0.294093  0.864578  0.750000  1
  Si  Si24  1  0.714583  0.126795  0.250000  1
  Si  Si25  1  0.214923  0.372948  0.250000  1
  Si  Si26  1  0.786454  0.628510  0.750000  1
  Si  Si27  1  0.158164  0.464016  0.539932  1
  Si  Si28  1  0.841620  0.535349  0.461175  1
  Si  Si29  1  0.340144  0.965380  0.460637  1
  Si  Si30  1  0.841620  0.535349  0.038825  1
  Si  Si31  1  0.659675  0.036254  0.540145  1
  Si  Si32  1  0.158164  0.464016  0.960068  1
  Si  Si33  1  0.659675  0.036254  0.959855  1
  Si  Si34  1  0.340144  0.965380  0.039363  1
  P  P35  1  0.029306  0.125000  0.750000  1
