# generated using pymatgen
data_Tb3Tl2InAg2Pt
_symmetry_space_group_name_H-M   'P 1'
_cell_length_a   7.88778447
_cell_length_b   7.93361772
_cell_length_c   3.94007600
_cell_angle_alpha   90.00000000
_cell_angle_beta   90.00000000
_cell_angle_gamma   119.95527818
_symmetry_Int_Tables_number   1
_chemical_formula_structural   Tb3Tl2InAg2Pt
_chemical_formula_sum   'Tb3 Tl2 In1 Ag2 Pt1'
_cell_volume   213.62745807
_cell_formula_units_Z   1
loop_
 _symmetry_equiv_pos_site_id
 _symmetry_equiv_pos_as_xyz
  1  'x, y, z'
loop_
 _atom_site_type_symbol
 _atom_site_label
 _atom_site_symmetry_multiplicity
 _atom_site_fract_x
 _atom_site_fract_y
 _atom_site_fract_z
 _atom_site_occupancy
  Tb  Tb0  1  0.397929  0.978034  0.000000  1
  Tb  Tb1  1  0.022286  0.420319  0.000000  1
  Tb  Tb2  1  0.580154  0.602388  0.000000  1
  Tl  Tl3  1  0.268016  0.261233  0.500000  1
  Tl  Tl4  1  0.990197  0.730474  0.500000  1
  In  In5  1  0.740056  0.006706  0.500000  1
  Ag  Ag6  1  0.994030  0.000195  0.000000  1
  Ag  Ag7  1  0.667567  0.328343  0.500000  1
  Pt  Pt8  1  0.339763  0.672310  0.500000  1
