# generated using pymatgen
data_Pu10Se19
_symmetry_space_group_name_H-M   'P 1'
_cell_length_a   9.16453800
_cell_length_b   9.16453800
_cell_length_c   16.74841400
_cell_angle_alpha   90.00000000
_cell_angle_beta   90.00000000
_cell_angle_gamma   90.00000000
_symmetry_Int_Tables_number   1
_chemical_formula_structural   Pu10Se19
_chemical_formula_sum   'Pu20 Se38'
_cell_volume   1406.67846945
_cell_formula_units_Z   2
loop_
 _symmetry_equiv_pos_site_id
 _symmetry_equiv_pos_as_xyz
  1  'x, y, z'
loop_
 _atom_site_type_symbol
 _atom_site_label
 _atom_site_symmetry_multiplicity
 _atom_site_fract_x
 _atom_site_fract_y
 _atom_site_fract_z
 _atom_site_occupancy
  Pu  Pu0  1  0.000000  0.500000  0.132995  1
  Pu  Pu1  1  0.000000  0.500000  0.632995  1
  Pu  Pu2  1  0.500000  0.000000  0.367005  1
  Pu  Pu3  1  0.500000  0.000000  0.867005  1
  Pu  Pu4  1  0.397950  0.300214  0.645217  1
  Pu  Pu5  1  0.199786  0.897950  0.145217  1
  Pu  Pu6  1  0.800214  0.102050  0.145217  1
  Pu  Pu7  1  0.602050  0.699786  0.645217  1
  Pu  Pu8  1  0.102050  0.199786  0.854783  1
  Pu  Pu9  1  0.300214  0.602050  0.354783  1
  Pu  Pu10  1  0.699786  0.397950  0.354783  1
  Pu  Pu11  1  0.897950  0.800214  0.854783  1
  Pu  Pu12  1  0.205153  0.900974  0.631647  1
  Pu  Pu13  1  0.599026  0.705153  0.131647  1
  Pu  Pu14  1  0.400974  0.294847  0.131647  1
  Pu  Pu15  1  0.794847  0.099026  0.631647  1
  Pu  Pu16  1  0.294847  0.599026  0.868353  1
  Pu  Pu17  1  0.900974  0.794847  0.368353  1
  Pu  Pu18  1  0.099026  0.205153  0.368353  1
  Pu  Pu19  1  0.705153  0.400974  0.868353  1
  Se  Se20  1  0.000000  0.500000  0.817412  1
  Se  Se21  1  0.000000  0.500000  0.317412  1
  Se  Se22  1  0.500000  0.000000  0.682588  1
  Se  Se23  1  0.500000  0.000000  0.182588  1
  Se  Se24  1  0.400367  0.303788  0.316156  1
  Se  Se25  1  0.196212  0.900367  0.816156  1
  Se  Se26  1  0.803788  0.099633  0.816156  1
  Se  Se27  1  0.599633  0.696212  0.316156  1
  Se  Se28  1  0.099633  0.196212  0.183844  1
  Se  Se29  1  0.303788  0.599633  0.683844  1
  Se  Se30  1  0.696212  0.400367  0.683844  1
  Se  Se31  1  0.900367  0.803788  0.183844  1
  Se  Se32  1  0.798601  0.097815  0.323776  1
  Se  Se33  1  0.402185  0.298601  0.823776  1
  Se  Se34  1  0.597815  0.701399  0.823776  1
  Se  Se35  1  0.201399  0.902185  0.323776  1
  Se  Se36  1  0.701399  0.402185  0.176224  1
  Se  Se37  1  0.097815  0.201399  0.676224  1
  Se  Se38  1  0.902185  0.798601  0.676224  1
  Se  Se39  1  0.298601  0.597815  0.176224  1
  Se  Se40  1  0.811892  0.623540  0.999100  1
  Se  Se41  1  0.876460  0.311892  0.499100  1
  Se  Se42  1  0.123540  0.688108  0.499100  1
  Se  Se43  1  0.188108  0.376460  0.999100  1
  Se  Se44  1  0.688108  0.876460  0.500900  1
  Se  Se45  1  0.623540  0.188108  0.000900  1
  Se  Se46  1  0.376460  0.811892  0.000900  1
  Se  Se47  1  0.311892  0.123540  0.500900  1
  Se  Se48  1  0.081152  0.722095  0.999964  1
  Se  Se49  1  0.777905  0.581152  0.499964  1
  Se  Se50  1  0.222095  0.418848  0.499964  1
  Se  Se51  1  0.918848  0.277905  0.999964  1
  Se  Se52  1  0.418848  0.777905  0.500036  1
  Se  Se53  1  0.722095  0.918848  0.000036  1
  Se  Se54  1  0.277905  0.081152  0.000036  1
  Se  Se55  1  0.581152  0.222095  0.500036  1
  Se  Se56  1  0.000000  0.000000  0.500000  1
  Se  Se57  1  0.500000  0.500000  0.000000  1
