# generated using pymatgen
data_YHoMn2Cl
_symmetry_space_group_name_H-M   'P 1'
_cell_length_a   3.77815400
_cell_length_b   3.77815320
_cell_length_c   17.19384600
_cell_angle_alpha   90.00000000
_cell_angle_beta   90.00000000
_cell_angle_gamma   119.99998947
_symmetry_Int_Tables_number   1
_chemical_formula_structural   YHoMn2Cl
_chemical_formula_sum   'Y2 Ho2 Mn4 Cl2'
_cell_volume   212.55089148
_cell_formula_units_Z   2
loop_
 _symmetry_equiv_pos_site_id
 _symmetry_equiv_pos_as_xyz
  1  'x, y, z'
loop_
 _atom_site_type_symbol
 _atom_site_label
 _atom_site_symmetry_multiplicity
 _atom_site_fract_x
 _atom_site_fract_y
 _atom_site_fract_z
 _atom_site_occupancy
  Y  Y0  1  0.000000  0.000000  0.618032  1
  Y  Y1  1  0.000000  0.000000  0.381968  1
  Ho  Ho2  1  0.000000  0.000000  0.115918  1
  Ho  Ho3  1  0.000000  0.000000  0.884082  1
  Mn  Mn4  1  0.333333  0.666667  0.511743  1
  Mn  Mn5  1  0.666667  0.333333  0.488257  1
  Mn  Mn6  1  0.666667  0.333333  0.011333  1
  Mn  Mn7  1  0.333333  0.666667  0.988667  1
  Cl  Cl8  1  0.333333  0.666667  0.248470  1
  Cl  Cl9  1  0.666667  0.333333  0.751530  1
