# generated using pymatgen
data_CrCoAg2(NO3)8
_symmetry_space_group_name_H-M   'P 1'
_cell_length_a   8.07645341
_cell_length_b   7.90273346
_cell_length_c   7.58973196
_cell_angle_alpha   90.36655779
_cell_angle_beta   88.97667408
_cell_angle_gamma   88.74413884
_symmetry_Int_Tables_number   1
_chemical_formula_structural   CrCoAg2(NO3)8
_chemical_formula_sum   'Cr1 Co1 Ag2 N8 O24'
_cell_volume   484.21790252
_cell_formula_units_Z   1
loop_
 _symmetry_equiv_pos_site_id
 _symmetry_equiv_pos_as_xyz
  1  'x, y, z'
loop_
 _atom_site_type_symbol
 _atom_site_label
 _atom_site_symmetry_multiplicity
 _atom_site_fract_x
 _atom_site_fract_y
 _atom_site_fract_z
 _atom_site_occupancy
  Cr  Cr0  1  0.000000  0.500000  0.000000  1
  Co  Co1  1  0.000000  0.000000  0.500000  1
  Ag  Ag2  1  0.500000  0.500000  0.500000  1
  Ag  Ag3  1  0.500000  0.000000  0.000000  1
  N  N4  1  0.685529  0.153720  0.330180  1
  N  N5  1  0.693493  0.366147  0.818777  1
  N  N6  1  0.840052  0.805848  0.831435  1
  N  N7  1  0.853670  0.700297  0.317317  1
  N  N8  1  0.159948  0.194152  0.168565  1
  N  N9  1  0.146330  0.299703  0.682683  1
  N  N10  1  0.306507  0.633853  0.181223  1
  N  N11  1  0.314471  0.846280  0.669820  1
  O  O12  1  0.579728  0.263518  0.815448  1
  O  O13  1  0.568659  0.261904  0.322387  1
  O  O14  1  0.710591  0.478757  0.702500  1
  O  O15  1  0.696412  0.036306  0.216540  1
  O  O16  1  0.738824  0.715833  0.426172  1
  O  O17  1  0.723088  0.788802  0.938330  1
  O  O18  1  0.798405  0.357932  0.945867  1
  O  O19  1  0.791172  0.161964  0.452025  1
  O  O20  1  0.841064  0.923170  0.720152  1
  O  O21  1  0.851635  0.574667  0.206792  1
  O  O22  1  0.965746  0.700648  0.832473  1
  O  O23  1  0.972552  0.802662  0.309277  1
  O  O24  1  0.027448  0.197338  0.690723  1
  O  O25  1  0.034254  0.299352  0.167527  1
  O  O26  1  0.148365  0.425333  0.793208  1
  O  O27  1  0.158936  0.076830  0.279848  1
  O  O28  1  0.201595  0.642068  0.054133  1
  O  O29  1  0.208828  0.838036  0.547975  1
  O  O30  1  0.276912  0.211198  0.061670  1
  O  O31  1  0.261176  0.284167  0.573828  1
  O  O32  1  0.289409  0.521243  0.297500  1
  O  O33  1  0.303588  0.963694  0.783460  1
  O  O34  1  0.431341  0.738096  0.677613  1
  O  O35  1  0.420272  0.736482  0.184552  1
