# generated using pymatgen
data_HoTm2Lu3FeSb2
_symmetry_space_group_name_H-M   'P 1'
_cell_length_a   8.05557252
_cell_length_b   8.06060588
_cell_length_c   4.10643900
_cell_angle_alpha   90.00000000
_cell_angle_beta   90.00000000
_cell_angle_gamma   120.02066853
_symmetry_Int_Tables_number   1
_chemical_formula_structural   HoTm2Lu3FeSb2
_chemical_formula_sum   'Ho1 Tm2 Lu3 Fe1 Sb2'
_cell_volume   230.87112450
_cell_formula_units_Z   1
loop_
 _symmetry_equiv_pos_site_id
 _symmetry_equiv_pos_as_xyz
  1  'x, y, z'
loop_
 _atom_site_type_symbol
 _atom_site_label
 _atom_site_symmetry_multiplicity
 _atom_site_fract_x
 _atom_site_fract_y
 _atom_site_fract_z
 _atom_site_occupancy
  Ho  Ho0  1  0.000000  0.605079  0.500000  1
  Tm  Tm1  1  0.605360  0.999912  0.500000  1
  Tm  Tm2  1  0.394640  0.394552  0.500000  1
  Lu  Lu3  1  0.232717  0.000389  0.000000  1
  Lu  Lu4  1  0.767283  0.767672  0.000000  1
  Lu  Lu5  1  0.000000  0.232394  0.000000  1
  Fe  Fe6  1  0.000000  0.000448  0.500000  1
  Sb  Sb7  1  0.333811  0.666683  0.000000  1
  Sb  Sb8  1  0.666189  0.332872  0.000000  1
