# generated using pymatgen
data_Rb6Dy(AsBr6)3
_symmetry_space_group_name_H-M   'P 1'
_cell_length_a   7.75111600
_cell_length_b   7.75111569
_cell_length_c   19.60113000
_cell_angle_alpha   90.00000000
_cell_angle_beta   90.00000000
_cell_angle_gamma   120.00000134
_symmetry_Int_Tables_number   1
_chemical_formula_structural   Rb6Dy(AsBr6)3
_chemical_formula_sum   'Rb6 Dy1 As3 Br18'
_cell_volume   1019.85913442
_cell_formula_units_Z   1
loop_
 _symmetry_equiv_pos_site_id
 _symmetry_equiv_pos_as_xyz
  1  'x, y, z'
loop_
 _atom_site_type_symbol
 _atom_site_label
 _atom_site_symmetry_multiplicity
 _atom_site_fract_x
 _atom_site_fract_y
 _atom_site_fract_z
 _atom_site_occupancy
  Rb  Rb0  1  0.333333  0.666667  0.070334  1
  Rb  Rb1  1  0.666667  0.333333  0.929909  1
  Rb  Rb2  1  0.666667  0.333333  0.569670  1
  Rb  Rb3  1  0.333333  0.666667  0.415429  1
  Rb  Rb4  1  0.000000  0.000000  0.250934  1
  Rb  Rb5  1  0.000000  0.000000  0.763061  1
  Dy  Dy6  1  0.333333  0.666667  0.841079  1
  As  As7  1  0.333333  0.666667  0.649576  1
  As  As8  1  0.666667  0.333333  0.343007  1
  As  As9  1  0.666667  0.333333  0.157600  1
  Br  Br10  1  0.173921  0.347843  0.582486  1
  Br  Br11  1  0.826683  0.653364  0.414180  1
  Br  Br12  1  0.652157  0.826079  0.582486  1
  Br  Br13  1  0.825763  0.651524  0.088517  1
  Br  Br14  1  0.346636  0.173317  0.414180  1
  Br  Br15  1  0.164114  0.328228  0.918014  1
  Br  Br16  1  0.173921  0.826079  0.582486  1
  Br  Br17  1  0.348476  0.174237  0.088517  1
  Br  Br18  1  0.826683  0.173317  0.414180  1
  Br  Br19  1  0.671772  0.835886  0.918014  1
  Br  Br20  1  0.825763  0.174237  0.088517  1
  Br  Br21  1  0.164114  0.835886  0.918014  1
  Br  Br22  1  0.501955  0.003911  0.252664  1
  Br  Br23  1  0.499045  0.998090  0.747274  1
  Br  Br24  1  0.996089  0.498045  0.252664  1
  Br  Br25  1  0.001910  0.500955  0.747274  1
  Br  Br26  1  0.501955  0.498045  0.252664  1
  Br  Br27  1  0.499045  0.500955  0.747274  1
