# generated using pymatgen
data_Tm2GaSiRu2
_symmetry_space_group_name_H-M   'P 1'
_cell_length_a   4.37070500
_cell_length_b   6.95390913
_cell_length_c   7.16572209
_cell_angle_alpha   90.76820308
_cell_angle_beta   90.00000000
_cell_angle_gamma   90.00000000
_symmetry_Int_Tables_number   1
_chemical_formula_structural   Tm2GaSiRu2
_chemical_formula_sum   'Tm4 Ga2 Si2 Ru4'
_cell_volume   217.77169424
_cell_formula_units_Z   2
loop_
 _symmetry_equiv_pos_site_id
 _symmetry_equiv_pos_as_xyz
  1  'x, y, z'
loop_
 _atom_site_type_symbol
 _atom_site_label
 _atom_site_symmetry_multiplicity
 _atom_site_fract_x
 _atom_site_fract_y
 _atom_site_fract_z
 _atom_site_occupancy
  Tm  Tm0  1  0.250000  0.988277  0.806419  1
  Tm  Tm1  1  0.750000  0.011723  0.193581  1
  Tm  Tm2  1  0.250000  0.484198  0.690624  1
  Tm  Tm3  1  0.750000  0.515802  0.309376  1
  Ga  Ga4  1  0.250000  0.305427  0.107826  1
  Ga  Ga5  1  0.750000  0.694573  0.892174  1
  Si  Si6  1  0.250000  0.801400  0.400868  1
  Si  Si7  1  0.750000  0.198600  0.599132  1
  Ru  Ru8  1  0.750000  0.848763  0.554434  1
  Ru  Ru9  1  0.250000  0.151237  0.445566  1
  Ru  Ru10  1  0.750000  0.325366  0.919188  1
  Ru  Ru11  1  0.250000  0.674634  0.080812  1
