# generated using pymatgen
data_Er6Zn17GeIr6
_symmetry_space_group_name_H-M   'P 1'
_cell_length_a   8.97566483
_cell_length_b   8.97566484
_cell_length_c   8.97566500
_cell_angle_alpha   60.00000309
_cell_angle_beta   60.00000306
_cell_angle_gamma   60.00000420
_symmetry_Int_Tables_number   1
_chemical_formula_structural   Er6Zn17GeIr6
_chemical_formula_sum   'Er6 Zn17 Ge1 Ir6'
_cell_volume   511.31075184
_cell_formula_units_Z   1
loop_
 _symmetry_equiv_pos_site_id
 _symmetry_equiv_pos_as_xyz
  1  'x, y, z'
loop_
 _atom_site_type_symbol
 _atom_site_label
 _atom_site_symmetry_multiplicity
 _atom_site_fract_x
 _atom_site_fract_y
 _atom_site_fract_z
 _atom_site_occupancy
  Er  Er0  1  0.721193  0.278807  0.278807  1
  Er  Er1  1  0.721193  0.278807  0.721193  1
  Er  Er2  1  0.721193  0.721193  0.278807  1
  Er  Er3  1  0.278807  0.721193  0.721193  1
  Er  Er4  1  0.278807  0.721193  0.278807  1
  Er  Er5  1  0.278807  0.278807  0.721193  1
  Zn  Zn6  1  0.622471  0.125843  0.125843  1
  Zn  Zn7  1  0.125843  0.622471  0.125843  1
  Zn  Zn8  1  0.125843  0.125843  0.622471  1
  Zn  Zn9  1  0.125843  0.125843  0.125843  1
  Zn  Zn10  1  0.377529  0.874157  0.874157  1
  Zn  Zn11  1  0.874157  0.377529  0.874157  1
  Zn  Zn12  1  0.874157  0.874157  0.377529  1
  Zn  Zn13  1  0.874157  0.874157  0.874157  1
  Zn  Zn14  1  0.000000  0.000000  0.000000  1
  Zn  Zn15  1  0.003413  0.332195  0.332195  1
  Zn  Zn16  1  0.332195  0.003413  0.332195  1
  Zn  Zn17  1  0.332195  0.332195  0.003413  1
  Zn  Zn18  1  0.332195  0.332195  0.332195  1
  Zn  Zn19  1  0.996587  0.667805  0.667805  1
  Zn  Zn20  1  0.667805  0.996587  0.667805  1
  Zn  Zn21  1  0.667805  0.667805  0.996587  1
  Zn  Zn22  1  0.667805  0.667805  0.667805  1
  Ge  Ge23  1  0.500000  0.500000  0.500000  1
  Ir  Ir24  1  0.500000  0.000000  0.000000  1
  Ir  Ir25  1  0.500000  0.000000  0.500000  1
  Ir  Ir26  1  0.500000  0.500000  0.000000  1
  Ir  Ir27  1  0.000000  0.500000  0.500000  1
  Ir  Ir28  1  0.000000  0.500000  0.000000  1
  Ir  Ir29  1  0.000000  0.000000  0.500000  1
