# generated using pymatgen
data_Nb12Co8Re3MoC4
_symmetry_space_group_name_H-M   'P 1'
_cell_length_a   8.19649484
_cell_length_b   8.19649484
_cell_length_c   8.17684482
_cell_angle_alpha   59.92047546
_cell_angle_beta   59.92047500
_cell_angle_gamma   59.99999758
_symmetry_Int_Tables_number   1
_chemical_formula_structural   Nb12Co8Re3MoC4
_chemical_formula_sum   'Nb12 Co8 Re3 Mo1 C4'
_cell_volume   387.97524259
_cell_formula_units_Z   1
loop_
 _symmetry_equiv_pos_site_id
 _symmetry_equiv_pos_as_xyz
  1  'x, y, z'
loop_
 _atom_site_type_symbol
 _atom_site_label
 _atom_site_symmetry_multiplicity
 _atom_site_fract_x
 _atom_site_fract_y
 _atom_site_fract_z
 _atom_site_occupancy
  Nb  Nb0  1  0.690677  0.308137  0.693050  1
  Nb  Nb1  1  0.941863  0.559323  0.556950  1
  Nb  Nb2  1  0.556465  0.943266  0.943805  1
  Nb  Nb3  1  0.943266  0.556465  0.943805  1
  Nb  Nb4  1  0.556465  0.556465  0.943805  1
  Nb  Nb5  1  0.941863  0.941863  0.556950  1
  Nb  Nb6  1  0.693535  0.693535  0.306195  1
  Nb  Nb7  1  0.308137  0.690677  0.693050  1
  Nb  Nb8  1  0.693535  0.306734  0.306195  1
  Nb  Nb9  1  0.308137  0.308137  0.693050  1
  Nb  Nb10  1  0.559323  0.941863  0.556950  1
  Nb  Nb11  1  0.306734  0.693535  0.306195  1
  Co  Co12  1  0.326690  0.326690  0.325436  1
  Co  Co13  1  0.228815  0.923310  0.924564  1
  Co  Co14  1  0.923310  0.228815  0.924564  1
  Co  Co15  1  0.924058  0.924058  0.227824  1
  Co  Co16  1  0.326690  0.021185  0.325436  1
  Co  Co17  1  0.325942  0.325942  0.022176  1
  Co  Co18  1  0.021185  0.326690  0.325436  1
  Co  Co19  1  0.923310  0.923310  0.924564  1
  Re  Re20  1  0.125000  0.125000  0.125000  1
  Re  Re21  1  0.625000  0.125000  0.125000  1
  Re  Re22  1  0.125000  0.625000  0.125000  1
  Mo  Mo23  1  0.125000  0.125000  0.625000  1
  C  C24  1  0.625000  0.625000  0.625000  1
  C  C25  1  0.125000  0.625000  0.625000  1
  C  C26  1  0.625000  0.125000  0.625000  1
  C  C27  1  0.625000  0.625000  0.125000  1
