# generated using pymatgen
data_Tm4NbMoRu6
_symmetry_space_group_name_H-M   'P 1'
_cell_length_a   5.56526724
_cell_length_b   5.17155747
_cell_length_c   9.09129800
_cell_angle_alpha   90.00000000
_cell_angle_beta   90.00000000
_cell_angle_gamma   122.76755472
_symmetry_Int_Tables_number   1
_chemical_formula_structural   Tm4NbMoRu6
_chemical_formula_sum   'Tm4 Nb1 Mo1 Ru6'
_cell_volume   220.02082906
_cell_formula_units_Z   1
loop_
 _symmetry_equiv_pos_site_id
 _symmetry_equiv_pos_as_xyz
  1  'x, y, z'
loop_
 _atom_site_type_symbol
 _atom_site_label
 _atom_site_symmetry_multiplicity
 _atom_site_fract_x
 _atom_site_fract_y
 _atom_site_fract_z
 _atom_site_occupancy
  Tm  Tm0  1  0.670727  0.341582  0.568943  1
  Tm  Tm1  1  0.329189  0.658519  0.435992  1
  Tm  Tm2  1  0.329189  0.658519  0.064008  1
  Tm  Tm3  1  0.670727  0.341582  0.931057  1
  Nb  Nb4  1  0.841729  0.682881  0.250000  1
  Mo  Mo5  1  0.157386  0.314530  0.750000  1
  Ru  Ru6  1  0.002770  0.005913  0.503059  1
  Ru  Ru7  1  0.002770  0.005913  0.996941  1
  Ru  Ru8  1  0.169610  0.815288  0.750000  1
  Ru  Ru9  1  0.646082  0.815865  0.750000  1
  Ru  Ru10  1  0.828741  0.179759  0.250000  1
  Ru  Ru11  1  0.351081  0.179647  0.250000  1
