# generated using pymatgen
data_YCo4ReSi2P
_symmetry_space_group_name_H-M   'P 1'
_cell_length_a   3.75492300
_cell_length_b   10.46086100
_cell_length_c   11.96691700
_cell_angle_alpha   90.00000000
_cell_angle_beta   90.00000000
_cell_angle_gamma   90.00000000
_symmetry_Int_Tables_number   1
_chemical_formula_structural   YCo4ReSi2P
_chemical_formula_sum   'Y4 Co16 Re4 Si8 P4'
_cell_volume   470.05723960
_cell_formula_units_Z   4
loop_
 _symmetry_equiv_pos_site_id
 _symmetry_equiv_pos_as_xyz
  1  'x, y, z'
loop_
 _atom_site_type_symbol
 _atom_site_label
 _atom_site_symmetry_multiplicity
 _atom_site_fract_x
 _atom_site_fract_y
 _atom_site_fract_z
 _atom_site_occupancy
  Y  Y0  1  0.250000  0.920878  0.203659  1
  Y  Y1  1  0.750000  0.079122  0.796341  1
  Y  Y2  1  0.750000  0.420878  0.296341  1
  Y  Y3  1  0.250000  0.579122  0.703659  1
  Co  Co4  1  0.250000  0.090842  0.988774  1
  Co  Co5  1  0.750000  0.909158  0.011226  1
  Co  Co6  1  0.750000  0.590842  0.511226  1
  Co  Co7  1  0.250000  0.409158  0.488774  1
  Co  Co8  1  0.250000  0.286869  0.672480  1
  Co  Co9  1  0.750000  0.713131  0.327520  1
  Co  Co10  1  0.750000  0.786869  0.827520  1
  Co  Co11  1  0.250000  0.213131  0.172480  1
  Co  Co12  1  0.250000  0.615097  0.201748  1
  Co  Co13  1  0.750000  0.384903  0.798252  1
  Co  Co14  1  0.750000  0.115097  0.298252  1
  Co  Co15  1  0.250000  0.884903  0.701748  1
  Co  Co16  1  0.250000  0.032306  0.432907  1
  Co  Co17  1  0.750000  0.967694  0.567093  1
  Co  Co18  1  0.750000  0.532306  0.067093  1
  Co  Co19  1  0.250000  0.467694  0.932907  1
  Re  Re20  1  0.250000  0.793816  0.490031  1
  Re  Re21  1  0.750000  0.206184  0.509969  1
  Re  Re22  1  0.750000  0.293816  0.009969  1
  Re  Re23  1  0.250000  0.706184  0.990031  1
  Si  Si24  1  0.250000  0.083398  0.613932  1
  Si  Si25  1  0.750000  0.916602  0.386068  1
  Si  Si26  1  0.750000  0.583398  0.886068  1
  Si  Si27  1  0.250000  0.416602  0.113932  1
  Si  Si28  1  0.250000  0.230535  0.364285  1
  Si  Si29  1  0.750000  0.769465  0.635715  1
  Si  Si30  1  0.750000  0.730535  0.135715  1
  Si  Si31  1  0.250000  0.269465  0.864285  1
  P  P32  1  0.250000  0.900904  0.892194  1
  P  P33  1  0.750000  0.099096  0.107806  1
  P  P34  1  0.750000  0.400904  0.607806  1
  P  P35  1  0.250000  0.599096  0.392194  1
