# generated using pymatgen
data_Zr6GaSn5Rh12
_symmetry_space_group_name_H-M   'P 1'
_cell_length_a   4.31595900
_cell_length_b   7.40042300
_cell_length_c   12.91125700
_cell_angle_alpha   90.00000000
_cell_angle_beta   89.99999996
_cell_angle_gamma   90.00000000
_symmetry_Int_Tables_number   1
_chemical_formula_structural   Zr6GaSn5Rh12
_chemical_formula_sum   'Zr6 Ga1 Sn5 Rh12'
_cell_volume   412.38454474
_cell_formula_units_Z   1
loop_
 _symmetry_equiv_pos_site_id
 _symmetry_equiv_pos_as_xyz
  1  'x, y, z'
loop_
 _atom_site_type_symbol
 _atom_site_label
 _atom_site_symmetry_multiplicity
 _atom_site_fract_x
 _atom_site_fract_y
 _atom_site_fract_z
 _atom_site_occupancy
  Zr  Zr0  1  0.000000  0.500000  0.994390  1
  Zr  Zr1  1  0.500012  0.000000  0.165180  1
  Zr  Zr2  1  0.000016  0.500000  0.333370  1
  Zr  Zr3  1  0.499993  0.000000  0.501460  1
  Zr  Zr4  1  0.999988  0.500000  0.672286  1
  Zr  Zr5  1  0.499991  0.000000  0.833330  1
  Ga  Ga6  1  0.499982  0.500000  0.833330  1
  Sn  Sn7  1  0.000000  0.000000  0.999150  1
  Sn  Sn8  1  0.500011  0.500000  0.164870  1
  Sn  Sn9  1  0.000008  0.000000  0.333296  1
  Sn  Sn10  1  0.500001  0.500000  0.501852  1
  Sn  Sn11  1  0.999985  0.000000  0.667513  1
  Rh  Rh12  1  0.500001  0.253185  0.997708  1
  Rh  Rh13  1  0.500001  0.746816  0.997708  1
  Rh  Rh14  1  0.000017  0.250466  0.166646  1
  Rh  Rh15  1  0.000017  0.749533  0.166646  1
  Rh  Rh16  1  0.500021  0.248686  0.333344  1
  Rh  Rh17  1  0.500021  0.751314  0.333344  1
  Rh  Rh18  1  0.000004  0.250434  0.500008  1
  Rh  Rh19  1  0.000004  0.749566  0.500008  1
  Rh  Rh20  1  0.499979  0.253171  0.668951  1
  Rh  Rh21  1  0.499979  0.746829  0.668951  1
  Rh  Rh22  1  0.999984  0.256833  0.833329  1
  Rh  Rh23  1  0.999984  0.743166  0.833329  1
