# generated using pymatgen
data_Er8Ti12Si15Ir
_symmetry_space_group_name_H-M   'P 1'
_cell_length_a   7.04830795
_cell_length_b   7.02644389
_cell_length_c   12.93416970
_cell_angle_alpha   89.87573016
_cell_angle_beta   89.83237156
_cell_angle_gamma   90.02305906
_symmetry_Int_Tables_number   1
_chemical_formula_structural   Er8Ti12Si15Ir
_chemical_formula_sum   'Er8 Ti12 Si15 Ir1'
_cell_volume   640.55450717
_cell_formula_units_Z   1
loop_
 _symmetry_equiv_pos_site_id
 _symmetry_equiv_pos_as_xyz
  1  'x, y, z'
loop_
 _atom_site_type_symbol
 _atom_site_label
 _atom_site_symmetry_multiplicity
 _atom_site_fract_x
 _atom_site_fract_y
 _atom_site_fract_z
 _atom_site_occupancy
  Er  Er0  1  0.338342  0.002078  0.467032  1
  Er  Er1  1  0.499349  0.841219  0.717689  1
  Er  Er2  1  0.500985  0.159216  0.216788  1
  Er  Er3  1  0.841291  0.497366  0.283326  1
  Er  Er4  1  0.157353  0.500298  0.782818  1
  Er  Er5  1  0.660516  0.997613  0.967696  1
  Er  Er6  1  0.001750  0.338959  0.534986  1
  Er  Er7  1  0.999119  0.659195  0.033112  1
  Ti  Ti8  1  0.327271  0.326399  0.001166  1
  Ti  Ti9  1  0.172921  0.827197  0.249861  1
  Ti  Ti10  1  0.830472  0.172101  0.748013  1
  Ti  Ti11  1  0.671658  0.671933  0.499257  1
  Ti  Ti12  1  0.156610  0.010588  0.872795  1
  Ti  Ti13  1  0.492094  0.652104  0.125575  1
  Ti  Ti14  1  0.500276  0.342995  0.627066  1
  Ti  Ti15  1  0.655045  0.496488  0.875444  1
  Ti  Ti16  1  0.347692  0.506698  0.373815  1
  Ti  Ti17  1  0.846126  0.992702  0.374755  1
  Ti  Ti18  1  0.007817  0.151486  0.125673  1
  Ti  Ti19  1  0.993477  0.851953  0.621000  1
  Si  Si20  1  0.369269  0.702688  0.934048  1
  Si  Si21  1  0.631269  0.296735  0.433517  1
  Si  Si22  1  0.703634  0.368796  0.067050  1
  Si  Si23  1  0.300206  0.631291  0.564831  1
  Si  Si24  1  0.796264  0.868185  0.182559  1
  Si  Si25  1  0.130791  0.202963  0.316107  1
  Si  Si26  1  0.867909  0.798060  0.816759  1
  Si  Si27  1  0.292419  0.953691  0.065085  1
  Si  Si28  1  0.546100  0.791308  0.314759  1
  Si  Si29  1  0.458812  0.213546  0.817607  1
  Si  Si30  1  0.788360  0.549239  0.685668  1
  Si  Si31  1  0.207786  0.453706  0.185159  1
  Si  Si32  1  0.705454  0.045071  0.562161  1
  Si  Si33  1  0.952729  0.291198  0.937634  1
  Si  Si34  1  0.046320  0.707964  0.433767  1
  Ir  Ir35  1  0.202512  0.126971  0.685424  1
