# generated using pymatgen
data_NdSm3(Lu3Pt4)2
_symmetry_space_group_name_H-M   'P 1'
_cell_length_a   7.44766500
_cell_length_b   7.52573427
_cell_length_c   14.63184800
_cell_angle_alpha   89.89651978
_cell_angle_beta   90.00000000
_cell_angle_gamma   90.00000000
_symmetry_Int_Tables_number   1
_chemical_formula_structural   NdSm3(Lu3Pt4)2
_chemical_formula_sum   'Nd2 Sm6 Lu12 Pt16'
_cell_volume   820.10127290
_cell_formula_units_Z   2
loop_
 _symmetry_equiv_pos_site_id
 _symmetry_equiv_pos_as_xyz
  1  'x, y, z'
loop_
 _atom_site_type_symbol
 _atom_site_label
 _atom_site_symmetry_multiplicity
 _atom_site_fract_x
 _atom_site_fract_y
 _atom_site_fract_z
 _atom_site_occupancy
  Nd  Nd0  1  0.484032  0.674834  0.905164  1
  Nd  Nd1  1  0.984032  0.825166  0.594836  1
  Sm  Sm2  1  0.483971  0.674946  0.595007  1
  Sm  Sm3  1  0.983971  0.825054  0.904993  1
  Sm  Sm4  1  0.515289  0.324880  0.094897  1
  Sm  Sm5  1  0.015289  0.175120  0.405103  1
  Sm  Sm6  1  0.515610  0.324759  0.405158  1
  Sm  Sm7  1  0.015610  0.175241  0.094842  1
  Lu  Lu8  1  0.641916  0.165955  0.622946  1
  Lu  Lu9  1  0.141916  0.334045  0.877054  1
  Lu  Lu10  1  0.358934  0.833488  0.122572  1
  Lu  Lu11  1  0.858934  0.666512  0.377428  1
  Lu  Lu12  1  0.358491  0.833084  0.376985  1
  Lu  Lu13  1  0.858491  0.666916  0.123015  1
  Lu  Lu14  1  0.640956  0.166326  0.877165  1
  Lu  Lu15  1  0.140956  0.333674  0.622835  1
  Lu  Lu16  1  0.801931  0.507520  0.750073  1
  Lu  Lu17  1  0.301931  0.992480  0.749927  1
  Lu  Lu18  1  0.197754  0.492328  0.250034  1
  Lu  Lu19  1  0.697754  0.007672  0.249966  1
  Pt  Pt20  1  0.686757  0.965066  0.455596  1
  Pt  Pt21  1  0.186757  0.534934  0.044404  1
  Pt  Pt22  1  0.309363  0.036728  0.956784  1
  Pt  Pt23  1  0.809363  0.463272  0.543216  1
  Pt  Pt24  1  0.313493  0.037488  0.542943  1
  Pt  Pt25  1  0.813493  0.462512  0.957057  1
  Pt  Pt26  1  0.690205  0.966178  0.043491  1
  Pt  Pt27  1  0.190205  0.533822  0.456509  1
  Pt  Pt28  1  0.437107  0.373502  0.749141  1
  Pt  Pt29  1  0.937107  0.126498  0.750859  1
  Pt  Pt30  1  0.564160  0.625988  0.249910  1
  Pt  Pt31  1  0.064160  0.874012  0.250090  1
  Pt  Pt32  1  0.665902  0.864230  0.749640  1
  Pt  Pt33  1  0.165902  0.635770  0.750360  1
  Pt  Pt34  1  0.334131  0.136931  0.249601  1
  Pt  Pt35  1  0.834131  0.363069  0.250399  1
