# generated using pymatgen
data_Er12Th4MgIn3Co4
_symmetry_space_group_name_H-M   'P 1'
_cell_length_a   9.57222151
_cell_length_b   9.56509524
_cell_length_c   9.56509500
_cell_angle_alpha   60.00000430
_cell_angle_beta   60.02462823
_cell_angle_gamma   60.02462990
_symmetry_Int_Tables_number   1
_chemical_formula_structural   Er12Th4MgIn3Co4
_chemical_formula_sum   'Er12 Th4 Mg1 In3 Co4'
_cell_volume   619.49515854
_cell_formula_units_Z   1
loop_
 _symmetry_equiv_pos_site_id
 _symmetry_equiv_pos_as_xyz
  1  'x, y, z'
loop_
 _atom_site_type_symbol
 _atom_site_label
 _atom_site_symmetry_multiplicity
 _atom_site_fract_x
 _atom_site_fract_y
 _atom_site_fract_z
 _atom_site_occupancy
  Er  Er0  1  0.064260  0.436190  0.436190  1
  Er  Er1  1  0.435263  0.064486  0.064486  1
  Er  Er2  1  0.435263  0.064486  0.435766  1
  Er  Er3  1  0.064260  0.436190  0.063360  1
  Er  Er4  1  0.435263  0.435766  0.064486  1
  Er  Er5  1  0.064260  0.063360  0.436190  1
  Er  Er6  1  0.184351  0.815443  0.815443  1
  Er  Er7  1  0.815544  0.184874  0.184874  1
  Er  Er8  1  0.815544  0.184874  0.814709  1
  Er  Er9  1  0.184351  0.815443  0.184762  1
  Er  Er10  1  0.815544  0.814709  0.184874  1
  Er  Er11  1  0.184351  0.184762  0.815443  1
  Th  Th12  1  0.594392  0.595166  0.595166  1
  Th  Th13  1  0.594392  0.595166  0.215277  1
  Th  Th14  1  0.594392  0.215277  0.595166  1
  Th  Th15  1  0.215080  0.594974  0.594974  1
  Mg  Mg16  1  0.509612  0.830130  0.830130  1
  In  In17  1  0.832047  0.832875  0.832875  1
  In  In18  1  0.832047  0.832875  0.502205  1
  In  In19  1  0.832047  0.502205  0.832875  1
  Co  Co20  1  0.393442  0.393929  0.393929  1
  Co  Co21  1  0.393442  0.393929  0.818700  1
  Co  Co22  1  0.393442  0.818700  0.393929  1
  Co  Co23  1  0.817414  0.394195  0.394195  1
