# generated using pymatgen
data_RbGdDyS3
_symmetry_space_group_name_H-M   'P 1'
_cell_length_a   8.41608833
_cell_length_b   8.41608742
_cell_length_c   11.17330900
_cell_angle_alpha   90.00000000
_cell_angle_beta   90.00000000
_cell_angle_gamma   150.96173687
_symmetry_Int_Tables_number   1
_chemical_formula_structural   RbGdDyS3
_chemical_formula_sum   'Rb2 Gd2 Dy2 S6'
_cell_volume   384.14605412
_cell_formula_units_Z   2
loop_
 _symmetry_equiv_pos_site_id
 _symmetry_equiv_pos_as_xyz
  1  'x, y, z'
loop_
 _atom_site_type_symbol
 _atom_site_label
 _atom_site_symmetry_multiplicity
 _atom_site_fract_x
 _atom_site_fract_y
 _atom_site_fract_z
 _atom_site_occupancy
  Rb  Rb0  1  0.200937  0.799065  0.250000  1
  Rb  Rb1  1  0.799395  0.200607  0.750000  1
  Gd  Gd2  1  0.938481  0.061521  0.250000  1
  Gd  Gd3  1  0.064029  0.935973  0.750000  1
  Dy  Dy4  1  0.499810  0.500192  0.999157  1
  Dy  Dy5  1  0.499810  0.500192  0.500843  1
  S  S6  1  0.885249  0.114753  0.028362  1
  S  S7  1  0.536594  0.463408  0.250000  1
  S  S8  1  0.885249  0.114753  0.471638  1
  S  S9  1  0.113260  0.886742  0.526441  1
  S  S10  1  0.463936  0.536066  0.750000  1
  S  S11  1  0.113260  0.886742  0.973559  1
