# generated using pymatgen
data_Li4LaNd3Pd4
_symmetry_space_group_name_H-M   'P 1'
_cell_length_a   7.37573786
_cell_length_b   4.12847500
_cell_length_c   8.67892977
_cell_angle_alpha   90.00000000
_cell_angle_beta   89.94121667
_cell_angle_gamma   90.00000000
_symmetry_Int_Tables_number   1
_chemical_formula_structural   Li4LaNd3Pd4
_chemical_formula_sum   'Li4 La1 Nd3 Pd4'
_cell_volume   264.27804022
_cell_formula_units_Z   1
loop_
 _symmetry_equiv_pos_site_id
 _symmetry_equiv_pos_as_xyz
  1  'x, y, z'
loop_
 _atom_site_type_symbol
 _atom_site_label
 _atom_site_symmetry_multiplicity
 _atom_site_fract_x
 _atom_site_fract_y
 _atom_site_fract_z
 _atom_site_occupancy
  Li  Li0  1  0.631278  0.250000  0.553157  1
  Li  Li1  1  0.123797  0.250000  0.945783  1
  Li  Li2  1  0.371519  0.750000  0.442564  1
  Li  Li3  1  0.872978  0.750000  0.056278  1
  La  La4  1  0.453480  0.750000  0.812570  1
  Nd  Nd5  1  0.047260  0.250000  0.314767  1
  Nd  Nd6  1  0.547056  0.250000  0.188655  1
  Nd  Nd7  1  0.953091  0.750000  0.684616  1
  Pd  Pd8  1  0.246813  0.250000  0.619586  1
  Pd  Pd9  1  0.746342  0.250000  0.880656  1
  Pd  Pd10  1  0.753726  0.750000  0.380261  1
  Pd  Pd11  1  0.252661  0.750000  0.121108  1
