# generated using pymatgen
data_Rb6GaBi3
_symmetry_space_group_name_H-M   'P 1'
_cell_length_a   6.39314100
_cell_length_b   11.19146167
_cell_length_c   13.13590611
_cell_angle_alpha   78.84369026
_cell_angle_beta   90.00000000
_cell_angle_gamma   90.00000000
_symmetry_Int_Tables_number   1
_chemical_formula_structural   Rb6GaBi3
_chemical_formula_sum   'Rb12 Ga2 Bi6'
_cell_volume   922.09512425
_cell_formula_units_Z   2
loop_
 _symmetry_equiv_pos_site_id
 _symmetry_equiv_pos_as_xyz
  1  'x, y, z'
loop_
 _atom_site_type_symbol
 _atom_site_label
 _atom_site_symmetry_multiplicity
 _atom_site_fract_x
 _atom_site_fract_y
 _atom_site_fract_z
 _atom_site_occupancy
  Rb  Rb0  1  0.750000  0.454658  0.082247  1
  Rb  Rb1  1  0.250000  0.545342  0.917753  1
  Rb  Rb2  1  0.750000  0.740746  0.228656  1
  Rb  Rb3  1  0.250000  0.259254  0.771344  1
  Rb  Rb4  1  0.250000  0.563553  0.544224  1
  Rb  Rb5  1  0.750000  0.436447  0.455776  1
  Rb  Rb6  1  0.250000  0.865138  0.021466  1
  Rb  Rb7  1  0.750000  0.134862  0.978534  1
  Rb  Rb8  1  0.250000  0.870700  0.679429  1
  Rb  Rb9  1  0.750000  0.129300  0.320571  1
  Rb  Rb10  1  0.250000  0.920326  0.370071  1
  Rb  Rb11  1  0.750000  0.079674  0.629929  1
  Ga  Ga12  1  0.750000  0.680600  0.717537  1
  Ga  Ga13  1  0.250000  0.319400  0.282463  1
  Bi  Bi14  1  0.250000  0.213832  0.489934  1
  Bi  Bi15  1  0.750000  0.786168  0.510066  1
  Bi  Bi16  1  0.250000  0.567371  0.225254  1
  Bi  Bi17  1  0.750000  0.432629  0.774746  1
  Bi  Bi18  1  0.750000  0.821989  0.873497  1
  Bi  Bi19  1  0.250000  0.178011  0.126503  1
