# generated using pymatgen
data_Y4TiGa3Ir3Pd
_symmetry_space_group_name_H-M   'P 1'
_cell_length_a   4.35062000
_cell_length_b   6.95096110
_cell_length_c   7.84472781
_cell_angle_alpha   89.63119478
_cell_angle_beta   90.00000000
_cell_angle_gamma   90.00000000
_symmetry_Int_Tables_number   1
_chemical_formula_structural   Y4TiGa3Ir3Pd
_chemical_formula_sum   'Y4 Ti1 Ga3 Ir3 Pd1'
_cell_volume   237.22742365
_cell_formula_units_Z   1
loop_
 _symmetry_equiv_pos_site_id
 _symmetry_equiv_pos_as_xyz
  1  'x, y, z'
loop_
 _atom_site_type_symbol
 _atom_site_label
 _atom_site_symmetry_multiplicity
 _atom_site_fract_x
 _atom_site_fract_y
 _atom_site_fract_z
 _atom_site_occupancy
  Y  Y0  1  0.250000  0.977837  0.308676  1
  Y  Y1  1  0.250000  0.474699  0.179995  1
  Y  Y2  1  0.750000  0.031863  0.686208  1
  Y  Y3  1  0.750000  0.531176  0.820580  1
  Ti  Ti4  1  0.750000  0.629245  0.433584  1
  Ga  Ga5  1  0.250000  0.359034  0.562931  1
  Ga  Ga6  1  0.250000  0.841936  0.931488  1
  Ga  Ga7  1  0.750000  0.152846  0.069779  1
  Ir  Ir8  1  0.250000  0.736456  0.608836  1
  Ir  Ir9  1  0.750000  0.768113  0.124674  1
  Ir  Ir10  1  0.750000  0.273737  0.385903  1
  Pd  Pd11  1  0.250000  0.223058  0.887346  1
