# generated using pymatgen
data_NdFe3As12Rh
_symmetry_space_group_name_H-M   'P 1'
_cell_length_a   7.29597748
_cell_length_b   7.29597675
_cell_length_c   7.29597851
_cell_angle_alpha   109.51871932
_cell_angle_beta   109.51872507
_cell_angle_gamma   109.51871880
_symmetry_Int_Tables_number   1
_chemical_formula_structural   NdFe3As12Rh
_chemical_formula_sum   'Nd1 Fe3 As12 Rh1'
_cell_volume   298.44372304
_cell_formula_units_Z   1
loop_
 _symmetry_equiv_pos_site_id
 _symmetry_equiv_pos_as_xyz
  1  'x, y, z'
loop_
 _atom_site_type_symbol
 _atom_site_label
 _atom_site_symmetry_multiplicity
 _atom_site_fract_x
 _atom_site_fract_y
 _atom_site_fract_z
 _atom_site_occupancy
  Nd  Nd0  1  0.000000  0.000000  0.000000  1
  Fe  Fe1  1  0.500000  0.000000  0.000000  1
  Fe  Fe2  1  0.000000  0.500000  0.000000  1
  Fe  Fe3  1  0.000000  0.000000  0.500000  1
  As  As4  1  0.857088  0.661996  0.501728  1
  As  As5  1  0.142912  0.338004  0.498272  1
  As  As6  1  0.156687  0.659226  0.815125  1
  As  As7  1  0.843313  0.340774  0.184875  1
  As  As8  1  0.661996  0.501728  0.857088  1
  As  As9  1  0.338004  0.498272  0.142912  1
  As  As10  1  0.659226  0.815125  0.156687  1
  As  As11  1  0.340774  0.184875  0.843313  1
  As  As12  1  0.501728  0.857088  0.661996  1
  As  As13  1  0.498272  0.142912  0.338004  1
  As  As14  1  0.184875  0.843313  0.340774  1
  As  As15  1  0.815125  0.156687  0.659226  1
  Rh  Rh16  1  0.500000  0.500000  0.500000  1
