# generated using pymatgen
data_Ba3Lu2OsO9
_symmetry_space_group_name_H-M   'P 1'
_cell_length_a   5.99680600
_cell_length_b   5.99680521
_cell_length_c   14.64806200
_cell_angle_alpha   90.00000000
_cell_angle_beta   90.00000000
_cell_angle_gamma   119.99999334
_symmetry_Int_Tables_number   1
_chemical_formula_structural   Ba3Lu2OsO9
_chemical_formula_sum   'Ba6 Lu4 Os2 O18'
_cell_volume   456.19526342
_cell_formula_units_Z   2
loop_
 _symmetry_equiv_pos_site_id
 _symmetry_equiv_pos_as_xyz
  1  'x, y, z'
loop_
 _atom_site_type_symbol
 _atom_site_label
 _atom_site_symmetry_multiplicity
 _atom_site_fract_x
 _atom_site_fract_y
 _atom_site_fract_z
 _atom_site_occupancy
  Ba  Ba0  1  0.333333  0.666667  0.090286  1
  Ba  Ba1  1  0.666667  0.333333  0.909714  1
  Ba  Ba2  1  0.333333  0.666667  0.590286  1
  Ba  Ba3  1  0.666667  0.333333  0.409714  1
  Ba  Ba4  1  0.000000  0.000000  0.250000  1
  Ba  Ba5  1  0.000000  0.000000  0.750000  1
  Lu  Lu6  1  0.333333  0.666667  0.832850  1
  Lu  Lu7  1  0.666667  0.333333  0.167150  1
  Lu  Lu8  1  0.333333  0.666667  0.332850  1
  Lu  Lu9  1  0.666667  0.333333  0.667150  1
  Os  Os10  1  0.000000  0.000000  0.000000  1
  Os  Os11  1  0.000000  0.000000  0.500000  1
  O  O12  1  0.861986  0.691176  0.575978  1
  O  O13  1  0.000000  0.529801  0.250000  1
  O  O14  1  0.170810  0.308824  0.924022  1
  O  O15  1  0.861986  0.170810  0.075978  1
  O  O16  1  0.829190  0.138014  0.575978  1
  O  O17  1  0.829190  0.691176  0.075978  1
  O  O18  1  0.691176  0.829190  0.424022  1
  O  O19  1  0.470199  0.000000  0.750000  1
  O  O20  1  0.529801  0.529801  0.750000  1
  O  O21  1  0.308824  0.170810  0.575978  1
  O  O22  1  0.138014  0.308824  0.424022  1
  O  O23  1  0.170810  0.861986  0.424022  1
  O  O24  1  0.308824  0.138014  0.075978  1
  O  O25  1  0.529801  0.000000  0.250000  1
  O  O26  1  0.470199  0.470199  0.250000  1
  O  O27  1  0.000000  0.470199  0.750000  1
  O  O28  1  0.138014  0.829190  0.924022  1
  O  O29  1  0.691176  0.861986  0.924022  1
