# generated using pymatgen
data_Li3Y2TmSi2As
_symmetry_space_group_name_H-M   'P 1'
_cell_length_a   7.00945814
_cell_length_b   7.10123260
_cell_length_c   4.16938900
_cell_angle_alpha   90.00000000
_cell_angle_beta   90.00000000
_cell_angle_gamma   120.43405249
_symmetry_Int_Tables_number   1
_chemical_formula_structural   Li3Y2TmSi2As
_chemical_formula_sum   'Li3 Y2 Tm1 Si2 As1'
_cell_volume   178.93901811
_cell_formula_units_Z   1
loop_
 _symmetry_equiv_pos_site_id
 _symmetry_equiv_pos_as_xyz
  1  'x, y, z'
loop_
 _atom_site_type_symbol
 _atom_site_label
 _atom_site_symmetry_multiplicity
 _atom_site_fract_x
 _atom_site_fract_y
 _atom_site_fract_z
 _atom_site_occupancy
  Li  Li0  1  0.233895  0.998495  0.500000  1
  Li  Li1  1  0.766105  0.764599  0.500000  1
  Li  Li2  1  0.000000  0.237209  0.500000  1
  Y  Y3  1  0.581860  0.004611  0.000000  1
  Y  Y4  1  0.418140  0.422750  0.000000  1
  Tm  Tm5  1  0.000000  0.579687  0.000000  1
  Si  Si6  1  0.330824  0.667097  0.500000  1
  Si  Si7  1  0.669176  0.336272  0.500000  1
  As  As8  1  0.000000  0.989280  0.000000  1
