# generated using pymatgen
data_Nd4Dy12Cd4Ir3Pt
_symmetry_space_group_name_H-M   'P 1'
_cell_length_a   9.70770100
_cell_length_b   9.70634325
_cell_length_c   9.70628094
_cell_angle_alpha   60.21729695
_cell_angle_beta   60.05969998
_cell_angle_gamma   60.05977364
_symmetry_Int_Tables_number   1
_chemical_formula_structural   Nd4Dy12Cd4Ir3Pt
_chemical_formula_sum   'Nd4 Dy12 Cd4 Ir3 Pt1'
_cell_volume   648.35201771
_cell_formula_units_Z   1
loop_
 _symmetry_equiv_pos_site_id
 _symmetry_equiv_pos_as_xyz
  1  'x, y, z'
loop_
 _atom_site_type_symbol
 _atom_site_label
 _atom_site_symmetry_multiplicity
 _atom_site_fract_x
 _atom_site_fract_y
 _atom_site_fract_z
 _atom_site_occupancy
  Nd  Nd0  1  0.564225  0.937031  0.563334  1
  Nd  Nd1  1  0.937982  0.563456  0.935894  1
  Nd  Nd2  1  0.564225  0.563332  0.937034  1
  Nd  Nd3  1  0.937988  0.935895  0.563454  1
  Dy  Dy4  1  0.350748  0.346282  0.346284  1
  Dy  Dy5  1  0.349185  0.354401  0.953335  1
  Dy  Dy6  1  0.349185  0.953335  0.354403  1
  Dy  Dy7  1  0.949435  0.350483  0.350482  1
  Dy  Dy8  1  0.808184  0.187682  0.187683  1
  Dy  Dy9  1  0.184428  0.813208  0.813208  1
  Dy  Dy10  1  0.190940  0.806706  0.189783  1
  Dy  Dy11  1  0.810745  0.186183  0.810675  1
  Dy  Dy12  1  0.190941  0.189782  0.806705  1
  Dy  Dy13  1  0.810746  0.810674  0.186182  1
  Dy  Dy14  1  0.946696  0.554012  0.554014  1
  Dy  Dy15  1  0.556783  0.944747  0.944747  1
  Cd  Cd16  1  0.582452  0.578440  0.578440  1
  Cd  Cd17  1  0.579083  0.582763  0.258346  1
  Cd  Cd18  1  0.579080  0.258346  0.582763  1
  Cd  Cd19  1  0.259907  0.578849  0.578846  1
  Ir  Ir20  1  0.138810  0.147816  0.575017  1
  Ir  Ir21  1  0.138809  0.575017  0.147816  1
  Ir  Ir22  1  0.574385  0.140382  0.140384  1
  Pt  Pt23  1  0.145035  0.141175  0.141173  1
