# generated using pymatgen
data_Lu12Fe2IrAu2
_symmetry_space_group_name_H-M   'P 1'
_cell_length_a   8.06522942
_cell_length_b   8.06522796
_cell_length_c   8.06522800
_cell_angle_alpha   108.93999848
_cell_angle_beta   108.93999492
_cell_angle_gamma   110.53896440
_symmetry_Int_Tables_number   1
_chemical_formula_structural   Lu12Fe2IrAu2
_chemical_formula_sum   'Lu12 Fe2 Ir1 Au2'
_cell_volume   403.75211149
_cell_formula_units_Z   1
loop_
 _symmetry_equiv_pos_site_id
 _symmetry_equiv_pos_as_xyz
  1  'x, y, z'
loop_
 _atom_site_type_symbol
 _atom_site_label
 _atom_site_symmetry_multiplicity
 _atom_site_fract_x
 _atom_site_fract_y
 _atom_site_fract_z
 _atom_site_occupancy
  Lu  Lu0  1  0.310013  0.310013  0.620026  1
  Lu  Lu1  1  0.689987  0.689987  0.379974  1
  Lu  Lu2  1  0.689987  0.310013  0.000000  1
  Lu  Lu3  1  0.310013  0.689987  0.000000  1
  Lu  Lu4  1  0.190021  0.436310  0.246289  1
  Lu  Lu5  1  0.809979  0.563690  0.753711  1
  Lu  Lu6  1  0.190021  0.943732  0.753711  1
  Lu  Lu7  1  0.943732  0.190021  0.753711  1
  Lu  Lu8  1  0.809979  0.056268  0.246289  1
  Lu  Lu9  1  0.056268  0.809979  0.246289  1
  Lu  Lu10  1  0.436310  0.190021  0.246289  1
  Lu  Lu11  1  0.563690  0.809979  0.753711  1
  Fe  Fe12  1  0.380691  0.380691  0.000000  1
  Fe  Fe13  1  0.619309  0.619309  0.000000  1
  Ir  Ir14  1  0.000000  0.000000  0.000000  1
  Au  Au15  1  0.000000  0.500000  0.500000  1
  Au  Au16  1  0.500000  0.000000  0.500000  1
