# generated using pymatgen
data_Zr5Ga6GeRu12
_symmetry_space_group_name_H-M   'P 1'
_cell_length_a   4.43477300
_cell_length_b   6.31933300
_cell_length_c   13.25965900
_cell_angle_alpha   90.00000000
_cell_angle_beta   90.00012077
_cell_angle_gamma   90.00000000
_symmetry_Int_Tables_number   1
_chemical_formula_structural   Zr5Ga6GeRu12
_chemical_formula_sum   'Zr5 Ga6 Ge1 Ru12'
_cell_volume   371.59938922
_cell_formula_units_Z   1
loop_
 _symmetry_equiv_pos_site_id
 _symmetry_equiv_pos_as_xyz
  1  'x, y, z'
loop_
 _atom_site_type_symbol
 _atom_site_label
 _atom_site_symmetry_multiplicity
 _atom_site_fract_x
 _atom_site_fract_y
 _atom_site_fract_z
 _atom_site_occupancy
  Zr  Zr0  1  0.000008  0.000000  0.994081  1
  Zr  Zr1  1  0.499920  0.500000  0.166280  1
  Zr  Zr2  1  0.999888  0.000000  0.333318  1
  Zr  Zr3  1  0.500008  0.500000  0.500352  1
  Zr  Zr4  1  0.000073  0.000000  0.672618  1
  Ga  Ga5  1  0.999990  0.500000  0.006843  1
  Ga  Ga6  1  0.499920  0.000000  0.161491  1
  Ga  Ga7  1  0.999901  0.500000  0.333376  1
  Ga  Ga8  1  0.500006  0.000000  0.505155  1
  Ga  Ga9  1  0.000071  0.500000  0.659822  1
  Ga  Ga10  1  0.500084  0.000000  0.833335  1
  Ge  Ge11  1  0.500085  0.500000  0.833272  1
  Ru  Ru12  1  0.500010  0.262060  0.990542  1
  Ru  Ru13  1  0.500010  0.737939  0.990542  1
  Ru  Ru14  1  0.999921  0.248227  0.164162  1
  Ru  Ru15  1  0.999921  0.751773  0.164162  1
  Ru  Ru16  1  0.499899  0.250076  0.333257  1
  Ru  Ru17  1  0.499899  0.749924  0.333257  1
  Ru  Ru18  1  0.999999  0.248359  0.502492  1
  Ru  Ru19  1  0.999999  0.751641  0.502492  1
  Ru  Ru20  1  0.500080  0.261879  0.676156  1
  Ru  Ru21  1  0.500080  0.738121  0.676156  1
  Ru  Ru22  1  0.000115  0.276752  0.833420  1
  Ru  Ru23  1  0.000115  0.723248  0.833420  1
