# generated using pymatgen
data_LiPr3Dy2(P2Ru3)6
_symmetry_space_group_name_H-M   'P 1'
_cell_length_a   12.50252600
_cell_length_b   12.70817317
_cell_length_c   4.01096000
_cell_angle_alpha   90.00000000
_cell_angle_beta   90.00000000
_cell_angle_gamma   119.46612292
_symmetry_Int_Tables_number   1
_chemical_formula_structural   LiPr3Dy2(P2Ru3)6
_chemical_formula_sum   'Li1 Pr3 Dy2 P12 Ru18'
_cell_volume   554.84436337
_cell_formula_units_Z   1
loop_
 _symmetry_equiv_pos_site_id
 _symmetry_equiv_pos_as_xyz
  1  'x, y, z'
loop_
 _atom_site_type_symbol
 _atom_site_label
 _atom_site_symmetry_multiplicity
 _atom_site_fract_x
 _atom_site_fract_y
 _atom_site_fract_z
 _atom_site_occupancy
  Li  Li0  1  0.438237  0.000000  0.000000  1
  Pr  Pr1  1  0.817260  0.000000  0.500000  1
  Pr  Pr2  1  0.003073  0.817401  0.500000  1
  Pr  Pr3  1  0.185671  0.182599  0.500000  1
  Dy  Dy4  1  0.329882  0.658191  0.000000  1
  Dy  Dy5  1  0.671692  0.341809  0.000000  1
  P  P6  1  0.197687  0.000000  0.000000  1
  P  P7  1  0.998357  0.185906  0.000000  1
  P  P8  1  0.812450  0.814094  0.000000  1
  P  P9  1  0.517902  0.693149  0.500000  1
  P  P10  1  0.299034  0.816192  0.500000  1
  P  P11  1  0.168792  0.473785  0.500000  1
  P  P12  1  0.482843  0.183808  0.500000  1
  P  P13  1  0.695007  0.526215  0.500000  1
  P  P14  1  0.824754  0.306851  0.500000  1
  P  P15  1  0.628877  0.000000  0.000000  1
  P  P16  1  0.000068  0.623655  0.000000  1
  P  P17  1  0.376413  0.376345  0.000000  1
  Ru  Ru18  1  0.998015  0.443790  0.000000  1
  Ru  Ru19  1  0.554225  0.556210  0.000000  1
  Ru  Ru20  1  0.294944  0.000000  0.500000  1
  Ru  Ru21  1  0.996787  0.283674  0.500000  1
  Ru  Ru22  1  0.713113  0.716326  0.500000  1
  Ru  Ru23  1  0.615066  0.803202  0.000000  1
  Ru  Ru24  1  0.197771  0.811664  0.000000  1
  Ru  Ru25  1  0.183476  0.376328  0.000000  1
  Ru  Ru26  1  0.386105  0.188336  0.000000  1
  Ru  Ru27  1  0.807148  0.623672  0.000000  1
  Ru  Ru28  1  0.811864  0.196798  0.000000  1
  Ru  Ru29  1  0.506450  0.876065  0.500000  1
  Ru  Ru30  1  0.121739  0.628400  0.500000  1
  Ru  Ru31  1  0.365208  0.493300  0.500000  1
  Ru  Ru32  1  0.493340  0.371600  0.500000  1
  Ru  Ru33  1  0.871908  0.506700  0.500000  1
  Ru  Ru34  1  0.630386  0.123935  0.500000  1
  Ru  Ru35  1  0.004457  0.000000  0.000000  1
