# generated using pymatgen
data_Mn(GaO2)4
_symmetry_space_group_name_H-M   'P 1'
_cell_length_a   6.38504037
_cell_length_b   6.38504058
_cell_length_c   9.50027570
_cell_angle_alpha   56.66286119
_cell_angle_beta   56.66286053
_cell_angle_gamma   27.59764607
_symmetry_Int_Tables_number   1
_chemical_formula_structural   Mn(GaO2)4
_chemical_formula_sum   'Mn1 Ga4 O8'
_cell_volume   147.93334006
_cell_formula_units_Z   1
loop_
 _symmetry_equiv_pos_site_id
 _symmetry_equiv_pos_as_xyz
  1  'x, y, z'
loop_
 _atom_site_type_symbol
 _atom_site_label
 _atom_site_symmetry_multiplicity
 _atom_site_fract_x
 _atom_site_fract_y
 _atom_site_fract_z
 _atom_site_occupancy
  Mn  Mn0  1  0.000000  0.000000  0.000000  1
  Ga  Ga1  1  0.466449  0.466449  0.713144  1
  Ga  Ga2  1  0.241703  0.241703  0.358820  1
  Ga  Ga3  1  0.758297  0.758297  0.641180  1
  Ga  Ga4  1  0.533551  0.533551  0.286856  1
  O  O5  1  0.108179  0.108179  0.305198  1
  O  O6  1  0.442693  0.442693  0.926192  1
  O  O7  1  0.557307  0.557307  0.073808  1
  O  O8  1  0.163230  0.163230  0.783331  1
  O  O9  1  0.891821  0.891821  0.694802  1
  O  O10  1  0.353146  0.353146  0.463629  1
  O  O11  1  0.646854  0.646854  0.536371  1
  O  O12  1  0.836770  0.836770  0.216669  1
