# generated using pymatgen
data_CeErGa9PdRh2
_symmetry_space_group_name_H-M   'P 1'
_cell_length_a   7.65866527
_cell_length_b   7.66429247
_cell_length_c   9.50417900
_cell_angle_alpha   90.00000000
_cell_angle_beta   90.00000000
_cell_angle_gamma   119.86302905
_symmetry_Int_Tables_number   1
_chemical_formula_structural   CeErGa9PdRh2
_chemical_formula_sum   'Ce2 Er2 Ga18 Pd2 Rh4'
_cell_volume   483.80255845
_cell_formula_units_Z   2
loop_
 _symmetry_equiv_pos_site_id
 _symmetry_equiv_pos_as_xyz
  1  'x, y, z'
loop_
 _atom_site_type_symbol
 _atom_site_label
 _atom_site_symmetry_multiplicity
 _atom_site_fract_x
 _atom_site_fract_y
 _atom_site_fract_z
 _atom_site_occupancy
  Ce  Ce0  1  0.997519  0.668874  0.250000  1
  Ce  Ce1  1  0.002481  0.331126  0.750000  1
  Er  Er2  1  0.671527  0.996825  0.250000  1
  Er  Er3  1  0.328473  0.003175  0.750000  1
  Ga  Ga4  1  0.132870  0.131410  0.250000  1
  Ga  Ga5  1  0.867130  0.868590  0.750000  1
  Ga  Ga6  1  0.999016  0.334843  0.080219  1
  Ga  Ga7  1  0.000984  0.665157  0.919781  1
  Ga  Ga8  1  0.000984  0.665157  0.580219  1
  Ga  Ga9  1  0.340940  0.001184  0.421466  1
  Ga  Ga10  1  0.999016  0.334843  0.419781  1
  Ga  Ga11  1  0.659060  0.998816  0.578534  1
  Ga  Ga12  1  0.659060  0.998816  0.921466  1
  Ga  Ga13  1  0.340940  0.001184  0.078534  1
  Ga  Ga14  1  0.337810  0.335354  0.567188  1
  Ga  Ga15  1  0.662190  0.664646  0.432812  1
  Ga  Ga16  1  0.662190  0.664646  0.067188  1
  Ga  Ga17  1  0.337810  0.335354  0.932812  1
  Ga  Ga18  1  0.338172  0.547505  0.250000  1
  Ga  Ga19  1  0.661828  0.452495  0.750000  1
  Ga  Ga20  1  0.545086  0.334657  0.250000  1
  Ga  Ga21  1  0.454914  0.665343  0.750000  1
  Pd  Pd22  1  0.000000  0.000000  0.000000  1
  Pd  Pd23  1  0.000000  0.000000  0.500000  1
  Rh  Rh24  1  0.670445  0.329201  0.000007  1
  Rh  Rh25  1  0.329555  0.670799  0.999993  1
  Rh  Rh26  1  0.329555  0.670799  0.500007  1
  Rh  Rh27  1  0.670445  0.329201  0.499993  1
