# generated using pymatgen
data_TbPrDy4CoCl10
_symmetry_space_group_name_H-M   'P 1'
_cell_length_a   7.13152646
_cell_length_b   8.92110163
_cell_length_c   8.90996529
_cell_angle_alpha   108.07331519
_cell_angle_beta   95.80058315
_cell_angle_gamma   106.27593604
_symmetry_Int_Tables_number   1
_chemical_formula_structural   TbPrDy4CoCl10
_chemical_formula_sum   'Tb1 Pr1 Dy4 Co1 Cl10'
_cell_volume   506.19754441
_cell_formula_units_Z   1
loop_
 _symmetry_equiv_pos_site_id
 _symmetry_equiv_pos_as_xyz
  1  'x, y, z'
loop_
 _atom_site_type_symbol
 _atom_site_label
 _atom_site_symmetry_multiplicity
 _atom_site_fract_x
 _atom_site_fract_y
 _atom_site_fract_z
 _atom_site_occupancy
  Tb  Tb0  1  0.368744  0.946556  0.235371  1
  Pr  Pr1  1  0.634612  0.055459  0.756116  1
  Dy  Dy2  1  0.861210  0.138550  0.184284  1
  Dy  Dy3  1  0.139109  0.860940  0.814974  1
  Dy  Dy4  1  0.530326  0.698414  0.902639  1
  Dy  Dy5  1  0.468953  0.303001  0.102199  1
  Co  Co6  1  0.500631  0.001066  0.999292  1
  Cl  Cl7  1  0.738598  0.077291  0.441613  1
  Cl  Cl8  1  0.246474  0.916099  0.544881  1
  Cl  Cl9  1  0.954653  0.828971  0.078320  1
  Cl  Cl10  1  0.056818  0.175108  0.928727  1
  Cl  Cl11  1  0.279877  0.244640  0.340925  1
  Cl  Cl12  1  0.723018  0.742400  0.661539  1
  Cl  Cl13  1  0.585166  0.381465  0.844480  1
  Cl  Cl14  1  0.410797  0.630249  0.164052  1
  Cl  Cl15  1  0.842041  0.446321  0.274057  1
  Cl  Cl16  1  0.158972  0.553470  0.726532  1
