# generated using pymatgen
data_CsTb(CO3)2
_symmetry_space_group_name_H-M   'P 1'
_cell_length_a   6.54707288
_cell_length_b   6.54707296
_cell_length_c   7.47030116
_cell_angle_alpha   74.91028011
_cell_angle_beta   74.91027915
_cell_angle_gamma   91.73168178
_symmetry_Int_Tables_number   1
_chemical_formula_structural   CsTb(CO3)2
_chemical_formula_sum   'Cs2 Tb2 C4 O12'
_cell_volume   296.85322673
_cell_formula_units_Z   2
loop_
 _symmetry_equiv_pos_site_id
 _symmetry_equiv_pos_as_xyz
  1  'x, y, z'
loop_
 _atom_site_type_symbol
 _atom_site_label
 _atom_site_symmetry_multiplicity
 _atom_site_fract_x
 _atom_site_fract_y
 _atom_site_fract_z
 _atom_site_occupancy
  Cs  Cs0  1  0.603263  0.396737  0.750000  1
  Cs  Cs1  1  0.396737  0.603263  0.250000  1
  Tb  Tb2  1  0.097454  0.902546  0.750000  1
  Tb  Tb3  1  0.902546  0.097454  0.250000  1
  C  C4  1  0.654031  0.902629  0.735825  1
  C  C5  1  0.345969  0.097371  0.264175  1
  C  C6  1  0.097371  0.345969  0.764175  1
  C  C7  1  0.902629  0.654031  0.235825  1
  O  O8  1  0.454854  0.890628  0.749174  1
  O  O9  1  0.545146  0.109372  0.250826  1
  O  O10  1  0.109372  0.545146  0.750826  1
  O  O11  1  0.890628  0.454854  0.249174  1
  O  O12  1  0.729389  0.785200  0.867838  1
  O  O13  1  0.270611  0.214800  0.132162  1
  O  O14  1  0.214800  0.270611  0.632162  1
  O  O15  1  0.785200  0.729389  0.367838  1
  O  O16  1  0.795720  0.035763  0.590007  1
  O  O17  1  0.204280  0.964237  0.409993  1
  O  O18  1  0.964237  0.204280  0.909993  1
  O  O19  1  0.035763  0.795720  0.090007  1
