# generated using pymatgen
data_SrBiS3
_symmetry_space_group_name_H-M   'P 1'
_cell_length_a   4.05441100
_cell_length_b   15.32029900
_cell_length_c   32.12194300
_cell_angle_alpha   90.00000000
_cell_angle_beta   90.00000000
_cell_angle_gamma   90.00000000
_symmetry_Int_Tables_number   1
_chemical_formula_structural   SrBiS3
_chemical_formula_sum   'Sr16 Bi16 S48'
_cell_volume   1995.24770493
_cell_formula_units_Z   16
loop_
 _symmetry_equiv_pos_site_id
 _symmetry_equiv_pos_as_xyz
  1  'x, y, z'
loop_
 _atom_site_type_symbol
 _atom_site_label
 _atom_site_symmetry_multiplicity
 _atom_site_fract_x
 _atom_site_fract_y
 _atom_site_fract_z
 _atom_site_occupancy
  Sr  Sr0  1  0.246894  0.313290  0.326857  1
  Sr  Sr1  1  0.746894  0.186710  0.673143  1
  Sr  Sr2  1  0.753106  0.813290  0.173143  1
  Sr  Sr3  1  0.253106  0.686710  0.826857  1
  Sr  Sr4  1  0.744177  0.877270  0.045913  1
  Sr  Sr5  1  0.244177  0.622730  0.954087  1
  Sr  Sr6  1  0.255823  0.377270  0.454087  1
  Sr  Sr7  1  0.755823  0.122730  0.545913  1
  Sr  Sr8  1  0.205700  0.531724  0.076883  1
  Sr  Sr9  1  0.705700  0.968276  0.923117  1
  Sr  Sr10  1  0.794300  0.031724  0.423117  1
  Sr  Sr11  1  0.294300  0.468276  0.576883  1
  Sr  Sr12  1  0.769642  0.960127  0.291498  1
  Sr  Sr13  1  0.269642  0.539873  0.708502  1
  Sr  Sr14  1  0.230358  0.460127  0.208502  1
  Sr  Sr15  1  0.730358  0.039873  0.791498  1
  Bi  Bi16  1  0.774912  0.701048  0.610236  1
  Bi  Bi17  1  0.274912  0.798952  0.389764  1
  Bi  Bi18  1  0.225088  0.201048  0.889764  1
  Bi  Bi19  1  0.725088  0.298952  0.110236  1
  Bi  Bi20  1  0.769261  0.628925  0.484565  1
  Bi  Bi21  1  0.269261  0.871075  0.515435  1
  Bi  Bi22  1  0.230739  0.128925  0.015435  1
  Bi  Bi23  1  0.730739  0.371075  0.984565  1
  Bi  Bi24  1  0.279255  0.697893  0.271213  1
  Bi  Bi25  1  0.779255  0.802107  0.728787  1
  Bi  Bi26  1  0.720745  0.197893  0.228787  1
  Bi  Bi27  1  0.220745  0.302107  0.771213  1
  Bi  Bi28  1  0.765526  0.551337  0.360638  1
  Bi  Bi29  1  0.265526  0.948663  0.639362  1
  Bi  Bi30  1  0.234474  0.051337  0.139362  1
  Bi  Bi31  1  0.734474  0.448663  0.860638  1
  S  S32  1  0.935841  0.304591  0.591285  1
  S  S33  1  0.435841  0.195409  0.408715  1
  S  S34  1  0.064159  0.804591  0.908715  1
  S  S35  1  0.564159  0.695409  0.091285  1
  S  S36  1  0.707097  0.363940  0.723047  1
  S  S37  1  0.207097  0.136060  0.276953  1
  S  S38  1  0.292903  0.863940  0.776953  1
  S  S39  1  0.792903  0.636060  0.223047  1
  S  S40  1  0.762473  0.642282  0.759269  1
  S  S41  1  0.262473  0.857718  0.240731  1
  S  S42  1  0.237527  0.142282  0.740731  1
  S  S43  1  0.737527  0.357718  0.259269  1
  S  S44  1  0.243401  0.327666  0.642707  1
  S  S45  1  0.743401  0.172334  0.357293  1
  S  S46  1  0.756599  0.827666  0.857293  1
  S  S47  1  0.256599  0.672334  0.142707  1
  S  S48  1  0.781564  0.540931  0.637269  1
  S  S49  1  0.281564  0.959069  0.362731  1
  S  S50  1  0.218436  0.040931  0.862731  1
  S  S51  1  0.235710  0.273929  0.539073  1
  S  S52  1  0.718436  0.459069  0.137269  1
  S  S53  1  0.265858  0.518639  0.307858  1
  S  S54  1  0.234142  0.481361  0.807858  1
  S  S55  1  0.734142  0.018639  0.192142  1
  S  S56  1  0.774706  0.468921  0.507943  1
  S  S57  1  0.274706  0.031079  0.492057  1
  S  S58  1  0.225294  0.968921  0.992057  1
  S  S59  1  0.725294  0.531079  0.007943  1
  S  S60  1  0.740334  0.606572  0.885842  1
  S  S61  1  0.240334  0.893428  0.114158  1
  S  S62  1  0.259666  0.106572  0.614158  1
  S  S63  1  0.759666  0.393428  0.385842  1
  S  S64  1  0.781314  0.756926  0.334167  1
  S  S65  1  0.281314  0.743074  0.665833  1
  S  S66  1  0.218686  0.256926  0.165833  1
  S  S67  1  0.718686  0.243074  0.834167  1
  S  S68  1  0.271940  0.602207  0.427148  1
  S  S69  1  0.771940  0.897793  0.572852  1
  S  S70  1  0.728060  0.102207  0.072852  1
  S  S71  1  0.228060  0.397793  0.927148  1
  S  S72  1  0.278098  0.667193  0.547847  1
  S  S73  1  0.778098  0.832807  0.452153  1
  S  S74  1  0.721902  0.167193  0.952153  1
  S  S75  1  0.221902  0.332807  0.047847  1
  S  S76  1  0.264290  0.726071  0.039073  1
  S  S77  1  0.764290  0.773929  0.960927  1
  S  S78  1  0.735710  0.226071  0.460927  1
  S  S79  1  0.765858  0.981361  0.692142  1
