# generated using pymatgen
data_Dy16TcNi3Hg4
_symmetry_space_group_name_H-M   'P 1'
_cell_length_a   9.53451105
_cell_length_b   9.53451061
_cell_length_c   9.53451100
_cell_angle_alpha   59.60632324
_cell_angle_beta   59.60632610
_cell_angle_gamma   59.60631781
_symmetry_Int_Tables_number   1
_chemical_formula_structural   Dy16TcNi3Hg4
_chemical_formula_sum   'Dy16 Tc1 Ni3 Hg4'
_cell_volume   607.40299040
_cell_formula_units_Z   1
loop_
 _symmetry_equiv_pos_site_id
 _symmetry_equiv_pos_as_xyz
  1  'x, y, z'
loop_
 _atom_site_type_symbol
 _atom_site_label
 _atom_site_symmetry_multiplicity
 _atom_site_fract_x
 _atom_site_fract_y
 _atom_site_fract_z
 _atom_site_occupancy
  Dy  Dy0  1  0.599080  0.599080  0.599080  1
  Dy  Dy1  1  0.603082  0.603082  0.199725  1
  Dy  Dy2  1  0.603082  0.199725  0.603082  1
  Dy  Dy3  1  0.199725  0.603082  0.603082  1
  Dy  Dy4  1  0.060869  0.437995  0.437995  1
  Dy  Dy5  1  0.436829  0.060455  0.060455  1
  Dy  Dy6  1  0.437995  0.060869  0.437995  1
  Dy  Dy7  1  0.060455  0.436829  0.060455  1
  Dy  Dy8  1  0.437995  0.437995  0.060869  1
  Dy  Dy9  1  0.060455  0.060455  0.436829  1
  Dy  Dy10  1  0.186298  0.814419  0.814419  1
  Dy  Dy11  1  0.805262  0.189068  0.189068  1
  Dy  Dy12  1  0.814419  0.186298  0.814419  1
  Dy  Dy13  1  0.189068  0.805262  0.189068  1
  Dy  Dy14  1  0.814419  0.814419  0.186298  1
  Dy  Dy15  1  0.189068  0.189068  0.805262  1
  Tc  Tc16  1  0.394151  0.394151  0.394151  1
  Ni  Ni17  1  0.393296  0.393296  0.824810  1
  Ni  Ni18  1  0.393296  0.824810  0.393296  1
  Ni  Ni19  1  0.824810  0.393296  0.393296  1
  Hg  Hg20  1  0.833579  0.833579  0.833579  1
  Hg  Hg21  1  0.834131  0.834131  0.494503  1
  Hg  Hg22  1  0.834131  0.494503  0.834131  1
  Hg  Hg23  1  0.494503  0.834131  0.834131  1
