# generated using pymatgen
data_Er16Lu4Sn7Pb9
_symmetry_space_group_name_H-M   'P 1'
_cell_length_a   8.07391933
_cell_length_b   8.12566324
_cell_length_c   15.43276800
_cell_angle_alpha   90.00000000
_cell_angle_beta   90.00000000
_cell_angle_gamma   90.03024073
_symmetry_Int_Tables_number   1
_chemical_formula_structural   Er16Lu4Sn7Pb9
_chemical_formula_sum   'Er16 Lu4 Sn7 Pb9'
_cell_volume   1012.48125673
_cell_formula_units_Z   1
loop_
 _symmetry_equiv_pos_site_id
 _symmetry_equiv_pos_as_xyz
  1  'x, y, z'
loop_
 _atom_site_type_symbol
 _atom_site_label
 _atom_site_symmetry_multiplicity
 _atom_site_fract_x
 _atom_site_fract_y
 _atom_site_fract_z
 _atom_site_occupancy
  Er  Er0  1  0.380204  0.838436  0.876617  1
  Er  Er1  1  0.880507  0.661107  0.623502  1
  Er  Er2  1  0.619744  0.161179  0.377168  1
  Er  Er3  1  0.119601  0.337340  0.122989  1
  Er  Er4  1  0.619744  0.161179  0.122832  1
  Er  Er5  1  0.119601  0.337340  0.377011  1
  Er  Er6  1  0.380204  0.838436  0.623383  1
  Er  Er7  1  0.880507  0.661107  0.876498  1
  Er  Er8  1  0.537902  0.324880  0.895872  1
  Er  Er9  1  0.038389  0.174577  0.604363  1
  Er  Er10  1  0.464738  0.675140  0.397203  1
  Er  Er11  1  0.959900  0.827089  0.101519  1
  Er  Er12  1  0.464738  0.675140  0.102797  1
  Er  Er13  1  0.959900  0.827089  0.398481  1
  Er  Er14  1  0.537902  0.324880  0.604128  1
  Er  Er15  1  0.038389  0.174577  0.895637  1
  Lu  Lu16  1  0.210964  0.503530  0.750000  1
  Lu  Lu17  1  0.710941  0.996334  0.750000  1
  Lu  Lu18  1  0.787189  0.494752  0.250000  1
  Lu  Lu19  1  0.291179  0.006681  0.250000  1
  Sn  Sn20  1  0.575551  0.622896  0.750000  1
  Sn  Sn21  1  0.075813  0.876491  0.750000  1
  Sn  Sn22  1  0.425080  0.376186  0.250000  1
  Sn  Sn23  1  0.924219  0.122007  0.250000  1
  Sn  Sn24  1  0.346080  0.149627  0.750000  1
  Sn  Sn25  1  0.846054  0.350511  0.750000  1
  Sn  Sn26  1  0.655007  0.850003  0.250000  1
  Pb  Pb27  1  0.280389  0.031657  0.041101  1
  Pb  Pb28  1  0.781518  0.467455  0.458978  1
  Pb  Pb29  1  0.718472  0.968498  0.542121  1
  Pb  Pb30  1  0.219047  0.531472  0.958646  1
  Pb  Pb31  1  0.718472  0.968498  0.957879  1
  Pb  Pb32  1  0.219047  0.531472  0.541354  1
  Pb  Pb33  1  0.280389  0.031657  0.458899  1
  Pb  Pb34  1  0.781518  0.467455  0.041022  1
  Pb  Pb35  1  0.151100  0.653320  0.250000  1
