# generated using pymatgen
data_Dy3YScOs7
_symmetry_space_group_name_H-M   'P 1'
_cell_length_a   5.39678900
_cell_length_b   5.39679029
_cell_length_c   8.90142100
_cell_angle_alpha   90.00000000
_cell_angle_beta   90.00000000
_cell_angle_gamma   120.00001046
_symmetry_Int_Tables_number   1
_chemical_formula_structural   Dy3YScOs7
_chemical_formula_sum   'Dy3 Y1 Sc1 Os7'
_cell_volume   224.52303754
_cell_formula_units_Z   1
loop_
 _symmetry_equiv_pos_site_id
 _symmetry_equiv_pos_as_xyz
  1  'x, y, z'
loop_
 _atom_site_type_symbol
 _atom_site_label
 _atom_site_symmetry_multiplicity
 _atom_site_fract_x
 _atom_site_fract_y
 _atom_site_fract_z
 _atom_site_occupancy
  Dy  Dy0  1  0.666667  0.333333  0.577725  1
  Dy  Dy1  1  0.666667  0.333333  0.939784  1
  Dy  Dy2  1  0.333333  0.666667  0.060078  1
  Y  Y3  1  0.333333  0.666667  0.422945  1
  Sc  Sc4  1  0.000000  0.000000  0.499881  1
  Os  Os5  1  0.000000  0.000000  0.000020  1
  Os  Os6  1  0.827507  0.172493  0.244748  1
  Os  Os7  1  0.827507  0.655012  0.244748  1
  Os  Os8  1  0.344988  0.172493  0.244748  1
  Os  Os9  1  0.172449  0.827551  0.755108  1
  Os  Os10  1  0.172449  0.344901  0.755108  1
  Os  Os11  1  0.655099  0.827551  0.755108  1
