# generated using pymatgen
data_YbEu2(CdPt)3
_symmetry_space_group_name_H-M   'P 1'
_cell_length_a   7.65259100
_cell_length_b   7.66484599
_cell_length_c   4.18506700
_cell_angle_alpha   90.00000000
_cell_angle_beta   90.00000000
_cell_angle_gamma   119.94712863
_symmetry_Int_Tables_number   1
_chemical_formula_structural   YbEu2(CdPt)3
_chemical_formula_sum   'Yb1 Eu2 Cd3 Pt3'
_cell_volume   212.70422374
_cell_formula_units_Z   1
loop_
 _symmetry_equiv_pos_site_id
 _symmetry_equiv_pos_as_xyz
  1  'x, y, z'
loop_
 _atom_site_type_symbol
 _atom_site_label
 _atom_site_symmetry_multiplicity
 _atom_site_fract_x
 _atom_site_fract_y
 _atom_site_fract_z
 _atom_site_occupancy
  Yb  Yb0  1  0.593499  0.000000  0.500000  1
  Eu  Eu1  1  0.407378  0.407497  0.500000  1
  Eu  Eu2  1  0.999883  0.592503  0.500000  1
  Cd  Cd3  1  0.747830  0.750383  0.000000  1
  Cd  Cd4  1  0.253847  0.000000  0.000000  1
  Cd  Cd5  1  0.997447  0.249617  0.000000  1
  Pt  Pt6  1  0.665504  0.327596  0.000000  1
  Pt  Pt7  1  0.996704  0.000000  0.500000  1
  Pt  Pt8  1  0.337907  0.672404  0.000000  1
