# generated using pymatgen
data_Ho2Be2Fe(SiO5)2
_symmetry_space_group_name_H-M   'P 1'
_cell_length_a   10.00179950
_cell_length_b   7.52943800
_cell_length_c   4.77764815
_cell_angle_alpha   90.00000000
_cell_angle_beta   89.39406451
_cell_angle_gamma   90.00000000
_symmetry_Int_Tables_number   1
_chemical_formula_structural   Ho2Be2Fe(SiO5)2
_chemical_formula_sum   'Ho4 Be4 Fe2 Si4 O20'
_cell_volume   359.77466856
_cell_formula_units_Z   2
loop_
 _symmetry_equiv_pos_site_id
 _symmetry_equiv_pos_as_xyz
  1  'x, y, z'
loop_
 _atom_site_type_symbol
 _atom_site_label
 _atom_site_symmetry_multiplicity
 _atom_site_fract_x
 _atom_site_fract_y
 _atom_site_fract_z
 _atom_site_occupancy
  Ho  Ho0  1  0.329161  0.105541  0.001740  1
  Ho  Ho1  1  0.829161  0.394460  0.001740  1
  Ho  Ho2  1  0.170839  0.605540  0.998260  1
  Ho  Ho3  1  0.670839  0.894459  0.998260  1
  Be  Be4  1  0.165462  0.913433  0.464107  1
  Be  Be5  1  0.665462  0.586568  0.464107  1
  Be  Be6  1  0.834538  0.086567  0.535893  1
  Be  Be7  1  0.334537  0.413432  0.535895  1
  Fe  Fe8  1  0.000000  0.000000  0.000000  1
  Fe  Fe9  1  0.500000  0.499999  0.000000  1
  Si  Si10  1  0.078029  0.280722  0.482166  1
  Si  Si11  1  0.578028  0.219277  0.482166  1
  Si  Si12  1  0.421971  0.780723  0.517833  1
  Si  Si13  1  0.921971  0.719278  0.517834  1
  O  O14  1  0.830360  0.087680  0.202735  1
  O  O15  1  0.330360  0.412319  0.202737  1
  O  O16  1  0.028233  0.416277  0.239049  1
  O  O17  1  0.528233  0.083724  0.239050  1
  O  O18  1  0.304262  0.848203  0.305191  1
  O  O19  1  0.804262  0.651798  0.305191  1
  O  O20  1  0.142694  0.108016  0.312395  1
  O  O21  1  0.642694  0.391985  0.312395  1
  O  O22  1  0.049252  0.786594  0.321847  1
  O  O23  1  0.549252  0.713407  0.321848  1
  O  O24  1  0.450748  0.286593  0.678152  1
  O  O25  1  0.950748  0.213406  0.678152  1
  O  O26  1  0.357306  0.608015  0.687604  1
  O  O27  1  0.857306  0.891984  0.687604  1
  O  O28  1  0.195738  0.348202  0.694808  1
  O  O29  1  0.695738  0.151798  0.694808  1
  O  O30  1  0.471768  0.916276  0.760950  1
  O  O31  1  0.971768  0.583723  0.760950  1
  O  O32  1  0.169639  0.912320  0.797264  1
  O  O33  1  0.669639  0.587681  0.797265  1
