# generated using pymatgen
data_Tb13Er7(CoBi2)4
_symmetry_space_group_name_H-M   'P 1'
_cell_length_a   7.99608492
_cell_length_b   8.90638499
_cell_length_c   12.45723446
_cell_angle_alpha   89.97024931
_cell_angle_beta   90.03646565
_cell_angle_gamma   90.03010350
_symmetry_Int_Tables_number   1
_chemical_formula_structural   Tb13Er7(CoBi2)4
_chemical_formula_sum   'Tb13 Er7 Co4 Bi8'
_cell_volume   887.15661297
_cell_formula_units_Z   1
loop_
 _symmetry_equiv_pos_site_id
 _symmetry_equiv_pos_as_xyz
  1  'x, y, z'
loop_
 _atom_site_type_symbol
 _atom_site_label
 _atom_site_symmetry_multiplicity
 _atom_site_fract_x
 _atom_site_fract_y
 _atom_site_fract_z
 _atom_site_occupancy
  Tb  Tb0  1  0.348450  0.749933  0.699474  1
  Tb  Tb1  1  0.651537  0.249990  0.300346  1
  Tb  Tb2  1  0.847889  0.250330  0.800173  1
  Tb  Tb3  1  0.151774  0.749811  0.200022  1
  Tb  Tb4  1  0.883161  0.749515  0.810917  1
  Tb  Tb5  1  0.115414  0.250729  0.189015  1
  Tb  Tb6  1  0.384094  0.249817  0.688364  1
  Tb  Tb7  1  0.616061  0.750022  0.311478  1
  Tb  Tb8  1  0.176778  0.037118  0.937156  1
  Tb  Tb9  1  0.052209  0.749945  0.497582  1
  Tb  Tb10  1  0.947692  0.250081  0.502367  1
  Tb  Tb11  1  0.553028  0.250421  0.002382  1
  Tb  Tb12  1  0.449319  0.749474  0.997770  1
  Er  Er13  1  0.673654  0.537814  0.562632  1
  Er  Er14  1  0.326185  0.462793  0.437301  1
  Er  Er15  1  0.173718  0.462841  0.937492  1
  Er  Er16  1  0.326183  0.037250  0.437428  1
  Er  Er17  1  0.826249  0.537945  0.062843  1
  Er  Er18  1  0.673700  0.962172  0.562564  1
  Er  Er19  1  0.825698  0.962224  0.062877  1
  Co  Co20  1  0.062651  0.749216  0.992562  1
  Co  Co21  1  0.934530  0.251037  0.008021  1
  Co  Co22  1  0.563538  0.250016  0.507414  1
  Co  Co23  1  0.436463  0.749979  0.492470  1
  Bi  Bi24  1  0.571132  0.508951  0.826413  1
  Bi  Bi25  1  0.428542  0.490996  0.173508  1
  Bi  Bi26  1  0.071275  0.491003  0.673484  1
  Bi  Bi27  1  0.428285  0.008968  0.173456  1
  Bi  Bi28  1  0.928517  0.509051  0.326755  1
  Bi  Bi29  1  0.572647  0.990723  0.826122  1
  Bi  Bi30  1  0.928681  0.990971  0.326561  1
  Bi  Bi31  1  0.070945  0.008862  0.673049  1
