# generated using pymatgen
data_Li17(CaGe)6
_symmetry_space_group_name_H-M   'P 1'
_cell_length_a   9.32708200
_cell_length_b   9.32708305
_cell_length_c   9.32708200
_cell_angle_alpha   120.00000337
_cell_angle_beta   90.00000000
_cell_angle_gamma   120.00000337
_symmetry_Int_Tables_number   1
_chemical_formula_structural   Li17(CaGe)6
_chemical_formula_sum   'Li17 Ca6 Ge6'
_cell_volume   573.74959435
_cell_formula_units_Z   1
loop_
 _symmetry_equiv_pos_site_id
 _symmetry_equiv_pos_as_xyz
  1  'x, y, z'
loop_
 _atom_site_type_symbol
 _atom_site_label
 _atom_site_symmetry_multiplicity
 _atom_site_fract_x
 _atom_site_fract_y
 _atom_site_fract_z
 _atom_site_occupancy
  Li  Li0  1  0.368336  0.736670  0.105008  1
  Li  Li1  1  0.830282  0.660563  0.169719  1
  Li  Li2  1  0.509155  0.339438  0.169719  1
  Li  Li3  1  0.830282  0.339438  0.169719  1
  Li  Li4  1  0.105008  0.736670  0.368336  1
  Li  Li5  1  0.631664  0.736670  0.368336  1
  Li  Li6  1  0.631664  0.263329  0.368336  1
  Li  Li7  1  0.830282  0.660563  0.490845  1
  Li  Li8  1  0.500000  0.000000  0.500000  1
  Li  Li9  1  0.169719  0.339438  0.509155  1
  Li  Li10  1  0.368336  0.736670  0.631664  1
  Li  Li11  1  0.368336  0.263329  0.631664  1
  Li  Li12  1  0.894992  0.263329  0.631664  1
  Li  Li13  1  0.169719  0.660563  0.830282  1
  Li  Li14  1  0.490845  0.660563  0.830282  1
  Li  Li15  1  0.169719  0.339438  0.830282  1
  Li  Li16  1  0.631664  0.263329  0.894992  1
  Ca  Ca17  1  0.782056  0.000000  0.217943  1
  Ca  Ca18  1  0.217944  0.435888  0.217944  1
  Ca  Ca19  1  0.217944  0.000000  0.217944  1
  Ca  Ca20  1  0.782056  0.000000  0.782056  1
  Ca  Ca21  1  0.217943  0.000000  0.782056  1
  Ca  Ca22  1  0.782056  0.564113  0.782056  1
  Ge  Ge23  1  0.500000  0.000000  0.000000  1
  Ge  Ge24  1  0.000000  0.500000  0.000000  1
  Ge  Ge25  1  0.500000  0.500000  0.000000  1
  Ge  Ge26  1  0.000000  0.000000  0.500000  1
  Ge  Ge27  1  0.000000  0.500000  0.500000  1
  Ge  Ge28  1  0.500000  0.500000  0.500000  1
