# generated using pymatgen
data_CeTh3(Nb3Si4)2
_symmetry_space_group_name_H-M   'P 1'
_cell_length_a   7.18564501
_cell_length_b   7.18062358
_cell_length_c   13.35115900
_cell_angle_alpha   90.00000000
_cell_angle_beta   90.00000000
_cell_angle_gamma   90.00749513
_symmetry_Int_Tables_number   1
_chemical_formula_structural   CeTh3(Nb3Si4)2
_chemical_formula_sum   'Ce2 Th6 Nb12 Si16'
_cell_volume   688.88524577
_cell_formula_units_Z   2
loop_
 _symmetry_equiv_pos_site_id
 _symmetry_equiv_pos_as_xyz
  1  'x, y, z'
loop_
 _atom_site_type_symbol
 _atom_site_label
 _atom_site_symmetry_multiplicity
 _atom_site_fract_x
 _atom_site_fract_y
 _atom_site_fract_z
 _atom_site_occupancy
  Ce  Ce0  1  0.998684  0.337669  0.217582  1
  Ce  Ce1  1  0.001316  0.662331  0.717582  1
  Th  Th2  1  0.162051  0.498602  0.467524  1
  Th  Th3  1  0.501182  0.837504  0.032954  1
  Th  Th4  1  0.837949  0.501398  0.967524  1
  Th  Th5  1  0.498818  0.162496  0.532954  1
  Th  Th6  1  0.335996  0.996893  0.781739  1
  Th  Th7  1  0.664004  0.003107  0.281739  1
  Nb  Nb8  1  0.167584  0.169367  0.000240  1
  Nb  Nb9  1  0.832416  0.830633  0.500240  1
  Nb  Nb10  1  0.331746  0.669295  0.249956  1
  Nb  Nb11  1  0.668254  0.330705  0.749956  1
  Nb  Nb12  1  0.158133  0.994098  0.373826  1
  Nb  Nb13  1  0.841867  0.005902  0.873826  1
  Nb  Nb14  1  0.504303  0.658924  0.623966  1
  Nb  Nb15  1  0.340235  0.495930  0.875861  1
  Nb  Nb16  1  0.495697  0.341076  0.123966  1
  Nb  Nb17  1  0.659765  0.504070  0.375861  1
  Nb  Nb18  1  0.994713  0.159361  0.625816  1
  Nb  Nb19  1  0.005287  0.840639  0.125816  1
  Si  Si20  1  0.285841  0.043592  0.186736  1
  Si  Si21  1  0.714159  0.956408  0.686736  1
  Si  Si22  1  0.459366  0.788669  0.436345  1
  Si  Si23  1  0.209553  0.538443  0.065250  1
  Si  Si24  1  0.540634  0.211331  0.936345  1
  Si  Si25  1  0.790447  0.461557  0.565250  1
  Si  Si26  1  0.040162  0.291963  0.812563  1
  Si  Si27  1  0.959838  0.708037  0.312563  1
  Si  Si28  1  0.371728  0.299267  0.312281  1
  Si  Si29  1  0.628272  0.700733  0.812281  1
  Si  Si30  1  0.199959  0.873484  0.564764  1
  Si  Si31  1  0.124065  0.797185  0.935901  1
  Si  Si32  1  0.800041  0.126516  0.064764  1
  Si  Si33  1  0.875935  0.202815  0.435901  1
  Si  Si34  1  0.295367  0.377938  0.686695  1
  Si  Si35  1  0.704633  0.622062  0.186695  1
