# generated using pymatgen
data_Tb2Y3Pa3(ReB6)4
_symmetry_space_group_name_H-M   'P 1'
_cell_length_a   3.71250500
_cell_length_b   9.21084665
_cell_length_c   11.54807200
_cell_angle_alpha   89.83652483
_cell_angle_beta   90.00000000
_cell_angle_gamma   90.00000000
_symmetry_Int_Tables_number   1
_chemical_formula_structural   Tb2Y3Pa3(ReB6)4
_chemical_formula_sum   'Tb2 Y3 Pa3 Re4 B24'
_cell_volume   394.88834364
_cell_formula_units_Z   1
loop_
 _symmetry_equiv_pos_site_id
 _symmetry_equiv_pos_as_xyz
  1  'x, y, z'
loop_
 _atom_site_type_symbol
 _atom_site_label
 _atom_site_symmetry_multiplicity
 _atom_site_fract_x
 _atom_site_fract_y
 _atom_site_fract_z
 _atom_site_occupancy
  Tb  Tb0  1  0.000000  0.677719  0.587328  1
  Tb  Tb1  1  0.000000  0.445737  0.124583  1
  Y  Y2  1  0.000000  0.555151  0.873380  1
  Y  Y3  1  0.000000  0.943899  0.375556  1
  Y  Y4  1  0.000000  0.053305  0.625364  1
  Pa  Pa5  1  0.000000  0.822886  0.087235  1
  Pa  Pa6  1  0.000000  0.176655  0.912213  1
  Pa  Pa7  1  0.000000  0.324539  0.413499  1
  Re  Re8  1  0.000000  0.138207  0.177645  1
  Re  Re9  1  0.000000  0.864376  0.825507  1
  Re  Re10  1  0.000000  0.637913  0.319349  1
  Re  Re11  1  0.000000  0.359071  0.678384  1
  B  B12  1  0.500000  0.053143  0.067668  1
  B  B13  1  0.500000  0.947597  0.933667  1
  B  B14  1  0.500000  0.552558  0.431655  1
  B  B15  1  0.500000  0.445594  0.566907  1
  B  B16  1  0.500000  0.247233  0.079331  1
  B  B17  1  0.500000  0.753290  0.920356  1
  B  B18  1  0.500000  0.746908  0.420512  1
  B  B19  1  0.500000  0.252908  0.579202  1
  B  B20  1  0.500000  0.292655  0.233588  1
  B  B21  1  0.500000  0.708165  0.767191  1
  B  B22  1  0.500000  0.792800  0.267097  1
  B  B23  1  0.500000  0.206794  0.733320  1
  B  B24  1  0.500000  0.133916  0.314489  1
  B  B25  1  0.500000  0.866751  0.686578  1
  B  B26  1  0.500000  0.634331  0.185631  1
  B  B27  1  0.500000  0.365873  0.813177  1
  B  B28  1  0.500000  0.483331  0.286693  1
  B  B29  1  0.500000  0.516546  0.713239  1
  B  B30  1  0.500000  0.983439  0.214038  1
  B  B31  1  0.500000  0.016408  0.786562  1
  B  B32  1  0.500000  0.114173  0.468141  1
  B  B33  1  0.500000  0.885915  0.531976  1
  B  B34  1  0.500000  0.616799  0.031752  1
  B  B35  1  0.500000  0.383414  0.967183  1
