# generated using pymatgen
data_LaAs12Os3Rh
_symmetry_space_group_name_H-M   'P 1'
_cell_length_a   7.47626345
_cell_length_b   7.47626420
_cell_length_c   7.47626425
_cell_angle_alpha   109.42669775
_cell_angle_beta   109.42670368
_cell_angle_gamma   109.42670596
_symmetry_Int_Tables_number   1
_chemical_formula_structural   LaAs12Os3Rh
_chemical_formula_sum   'La1 As12 Os3 Rh1'
_cell_volume   322.21499905
_cell_formula_units_Z   1
loop_
 _symmetry_equiv_pos_site_id
 _symmetry_equiv_pos_as_xyz
  1  'x, y, z'
loop_
 _atom_site_type_symbol
 _atom_site_label
 _atom_site_symmetry_multiplicity
 _atom_site_fract_x
 _atom_site_fract_y
 _atom_site_fract_z
 _atom_site_occupancy
  La  La0  1  0.000000  0.000000  0.000000  1
  As  As1  1  0.347175  0.197581  0.850093  1
  As  As2  1  0.652825  0.802419  0.149907  1
  As  As3  1  0.652984  0.502932  0.852343  1
  As  As4  1  0.347016  0.497068  0.147657  1
  As  As5  1  0.197581  0.850093  0.347175  1
  As  As6  1  0.802419  0.149907  0.652825  1
  As  As7  1  0.502932  0.852343  0.652984  1
  As  As8  1  0.497068  0.147657  0.347016  1
  As  As9  1  0.850093  0.347175  0.197581  1
  As  As10  1  0.149907  0.652825  0.802419  1
  As  As11  1  0.852343  0.652984  0.502932  1
  As  As12  1  0.147657  0.347016  0.497068  1
  Os  Os13  1  0.000000  0.000000  0.500000  1
  Os  Os14  1  0.500000  0.000000  0.000000  1
  Os  Os15  1  0.000000  0.500000  0.000000  1
  Rh  Rh16  1  0.500000  0.500000  0.500000  1
