# generated using pymatgen
data_Ca2DyEr(Ru2O7)2
_symmetry_space_group_name_H-M   'P 1'
_cell_length_a   7.26012552
_cell_length_b   7.28781496
_cell_length_c   7.26012473
_cell_angle_alpha   59.87745557
_cell_angle_beta   59.64312291
_cell_angle_gamma   59.87745908
_symmetry_Int_Tables_number   1
_chemical_formula_structural   Ca2DyEr(Ru2O7)2
_chemical_formula_sum   'Ca2 Dy1 Er1 Ru4 O14'
_cell_volume   270.38521375
_cell_formula_units_Z   1
loop_
 _symmetry_equiv_pos_site_id
 _symmetry_equiv_pos_as_xyz
  1  'x, y, z'
loop_
 _atom_site_type_symbol
 _atom_site_label
 _atom_site_symmetry_multiplicity
 _atom_site_fract_x
 _atom_site_fract_y
 _atom_site_fract_z
 _atom_site_occupancy
  Ca  Ca0  1  0.125000  0.125000  0.625000  1
  Ca  Ca1  1  0.625000  0.125000  0.125000  1
  Dy  Dy2  1  0.125000  0.625000  0.125000  1
  Er  Er3  1  0.125000  0.125000  0.125000  1
  Ru  Ru4  1  0.625000  0.625000  0.125000  1
  Ru  Ru5  1  0.625000  0.125000  0.625000  1
  Ru  Ru6  1  0.125000  0.625000  0.625000  1
  Ru  Ru7  1  0.625000  0.625000  0.625000  1
  O  O8  1  0.242602  0.255223  0.242602  1
  O  O9  1  0.007398  0.994777  0.007398  1
  O  O10  1  0.291245  0.710014  0.291245  1
  O  O11  1  0.553277  0.946831  0.553277  1
  O  O12  1  0.297249  0.299605  0.706935  1
  O  O13  1  0.706935  0.299605  0.297249  1
  O  O14  1  0.296596  0.698203  0.706007  1
  O  O15  1  0.706007  0.698203  0.296596  1
  O  O16  1  0.696723  0.303169  0.696723  1
  O  O17  1  0.953404  0.551797  0.543993  1
  O  O18  1  0.543065  0.950395  0.952751  1
  O  O19  1  0.958755  0.539986  0.958755  1
  O  O20  1  0.543993  0.551797  0.953404  1
  O  O21  1  0.952751  0.950395  0.543065  1
