# generated using pymatgen
data_DyEr2Bi(Rh2O7)2
_symmetry_space_group_name_H-M   'P 1'
_cell_length_a   7.20444702
_cell_length_b   7.20693847
_cell_length_c   7.25703377
_cell_angle_alpha   60.23078769
_cell_angle_beta   60.23941163
_cell_angle_gamma   60.01143386
_symmetry_Int_Tables_number   1
_chemical_formula_structural   DyEr2Bi(Rh2O7)2
_chemical_formula_sum   'Dy1 Er2 Bi1 Rh4 O14'
_cell_volume   267.40378993
_cell_formula_units_Z   1
loop_
 _symmetry_equiv_pos_site_id
 _symmetry_equiv_pos_as_xyz
  1  'x, y, z'
loop_
 _atom_site_type_symbol
 _atom_site_label
 _atom_site_symmetry_multiplicity
 _atom_site_fract_x
 _atom_site_fract_y
 _atom_site_fract_z
 _atom_site_occupancy
  Dy  Dy0  1  0.125000  0.625000  0.125000  1
  Er  Er1  1  0.125000  0.125000  0.125000  1
  Er  Er2  1  0.625000  0.125000  0.125000  1
  Bi  Bi3  1  0.125000  0.125000  0.625000  1
  Rh  Rh4  1  0.625000  0.625000  0.625000  1
  Rh  Rh5  1  0.625000  0.625000  0.125000  1
  Rh  Rh6  1  0.125000  0.625000  0.625000  1
  Rh  Rh7  1  0.625000  0.125000  0.625000  1
  O  O8  1  0.253366  0.249987  0.243280  1
  O  O9  1  0.286580  0.714371  0.287345  1
  O  O10  1  0.962071  0.962370  0.533657  1
  O  O11  1  0.541903  0.962370  0.533657  1
  O  O12  1  0.711704  0.714371  0.287345  1
  O  O13  1  0.962087  0.541059  0.534768  1
  O  O14  1  0.708097  0.287630  0.716343  1
  O  O15  1  0.287929  0.287630  0.716343  1
  O  O16  1  0.712881  0.286529  0.287708  1
  O  O17  1  0.287913  0.708941  0.715232  1
  O  O18  1  0.963420  0.535629  0.962655  1
  O  O19  1  0.538296  0.535629  0.962655  1
  O  O20  1  0.996634  0.000013  0.006720  1
  O  O21  1  0.537119  0.963471  0.962292  1
