# generated using pymatgen
data_Dy3TmSi4OsRh3
_symmetry_space_group_name_H-M   'P 1'
_cell_length_a   4.28397000
_cell_length_b   6.91780064
_cell_length_c   7.28755075
_cell_angle_alpha   90.31651158
_cell_angle_beta   90.00000000
_cell_angle_gamma   90.00000000
_symmetry_Int_Tables_number   1
_chemical_formula_structural   Dy3TmSi4OsRh3
_chemical_formula_sum   'Dy3 Tm1 Si4 Os1 Rh3'
_cell_volume   215.96801103
_cell_formula_units_Z   1
loop_
 _symmetry_equiv_pos_site_id
 _symmetry_equiv_pos_as_xyz
  1  'x, y, z'
loop_
 _atom_site_type_symbol
 _atom_site_label
 _atom_site_symmetry_multiplicity
 _atom_site_fract_x
 _atom_site_fract_y
 _atom_site_fract_z
 _atom_site_occupancy
  Dy  Dy0  1  0.250000  0.496907  0.184012  1
  Dy  Dy1  1  0.750000  0.005828  0.689990  1
  Dy  Dy2  1  0.250000  0.991687  0.311514  1
  Tm  Tm3  1  0.750000  0.504571  0.812492  1
  Si  Si4  1  0.250000  0.795521  0.885908  1
  Si  Si5  1  0.750000  0.202562  0.106208  1
  Si  Si6  1  0.750000  0.700820  0.402636  1
  Si  Si7  1  0.250000  0.302471  0.605773  1
  Os  Os8  1  0.250000  0.654217  0.569940  1
  Rh  Rh9  1  0.750000  0.345526  0.432960  1
  Rh  Rh10  1  0.750000  0.842582  0.068717  1
  Rh  Rh11  1  0.250000  0.157308  0.929850  1
