# generated using pymatgen
data_Nd5Lu(BiO7)2
_symmetry_space_group_name_H-M   'P 1'
_cell_length_a   6.69976686
_cell_length_b   6.72115054
_cell_length_c   7.89499433
_cell_angle_alpha   106.90245342
_cell_angle_beta   89.84520766
_cell_angle_gamma   98.80301342
_symmetry_Int_Tables_number   1
_chemical_formula_structural   Nd5Lu(BiO7)2
_chemical_formula_sum   'Nd5 Lu1 Bi2 O14'
_cell_volume   335.81952891
_cell_formula_units_Z   1
loop_
 _symmetry_equiv_pos_site_id
 _symmetry_equiv_pos_as_xyz
  1  'x, y, z'
loop_
 _atom_site_type_symbol
 _atom_site_label
 _atom_site_symmetry_multiplicity
 _atom_site_fract_x
 _atom_site_fract_y
 _atom_site_fract_z
 _atom_site_occupancy
  Nd  Nd0  1  0.538640  0.995327  0.746732  1
  Nd  Nd1  1  0.268446  0.541513  0.885641  1
  Nd  Nd2  1  0.729091  0.463078  0.119106  1
  Nd  Nd3  1  0.737137  0.476039  0.611639  1
  Nd  Nd4  1  0.260562  0.519628  0.380496  1
  Lu  Lu5  1  0.463053  0.005315  0.253392  1
  Bi  Bi6  1  0.000671  0.000469  0.496986  1
  Bi  Bi7  1  0.999916  0.999972  0.003950  1
  O  O8  1  0.446882  0.662781  0.172672  1
  O  O9  1  0.556526  0.356465  0.834857  1
  O  O10  1  0.302754  0.932741  0.963680  1
  O  O11  1  0.699632  0.066168  0.055975  1
  O  O12  1  0.298752  0.931675  0.503795  1
  O  O13  1  0.702774  0.066608  0.475307  1
  O  O14  1  0.539213  0.347587  0.339637  1
  O  O15  1  0.449220  0.635385  0.652058  1
  O  O16  1  0.926656  0.670688  0.953990  1
  O  O17  1  0.072433  0.329657  0.046567  1
  O  O18  1  0.067035  0.339160  0.616639  1
  O  O19  1  0.926098  0.658130  0.386523  1
  O  O20  1  0.887326  0.915150  0.728103  1
  O  O21  1  0.127183  0.086465  0.272254  1
