# generated using pymatgen
data_Ho4MoOs6W
_symmetry_space_group_name_H-M   'P 1'
_cell_length_a   5.23905593
_cell_length_b   5.23905565
_cell_length_c   8.96760000
_cell_angle_alpha   90.00000000
_cell_angle_beta   90.00000000
_cell_angle_gamma   115.87677152
_symmetry_Int_Tables_number   1
_chemical_formula_structural   Ho4MoOs6W
_chemical_formula_sum   'Ho4 Mo1 Os6 W1'
_cell_volume   221.46076143
_cell_formula_units_Z   1
loop_
 _symmetry_equiv_pos_site_id
 _symmetry_equiv_pos_as_xyz
  1  'x, y, z'
loop_
 _atom_site_type_symbol
 _atom_site_label
 _atom_site_symmetry_multiplicity
 _atom_site_fract_x
 _atom_site_fract_y
 _atom_site_fract_z
 _atom_site_occupancy
  Ho  Ho0  1  0.328581  0.671419  0.435502  1
  Ho  Ho1  1  0.668494  0.331506  0.563871  1
  Ho  Ho2  1  0.668494  0.331506  0.936129  1
  Ho  Ho3  1  0.328581  0.671419  0.064498  1
  Mo  Mo4  1  0.169829  0.830171  0.750000  1
  Os  Os5  1  0.997882  0.002118  0.500903  1
  Os  Os6  1  0.997882  0.002118  0.999097  1
  Os  Os7  1  0.826184  0.650592  0.250000  1
  Os  Os8  1  0.349408  0.173816  0.250000  1
  Os  Os9  1  0.172844  0.344334  0.750000  1
  Os  Os10  1  0.655666  0.827156  0.750000  1
  W  W11  1  0.836155  0.163845  0.250000  1
