# generated using pymatgen
data_Dy18Y2(Bi3Sb)3
_symmetry_space_group_name_H-M   'P 1'
_cell_length_a   8.21842384
_cell_length_b   9.49256000
_cell_length_c   12.01569020
_cell_angle_alpha   90.00000000
_cell_angle_beta   90.03622979
_cell_angle_gamma   90.00000000
_symmetry_Int_Tables_number   1
_chemical_formula_structural   Dy18Y2(Bi3Sb)3
_chemical_formula_sum   'Dy18 Y2 Bi9 Sb3'
_cell_volume   937.39044216
_cell_formula_units_Z   1
loop_
 _symmetry_equiv_pos_site_id
 _symmetry_equiv_pos_as_xyz
  1  'x, y, z'
loop_
 _atom_site_type_symbol
 _atom_site_label
 _atom_site_symmetry_multiplicity
 _atom_site_fract_x
 _atom_site_fract_y
 _atom_site_fract_z
 _atom_site_occupancy
  Dy  Dy0  1  0.852933  0.750000  0.286611  1
  Dy  Dy1  1  0.148168  0.250000  0.716407  1
  Dy  Dy2  1  0.689078  0.562675  0.057372  1
  Dy  Dy3  1  0.190271  0.933973  0.442613  1
  Dy  Dy4  1  0.311098  0.062259  0.942780  1
  Dy  Dy5  1  0.808435  0.440157  0.558877  1
  Dy  Dy6  1  0.311098  0.437741  0.942780  1
  Dy  Dy7  1  0.808435  0.059843  0.558877  1
  Dy  Dy8  1  0.689078  0.937325  0.057372  1
  Dy  Dy9  1  0.190271  0.566027  0.442613  1
  Dy  Dy10  1  0.475436  0.250000  0.487909  1
  Dy  Dy11  1  0.972592  0.250000  0.012009  1
  Dy  Dy12  1  0.528733  0.750000  0.512734  1
  Dy  Dy13  1  0.027882  0.750000  0.987832  1
  Dy  Dy14  1  0.318071  0.250000  0.216312  1
  Dy  Dy15  1  0.811547  0.250000  0.278904  1
  Dy  Dy16  1  0.683231  0.750000  0.782068  1
  Dy  Dy17  1  0.183725  0.750000  0.717935  1
  Y  Y18  1  0.352628  0.750000  0.212863  1
  Y  Y19  1  0.647317  0.250000  0.786943  1
  Bi  Bi20  1  0.092143  0.250000  0.456489  1
  Bi  Bi21  1  0.565413  0.995209  0.325576  1
  Bi  Bi22  1  0.065655  0.504036  0.174359  1
  Bi  Bi23  1  0.434042  0.495615  0.674576  1
  Bi  Bi24  1  0.934208  0.003954  0.825838  1
  Bi  Bi25  1  0.434042  0.004385  0.674576  1
  Bi  Bi26  1  0.934208  0.496046  0.825838  1
  Bi  Bi27  1  0.565413  0.504791  0.325576  1
  Bi  Bi28  1  0.065655  0.995964  0.174359  1
  Sb  Sb29  1  0.407786  0.750000  0.957966  1
  Sb  Sb30  1  0.908459  0.750000  0.541718  1
  Sb  Sb31  1  0.592953  0.250000  0.041319  1
