# generated using pymatgen
data_Tb2HoTm3FeSb2
_symmetry_space_group_name_H-M   'P 1'
_cell_length_a   8.14778600
_cell_length_b   8.14735502
_cell_length_c   4.14891000
_cell_angle_alpha   90.00000000
_cell_angle_beta   90.00000000
_cell_angle_gamma   120.00174988
_symmetry_Int_Tables_number   1
_chemical_formula_structural   Tb2HoTm3FeSb2
_chemical_formula_sum   'Tb2 Ho1 Tm3 Fe1 Sb2'
_cell_volume   238.51365205
_cell_formula_units_Z   1
loop_
 _symmetry_equiv_pos_site_id
 _symmetry_equiv_pos_as_xyz
  1  'x, y, z'
loop_
 _atom_site_type_symbol
 _atom_site_label
 _atom_site_symmetry_multiplicity
 _atom_site_fract_x
 _atom_site_fract_y
 _atom_site_fract_z
 _atom_site_occupancy
  Tb  Tb0  1  0.000225  0.604476  0.500000  1
  Tb  Tb1  1  0.395750  0.395524  0.500000  1
  Ho  Ho2  1  0.605157  0.000000  0.500000  1
  Tm  Tm3  1  0.232889  0.000000  0.000000  1
  Tm  Tm4  1  0.766638  0.766909  0.000000  1
  Tm  Tm5  1  0.999729  0.233091  0.000000  1
  Fe  Fe6  1  0.998592  0.000000  0.500000  1
  Sb  Sb7  1  0.334371  0.667725  0.000000  1
  Sb  Sb8  1  0.666648  0.332275  0.000000  1
