# generated using pymatgen
data_Lu3Sn3IrRuAu
_symmetry_space_group_name_H-M   'P 1'
_cell_length_a   7.63643700
_cell_length_b   7.63643724
_cell_length_c   3.77676300
_cell_angle_alpha   90.00000000
_cell_angle_beta   90.00000000
_cell_angle_gamma   119.99999464
_symmetry_Int_Tables_number   1
_chemical_formula_structural   Lu3Sn3IrRuAu
_chemical_formula_sum   'Lu3 Sn3 Ir1 Ru1 Au1'
_cell_volume   190.73568259
_cell_formula_units_Z   1
loop_
 _symmetry_equiv_pos_site_id
 _symmetry_equiv_pos_as_xyz
  1  'x, y, z'
loop_
 _atom_site_type_symbol
 _atom_site_label
 _atom_site_symmetry_multiplicity
 _atom_site_fract_x
 _atom_site_fract_y
 _atom_site_fract_z
 _atom_site_occupancy
  Lu  Lu0  1  0.979799  0.391169  0.500000  1
  Lu  Lu1  1  0.608831  0.588630  0.500000  1
  Lu  Lu2  1  0.411370  0.020201  0.500000  1
  Sn  Sn3  1  0.998273  0.738229  0.000000  1
  Sn  Sn4  1  0.261771  0.260044  0.000000  1
  Sn  Sn5  1  0.739956  0.001727  0.000000  1
  Ir  Ir6  1  0.666667  0.333333  0.000000  1
  Ru  Ru7  1  0.000000  0.000000  0.500000  1
  Au  Au8  1  0.333333  0.666667  0.000000  1
