# generated using pymatgen
data_Nb3H3WSe8
_symmetry_space_group_name_H-M   'P 1'
_cell_length_a   3.41947500
_cell_length_b   3.41947543
_cell_length_c   29.34843700
_cell_angle_alpha   90.00000000
_cell_angle_beta   90.00000000
_cell_angle_gamma   119.99998619
_symmetry_Int_Tables_number   1
_chemical_formula_structural   Nb3H3WSe8
_chemical_formula_sum   'Nb3 H3 W1 Se8'
_cell_volume   297.19027197
_cell_formula_units_Z   1
loop_
 _symmetry_equiv_pos_site_id
 _symmetry_equiv_pos_as_xyz
  1  'x, y, z'
loop_
 _atom_site_type_symbol
 _atom_site_label
 _atom_site_symmetry_multiplicity
 _atom_site_fract_x
 _atom_site_fract_y
 _atom_site_fract_z
 _atom_site_occupancy
  Nb  Nb0  1  0.666667  0.333333  0.500000  1
  Nb  Nb1  1  0.333333  0.666667  0.249948  1
  Nb  Nb2  1  0.333333  0.666667  0.750052  1
  H  H3  1  0.000000  0.000000  0.500000  1
  H  H4  1  0.000000  0.000000  0.249762  1
  H  H5  1  0.000000  0.000000  0.750238  1
  W  W6  1  0.666667  0.333333  0.000000  1
  Se  Se7  1  0.666667  0.333333  0.310518  1
  Se  Se8  1  0.666667  0.333333  0.810700  1
  Se  Se9  1  0.333333  0.666667  0.943893  1
  Se  Se10  1  0.333333  0.666667  0.439391  1
  Se  Se11  1  0.333333  0.666667  0.056107  1
  Se  Se12  1  0.333333  0.666667  0.560609  1
  Se  Se13  1  0.666667  0.333333  0.189300  1
  Se  Se14  1  0.666667  0.333333  0.689482  1
