# generated using pymatgen
data_Tm2Mn2Co5(NiP2)3
_symmetry_space_group_name_H-M   'P 1'
_cell_length_a   3.65938500
_cell_length_b   10.29336100
_cell_length_c   11.82633800
_cell_angle_alpha   90.00000000
_cell_angle_beta   90.00000000
_cell_angle_gamma   90.00000000
_symmetry_Int_Tables_number   1
_chemical_formula_structural   Tm2Mn2Co5(NiP2)3
_chemical_formula_sum   'Tm4 Mn4 Co10 Ni6 P12'
_cell_volume   445.46705916
_cell_formula_units_Z   2
loop_
 _symmetry_equiv_pos_site_id
 _symmetry_equiv_pos_as_xyz
  1  'x, y, z'
loop_
 _atom_site_type_symbol
 _atom_site_label
 _atom_site_symmetry_multiplicity
 _atom_site_fract_x
 _atom_site_fract_y
 _atom_site_fract_z
 _atom_site_occupancy
  Tm  Tm0  1  0.250000  0.583062  0.705928  1
  Tm  Tm1  1  0.250000  0.916938  0.205928  1
  Tm  Tm2  1  0.750000  0.418494  0.294681  1
  Tm  Tm3  1  0.750000  0.081506  0.794681  1
  Mn  Mn4  1  0.250000  0.709815  0.986853  1
  Mn  Mn5  1  0.250000  0.790185  0.486853  1
  Mn  Mn6  1  0.750000  0.288797  0.012581  1
  Mn  Mn7  1  0.750000  0.211203  0.512581  1
  Co  Co8  1  0.750000  0.778033  0.822820  1
  Co  Co9  1  0.750000  0.721967  0.322820  1
  Co  Co10  1  0.250000  0.882885  0.698510  1
  Co  Co11  1  0.250000  0.617115  0.198510  1
  Co  Co12  1  0.750000  0.116805  0.301091  1
  Co  Co13  1  0.750000  0.383195  0.801091  1
  Co  Co14  1  0.250000  0.466837  0.932371  1
  Co  Co15  1  0.250000  0.033163  0.432371  1
  Co  Co16  1  0.750000  0.533806  0.067773  1
  Co  Co17  1  0.750000  0.966194  0.567773  1
  Ni  Ni18  1  0.250000  0.408514  0.486409  1
  Ni  Ni19  1  0.250000  0.091486  0.986409  1
  Ni  Ni20  1  0.750000  0.592675  0.513328  1
  Ni  Ni21  1  0.750000  0.907325  0.013328  1
  Ni  Ni22  1  0.250000  0.222486  0.177338  1
  Ni  Ni23  1  0.250000  0.277514  0.677338  1
  P  P24  1  0.250000  0.422439  0.113071  1
  P  P25  1  0.250000  0.077561  0.613071  1
  P  P26  1  0.750000  0.581120  0.886784  1
  P  P27  1  0.750000  0.918880  0.386784  1
  P  P28  1  0.250000  0.270405  0.868360  1
  P  P29  1  0.250000  0.229595  0.368360  1
  P  P30  1  0.750000  0.729775  0.133724  1
  P  P31  1  0.750000  0.770225  0.633724  1
  P  P32  1  0.250000  0.603744  0.387236  1
  P  P33  1  0.250000  0.896256  0.887236  1
  P  P34  1  0.750000  0.400868  0.611142  1
  P  P35  1  0.750000  0.099132  0.111142  1
