# generated using pymatgen
data_CaHo4(In2Pt)2
_symmetry_space_group_name_H-M   'P 1'
_cell_length_a   3.60837800
_cell_length_b   8.19076400
_cell_length_c   18.33980100
_cell_angle_alpha   90.00000000
_cell_angle_beta   90.00000000
_cell_angle_gamma   90.00000000
_symmetry_Int_Tables_number   1
_chemical_formula_structural   CaHo4(In2Pt)2
_chemical_formula_sum   'Ca2 Ho8 In8 Pt4'
_cell_volume   542.03965235
_cell_formula_units_Z   2
loop_
 _symmetry_equiv_pos_site_id
 _symmetry_equiv_pos_as_xyz
  1  'x, y, z'
loop_
 _atom_site_type_symbol
 _atom_site_label
 _atom_site_symmetry_multiplicity
 _atom_site_fract_x
 _atom_site_fract_y
 _atom_site_fract_z
 _atom_site_occupancy
  Ca  Ca0  1  0.000000  0.000000  0.000000  1
  Ca  Ca1  1  0.000000  0.500000  0.500000  1
  Ho  Ho2  1  0.000000  0.117318  0.414208  1
  Ho  Ho3  1  0.000000  0.882682  0.585792  1
  Ho  Ho4  1  0.000000  0.382682  0.914208  1
  Ho  Ho5  1  0.000000  0.617318  0.085792  1
  Ho  Ho6  1  0.000000  0.243428  0.220213  1
  Ho  Ho7  1  0.000000  0.756572  0.779787  1
  Ho  Ho8  1  0.000000  0.256572  0.720213  1
  Ho  Ho9  1  0.000000  0.743428  0.279787  1
  In  In10  1  0.500000  0.424100  0.350655  1
  In  In11  1  0.500000  0.575900  0.649345  1
  In  In12  1  0.500000  0.075900  0.850655  1
  In  In13  1  0.500000  0.924100  0.149345  1
  In  In14  1  0.500000  0.293841  0.067120  1
  In  In15  1  0.500000  0.706159  0.932880  1
  In  In16  1  0.500000  0.206159  0.567120  1
  In  In17  1  0.500000  0.793841  0.432880  1
  Pt  Pt18  1  0.500000  0.024388  0.303176  1
  Pt  Pt19  1  0.500000  0.975612  0.696824  1
  Pt  Pt20  1  0.500000  0.475612  0.803176  1
  Pt  Pt21  1  0.500000  0.524388  0.196824  1
