# generated using pymatgen
data_Dy10Y2Co4SnIr
_symmetry_space_group_name_H-M   'P 1'
_cell_length_a   8.29705357
_cell_length_b   8.29705311
_cell_length_c   8.29705241
_cell_angle_alpha   106.91176819
_cell_angle_beta   110.39058091
_cell_angle_gamma   111.14217467
_symmetry_Int_Tables_number   1
_chemical_formula_structural   Dy10Y2Co4SnIr
_chemical_formula_sum   'Dy10 Y2 Co4 Sn1 Ir1'
_cell_volume   439.01894409
_cell_formula_units_Z   1
loop_
 _symmetry_equiv_pos_site_id
 _symmetry_equiv_pos_as_xyz
  1  'x, y, z'
loop_
 _atom_site_type_symbol
 _atom_site_label
 _atom_site_symmetry_multiplicity
 _atom_site_fract_x
 _atom_site_fract_y
 _atom_site_fract_z
 _atom_site_occupancy
  Dy  Dy0  1  0.895008  0.711092  0.183917  1
  Dy  Dy1  1  0.527175  0.711092  0.816083  1
  Dy  Dy2  1  0.305856  0.620400  0.314544  1
  Dy  Dy3  1  0.305856  0.991313  0.685456  1
  Dy  Dy4  1  0.694056  0.380114  0.686058  1
  Dy  Dy5  1  0.694056  0.007997  0.313942  1
  Dy  Dy6  1  0.195601  0.212457  0.408297  1
  Dy  Dy7  1  0.804161  0.787305  0.591703  1
  Dy  Dy8  1  0.195601  0.787305  0.983143  1
  Dy  Dy9  1  0.804161  0.212457  0.016857  1
  Y  Y10  1  0.473939  0.288942  0.184998  1
  Y  Y11  1  0.103944  0.288942  0.815002  1
  Co  Co12  1  0.501043  0.612667  0.111624  1
  Co  Co13  1  0.501043  0.389419  0.888376  1
  Co  Co14  1  0.379014  0.999969  0.379045  1
  Co  Co15  1  0.620924  0.999969  0.620955  1
  Sn  Sn16  1  0.999804  0.499804  0.500000  1
  Ir  Ir17  1  0.998759  0.998759  0.000000  1
