# generated using pymatgen
data_Pr9Lu(InTe)4
_symmetry_space_group_name_H-M   'P 1'
_cell_length_a   9.21639478
_cell_length_b   9.21639509
_cell_length_c   8.46261100
_cell_angle_alpha   89.95548204
_cell_angle_beta   89.95548204
_cell_angle_gamma   126.24165527
_symmetry_Int_Tables_number   1
_chemical_formula_structural   Pr9Lu(InTe)4
_chemical_formula_sum   'Pr9 Lu1 In4 Te4'
_cell_volume   579.75806923
_cell_formula_units_Z   1
loop_
 _symmetry_equiv_pos_site_id
 _symmetry_equiv_pos_as_xyz
  1  'x, y, z'
loop_
 _atom_site_type_symbol
 _atom_site_label
 _atom_site_symmetry_multiplicity
 _atom_site_fract_x
 _atom_site_fract_y
 _atom_site_fract_z
 _atom_site_occupancy
  Pr  Pr0  1  0.000000  0.000000  0.000000  1
  Pr  Pr1  1  0.803946  0.533605  0.167260  1
  Pr  Pr2  1  0.466395  0.196054  0.832740  1
  Pr  Pr3  1  0.969408  0.694453  0.665784  1
  Pr  Pr4  1  0.305547  0.030592  0.334216  1
  Pr  Pr5  1  0.196054  0.466395  0.832740  1
  Pr  Pr6  1  0.533605  0.803946  0.167260  1
  Pr  Pr7  1  0.030592  0.305547  0.334216  1
  Pr  Pr8  1  0.694453  0.969408  0.665784  1
  Lu  Lu9  1  0.500000  0.500000  0.500000  1
  In  In10  1  0.867037  0.867037  0.378471  1
  In  In11  1  0.132963  0.132963  0.621529  1
  In  In12  1  0.625794  0.625794  0.867495  1
  In  In13  1  0.374206  0.374206  0.132505  1
  Te  Te14  1  0.201190  0.798810  0.000000  1
  Te  Te15  1  0.696404  0.303596  0.500000  1
  Te  Te16  1  0.798810  0.201190  0.000000  1
  Te  Te17  1  0.303596  0.696404  0.500000  1
