# generated using pymatgen
data_Tb6TmCo17P12
_symmetry_space_group_name_H-M   'P 1'
_cell_length_a   3.72114500
_cell_length_b   10.59928000
_cell_length_c   12.36006900
_cell_angle_alpha   90.00000000
_cell_angle_beta   90.00000000
_cell_angle_gamma   90.00000000
_symmetry_Int_Tables_number   1
_chemical_formula_structural   Tb6TmCo17P12
_chemical_formula_sum   'Tb6 Tm1 Co17 P12'
_cell_volume   487.49913957
_cell_formula_units_Z   1
loop_
 _symmetry_equiv_pos_site_id
 _symmetry_equiv_pos_as_xyz
  1  'x, y, z'
loop_
 _atom_site_type_symbol
 _atom_site_label
 _atom_site_symmetry_multiplicity
 _atom_site_fract_x
 _atom_site_fract_y
 _atom_site_fract_z
 _atom_site_occupancy
  Tb  Tb0  1  0.000000  0.500000  0.531427  1
  Tb  Tb1  1  0.500000  0.000000  0.478644  1
  Tb  Tb2  1  0.500000  0.822638  0.208163  1
  Tb  Tb3  1  0.500000  0.177362  0.208163  1
  Tb  Tb4  1  0.000000  0.683378  0.794969  1
  Tb  Tb5  1  0.000000  0.316622  0.794969  1
  Tm  Tm6  1  0.500000  0.500000  0.154577  1
  Co  Co7  1  0.000000  0.000000  0.835393  1
  Co  Co8  1  0.500000  0.500000  0.703549  1
  Co  Co9  1  0.000000  0.000000  0.295271  1
  Co  Co10  1  0.000000  0.500000  0.981729  1
  Co  Co11  1  0.500000  0.000000  0.012872  1
  Co  Co12  1  0.500000  0.323915  0.986676  1
  Co  Co13  1  0.500000  0.676085  0.986676  1
  Co  Co14  1  0.000000  0.159000  0.998740  1
  Co  Co15  1  0.000000  0.841000  0.998740  1
  Co  Co16  1  0.500000  0.293227  0.436105  1
  Co  Co17  1  0.500000  0.706773  0.436105  1
  Co  Co18  1  0.000000  0.201306  0.571046  1
  Co  Co19  1  0.000000  0.798694  0.571046  1
  Co  Co20  1  0.500000  0.881100  0.707319  1
  Co  Co21  1  0.500000  0.118900  0.707319  1
  Co  Co22  1  0.000000  0.622408  0.303650  1
  Co  Co23  1  0.000000  0.377592  0.303650  1
  P  P24  1  0.500000  0.500000  0.882333  1
  P  P25  1  0.000000  0.000000  0.115340  1
  P  P26  1  0.500000  0.500000  0.364245  1
  P  P27  1  0.000000  0.000000  0.654889  1
  P  P28  1  0.500000  0.307491  0.618212  1
  P  P29  1  0.500000  0.692509  0.618212  1
  P  P30  1  0.000000  0.188441  0.387783  1
  P  P31  1  0.000000  0.811559  0.387783  1
  P  P32  1  0.500000  0.854082  0.887117  1
  P  P33  1  0.500000  0.145918  0.887117  1
  P  P34  1  0.000000  0.668403  0.095086  1
  P  P35  1  0.000000  0.331597  0.095086  1
