# generated using pymatgen
data_Er10In8Pt3Au
_symmetry_space_group_name_H-M   'P 1'
_cell_length_a   3.60153500
_cell_length_b   8.14672173
_cell_length_c   18.21653366
_cell_angle_alpha   90.04869083
_cell_angle_beta   90.00000000
_cell_angle_gamma   90.00000000
_symmetry_Int_Tables_number   1
_chemical_formula_structural   Er10In8Pt3Au
_chemical_formula_sum   'Er10 In8 Pt3 Au1'
_cell_volume   534.48571883
_cell_formula_units_Z   1
loop_
 _symmetry_equiv_pos_site_id
 _symmetry_equiv_pos_as_xyz
  1  'x, y, z'
loop_
 _atom_site_type_symbol
 _atom_site_label
 _atom_site_symmetry_multiplicity
 _atom_site_fract_x
 _atom_site_fract_y
 _atom_site_fract_z
 _atom_site_occupancy
  Er  Er0  1  0.000000  0.120389  0.419408  1
  Er  Er1  1  0.000000  0.883997  0.585670  1
  Er  Er2  1  0.000000  0.384247  0.914797  1
  Er  Er3  1  0.000000  0.616196  0.083939  1
  Er  Er4  1  0.000000  0.251243  0.217505  1
  Er  Er5  1  0.000000  0.756308  0.779687  1
  Er  Er6  1  0.000000  0.256879  0.720642  1
  Er  Er7  1  0.000000  0.731269  0.279133  1
  Er  Er8  1  0.000000  0.999681  0.999340  1
  Er  Er9  1  0.000000  0.499265  0.500343  1
  In  In10  1  0.500000  0.423012  0.352386  1
  In  In11  1  0.500000  0.576683  0.648587  1
  In  In12  1  0.500000  0.076772  0.851429  1
  In  In13  1  0.500000  0.921960  0.147475  1
  In  In14  1  0.500000  0.292047  0.065686  1
  In  In15  1  0.500000  0.708009  0.933255  1
  In  In16  1  0.500000  0.208422  0.566942  1
  In  In17  1  0.500000  0.791234  0.434495  1
  Pt  Pt18  1  0.500000  0.974886  0.696782  1
  Pt  Pt19  1  0.500000  0.475017  0.803462  1
  Pt  Pt20  1  0.500000  0.525787  0.196535  1
  Au  Au21  1  0.500000  0.026696  0.302502  1
