# generated using pymatgen
data_TbYbSmGa8Ag3
_symmetry_space_group_name_H-M   'P 1'
_cell_length_a   4.36759248
_cell_length_b   8.37029987
_cell_length_c   8.37029900
_cell_angle_alpha   70.52212252
_cell_angle_beta   74.87663448
_cell_angle_gamma   74.87662625
_symmetry_Int_Tables_number   1
_chemical_formula_structural   TbYbSmGa8Ag3
_chemical_formula_sum   'Tb1 Yb1 Sm1 Ga8 Ag3'
_cell_volume   273.36666624
_cell_formula_units_Z   1
loop_
 _symmetry_equiv_pos_site_id
 _symmetry_equiv_pos_as_xyz
  1  'x, y, z'
loop_
 _atom_site_type_symbol
 _atom_site_label
 _atom_site_symmetry_multiplicity
 _atom_site_fract_x
 _atom_site_fract_y
 _atom_site_fract_z
 _atom_site_occupancy
  Tb  Tb0  1  0.800574  0.199426  0.199426  1
  Yb  Yb1  1  0.196486  0.803514  0.803514  1
  Sm  Sm2  1  0.499772  0.500228  0.500228  1
  Ga  Ga3  1  0.358592  0.359186  0.923630  1
  Ga  Ga4  1  0.644213  0.637156  0.074420  1
  Ga  Ga5  1  0.358592  0.923630  0.359186  1
  Ga  Ga6  1  0.644213  0.074420  0.637156  1
  Ga  Ga7  1  0.160153  0.469371  0.210324  1
  Ga  Ga8  1  0.837111  0.531102  0.794676  1
  Ga  Ga9  1  0.160153  0.210324  0.469371  1
  Ga  Ga10  1  0.837111  0.794676  0.531102  1
  Ag  Ag11  1  0.500964  0.999036  0.999036  1
  Ag  Ag12  1  0.001035  0.802130  0.195801  1
  Ag  Ag13  1  0.001035  0.195801  0.802130  1
