# generated using pymatgen
data_Ti4Nb5WN12
_symmetry_space_group_name_H-M   'P 1'
_cell_length_a   5.19662700
_cell_length_b   5.17856778
_cell_length_c   10.19643500
_cell_angle_alpha   90.00000000
_cell_angle_beta   90.00000000
_cell_angle_gamma   120.11544535
_symmetry_Int_Tables_number   1
_chemical_formula_structural   Ti4Nb5WN12
_chemical_formula_sum   'Ti4 Nb5 W1 N12'
_cell_volume   237.35796191
_cell_formula_units_Z   1
loop_
 _symmetry_equiv_pos_site_id
 _symmetry_equiv_pos_as_xyz
  1  'x, y, z'
loop_
 _atom_site_type_symbol
 _atom_site_label
 _atom_site_symmetry_multiplicity
 _atom_site_fract_x
 _atom_site_fract_y
 _atom_site_fract_z
 _atom_site_occupancy
  Ti  Ti0  1  0.332368  0.665384  0.498427  1
  Ti  Ti1  1  0.666985  0.334616  0.001573  1
  Ti  Ti2  1  0.666985  0.334616  0.498427  1
  Ti  Ti3  1  0.332368  0.665384  0.001573  1
  Nb  Nb4  1  0.678832  0.678726  0.250000  1
  Nb  Nb5  1  0.000105  0.321274  0.250000  1
  Nb  Nb6  1  0.998961  0.676212  0.750000  1
  Nb  Nb7  1  0.322749  0.323788  0.750000  1
  Nb  Nb8  1  0.321539  0.000000  0.250000  1
  W  W9  1  0.677687  0.000000  0.750000  1
  N  N10  1  0.346282  0.346058  0.381004  1
  N  N11  1  0.652682  0.000000  0.381455  1
  N  N12  1  0.000224  0.653942  0.381004  1
  N  N13  1  0.993625  0.339582  0.878751  1
  N  N14  1  0.652682  0.000000  0.118545  1
  N  N15  1  0.654043  0.660418  0.878751  1
  N  N16  1  0.353855  0.000000  0.878221  1
  N  N17  1  0.654043  0.660418  0.621249  1
  N  N18  1  0.993625  0.339582  0.621249  1
  N  N19  1  0.000224  0.653942  0.118996  1
  N  N20  1  0.353855  0.000000  0.621779  1
  N  N21  1  0.346282  0.346058  0.118996  1
