# generated using pymatgen
data_Y4Co3Si10Pt3
_symmetry_space_group_name_H-M   'P 1'
_cell_length_a   8.02319611
_cell_length_b   8.03879112
_cell_length_c   5.81113284
_cell_angle_alpha   68.76322511
_cell_angle_beta   68.71381083
_cell_angle_gamma   89.44872650
_symmetry_Int_Tables_number   1
_chemical_formula_structural   Y4Co3Si10Pt3
_chemical_formula_sum   'Y4 Co3 Si10 Pt3'
_cell_volume   322.29354331
_cell_formula_units_Z   1
loop_
 _symmetry_equiv_pos_site_id
 _symmetry_equiv_pos_as_xyz
  1  'x, y, z'
loop_
 _atom_site_type_symbol
 _atom_site_label
 _atom_site_symmetry_multiplicity
 _atom_site_fract_x
 _atom_site_fract_y
 _atom_site_fract_z
 _atom_site_occupancy
  Y  Y0  1  0.864274  0.602385  0.766709  1
  Y  Y1  1  0.401336  0.138073  0.730063  1
  Y  Y2  1  0.133125  0.397748  0.234443  1
  Y  Y3  1  0.598101  0.864199  0.268782  1
  Co  Co4  1  0.524855  0.244590  0.115270  1
  Co  Co5  1  0.003151  0.002473  0.744645  1
  Co  Co6  1  0.003483  0.002068  0.249758  1
  Si  Si7  1  0.046211  0.244450  0.854627  1
  Si  Si8  1  0.757951  0.957540  0.642251  1
  Si  Si9  1  0.952783  0.758772  0.144084  1
  Si  Si10  1  0.258985  0.057073  0.341876  1
  Si  Si11  1  0.219308  0.784006  0.746032  1
  Si  Si12  1  0.767641  0.220688  0.242557  1
  Si  Si13  1  0.500557  0.483978  0.775480  1
  Si  Si14  1  0.501307  0.483864  0.239833  1
  Si  Si15  1  0.767765  0.220507  0.769708  1
  Si  Si16  1  0.218960  0.784092  0.250480  1
  Pt  Pt17  1  0.251271  0.524583  0.611639  1
  Pt  Pt18  1  0.476572  0.752884  0.885477  1
  Pt  Pt19  1  0.752365  0.476026  0.386288  1
