# generated using pymatgen
data_Nb6PtRh17
_symmetry_space_group_name_H-M   'P 1'
_cell_length_a   5.55924500
_cell_length_b   5.55125412
_cell_length_c   13.48846474
_cell_angle_alpha   89.90086912
_cell_angle_beta   90.00000000
_cell_angle_gamma   120.04762284
_symmetry_Int_Tables_number   1
_chemical_formula_structural   Nb6PtRh17
_chemical_formula_sum   'Nb6 Pt1 Rh17'
_cell_volume   360.32185016
_cell_formula_units_Z   1
loop_
 _symmetry_equiv_pos_site_id
 _symmetry_equiv_pos_as_xyz
  1  'x, y, z'
loop_
 _atom_site_type_symbol
 _atom_site_label
 _atom_site_symmetry_multiplicity
 _atom_site_fract_x
 _atom_site_fract_y
 _atom_site_fract_z
 _atom_site_occupancy
  Nb  Nb0  1  0.000190  0.000380  0.250725  1
  Nb  Nb1  1  0.998135  0.996269  0.747358  1
  Nb  Nb2  1  0.333165  0.666332  0.410921  1
  Nb  Nb3  1  0.666748  0.333496  0.588803  1
  Nb  Nb4  1  0.666517  0.333033  0.910841  1
  Nb  Nb5  1  0.334853  0.669707  0.091199  1
  Pt  Pt6  1  0.166161  0.332322  0.917750  1
  Rh  Rh7  1  0.504550  0.496796  0.250256  1
  Rh  Rh8  1  0.504896  0.009793  0.249946  1
  Rh  Rh9  1  0.992246  0.496796  0.250256  1
  Rh  Rh10  1  0.495946  0.503721  0.749380  1
  Rh  Rh11  1  0.495627  0.991254  0.749640  1
  Rh  Rh12  1  0.007775  0.503721  0.749380  1
  Rh  Rh13  1  0.669330  0.834608  0.917292  1
  Rh  Rh14  1  0.165278  0.834608  0.917292  1
  Rh  Rh15  1  0.834724  0.669448  0.083053  1
  Rh  Rh16  1  0.331054  0.164716  0.083568  1
  Rh  Rh17  1  0.833661  0.164716  0.083568  1
  Rh  Rh18  1  0.834510  0.669020  0.417161  1
  Rh  Rh19  1  0.331101  0.165137  0.417181  1
  Rh  Rh20  1  0.834035  0.165137  0.417181  1
  Rh  Rh21  1  0.165505  0.331010  0.582433  1
  Rh  Rh22  1  0.668654  0.833991  0.582408  1
  Rh  Rh23  1  0.165337  0.833991  0.582408  1
