# generated using pymatgen
data_NdCd2Ga2Cu
_symmetry_space_group_name_H-M   'P 1'
_cell_length_a   4.23880907
_cell_length_b   6.75444300
_cell_length_c   8.70916420
_cell_angle_alpha   90.00000000
_cell_angle_beta   104.08454514
_cell_angle_gamma   90.00000000
_symmetry_Int_Tables_number   1
_chemical_formula_structural   NdCd2Ga2Cu
_chemical_formula_sum   'Nd2 Cd4 Ga4 Cu2'
_cell_volume   241.85424286
_cell_formula_units_Z   2
loop_
 _symmetry_equiv_pos_site_id
 _symmetry_equiv_pos_as_xyz
  1  'x, y, z'
loop_
 _atom_site_type_symbol
 _atom_site_label
 _atom_site_symmetry_multiplicity
 _atom_site_fract_x
 _atom_site_fract_y
 _atom_site_fract_z
 _atom_site_occupancy
  Nd  Nd0  1  0.871935  0.750000  0.743869  1
  Nd  Nd1  1  0.128065  0.250000  0.256131  1
  Cd  Cd2  1  0.500000  0.500000  0.000000  1
  Cd  Cd3  1  0.500000  0.000000  0.000000  1
  Cd  Cd4  1  0.071133  0.750000  0.142267  1
  Cd  Cd5  1  0.928867  0.250000  0.857733  1
  Ga  Ga6  1  0.687312  0.552063  0.374624  1
  Ga  Ga7  1  0.312688  0.447937  0.625376  1
  Ga  Ga8  1  0.687312  0.947937  0.374624  1
  Ga  Ga9  1  0.312688  0.052063  0.625376  1
  Cu  Cu10  1  0.227666  0.750000  0.455332  1
  Cu  Cu11  1  0.772334  0.250000  0.544668  1
