# generated using pymatgen
data_Ac3TaIn2Ir3
_symmetry_space_group_name_H-M   'P 1'
_cell_length_a   7.74253714
_cell_length_b   7.51766404
_cell_length_c   4.47471100
_cell_angle_alpha   90.00000000
_cell_angle_beta   90.00000000
_cell_angle_gamma   119.04380219
_symmetry_Int_Tables_number   1
_chemical_formula_structural   Ac3TaIn2Ir3
_chemical_formula_sum   'Ac3 Ta1 In2 Ir3'
_cell_volume   227.70169120
_cell_formula_units_Z   1
loop_
 _symmetry_equiv_pos_site_id
 _symmetry_equiv_pos_as_xyz
  1  'x, y, z'
loop_
 _atom_site_type_symbol
 _atom_site_label
 _atom_site_symmetry_multiplicity
 _atom_site_fract_x
 _atom_site_fract_y
 _atom_site_fract_z
 _atom_site_occupancy
  Ac  Ac0  1  0.582085  0.581655  0.000000  1
  Ac  Ac1  1  0.417915  0.999570  0.000000  1
  Ac  Ac2  1  0.000000  0.408034  0.000000  1
  Ta  Ta3  1  0.000000  0.762728  0.500000  1
  In  In4  1  0.233898  0.234882  0.500000  1
  In  In5  1  0.766102  0.000984  0.500000  1
  Ir  Ir6  1  0.000000  0.949330  0.000000  1
  Ir  Ir7  1  0.708296  0.385556  0.500000  1
  Ir  Ir8  1  0.291704  0.677261  0.500000  1
