# generated using pymatgen
data_Sm3ErTh6(Sn3C)2
_symmetry_space_group_name_H-M   'P 1'
_cell_length_a   9.28422900
_cell_length_b   9.28422824
_cell_length_c   6.52973600
_cell_angle_alpha   90.00000000
_cell_angle_beta   90.00000000
_cell_angle_gamma   120.00000628
_symmetry_Int_Tables_number   1
_chemical_formula_structural   Sm3ErTh6(Sn3C)2
_chemical_formula_sum   'Sm3 Er1 Th6 Sn6 C2'
_cell_volume   487.43631233
_cell_formula_units_Z   1
loop_
 _symmetry_equiv_pos_site_id
 _symmetry_equiv_pos_as_xyz
  1  'x, y, z'
loop_
 _atom_site_type_symbol
 _atom_site_label
 _atom_site_symmetry_multiplicity
 _atom_site_fract_x
 _atom_site_fract_y
 _atom_site_fract_z
 _atom_site_occupancy
  Sm  Sm0  1  0.333333  0.666667  0.500000  1
  Sm  Sm1  1  0.333333  0.666667  0.000000  1
  Sm  Sm2  1  0.666667  0.333333  0.000000  1
  Er  Er3  1  0.666667  0.333333  0.500000  1
  Th  Th4  1  0.778429  0.778412  0.250264  1
  Th  Th5  1  0.221588  0.000017  0.250264  1
  Th  Th6  1  0.999983  0.221571  0.250264  1
  Th  Th7  1  0.221588  0.221571  0.749736  1
  Th  Th8  1  0.778429  0.000017  0.749736  1
  Th  Th9  1  0.999983  0.778412  0.749736  1
  Sn  Sn10  1  0.404621  0.402641  0.251528  1
  Sn  Sn11  1  0.597359  0.001980  0.251528  1
  Sn  Sn12  1  0.998020  0.595379  0.251528  1
  Sn  Sn13  1  0.597359  0.595379  0.748472  1
  Sn  Sn14  1  0.404621  0.001980  0.748472  1
  Sn  Sn15  1  0.998020  0.402641  0.748472  1
  C  C16  1  0.000000  0.000000  0.500000  1
  C  C17  1  0.000000  0.000000  0.000000  1
