# generated using pymatgen
data_Th3Pa(BiPt2)2
_symmetry_space_group_name_H-M   'P 1'
_cell_length_a   8.02776900
_cell_length_b   8.02776828
_cell_length_c   7.70671500
_cell_angle_alpha   90.00000000
_cell_angle_beta   90.00000000
_cell_angle_gamma   92.45702716
_symmetry_Int_Tables_number   1
_chemical_formula_structural   Th3Pa(BiPt2)2
_chemical_formula_sum   'Th6 Pa2 Bi4 Pt8'
_cell_volume   496.20318138
_cell_formula_units_Z   2
loop_
 _symmetry_equiv_pos_site_id
 _symmetry_equiv_pos_as_xyz
  1  'x, y, z'
loop_
 _atom_site_type_symbol
 _atom_site_label
 _atom_site_symmetry_multiplicity
 _atom_site_fract_x
 _atom_site_fract_y
 _atom_site_fract_z
 _atom_site_occupancy
  Th  Th0  1  0.665430  0.665430  0.000000  1
  Th  Th1  1  0.833410  0.166590  0.500000  1
  Th  Th2  1  0.334570  0.334570  0.000000  1
  Th  Th3  1  0.166590  0.833410  0.500000  1
  Th  Th4  1  0.824246  0.175754  0.000000  1
  Th  Th5  1  0.175754  0.824246  0.000000  1
  Pa  Pa6  1  0.325301  0.325301  0.500000  1
  Pa  Pa7  1  0.674699  0.674699  0.500000  1
  Bi  Bi8  1  0.500000  0.000000  0.749365  1
  Bi  Bi9  1  0.500000  0.000000  0.250635  1
  Bi  Bi10  1  0.000000  0.500000  0.749365  1
  Bi  Bi11  1  0.000000  0.500000  0.250635  1
  Pt  Pt12  1  0.870398  0.870398  0.754782  1
  Pt  Pt13  1  0.129602  0.129602  0.754782  1
  Pt  Pt14  1  0.623972  0.376028  0.729152  1
  Pt  Pt15  1  0.623972  0.376028  0.270848  1
  Pt  Pt16  1  0.376028  0.623972  0.270848  1
  Pt  Pt17  1  0.129602  0.129602  0.245218  1
  Pt  Pt18  1  0.870398  0.870398  0.245218  1
  Pt  Pt19  1  0.376028  0.623972  0.729152  1
