# generated using pymatgen
data_Tb7Dy3(IrPt2)2
_symmetry_space_group_name_H-M   'P 1'
_cell_length_a   11.09469804
_cell_length_b   11.09265600
_cell_length_c   6.35510503
_cell_angle_alpha   90.00008644
_cell_angle_beta   89.98971360
_cell_angle_gamma   90.00082636
_symmetry_Int_Tables_number   1
_chemical_formula_structural   Tb7Dy3(IrPt2)2
_chemical_formula_sum   'Tb14 Dy6 Ir4 Pt8'
_cell_volume   782.12065826
_cell_formula_units_Z   2
loop_
 _symmetry_equiv_pos_site_id
 _symmetry_equiv_pos_as_xyz
  1  'x, y, z'
loop_
 _atom_site_type_symbol
 _atom_site_label
 _atom_site_symmetry_multiplicity
 _atom_site_fract_x
 _atom_site_fract_y
 _atom_site_fract_z
 _atom_site_occupancy
  Tb  Tb0  1  0.294456  0.087818  0.375446  1
  Tb  Tb1  1  0.294454  0.912171  0.875456  1
  Tb  Tb2  1  0.705520  0.087774  0.875541  1
  Tb  Tb3  1  0.705518  0.912237  0.375531  1
  Tb  Tb4  1  0.587732  0.794534  0.875548  1
  Tb  Tb5  1  0.587743  0.205468  0.375556  1
  Tb  Tb6  1  0.412223  0.794502  0.375555  1
  Tb  Tb7  1  0.412234  0.205496  0.875546  1
  Tb  Tb8  1  0.205403  0.412284  0.624468  1
  Tb  Tb9  1  0.205405  0.587727  0.124460  1
  Tb  Tb10  1  0.794624  0.412155  0.124461  1
  Tb  Tb11  1  0.794628  0.587834  0.624469  1
  Tb  Tb12  1  0.912313  0.705461  0.124483  1
  Tb  Tb13  1  0.912302  0.294536  0.624475  1
  Dy  Dy14  1  0.087735  0.705283  0.624329  1
  Dy  Dy15  1  0.087724  0.294718  0.124338  1
  Dy  Dy16  1  0.000040  0.999921  0.500010  1
  Dy  Dy17  1  0.000041  0.000079  0.000016  1
  Dy  Dy18  1  0.499989  0.500022  0.000034  1
  Dy  Dy19  1  0.499989  0.499978  0.500039  1
  Ir  Ir20  1  0.499988  0.000009  0.121221  1
  Ir  Ir21  1  0.499988  0.999991  0.621221  1
  Ir  Ir22  1  0.000137  0.499961  0.878731  1
  Ir  Ir23  1  0.000137  0.500039  0.378731  1
  Pt  Pt24  1  0.846816  0.153363  0.249901  1
  Pt  Pt25  1  0.846814  0.846635  0.749901  1
  Pt  Pt26  1  0.153206  0.153453  0.750341  1
  Pt  Pt27  1  0.153204  0.846549  0.250341  1
  Pt  Pt28  1  0.653284  0.346719  0.749983  1
  Pt  Pt29  1  0.653286  0.653283  0.249983  1
  Pt  Pt30  1  0.346532  0.346668  0.249942  1
  Pt  Pt31  1  0.346534  0.653330  0.749943  1
