# generated using pymatgen
data_Re2Tc3OsRh2
_symmetry_space_group_name_H-M   'P 1'
_cell_length_a   5.53785701
_cell_length_b   5.54295694
_cell_length_c   4.36935200
_cell_angle_alpha   90.00000000
_cell_angle_beta   90.00000000
_cell_angle_gamma   119.96227138
_symmetry_Int_Tables_number   1
_chemical_formula_structural   Re2Tc3OsRh2
_chemical_formula_sum   'Re2 Tc3 Os1 Rh2'
_cell_volume   116.19726128
_cell_formula_units_Z   1
loop_
 _symmetry_equiv_pos_site_id
 _symmetry_equiv_pos_as_xyz
  1  'x, y, z'
loop_
 _atom_site_type_symbol
 _atom_site_label
 _atom_site_symmetry_multiplicity
 _atom_site_fract_x
 _atom_site_fract_y
 _atom_site_fract_z
 _atom_site_occupancy
  Re  Re0  1  0.836741  0.676097  0.750000  1
  Re  Re1  1  0.323348  0.164613  0.750000  1
  Tc  Tc2  1  0.678056  0.839296  0.250000  1
  Tc  Tc3  1  0.160987  0.837201  0.250000  1
  Tc  Tc4  1  0.839347  0.162338  0.750000  1
  Os  Os5  1  0.160698  0.323554  0.250000  1
  Rh  Rh6  1  0.333542  0.664756  0.750000  1
  Rh  Rh7  1  0.667281  0.332146  0.250000  1
