# generated using pymatgen
data_Dy20N19
_symmetry_space_group_name_H-M   'P 1'
_cell_length_a   9.19519868
_cell_length_b   9.19519784
_cell_length_c   9.19519873
_cell_angle_alpha   106.56789126
_cell_angle_beta   106.56787967
_cell_angle_gamma   115.44836476
_symmetry_Int_Tables_number   1
_chemical_formula_structural   Dy20N19
_chemical_formula_sum   'Dy20 N19'
_cell_volume   593.56071982
_cell_formula_units_Z   1
loop_
 _symmetry_equiv_pos_site_id
 _symmetry_equiv_pos_as_xyz
  1  'x, y, z'
loop_
 _atom_site_type_symbol
 _atom_site_label
 _atom_site_symmetry_multiplicity
 _atom_site_fract_x
 _atom_site_fract_y
 _atom_site_fract_z
 _atom_site_occupancy
  Dy  Dy0  1  0.047319  0.649976  0.200557  1
  Dy  Dy1  1  0.395023  0.708828  0.103852  1
  Dy  Dy2  1  0.100140  0.797988  0.898128  1
  Dy  Dy3  1  0.760475  0.760475  0.000000  1
  Dy  Dy4  1  0.797988  0.899860  0.697847  1
  Dy  Dy5  1  0.449419  0.846760  0.799443  1
  Dy  Dy6  1  0.500000  0.000000  0.500000  1
  Dy  Dy7  1  0.153240  0.952681  0.602657  1
  Dy  Dy8  1  0.202012  0.100140  0.302153  1
  Dy  Dy9  1  0.846760  0.047319  0.397343  1
  Dy  Dy10  1  0.899860  0.202012  0.101872  1
  Dy  Dy11  1  0.550581  0.153240  0.200557  1
  Dy  Dy12  1  0.604977  0.291172  0.896148  1
  Dy  Dy13  1  0.239525  0.239525  0.000000  1
  Dy  Dy14  1  0.291172  0.395023  0.686196  1
  Dy  Dy15  1  0.952681  0.350024  0.799443  1
  Dy  Dy16  1  0.000000  0.500000  0.500000  1
  Dy  Dy17  1  0.649976  0.449419  0.602657  1
  Dy  Dy18  1  0.708828  0.604977  0.313804  1
  Dy  Dy19  1  0.350024  0.550581  0.397343  1
  N  N20  1  0.897980  0.699136  0.597116  1
  N  N21  1  0.550696  0.650304  0.702641  1
  N  N22  1  0.600244  0.798944  0.399188  1
  N  N23  1  0.250000  0.750000  0.500000  1
  N  N24  1  0.300864  0.897980  0.198843  1
  N  N25  1  0.947663  0.848055  0.297359  1
  N  N26  1  0.000000  0.000000  0.000000  1
  N  N27  1  0.650304  0.947663  0.099608  1
  N  N28  1  0.699136  0.102020  0.801157  1
  N  N29  1  0.349696  0.052337  0.900392  1
  N  N30  1  0.052337  0.151945  0.702641  1
  N  N31  1  0.750000  0.250000  0.500000  1
  N  N32  1  0.399756  0.201056  0.600812  1
  N  N33  1  0.449304  0.349696  0.297359  1
  N  N34  1  0.102020  0.300864  0.402884  1
  N  N35  1  0.151945  0.449304  0.099608  1
  N  N36  1  0.201056  0.600244  0.801301  1
  N  N37  1  0.798944  0.399756  0.198699  1
  N  N38  1  0.848055  0.550696  0.900392  1
