# generated using pymatgen
data_Er3Pa(Al3Rh)6
_symmetry_space_group_name_H-M   'P 1'
_cell_length_a   7.56627220
_cell_length_b   7.56250479
_cell_length_c   9.41072600
_cell_angle_alpha   90.00000000
_cell_angle_beta   90.00000000
_cell_angle_gamma   119.51580263
_symmetry_Int_Tables_number   1
_chemical_formula_structural   Er3Pa(Al3Rh)6
_chemical_formula_sum   'Er3 Pa1 Al18 Rh6'
_cell_volume   468.59725188
_cell_formula_units_Z   1
loop_
 _symmetry_equiv_pos_site_id
 _symmetry_equiv_pos_as_xyz
  1  'x, y, z'
loop_
 _atom_site_type_symbol
 _atom_site_label
 _atom_site_symmetry_multiplicity
 _atom_site_fract_x
 _atom_site_fract_y
 _atom_site_fract_z
 _atom_site_occupancy
  Er  Er0  1  0.005453  0.328926  0.250000  1
  Er  Er1  1  0.672425  0.994872  0.750000  1
  Er  Er2  1  0.329027  0.004824  0.250000  1
  Pa  Pa3  1  0.995675  0.671173  0.750000  1
  Al  Al4  1  0.130573  0.129359  0.750000  1
  Al  Al5  1  0.873827  0.875034  0.250000  1
  Al  Al6  1  0.000293  0.332453  0.574795  1
  Al  Al7  1  0.999452  0.664558  0.420376  1
  Al  Al8  1  0.999452  0.664558  0.079624  1
  Al  Al9  1  0.338647  0.003208  0.924916  1
  Al  Al10  1  0.000293  0.332453  0.925205  1
  Al  Al11  1  0.664922  0.000635  0.076808  1
  Al  Al12  1  0.664922  0.000635  0.423192  1
  Al  Al13  1  0.338647  0.003208  0.575084  1
  Al  Al14  1  0.332294  0.332426  0.055295  1
  Al  Al15  1  0.663773  0.666329  0.949408  1
  Al  Al16  1  0.663773  0.666329  0.550592  1
  Al  Al17  1  0.332294  0.332426  0.444705  1
  Al  Al18  1  0.339034  0.548150  0.750000  1
  Al  Al19  1  0.659440  0.448503  0.250000  1
  Al  Al20  1  0.547989  0.341343  0.750000  1
  Al  Al21  1  0.449798  0.660600  0.250000  1
  Rh  Rh22  1  0.673762  0.329819  0.501535  1
  Rh  Rh23  1  0.326007  0.672168  0.501316  1
  Rh  Rh24  1  0.326007  0.672168  0.998684  1
  Rh  Rh25  1  0.673762  0.329819  0.998465  1
  Rh  Rh26  1  0.999228  0.997013  0.502596  1
  Rh  Rh27  1  0.999228  0.997013  0.997404  1
