# generated using pymatgen
data_TbHo3Pd2(PtO7)2
_symmetry_space_group_name_H-M   'P 1'
_cell_length_a   7.25281245
_cell_length_b   7.25969922
_cell_length_c   7.25786526
_cell_angle_alpha   59.99163630
_cell_angle_beta   59.92962416
_cell_angle_gamma   59.96858178
_symmetry_Int_Tables_number   1
_chemical_formula_structural   TbHo3Pd2(PtO7)2
_chemical_formula_sum   'Tb1 Ho3 Pd2 Pt2 O14'
_cell_volume   269.99574894
_cell_formula_units_Z   1
loop_
 _symmetry_equiv_pos_site_id
 _symmetry_equiv_pos_as_xyz
  1  'x, y, z'
loop_
 _atom_site_type_symbol
 _atom_site_label
 _atom_site_symmetry_multiplicity
 _atom_site_fract_x
 _atom_site_fract_y
 _atom_site_fract_z
 _atom_site_occupancy
  Tb  Tb0  1  0.625000  0.625000  0.125000  1
  Ho  Ho1  1  0.625000  0.625000  0.625000  1
  Ho  Ho2  1  0.625000  0.125000  0.625000  1
  Ho  Ho3  1  0.125000  0.625000  0.625000  1
  Pd  Pd4  1  0.125000  0.125000  0.125000  1
  Pd  Pd5  1  0.125000  0.625000  0.125000  1
  Pt  Pt6  1  0.625000  0.125000  0.125000  1
  Pt  Pt7  1  0.125000  0.125000  0.625000  1
  O  O8  1  0.033532  0.465245  0.467422  1
  O  O9  1  0.782901  0.785063  0.216832  1
  O  O10  1  0.782901  0.215203  0.216832  1
  O  O11  1  0.466867  0.033141  0.466850  1
  O  O12  1  0.750654  0.750917  0.747512  1
  O  O13  1  0.033532  0.033803  0.467422  1
  O  O14  1  0.034957  0.465708  0.033627  1
  O  O15  1  0.783133  0.216859  0.783150  1
  O  O16  1  0.215043  0.784292  0.216373  1
  O  O17  1  0.216468  0.216197  0.782578  1
  O  O18  1  0.499346  0.499083  0.502488  1
  O  O19  1  0.467099  0.034797  0.033168  1
  O  O20  1  0.467099  0.464937  0.033168  1
  O  O21  1  0.216468  0.784755  0.782578  1
