# generated using pymatgen
data_Li2La8TbZn5Rh8
_symmetry_space_group_name_H-M   'P 1'
_cell_length_a   4.11719100
_cell_length_b   7.51932498
_cell_length_c   16.87713992
_cell_angle_alpha   89.51591358
_cell_angle_beta   90.00000000
_cell_angle_gamma   90.00000000
_symmetry_Int_Tables_number   1
_chemical_formula_structural   Li2La8TbZn5Rh8
_chemical_formula_sum   'Li2 La8 Tb1 Zn5 Rh8'
_cell_volume   522.47223904
_cell_formula_units_Z   1
loop_
 _symmetry_equiv_pos_site_id
 _symmetry_equiv_pos_as_xyz
  1  'x, y, z'
loop_
 _atom_site_type_symbol
 _atom_site_label
 _atom_site_symmetry_multiplicity
 _atom_site_fract_x
 _atom_site_fract_y
 _atom_site_fract_z
 _atom_site_occupancy
  Li  Li0  1  0.250000  0.993146  0.448677  1
  Li  Li1  1  0.250000  0.493658  0.053222  1
  La  La2  1  0.750000  0.330156  0.444972  1
  La  La3  1  0.250000  0.045275  0.714669  1
  La  La4  1  0.250000  0.543839  0.779930  1
  La  La5  1  0.250000  0.670038  0.563676  1
  La  La6  1  0.750000  0.816377  0.049348  1
  La  La7  1  0.250000  0.167516  0.931369  1
  La  La8  1  0.750000  0.486385  0.226570  1
  La  La9  1  0.750000  0.944825  0.298830  1
  Tb  Tb10  1  0.250000  0.131638  0.152680  1
  Zn  Zn11  1  0.750000  0.868335  0.846490  1
  Zn  Zn12  1  0.750000  0.001280  0.559270  1
  Zn  Zn13  1  0.750000  0.369799  0.648442  1
  Zn  Zn14  1  0.750000  0.500292  0.933645  1
  Zn  Zn15  1  0.250000  0.627979  0.360220  1
  Rh  Rh16  1  0.750000  0.251425  0.811329  1
  Rh  Rh17  1  0.250000  0.267819  0.311439  1
  Rh  Rh18  1  0.250000  0.738018  0.929097  1
  Rh  Rh19  1  0.250000  0.243763  0.566479  1
  Rh  Rh20  1  0.250000  0.759466  0.188131  1
  Rh  Rh21  1  0.750000  0.752005  0.439452  1
  Rh  Rh22  1  0.750000  0.244818  0.056310  1
  Rh  Rh23  1  0.750000  0.752151  0.685752  1
