# generated using pymatgen
data_Li3Ta4NiPt8
_symmetry_space_group_name_H-M   'P 1'
_cell_length_a   4.52881100
_cell_length_b   4.77830500
_cell_length_c   11.10469500
_cell_angle_alpha   90.00000000
_cell_angle_beta   90.00000000
_cell_angle_gamma   90.00000000
_symmetry_Int_Tables_number   1
_chemical_formula_structural   Li3Ta4NiPt8
_chemical_formula_sum   'Li3 Ta4 Ni1 Pt8'
_cell_volume   240.30604671
_cell_formula_units_Z   1
loop_
 _symmetry_equiv_pos_site_id
 _symmetry_equiv_pos_as_xyz
  1  'x, y, z'
loop_
 _atom_site_type_symbol
 _atom_site_label
 _atom_site_symmetry_multiplicity
 _atom_site_fract_x
 _atom_site_fract_y
 _atom_site_fract_z
 _atom_site_occupancy
  Li  Li0  1  0.000000  0.296739  0.249583  1
  Li  Li1  1  0.000000  0.296739  0.750417  1
  Li  Li2  1  0.500000  0.702384  0.000000  1
  Ta  Ta3  1  0.500000  0.669613  0.257519  1
  Ta  Ta4  1  0.500000  0.669613  0.742481  1
  Ta  Ta5  1  0.000000  0.332227  0.000000  1
  Ta  Ta6  1  0.000000  0.351334  0.500000  1
  Ni  Ni7  1  0.500000  0.670050  0.500000  1
  Pt  Pt8  1  0.500000  0.184351  0.374967  1
  Pt  Pt9  1  0.500000  0.188434  0.874729  1
  Pt  Pt10  1  0.500000  0.188434  0.125271  1
  Pt  Pt11  1  0.500000  0.184351  0.625033  1
  Pt  Pt12  1  0.000000  0.824204  0.375080  1
  Pt  Pt13  1  0.000000  0.808661  0.875295  1
  Pt  Pt14  1  0.000000  0.808661  0.124705  1
  Pt  Pt15  1  0.000000  0.824204  0.624920  1
