# generated using pymatgen
data_TbNdTh2(Zn5Sn)2
_symmetry_space_group_name_H-M   'P 1'
_cell_length_a   8.53008857
_cell_length_b   8.53008792
_cell_length_c   9.07147050
_cell_angle_alpha   90.57976322
_cell_angle_beta   89.42023763
_cell_angle_gamma   149.62534505
_symmetry_Int_Tables_number   1
_chemical_formula_structural   TbNdTh2(Zn5Sn)2
_chemical_formula_sum   'Tb1 Nd1 Th2 Zn10 Sn2'
_cell_volume   333.74344946
_cell_formula_units_Z   1
loop_
 _symmetry_equiv_pos_site_id
 _symmetry_equiv_pos_as_xyz
  1  'x, y, z'
loop_
 _atom_site_type_symbol
 _atom_site_label
 _atom_site_symmetry_multiplicity
 _atom_site_fract_x
 _atom_site_fract_y
 _atom_site_fract_z
 _atom_site_occupancy
  Tb  Tb0  1  0.000000  0.000000  0.500000  1
  Nd  Nd1  1  0.000000  0.000000  0.000000  1
  Th  Th2  1  0.203900  0.796100  0.250743  1
  Th  Th3  1  0.796100  0.203900  0.749257  1
  Zn  Zn4  1  0.816068  0.183932  0.391395  1
  Zn  Zn5  1  0.183932  0.816068  0.608605  1
  Zn  Zn6  1  0.814277  0.185723  0.108008  1
  Zn  Zn7  1  0.185723  0.814277  0.891992  1
  Zn  Zn8  1  0.656237  0.343763  0.483666  1
  Zn  Zn9  1  0.343763  0.656237  0.516334  1
  Zn  Zn10  1  0.656840  0.343160  0.018176  1
  Zn  Zn11  1  0.343160  0.656840  0.981824  1
  Zn  Zn12  1  0.393927  0.606073  0.248694  1
  Zn  Zn13  1  0.606073  0.393927  0.751306  1
  Sn  Sn14  1  0.553475  0.446525  0.253360  1
  Sn  Sn15  1  0.446525  0.553475  0.746640  1
