# generated using pymatgen
data_SbIrI18
_symmetry_space_group_name_H-M   'P 1'
_cell_length_a   10.18782055
_cell_length_b   10.21417250
_cell_length_c   10.20641621
_cell_angle_alpha   87.90326343
_cell_angle_beta   87.88470067
_cell_angle_gamma   87.87455654
_symmetry_Int_Tables_number   1
_chemical_formula_structural   SbIrI18
_chemical_formula_sum   'Sb1 Ir1 I18'
_cell_volume   1059.96759139
_cell_formula_units_Z   1
loop_
 _symmetry_equiv_pos_site_id
 _symmetry_equiv_pos_as_xyz
  1  'x, y, z'
loop_
 _atom_site_type_symbol
 _atom_site_label
 _atom_site_symmetry_multiplicity
 _atom_site_fract_x
 _atom_site_fract_y
 _atom_site_fract_z
 _atom_site_occupancy
  Sb  Sb0  1  0.000000  0.000000  0.000000  1
  Ir  Ir1  1  0.500000  0.500000  0.500000  1
  I  I2  1  0.764365  0.483407  0.495509  1
  I  I3  1  0.494394  0.763691  0.482838  1
  I  I4  1  0.482459  0.494869  0.763874  1
  I  I5  1  0.235635  0.516593  0.504491  1
  I  I6  1  0.505606  0.236309  0.517162  1
  I  I7  1  0.517541  0.505131  0.236126  1
  I  I8  1  0.877658  0.387277  0.742434  1
  I  I9  1  0.741584  0.877100  0.387387  1
  I  I10  1  0.387367  0.741725  0.877288  1
  I  I11  1  0.122342  0.612723  0.257566  1
  I  I12  1  0.258416  0.122900  0.612613  1
  I  I13  1  0.612633  0.258275  0.122712  1
  I  I14  1  0.022816  0.976872  0.700023  1
  I  I15  1  0.699584  0.022838  0.976893  1
  I  I16  1  0.976450  0.700342  0.022044  1
  I  I17  1  0.977184  0.023128  0.299977  1
  I  I18  1  0.300416  0.977162  0.023107  1
  I  I19  1  0.023550  0.299658  0.977956  1
