# generated using pymatgen
data_TbGd5Ta2O14
_symmetry_space_group_name_H-M   'P 1'
_cell_length_a   6.57898120
_cell_length_b   6.55711290
_cell_length_c   7.56240882
_cell_angle_alpha   89.99030757
_cell_angle_beta   90.05259708
_cell_angle_gamma   108.72549929
_symmetry_Int_Tables_number   1
_chemical_formula_structural   TbGd5Ta2O14
_chemical_formula_sum   'Tb1 Gd5 Ta2 O14'
_cell_volume   308.96707655
_cell_formula_units_Z   1
loop_
 _symmetry_equiv_pos_site_id
 _symmetry_equiv_pos_as_xyz
  1  'x, y, z'
loop_
 _atom_site_type_symbol
 _atom_site_label
 _atom_site_symmetry_multiplicity
 _atom_site_fract_x
 _atom_site_fract_y
 _atom_site_fract_z
 _atom_site_occupancy
  Tb  Tb0  1  0.000552  0.463475  0.741269  1
  Gd  Gd1  1  0.466326  0.000819  0.258325  1
  Gd  Gd2  1  0.999174  0.534001  0.241692  1
  Gd  Gd3  1  0.462798  0.464760  0.999909  1
  Gd  Gd4  1  0.536046  0.534310  0.501571  1
  Gd  Gd5  1  0.533839  0.999578  0.758204  1
  Ta  Ta6  1  0.001788  0.001811  0.500692  1
  Ta  Ta7  1  0.998015  0.997507  0.999588  1
  O  O8  1  0.936328  0.066935  0.749995  1
  O  O9  1  0.641524  0.361118  0.751180  1
  O  O10  1  0.305655  0.052056  0.541831  1
  O  O11  1  0.957902  0.697228  0.953284  1
  O  O12  1  0.629459  0.372176  0.249616  1
  O  O13  1  0.920864  0.675111  0.527014  1
  O  O14  1  0.325776  0.082683  0.977000  1
  O  O15  1  0.080298  0.326237  0.022296  1
  O  O16  1  0.674469  0.917238  0.476382  1
  O  O17  1  0.368402  0.626426  0.748892  1
  O  O18  1  0.694422  0.947165  0.041824  1
  O  O19  1  0.045233  0.305152  0.458613  1
  O  O20  1  0.359673  0.638402  0.250735  1
  O  O21  1  0.061457  0.935812  0.250088  1
