# generated using pymatgen
data_La2NdTh(SbTe)4
_symmetry_space_group_name_H-M   'P 1'
_cell_length_a   4.41769400
_cell_length_b   4.41681294
_cell_length_c   19.03623731
_cell_angle_alpha   90.15305069
_cell_angle_beta   90.00000000
_cell_angle_gamma   90.00000000
_symmetry_Int_Tables_number   1
_chemical_formula_structural   La2NdTh(SbTe)4
_chemical_formula_sum   'La2 Nd1 Th1 Sb4 Te4'
_cell_volume   371.43617453
_cell_formula_units_Z   1
loop_
 _symmetry_equiv_pos_site_id
 _symmetry_equiv_pos_as_xyz
  1  'x, y, z'
loop_
 _atom_site_type_symbol
 _atom_site_label
 _atom_site_symmetry_multiplicity
 _atom_site_fract_x
 _atom_site_fract_y
 _atom_site_fract_z
 _atom_site_occupancy
  La  La0  1  0.250000  0.740401  0.638154  1
  La  La1  1  0.750000  0.243007  0.863254  1
  Nd  Nd2  1  0.750000  0.259707  0.363547  1
  Th  Th3  1  0.250000  0.755959  0.135012  1
  Sb  Sb4  1  0.250000  0.251661  0.003806  1
  Sb  Sb5  1  0.750000  0.761129  0.497442  1
  Sb  Sb6  1  0.250000  0.238791  0.497968  1
  Sb  Sb7  1  0.750000  0.750689  0.003814  1
  Te  Te8  1  0.750000  0.257177  0.184886  1
  Te  Te9  1  0.250000  0.759162  0.308885  1
  Te  Te10  1  0.750000  0.240663  0.686268  1
  Te  Te11  1  0.250000  0.741655  0.816962  1
