# generated using pymatgen
data_Ba4B8Se3S9O52
_symmetry_space_group_name_H-M   'P 1'
_cell_length_a   4.55776364
_cell_length_b   12.89212529
_cell_length_c   17.61980190
_cell_angle_alpha   89.81375434
_cell_angle_beta   90.00619714
_cell_angle_gamma   89.94049425
_symmetry_Int_Tables_number   1
_chemical_formula_structural   Ba4B8Se3S9O52
_chemical_formula_sum   'Ba4 B8 Se3 S9 O52'
_cell_volume   1035.32048362
_cell_formula_units_Z   1
loop_
 _symmetry_equiv_pos_site_id
 _symmetry_equiv_pos_as_xyz
  1  'x, y, z'
loop_
 _atom_site_type_symbol
 _atom_site_label
 _atom_site_symmetry_multiplicity
 _atom_site_fract_x
 _atom_site_fract_y
 _atom_site_fract_z
 _atom_site_occupancy
  Ba  Ba0  1  0.975697  0.251678  0.784836  1
  Ba  Ba1  1  0.524744  0.243376  0.284185  1
  Ba  Ba2  1  0.023300  0.756918  0.215503  1
  Ba  Ba3  1  0.474036  0.744173  0.717584  1
  B  B4  1  0.556676  0.150853  0.079859  1
  B  B5  1  0.944242  0.349119  0.580026  1
  B  B6  1  0.441883  0.652465  0.919497  1
  B  B7  1  0.055264  0.848988  0.420723  1
  B  B8  1  0.440948  0.848249  0.918252  1
  B  B9  1  0.066793  0.654249  0.421995  1
  B  B10  1  0.566335  0.345775  0.078310  1
  B  B11  1  0.932885  0.154215  0.579146  1
  Se  Se12  1  0.441317  0.063789  0.651111  1
  Se  Se13  1  0.057552  0.435282  0.150025  1
  Se  Se14  1  0.558547  0.565155  0.349739  1
  S  S15  1  0.946083  0.932733  0.850437  1
  S  S16  1  0.550891  0.934621  0.353359  1
  S  S17  1  0.946943  0.565754  0.852553  1
  S  S18  1  0.448321  0.434109  0.647349  1
  S  S19  1  0.052602  0.065471  0.147094  1
  S  S20  1  0.367557  0.247903  0.953278  1
  S  S21  1  0.131936  0.251654  0.453695  1
  S  S22  1  0.626738  0.751166  0.045007  1
  S  S23  1  0.867466  0.751471  0.547292  1
  O  O24  1  0.970608  0.251317  0.616561  1
  O  O25  1  0.529537  0.248475  0.115975  1
  O  O26  1  0.028981  0.751552  0.384372  1
  O  O27  1  0.466872  0.749898  0.882409  1
  O  O28  1  0.487748  0.153495  0.996916  1
  O  O29  1  0.012192  0.346247  0.496956  1
  O  O30  1  0.510272  0.655457  0.002259  1
  O  O31  1  0.987230  0.846166  0.503655  1
  O  O32  1  0.510342  0.845983  0.001068  1
  O  O33  1  0.975024  0.655539  0.503404  1
  O  O34  1  0.472565  0.344086  0.996937  1
  O  O35  1  0.025240  0.155600  0.497910  1
  O  O36  1  0.479863  0.139799  0.725505  1
  O  O37  1  0.018781  0.358261  0.224139  1
  O  O38  1  0.519210  0.642610  0.275816  1
  O  O39  1  0.975437  0.861231  0.786680  1
  O  O40  1  0.522772  0.865701  0.288057  1
  O  O41  1  0.975935  0.635017  0.787058  1
  O  O42  1  0.476406  0.363969  0.712308  1
  O  O43  1  0.023855  0.134532  0.212295  1
  O  O44  1  0.499811  0.249724  0.877944  1
  O  O45  1  0.999794  0.249668  0.378383  1
  O  O46  1  0.497667  0.752241  0.120717  1
  O  O47  1  0.999224  0.749641  0.622689  1
  O  O48  1  0.052187  0.245086  0.949110  1
  O  O49  1  0.447193  0.253754  0.449867  1
  O  O50  1  0.942297  0.750948  0.047683  1
  O  O51  1  0.552224  0.753661  0.550902  1
  O  O52  1  0.518266  0.942330  0.665000  1
  O  O53  1  0.980857  0.556603  0.164281  1
  O  O54  1  0.482548  0.444053  0.334667  1
  O  O55  1  0.008614  0.039895  0.833629  1
  O  O56  1  0.486379  0.042249  0.338128  1
  O  O57  1  0.009342  0.458059  0.837633  1
  O  O58  1  0.511301  0.541548  0.662915  1
  O  O59  1  0.988517  0.957905  0.162336  1
  O  O60  1  0.080896  0.066840  0.620706  1
  O  O61  1  0.417814  0.432774  0.119290  1
  O  O62  1  0.918413  0.567329  0.380691  1
  O  O63  1  0.628660  0.930010  0.881008  1
  O  O64  1  0.868567  0.931531  0.383557  1
  O  O65  1  0.629359  0.569795  0.882763  1
  O  O66  1  0.131131  0.431255  0.616737  1
  O  O67  1  0.370509  0.068503  0.117047  1
  O  O68  1  0.619354  0.115855  0.573494  1
  O  O69  1  0.879039  0.384255  0.072170  1
  O  O70  1  0.379875  0.615571  0.427742  1
  O  O71  1  0.132165  0.893936  0.917810  1
  O  O72  1  0.365924  0.894073  0.419999  1
  O  O73  1  0.132629  0.606307  0.918978  1
  O  O74  1  0.634241  0.394493  0.580582  1
  O  O75  1  0.867577  0.106008  0.080404  1
