# generated using pymatgen
data_Ba4Ti4ZnCoO14
_symmetry_space_group_name_H-M   'P 1'
_cell_length_a   5.65615800
_cell_length_b   8.62684400
_cell_length_c   8.62690700
_cell_angle_alpha   89.99992694
_cell_angle_beta   89.99977084
_cell_angle_gamma   89.99995384
_symmetry_Int_Tables_number   1
_chemical_formula_structural   Ba4Ti4ZnCoO14
_chemical_formula_sum   'Ba4 Ti4 Zn1 Co1 O14'
_cell_volume   420.94813875
_cell_formula_units_Z   1
loop_
 _symmetry_equiv_pos_site_id
 _symmetry_equiv_pos_as_xyz
  1  'x, y, z'
loop_
 _atom_site_type_symbol
 _atom_site_label
 _atom_site_symmetry_multiplicity
 _atom_site_fract_x
 _atom_site_fract_y
 _atom_site_fract_z
 _atom_site_occupancy
  Ba  Ba0  1  0.508335  0.835669  0.335642  1
  Ba  Ba1  1  0.491662  0.664356  0.835670  1
  Ba  Ba2  1  0.508340  0.164328  0.664357  1
  Ba  Ba3  1  0.491664  0.335644  0.164330  1
  Ti  Ti4  1  0.958207  0.357575  0.857571  1
  Ti  Ti5  1  0.041792  0.142431  0.357578  1
  Ti  Ti6  1  0.958205  0.642425  0.142428  1
  Ti  Ti7  1  0.041793  0.857569  0.642424  1
  Zn  Zn8  1  0.000004  0.000001  0.000000  1
  Co  Co9  1  0.999997  0.500000  0.499999  1
  O  O10  1  0.170297  0.000000  0.500001  1
  O  O11  1  0.829703  0.500000  0.000000  1
  O  O12  1  0.276158  0.360007  0.859889  1
  O  O13  1  0.723843  0.140112  0.360011  1
  O  O14  1  0.276157  0.639992  0.140109  1
  O  O15  1  0.723843  0.859887  0.639992  1
  O  O16  1  0.182458  0.325004  0.411346  1
  O  O17  1  0.817007  0.175106  0.911243  1
  O  O18  1  0.182459  0.674998  0.588651  1
  O  O19  1  0.817008  0.824895  0.088759  1
  O  O20  1  0.817540  0.588653  0.325000  1
  O  O21  1  0.182992  0.911240  0.824892  1
  O  O22  1  0.817542  0.411349  0.675000  1
  O  O23  1  0.182991  0.088757  0.175109  1
