# generated using pymatgen
data_Li2In4PdRh
_symmetry_space_group_name_H-M   'P 1'
_cell_length_a   6.65368900
_cell_length_b   4.63490300
_cell_length_c   9.23060800
_cell_angle_alpha   90.00000000
_cell_angle_beta   90.00010753
_cell_angle_gamma   90.00000000
_symmetry_Int_Tables_number   1
_chemical_formula_structural   Li2In4PdRh
_chemical_formula_sum   'Li4 In8 Pd2 Rh2'
_cell_volume   284.66459491
_cell_formula_units_Z   2
loop_
 _symmetry_equiv_pos_site_id
 _symmetry_equiv_pos_as_xyz
  1  'x, y, z'
loop_
 _atom_site_type_symbol
 _atom_site_label
 _atom_site_symmetry_multiplicity
 _atom_site_fract_x
 _atom_site_fract_y
 _atom_site_fract_z
 _atom_site_occupancy
  Li  Li0  1  0.250219  0.250000  0.121830  1
  Li  Li1  1  0.750219  0.750001  0.378184  1
  Li  Li2  1  0.249779  0.250000  0.624681  1
  Li  Li3  1  0.749778  0.750001  0.875326  1
  In  In4  1  0.000553  0.750001  0.124167  1
  In  In5  1  0.499503  0.750001  0.124343  1
  In  In6  1  0.999525  0.250000  0.375646  1
  In  In7  1  0.500562  0.250000  0.375825  1
  In  In8  1  0.502272  0.750001  0.627689  1
  In  In9  1  0.997672  0.750001  0.627804  1
  In  In10  1  0.497671  0.250000  0.872202  1
  In  In11  1  0.002278  0.250000  0.872320  1
  Pd  Pd12  1  0.749861  0.250000  0.125784  1
  Pd  Pd13  1  0.249866  0.750001  0.374221  1
  Rh  Rh14  1  0.750121  0.250000  0.621144  1
  Rh  Rh15  1  0.250120  0.750001  0.878834  1
