# generated using pymatgen
data_DyHo(SbO3)6
_symmetry_space_group_name_H-M   'P 1'
_cell_length_a   7.49339000
_cell_length_b   5.36922277
_cell_length_c   8.18293126
_cell_angle_alpha   86.09439842
_cell_angle_beta   90.00000000
_cell_angle_gamma   90.00000000
_symmetry_Int_Tables_number   1
_chemical_formula_structural   DyHo(SbO3)6
_chemical_formula_sum   'Dy1 Ho1 Sb6 O18'
_cell_volume   328.46484485
_cell_formula_units_Z   1
loop_
 _symmetry_equiv_pos_site_id
 _symmetry_equiv_pos_as_xyz
  1  'x, y, z'
loop_
 _atom_site_type_symbol
 _atom_site_label
 _atom_site_symmetry_multiplicity
 _atom_site_fract_x
 _atom_site_fract_y
 _atom_site_fract_z
 _atom_site_occupancy
  Dy  Dy0  1  0.250000  0.965729  0.434492  1
  Ho  Ho1  1  0.750000  0.034878  0.565941  1
  Sb  Sb2  1  0.999956  0.000110  0.999899  1
  Sb  Sb3  1  0.500044  0.000110  0.999899  1
  Sb  Sb4  1  0.495239  0.530096  0.697590  1
  Sb  Sb5  1  0.004761  0.530096  0.697590  1
  Sb  Sb6  1  0.994755  0.469981  0.302474  1
  Sb  Sb7  1  0.505245  0.469981  0.302474  1
  O  O8  1  0.250000  0.880486  0.983848  1
  O  O9  1  0.936954  0.857597  0.778114  1
  O  O10  1  0.563046  0.857597  0.778114  1
  O  O11  1  0.958575  0.739000  0.472618  1
  O  O12  1  0.541425  0.739000  0.472618  1
  O  O13  1  0.250000  0.665314  0.654833  1
  O  O14  1  0.931758  0.675139  0.111969  1
  O  O15  1  0.568242  0.675139  0.111969  1
  O  O16  1  0.250000  0.594684  0.309890  1
  O  O17  1  0.750000  0.403684  0.690161  1
  O  O18  1  0.068177  0.324996  0.887893  1
  O  O19  1  0.431823  0.324996  0.887893  1
  O  O20  1  0.750000  0.333454  0.345698  1
  O  O21  1  0.040278  0.261260  0.527590  1
  O  O22  1  0.459722  0.261260  0.527590  1
  O  O23  1  0.062523  0.142943  0.221367  1
  O  O24  1  0.437477  0.142943  0.221367  1
  O  O25  1  0.750000  0.119529  0.016111  1
