# generated using pymatgen
data_Th2Ta3SbO14
_symmetry_space_group_name_H-M   'P 1'
_cell_length_a   3.92302300
_cell_length_b   8.04770811
_cell_length_c   8.43573379
_cell_angle_alpha   95.36254996
_cell_angle_beta   90.00000000
_cell_angle_gamma   104.10710951
_symmetry_Int_Tables_number   1
_chemical_formula_structural   Th2Ta3SbO14
_chemical_formula_sum   'Th2 Ta3 Sb1 O14'
_cell_volume   257.09343254
_cell_formula_units_Z   1
loop_
 _symmetry_equiv_pos_site_id
 _symmetry_equiv_pos_as_xyz
  1  'x, y, z'
loop_
 _atom_site_type_symbol
 _atom_site_label
 _atom_site_symmetry_multiplicity
 _atom_site_fract_x
 _atom_site_fract_y
 _atom_site_fract_z
 _atom_site_occupancy
  Th  Th0  1  0.313039  0.626078  0.332289  1
  Th  Th1  1  0.687749  0.375498  0.666468  1
  Ta  Ta2  1  0.071187  0.142373  0.369849  1
  Ta  Ta3  1  0.926922  0.853844  0.631943  1
  Ta  Ta4  1  0.109548  0.219097  0.981487  1
  Sb  Sb5  1  0.894969  0.789939  0.016711  1
  O  O6  1  0.390020  0.780039  0.067851  1
  O  O7  1  0.013373  0.026746  0.143320  1
  O  O8  1  0.805221  0.610443  0.167275  1
  O  O9  1  0.167637  0.335275  0.192591  1
  O  O10  1  0.585504  0.171008  0.390404  1
  O  O11  1  0.943730  0.887461  0.392400  1
  O  O12  1  0.194683  0.389367  0.497711  1
  O  O13  1  0.804344  0.608688  0.501521  1
  O  O14  1  0.055716  0.111431  0.610484  1
  O  O15  1  0.414945  0.829891  0.608476  1
  O  O16  1  0.831166  0.662333  0.801016  1
  O  O17  1  0.195834  0.391669  0.831418  1
  O  O18  1  0.986749  0.973499  0.859941  1
  O  O19  1  0.607660  0.215320  0.936847  1
