# generated using pymatgen
data_Er4Ga18(NiOs)3
_symmetry_space_group_name_H-M   'P 1'
_cell_length_a   7.51950159
_cell_length_b   7.51950070
_cell_length_c   9.44806536
_cell_angle_alpha   89.83016074
_cell_angle_beta   89.83016200
_cell_angle_gamma   120.80247988
_symmetry_Int_Tables_number   1
_chemical_formula_structural   Er4Ga18(NiOs)3
_chemical_formula_sum   'Er4 Ga18 Ni3 Os3'
_cell_volume   458.85430452
_cell_formula_units_Z   1
loop_
 _symmetry_equiv_pos_site_id
 _symmetry_equiv_pos_as_xyz
  1  'x, y, z'
loop_
 _atom_site_type_symbol
 _atom_site_label
 _atom_site_symmetry_multiplicity
 _atom_site_fract_x
 _atom_site_fract_y
 _atom_site_fract_z
 _atom_site_occupancy
  Er  Er0  1  0.997771  0.658053  0.251483  1
  Er  Er1  1  0.009160  0.348626  0.747053  1
  Er  Er2  1  0.651374  0.990840  0.252947  1
  Er  Er3  1  0.341947  0.002229  0.748517  1
  Ga  Ga4  1  0.107103  0.106747  0.248796  1
  Ga  Ga5  1  0.893253  0.892897  0.751204  1
  Ga  Ga6  1  0.990524  0.324853  0.075247  1
  Ga  Ga7  1  0.995745  0.670201  0.924473  1
  Ga  Ga8  1  0.000117  0.674299  0.576291  1
  Ga  Ga9  1  0.325701  0.999883  0.423709  1
  Ga  Ga10  1  0.998603  0.324161  0.422248  1
  Ga  Ga11  1  0.675839  0.001397  0.577752  1
  Ga  Ga12  1  0.675147  0.009476  0.924753  1
  Ga  Ga13  1  0.329799  0.004255  0.075527  1
  Ga  Ga14  1  0.333132  0.331258  0.562726  1
  Ga  Ga15  1  0.668742  0.666868  0.437274  1
  Ga  Ga16  1  0.669132  0.669105  0.063882  1
  Ga  Ga17  1  0.330895  0.330868  0.936118  1
  Ga  Ga18  1  0.333855  0.536877  0.249264  1
  Ga  Ga19  1  0.667163  0.455651  0.753401  1
  Ga  Ga20  1  0.544349  0.332837  0.246599  1
  Ga  Ga21  1  0.463123  0.666145  0.750736  1
  Ni  Ni22  1  0.669381  0.330619  0.000000  1
  Ni  Ni23  1  0.000855  0.999145  0.000000  1
  Ni  Ni24  1  0.000193  0.999807  0.500000  1
  Os  Os25  1  0.326427  0.673573  0.000000  1
  Os  Os26  1  0.327547  0.672453  0.500000  1
  Os  Os27  1  0.673119  0.326881  0.500000  1
