# generated using pymatgen
data_Li2LaPr(AsO3)8
_symmetry_space_group_name_H-M   'P 1'
_cell_length_a   9.51743213
_cell_length_b   9.51743203
_cell_length_c   10.42574355
_cell_angle_alpha   57.02581140
_cell_angle_beta   57.02581855
_cell_angle_gamma   46.05082074
_symmetry_Int_Tables_number   1
_chemical_formula_structural   Li2LaPr(AsO3)8
_chemical_formula_sum   'Li2 La1 Pr1 As8 O24'
_cell_volume   548.27830762
_cell_formula_units_Z   1
loop_
 _symmetry_equiv_pos_site_id
 _symmetry_equiv_pos_as_xyz
  1  'x, y, z'
loop_
 _atom_site_type_symbol
 _atom_site_label
 _atom_site_symmetry_multiplicity
 _atom_site_fract_x
 _atom_site_fract_y
 _atom_site_fract_z
 _atom_site_occupancy
  Li  Li0  1  0.206681  0.793319  0.250000  1
  Li  Li1  1  0.793147  0.206853  0.750000  1
  La  La2  1  0.295177  0.704823  0.750000  1
  Pr  Pr3  1  0.705622  0.294378  0.250000  1
  As  As4  1  0.208289  0.501108  0.592843  1
  As  As5  1  0.924879  0.807068  0.157584  1
  As  As6  1  0.074025  0.193223  0.845089  1
  As  As7  1  0.792438  0.497502  0.406177  1
  As  As8  1  0.192932  0.075121  0.342416  1
  As  As9  1  0.502498  0.207562  0.093823  1
  As  As10  1  0.498892  0.791711  0.907157  1
  As  As11  1  0.806777  0.925975  0.654911  1
  O  O12  1  0.936212  0.954074  0.692775  1
  O  O13  1  0.684482  0.831068  0.851184  1
  O  O14  1  0.478506  0.650202  0.097077  1
  O  O15  1  0.168932  0.315518  0.648816  1
  O  O16  1  0.523562  0.348286  0.903755  1
  O  O17  1  0.060705  0.049504  0.305266  1
  O  O18  1  0.725629  0.960111  0.070406  1
  O  O19  1  0.045926  0.063788  0.807225  1
  O  O20  1  0.746859  0.508989  0.266004  1
  O  O21  1  0.491011  0.253141  0.233996  1
  O  O22  1  0.126883  0.647788  0.045336  1
  O  O23  1  0.274437  0.038558  0.931679  1
  O  O24  1  0.352212  0.873117  0.454664  1
  O  O25  1  0.961442  0.725563  0.568321  1
  O  O26  1  0.510331  0.746848  0.766477  1
  O  O27  1  0.315599  0.171033  0.147393  1
  O  O28  1  0.950496  0.939295  0.194734  1
  O  O29  1  0.039889  0.274371  0.429594  1
  O  O30  1  0.349798  0.521494  0.402923  1
  O  O31  1  0.648663  0.126766  0.541376  1
  O  O32  1  0.253152  0.489669  0.733523  1
  O  O33  1  0.873234  0.351337  0.958624  1
  O  O34  1  0.828967  0.684401  0.352607  1
  O  O35  1  0.651714  0.476438  0.596245  1
