# generated using pymatgen
data_La6Nd4Sn20IrPt7
_symmetry_space_group_name_H-M   'P 1'
_cell_length_a   14.30708420
_cell_length_b   14.32175320
_cell_length_c   4.71514300
_cell_angle_alpha   90.00000000
_cell_angle_beta   90.00000000
_cell_angle_gamma   90.01926882
_symmetry_Int_Tables_number   1
_chemical_formula_structural   La6Nd4Sn20IrPt7
_chemical_formula_sum   'La6 Nd4 Sn20 Ir1 Pt7'
_cell_volume   966.14467062
_cell_formula_units_Z   1
loop_
 _symmetry_equiv_pos_site_id
 _symmetry_equiv_pos_as_xyz
  1  'x, y, z'
loop_
 _atom_site_type_symbol
 _atom_site_label
 _atom_site_symmetry_multiplicity
 _atom_site_fract_x
 _atom_site_fract_y
 _atom_site_fract_z
 _atom_site_occupancy
  La  La0  1  0.500373  0.499659  0.000000  1
  La  La1  1  0.999864  0.996384  0.000000  1
  La  La2  1  0.890748  0.390976  0.500000  1
  La  La3  1  0.107469  0.611268  0.500000  1
  La  La4  1  0.389979  0.109898  0.500000  1
  La  La5  1  0.610381  0.890841  0.500000  1
  Nd  Nd6  1  0.678433  0.178496  0.500000  1
  Nd  Nd7  1  0.320966  0.821658  0.500000  1
  Nd  Nd8  1  0.177631  0.321752  0.500000  1
  Nd  Nd9  1  0.823767  0.679253  0.500000  1
  Sn  Sn10  1  0.569314  0.069246  0.000000  1
  Sn  Sn11  1  0.430259  0.930659  0.000000  1
  Sn  Sn12  1  0.068825  0.431716  0.000000  1
  Sn  Sn13  1  0.931016  0.572505  0.000000  1
  Sn  Sn14  1  0.655327  0.700637  0.000000  1
  Sn  Sn15  1  0.345793  0.299636  0.000000  1
  Sn  Sn16  1  0.152973  0.799123  0.000000  1
  Sn  Sn17  1  0.846365  0.199764  0.000000  1
  Sn  Sn18  1  0.299213  0.654867  0.000000  1
  Sn  Sn19  1  0.700687  0.345438  0.000000  1
  Sn  Sn20  1  0.199837  0.153668  0.000000  1
  Sn  Sn21  1  0.802365  0.845365  0.000000  1
  Sn  Sn22  1  0.661977  0.503140  0.500000  1
  Sn  Sn23  1  0.337546  0.497901  0.500000  1
  Sn  Sn24  1  0.160383  0.995400  0.500000  1
  Sn  Sn25  1  0.838281  0.001595  0.500000  1
  Sn  Sn26  1  0.497272  0.661537  0.500000  1
  Sn  Sn27  1  0.502857  0.338573  0.500000  1
  Sn  Sn28  1  0.002920  0.160970  0.500000  1
  Sn  Sn29  1  0.995627  0.836473  0.500000  1
  Ir  Ir30  1  0.969814  0.756989  0.000000  1
  Pt  Pt31  1  0.745068  0.530102  0.000000  1
  Pt  Pt32  1  0.255322  0.469212  0.000000  1
  Pt  Pt33  1  0.244113  0.969158  0.000000  1
  Pt  Pt34  1  0.755212  0.030138  0.000000  1
  Pt  Pt35  1  0.470114  0.744996  0.000000  1
  Pt  Pt36  1  0.530964  0.255284  0.000000  1
  Pt  Pt37  1  0.030945  0.245725  0.000000  1
