# generated using pymatgen
data_Ce8Cu3Si12Ru
_symmetry_space_group_name_H-M   'P 1'
_cell_length_a   8.14078900
_cell_length_b   8.14078955
_cell_length_c   8.33888400
_cell_angle_alpha   90.00000000
_cell_angle_beta   90.00000000
_cell_angle_gamma   119.99999372
_symmetry_Int_Tables_number   1
_chemical_formula_structural   Ce8Cu3Si12Ru
_chemical_formula_sum   'Ce8 Cu3 Si12 Ru1'
_cell_volume   478.59881368
_cell_formula_units_Z   1
loop_
 _symmetry_equiv_pos_site_id
 _symmetry_equiv_pos_as_xyz
  1  'x, y, z'
loop_
 _atom_site_type_symbol
 _atom_site_label
 _atom_site_symmetry_multiplicity
 _atom_site_fract_x
 _atom_site_fract_y
 _atom_site_fract_z
 _atom_site_occupancy
  Ce  Ce0  1  0.000000  0.000000  0.250569  1
  Ce  Ce1  1  0.000000  0.000000  0.749305  1
  Ce  Ce2  1  0.496951  0.503049  0.244901  1
  Ce  Ce3  1  0.496951  0.993903  0.244901  1
  Ce  Ce4  1  0.006097  0.503049  0.244901  1
  Ce  Ce5  1  0.496290  0.503710  0.755146  1
  Ce  Ce6  1  0.496290  0.992579  0.755146  1
  Ce  Ce7  1  0.007421  0.503710  0.755146  1
  Cu  Cu8  1  0.333333  0.666667  0.499266  1
  Cu  Cu9  1  0.666667  0.333333  0.502747  1
  Cu  Cu10  1  0.666667  0.333333  0.997943  1
  Si  Si11  1  0.168268  0.831732  0.499759  1
  Si  Si12  1  0.168268  0.336538  0.499759  1
  Si  Si13  1  0.663462  0.831732  0.499759  1
  Si  Si14  1  0.831167  0.168833  0.500409  1
  Si  Si15  1  0.831167  0.662333  0.500409  1
  Si  Si16  1  0.337667  0.168833  0.500409  1
  Si  Si17  1  0.832415  0.167585  0.999435  1
  Si  Si18  1  0.832415  0.664829  0.999435  1
  Si  Si19  1  0.335171  0.167585  0.999435  1
  Si  Si20  1  0.165063  0.834937  0.000422  1
  Si  Si21  1  0.165063  0.330127  0.000422  1
  Si  Si22  1  0.669873  0.834937  0.000422  1
  Ru  Ru23  1  0.333333  0.666667  0.999954  1
