# generated using pymatgen
data_CeSi3AsRh6
_symmetry_space_group_name_H-M   'P 1'
_cell_length_a   7.10739045
_cell_length_b   7.10738972
_cell_length_c   3.81749600
_cell_angle_alpha   90.00000000
_cell_angle_beta   90.00000000
_cell_angle_gamma   119.94529463
_symmetry_Int_Tables_number   1
_chemical_formula_structural   CeSi3AsRh6
_chemical_formula_sum   'Ce1 Si3 As1 Rh6'
_cell_volume   167.09700540
_cell_formula_units_Z   1
loop_
 _symmetry_equiv_pos_site_id
 _symmetry_equiv_pos_as_xyz
  1  'x, y, z'
loop_
 _atom_site_type_symbol
 _atom_site_label
 _atom_site_symmetry_multiplicity
 _atom_site_fract_x
 _atom_site_fract_y
 _atom_site_fract_z
 _atom_site_occupancy
  Ce  Ce0  1  0.003675  0.996325  0.000000  1
  Si  Si1  1  0.797739  0.600422  0.500000  1
  Si  Si2  1  0.333069  0.666931  0.000000  1
  Si  Si3  1  0.399578  0.202261  0.500000  1
  As  As4  1  0.805771  0.194229  0.500000  1
  Rh  Rh5  1  0.524210  0.063771  0.000000  1
  Rh  Rh6  1  0.598515  0.794589  0.500000  1
  Rh  Rh7  1  0.205411  0.401485  0.500000  1
  Rh  Rh8  1  0.533180  0.466820  0.000000  1
  Rh  Rh9  1  0.195959  0.804041  0.500000  1
  Rh  Rh10  1  0.936229  0.475790  0.000000  1
