# generated using pymatgen
data_Tb7DyHf11Si16Os
_symmetry_space_group_name_H-M   'P 1'
_cell_length_a   7.25466356
_cell_length_b   7.25466444
_cell_length_c   13.27229703
_cell_angle_alpha   89.87525577
_cell_angle_beta   90.13545567
_cell_angle_gamma   90.01487513
_symmetry_Int_Tables_number   1
_chemical_formula_structural   Tb7DyHf11Si16Os
_chemical_formula_sum   'Tb7 Dy1 Hf11 Si16 Os1'
_cell_volume   698.51934967
_cell_formula_units_Z   1
loop_
 _symmetry_equiv_pos_site_id
 _symmetry_equiv_pos_as_xyz
  1  'x, y, z'
loop_
 _atom_site_type_symbol
 _atom_site_label
 _atom_site_symmetry_multiplicity
 _atom_site_fract_x
 _atom_site_fract_y
 _atom_site_fract_z
 _atom_site_occupancy
  Tb  Tb0  1  0.005142  0.654809  0.717378  1
  Tb  Tb1  1  0.155901  0.494604  0.465201  1
  Tb  Tb2  1  0.501902  0.846529  0.032671  1
  Tb  Tb3  1  0.846537  0.501876  0.967382  1
  Tb  Tb4  1  0.494612  0.155935  0.534735  1
  Tb  Tb5  1  0.343514  0.998771  0.788213  1
  Tb  Tb6  1  0.654859  0.005179  0.282613  1
  Dy  Dy7  1  0.998912  0.343590  0.211762  1
  Hf  Hf8  1  0.824836  0.824806  0.499987  1
  Hf  Hf9  1  0.324293  0.674718  0.247908  1
  Hf  Hf10  1  0.674804  0.324379  0.752079  1
  Hf  Hf11  1  0.147096  0.997710  0.371930  1
  Hf  Hf12  1  0.852778  0.004420  0.878505  1
  Hf  Hf13  1  0.503063  0.647323  0.625364  1
  Hf  Hf14  1  0.351356  0.496461  0.877285  1
  Hf  Hf15  1  0.496486  0.351376  0.122739  1
  Hf  Hf16  1  0.647371  0.503013  0.374601  1
  Hf  Hf17  1  0.997665  0.147162  0.628024  1
  Hf  Hf18  1  0.004400  0.852825  0.121522  1
  Si  Si19  1  0.360362  0.295267  0.315200  1
  Si  Si20  1  0.638826  0.705025  0.818249  1
  Si  Si21  1  0.205633  0.861752  0.566909  1
  Si  Si22  1  0.136474  0.794527  0.931288  1
  Si  Si23  1  0.794685  0.136635  0.068813  1
  Si  Si24  1  0.861754  0.205661  0.433050  1
  Si  Si25  1  0.295230  0.360544  0.684759  1
  Si  Si26  1  0.705126  0.638724  0.181749  1
  Si  Si27  1  0.292558  0.054354  0.180138  1
  Si  Si28  1  0.704094  0.950654  0.686122  1
  Si  Si29  1  0.449408  0.796162  0.434778  1
  Si  Si30  1  0.206412  0.547522  0.064501  1
  Si  Si31  1  0.547684  0.206535  0.935577  1
  Si  Si32  1  0.796164  0.449411  0.565212  1
  Si  Si33  1  0.054252  0.292659  0.819861  1
  Si  Si34  1  0.950696  0.703914  0.313823  1
  Os  Os35  1  0.175120  0.175173  0.000073  1
