# generated using pymatgen
data_Yb3Sc(Ga2Ag)4
_symmetry_space_group_name_H-M   'P 1'
_cell_length_a   4.32080300
_cell_length_b   6.96454179
_cell_length_c   10.31132338
_cell_angle_alpha   91.32617486
_cell_angle_beta   90.00000000
_cell_angle_gamma   90.00000000
_symmetry_Int_Tables_number   1
_chemical_formula_structural   Yb3Sc(Ga2Ag)4
_chemical_formula_sum   'Yb3 Sc1 Ga8 Ag4'
_cell_volume   310.20948729
_cell_formula_units_Z   1
loop_
 _symmetry_equiv_pos_site_id
 _symmetry_equiv_pos_as_xyz
  1  'x, y, z'
loop_
 _atom_site_type_symbol
 _atom_site_label
 _atom_site_symmetry_multiplicity
 _atom_site_fract_x
 _atom_site_fract_y
 _atom_site_fract_z
 _atom_site_occupancy
  Yb  Yb0  1  0.750000  0.225630  0.172546  1
  Yb  Yb1  1  0.750000  0.723637  0.326326  1
  Yb  Yb2  1  0.250000  0.276651  0.673440  1
  Sc  Sc3  1  0.250000  0.781399  0.830011  1
  Ga  Ga4  1  0.250000  0.707103  0.541301  1
  Ga  Ga5  1  0.750000  0.300977  0.466509  1
  Ga  Ga6  1  0.750000  0.795035  0.030098  1
  Ga  Ga7  1  0.250000  0.195543  0.964415  1
  Ga  Ga8  1  0.250000  0.925411  0.146366  1
  Ga  Ga9  1  0.750000  0.064738  0.846544  1
  Ga  Ga10  1  0.750000  0.577994  0.656955  1
  Ga  Ga11  1  0.250000  0.428324  0.350874  1
  Ag  Ag12  1  0.250000  0.540343  0.097742  1
  Ag  Ag13  1  0.750000  0.456335  0.899053  1
  Ag  Ag14  1  0.750000  0.959138  0.597381  1
  Ag  Ag15  1  0.250000  0.041741  0.400440  1
