# generated using pymatgen
data_Ta2Nb(AlRu2)3
_symmetry_space_group_name_H-M   'P 1'
_cell_length_a   4.38015700
_cell_length_b   6.19104200
_cell_length_c   13.13634600
_cell_angle_alpha   90.00000000
_cell_angle_beta   90.00193189
_cell_angle_gamma   90.00000000
_symmetry_Int_Tables_number   1
_chemical_formula_structural   Ta2Nb(AlRu2)3
_chemical_formula_sum   'Ta4 Nb2 Al6 Ru12'
_cell_volume   356.22796212
_cell_formula_units_Z   2
loop_
 _symmetry_equiv_pos_site_id
 _symmetry_equiv_pos_as_xyz
  1  'x, y, z'
loop_
 _atom_site_type_symbol
 _atom_site_label
 _atom_site_symmetry_multiplicity
 _atom_site_fract_x
 _atom_site_fract_y
 _atom_site_fract_z
 _atom_site_occupancy
  Ta  Ta0  1  0.999827  0.500000  0.333455  1
  Ta  Ta1  1  0.499996  0.000000  0.500031  1
  Ta  Ta2  1  0.000149  0.500000  0.666648  1
  Ta  Ta3  1  0.500174  0.000000  0.833232  1
  Nb  Nb4  1  0.000002  0.500000  0.999927  1
  Nb  Nb5  1  0.499805  0.000000  0.166715  1
  Al  Al6  1  0.000004  0.000000  0.999974  1
  Al  Al7  1  0.499794  0.500000  0.166671  1
  Al  Al8  1  0.999792  0.000000  0.333387  1
  Al  Al9  1  0.500002  0.500000  0.500038  1
  Al  Al10  1  0.000198  0.000000  0.666626  1
  Al  Al11  1  0.500214  0.500000  0.833289  1
  Ru  Ru12  1  0.500002  0.249711  0.999574  1
  Ru  Ru13  1  0.500002  0.750289  0.999574  1
  Ru  Ru14  1  0.999835  0.250255  0.167054  1
  Ru  Ru15  1  0.999835  0.749744  0.167054  1
  Ru  Ru16  1  0.499852  0.250550  0.333801  1
  Ru  Ru17  1  0.499852  0.749449  0.333801  1
  Ru  Ru18  1  0.999997  0.249829  0.500063  1
  Ru  Ru19  1  0.999997  0.750170  0.500063  1
  Ru  Ru20  1  0.500172  0.250210  0.666604  1
  Ru  Ru21  1  0.500172  0.749789  0.666604  1
  Ru  Ru22  1  0.000162  0.249396  0.832907  1
  Ru  Ru23  1  0.000162  0.750603  0.832907  1
