# generated using pymatgen
data_Mg3Co4Ni5B6
_symmetry_space_group_name_H-M   'P 1'
_cell_length_a   4.85592531
_cell_length_b   4.87702738
_cell_length_c   8.70307100
_cell_angle_alpha   90.00000000
_cell_angle_beta   90.00000000
_cell_angle_gamma   120.14384602
_symmetry_Int_Tables_number   1
_chemical_formula_structural   Mg3Co4Ni5B6
_chemical_formula_sum   'Mg3 Co4 Ni5 B6'
_cell_volume   178.23747376
_cell_formula_units_Z   1
loop_
 _symmetry_equiv_pos_site_id
 _symmetry_equiv_pos_as_xyz
  1  'x, y, z'
loop_
 _atom_site_type_symbol
 _atom_site_label
 _atom_site_symmetry_multiplicity
 _atom_site_fract_x
 _atom_site_fract_y
 _atom_site_fract_z
 _atom_site_occupancy
  Mg  Mg0  1  0.000000  0.000000  0.667870  1
  Mg  Mg1  1  0.000000  0.000000  0.998797  1
  Mg  Mg2  1  0.000000  0.000000  0.333333  1
  Co  Co3  1  0.500000  0.000000  0.794219  1
  Co  Co4  1  0.500000  0.500000  0.872448  1
  Co  Co5  1  0.500000  0.500000  0.460805  1
  Co  Co6  1  0.500000  0.000000  0.205862  1
  Ni  Ni7  1  0.000000  0.500000  0.833333  1
  Ni  Ni8  1  0.000000  0.500000  0.125920  1
  Ni  Ni9  1  0.500000  0.500000  0.166714  1
  Ni  Ni10  1  0.000000  0.500000  0.540746  1
  Ni  Ni11  1  0.500000  0.000000  0.499953  1
  B  B12  1  0.601629  0.218346  0.999537  1
  B  B13  1  0.767761  0.383880  0.333333  1
  B  B14  1  0.232239  0.616120  0.333333  1
  B  B15  1  0.601629  0.383282  0.667130  1
  B  B16  1  0.398371  0.616718  0.667130  1
  B  B17  1  0.398371  0.781654  0.999537  1
