# generated using pymatgen
data_Tm16ZnIn2HgRh4
_symmetry_space_group_name_H-M   'P 1'
_cell_length_a   9.48235830
_cell_length_b   9.48677752
_cell_length_c   9.48677613
_cell_angle_alpha   59.88113123
_cell_angle_beta   59.91096612
_cell_angle_gamma   59.91096898
_symmetry_Int_Tables_number   1
_chemical_formula_structural   Tm16ZnIn2HgRh4
_chemical_formula_sum   'Tm16 Zn1 In2 Hg1 Rh4'
_cell_volume   602.09131310
_cell_formula_units_Z   1
loop_
 _symmetry_equiv_pos_site_id
 _symmetry_equiv_pos_as_xyz
  1  'x, y, z'
loop_
 _atom_site_type_symbol
 _atom_site_label
 _atom_site_symmetry_multiplicity
 _atom_site_fract_x
 _atom_site_fract_y
 _atom_site_fract_z
 _atom_site_occupancy
  Tm  Tm0  1  0.059509  0.064804  0.438675  1
  Tm  Tm1  1  0.434771  0.068581  0.436697  1
  Tm  Tm2  1  0.059509  0.438675  0.064804  1
  Tm  Tm3  1  0.053821  0.647579  0.647579  1
  Tm  Tm4  1  0.434771  0.436697  0.068581  1
  Tm  Tm5  1  0.646500  0.055768  0.646909  1
  Tm  Tm6  1  0.190349  0.810520  0.190328  1
  Tm  Tm7  1  0.190349  0.190328  0.810520  1
  Tm  Tm8  1  0.808808  0.810493  0.190986  1
  Tm  Tm9  1  0.437026  0.063137  0.063137  1
  Tm  Tm10  1  0.810813  0.189712  0.189712  1
  Tm  Tm11  1  0.065528  0.436370  0.436370  1
  Tm  Tm12  1  0.808808  0.190986  0.810493  1
  Tm  Tm13  1  0.191839  0.808787  0.808787  1
  Tm  Tm14  1  0.646500  0.646909  0.055768  1
  Tm  Tm15  1  0.649750  0.650402  0.650402  1
  Zn  Zn16  1  0.416050  0.416203  0.416203  1
  In  In17  1  0.419646  0.743766  0.416961  1
  In  In18  1  0.419646  0.416961  0.743766  1
  Hg  Hg19  1  0.757277  0.413149  0.413149  1
  Rh  Rh20  1  0.857350  0.857675  0.427960  1
  Rh  Rh21  1  0.856526  0.856785  0.856785  1
  Rh  Rh22  1  0.427505  0.857756  0.857756  1
  Rh  Rh23  1  0.857350  0.427960  0.857675  1
