# generated using pymatgen
data_Ho20Ir5OsRh6
_symmetry_space_group_name_H-M   'P 1'
_cell_length_a   10.83220539
_cell_length_b   10.82805139
_cell_length_c   6.38774900
_cell_angle_alpha   90.00219405
_cell_angle_beta   90.00217407
_cell_angle_gamma   90.09068814
_symmetry_Int_Tables_number   1
_chemical_formula_structural   Ho20Ir5OsRh6
_chemical_formula_sum   'Ho20 Ir5 Os1 Rh6'
_cell_volume   749.22885126
_cell_formula_units_Z   1
loop_
 _symmetry_equiv_pos_site_id
 _symmetry_equiv_pos_as_xyz
  1  'x, y, z'
loop_
 _atom_site_type_symbol
 _atom_site_label
 _atom_site_symmetry_multiplicity
 _atom_site_fract_x
 _atom_site_fract_y
 _atom_site_fract_z
 _atom_site_occupancy
  Ho  Ho0  1  0.292512  0.086967  0.374114  1
  Ho  Ho1  1  0.293285  0.911334  0.881626  1
  Ho  Ho2  1  0.706286  0.088368  0.881094  1
  Ho  Ho3  1  0.706798  0.911546  0.374426  1
  Ho  Ho4  1  0.586183  0.792308  0.881579  1
  Ho  Ho5  1  0.586243  0.208563  0.375610  1
  Ho  Ho6  1  0.412245  0.791690  0.375638  1
  Ho  Ho7  1  0.413729  0.207617  0.881280  1
  Ho  Ho8  1  0.210255  0.412503  0.621372  1
  Ho  Ho9  1  0.209915  0.588371  0.120865  1
  Ho  Ho10  1  0.789851  0.413198  0.120940  1
  Ho  Ho11  1  0.789853  0.587607  0.621631  1
  Ho  Ho12  1  0.912232  0.709226  0.122330  1
  Ho  Ho13  1  0.910188  0.291213  0.621905  1
  Ho  Ho14  1  0.090173  0.709349  0.621430  1
  Ho  Ho15  1  0.089375  0.291544  0.121929  1
  Ho  Ho16  1  0.000067  0.999839  0.499502  1
  Ho  Ho17  1  0.000200  0.999926  0.998837  1
  Ho  Ho18  1  0.499872  0.499830  0.999194  1
  Ho  Ho19  1  0.500208  0.500015  0.499002  1
  Ir  Ir20  1  0.151679  0.845964  0.250376  1
  Ir  Ir21  1  0.654835  0.346849  0.749804  1
  Ir  Ir22  1  0.655393  0.652769  0.250284  1
  Ir  Ir23  1  0.344744  0.346962  0.250516  1
  Ir  Ir24  1  0.345808  0.652596  0.749735  1
  Os  Os25  1  0.500371  0.000202  0.125400  1
  Rh  Rh26  1  0.848309  0.153930  0.250631  1
  Rh  Rh27  1  0.847626  0.846453  0.749733  1
  Rh  Rh28  1  0.151776  0.154055  0.750128  1
  Rh  Rh29  1  0.500430  0.000210  0.623076  1
  Rh  Rh30  1  0.999803  0.499582  0.877588  1
  Rh  Rh31  1  0.999753  0.499418  0.378421  1
