# generated using pymatgen
data_Sm3Dy3(SiI3)2
_symmetry_space_group_name_H-M   'P 1'
_cell_length_a   10.58271278
_cell_length_b   10.58446272
_cell_length_c   10.58446237
_cell_angle_alpha   109.48093885
_cell_angle_beta   109.49464591
_cell_angle_gamma   109.44477897
_symmetry_Int_Tables_number   1
_chemical_formula_structural   Sm3Dy3(SiI3)2
_chemical_formula_sum   'Sm6 Dy6 Si4 I12'
_cell_volume   912.59219052
_cell_formula_units_Z   2
loop_
 _symmetry_equiv_pos_site_id
 _symmetry_equiv_pos_as_xyz
  1  'x, y, z'
loop_
 _atom_site_type_symbol
 _atom_site_label
 _atom_site_symmetry_multiplicity
 _atom_site_fract_x
 _atom_site_fract_y
 _atom_site_fract_z
 _atom_site_occupancy
  Sm  Sm0  1  0.463376  0.481635  0.231571  1
  Sm  Sm1  1  0.751362  0.232783  0.268306  1
  Sm  Sm2  1  0.748638  0.016944  0.481421  1
  Sm  Sm3  1  0.232753  0.463886  0.480753  1
  Sm  Sm4  1  0.267247  0.748000  0.231134  1
  Sm  Sm5  1  0.036624  0.268195  0.018259  1
  Dy  Dy6  1  0.019305  0.039717  0.270455  1
  Dy  Dy7  1  0.480695  0.751150  0.020412  1
  Dy  Dy8  1  0.480531  0.229324  0.459747  1
  Dy  Dy9  1  0.019469  0.479216  0.748793  1
  Dy  Dy10  1  0.269276  0.019715  0.039002  1
  Dy  Dy11  1  0.230724  0.269725  0.750439  1
  Si  Si12  1  0.249808  0.246119  0.249720  1
  Si  Si13  1  0.498140  0.999861  0.247876  1
  Si  Si14  1  0.001860  0.249736  0.501721  1
  Si  Si15  1  0.250192  0.499912  0.996311  1
  I  I16  1  0.249686  0.757571  0.747308  1
  I  I17  1  0.513370  0.504449  0.758503  1
  I  I18  1  0.986630  0.745132  0.991078  1
  I  I19  1  0.742337  0.254357  0.756039  1
  I  I20  1  0.998393  0.986261  0.743811  1
  I  I21  1  0.250314  0.997622  0.507885  1
  I  I22  1  0.757663  0.513701  0.512020  1
  I  I23  1  0.501607  0.245418  0.987867  1
  I  I24  1  0.757752  0.743745  0.245571  1
  I  I25  1  0.742248  0.987819  0.985994  1
  I  I26  1  0.991098  0.509093  0.250011  1
  I  I27  1  0.508902  0.758913  0.517994  1
