# generated using pymatgen
data_Gd6HoVO12
_symmetry_space_group_name_H-M   'P 1'
_cell_length_a   6.71406859
_cell_length_b   6.71407007
_cell_length_c   6.71406794
_cell_angle_alpha   93.53462084
_cell_angle_beta   93.53462340
_cell_angle_gamma   93.53463213
_symmetry_Int_Tables_number   1
_chemical_formula_structural   Gd6HoVO12
_chemical_formula_sum   'Gd6 Ho1 V1 O12'
_cell_volume   300.85975115
_cell_formula_units_Z   1
loop_
 _symmetry_equiv_pos_site_id
 _symmetry_equiv_pos_as_xyz
  1  'x, y, z'
loop_
 _atom_site_type_symbol
 _atom_site_label
 _atom_site_symmetry_multiplicity
 _atom_site_fract_x
 _atom_site_fract_y
 _atom_site_fract_z
 _atom_site_occupancy
  Gd  Gd0  1  0.738452  0.923374  0.434765  1
  Gd  Gd1  1  0.434765  0.738452  0.923374  1
  Gd  Gd2  1  0.076626  0.565235  0.261548  1
  Gd  Gd3  1  0.923374  0.434765  0.738452  1
  Gd  Gd4  1  0.565235  0.261548  0.076626  1
  Gd  Gd5  1  0.261548  0.076626  0.565235  1
  Ho  Ho6  1  0.000000  0.000000  0.000000  1
  V  V7  1  0.500000  0.500000  0.500000  1
  O  O8  1  0.066479  0.910220  0.315709  1
  O  O9  1  0.684291  0.933521  0.089780  1
  O  O10  1  0.460727  0.797244  0.587165  1
  O  O11  1  0.089780  0.684291  0.933521  1
  O  O12  1  0.797244  0.587165  0.460727  1
  O  O13  1  0.412835  0.539273  0.202756  1
  O  O14  1  0.587165  0.460727  0.797244  1
  O  O15  1  0.202756  0.412835  0.539273  1
  O  O16  1  0.910220  0.315709  0.066479  1
  O  O17  1  0.539273  0.202756  0.412835  1
  O  O18  1  0.315709  0.066479  0.910220  1
  O  O19  1  0.933521  0.089780  0.684291  1
