# generated using pymatgen
data_CsCo2(Sb6Os)2
_symmetry_space_group_name_H-M   'P 1'
_cell_length_a   8.14211520
_cell_length_b   8.10967122
_cell_length_c   8.14211540
_cell_angle_alpha   109.55568722
_cell_angle_beta   109.57888464
_cell_angle_gamma   109.44081674
_symmetry_Int_Tables_number   1
_chemical_formula_structural   CsCo2(Sb6Os)2
_chemical_formula_sum   'Cs1 Co2 Sb12 Os2'
_cell_volume   413.03366911
_cell_formula_units_Z   1
loop_
 _symmetry_equiv_pos_site_id
 _symmetry_equiv_pos_as_xyz
  1  'x, y, z'
loop_
 _atom_site_type_symbol
 _atom_site_label
 _atom_site_symmetry_multiplicity
 _atom_site_fract_x
 _atom_site_fract_y
 _atom_site_fract_z
 _atom_site_occupancy
  Cs  Cs0  1  0.000000  0.000000  0.000000  1
  Co  Co1  1  0.000000  0.000000  0.500000  1
  Co  Co2  1  0.500000  0.000000  0.000000  1
  Sb  Sb3  1  0.338683  0.175146  0.836462  1
  Sb  Sb4  1  0.661317  0.824854  0.163538  1
  Sb  Sb5  1  0.655359  0.496444  0.841086  1
  Sb  Sb6  1  0.344641  0.503556  0.158914  1
  Sb  Sb7  1  0.181026  0.844646  0.345955  1
  Sb  Sb8  1  0.818974  0.155354  0.654045  1
  Sb  Sb9  1  0.498689  0.844646  0.663620  1
  Sb  Sb10  1  0.501311  0.155354  0.336380  1
  Sb  Sb11  1  0.835290  0.337020  0.181461  1
  Sb  Sb12  1  0.164710  0.662980  0.818539  1
  Sb  Sb13  1  0.844440  0.662980  0.498268  1
  Sb  Sb14  1  0.155560  0.337020  0.501732  1
  Os  Os15  1  0.000000  0.500000  0.000000  1
  Os  Os16  1  0.500000  0.500000  0.500000  1
