# generated using pymatgen
data_Nd4Sc3InPt4
_symmetry_space_group_name_H-M   'P 1'
_cell_length_a   4.60057900
_cell_length_b   7.29036925
_cell_length_c   8.53538727
_cell_angle_alpha   85.75001321
_cell_angle_beta   90.00000000
_cell_angle_gamma   90.00000000
_symmetry_Int_Tables_number   1
_chemical_formula_structural   Nd4Sc3InPt4
_chemical_formula_sum   'Nd4 Sc3 In1 Pt4'
_cell_volume   285.48900191
_cell_formula_units_Z   1
loop_
 _symmetry_equiv_pos_site_id
 _symmetry_equiv_pos_as_xyz
  1  'x, y, z'
loop_
 _atom_site_type_symbol
 _atom_site_label
 _atom_site_symmetry_multiplicity
 _atom_site_fract_x
 _atom_site_fract_y
 _atom_site_fract_z
 _atom_site_occupancy
  Nd  Nd0  1  0.250000  0.037278  0.673904  1
  Nd  Nd1  1  0.250000  0.525826  0.815490  1
  Nd  Nd2  1  0.750000  0.988567  0.337279  1
  Nd  Nd3  1  0.750000  0.467550  0.180597  1
  Sc  Sc4  1  0.250000  0.126110  0.070652  1
  Sc  Sc5  1  0.250000  0.638934  0.431823  1
  Sc  Sc6  1  0.750000  0.864890  0.932787  1
  In  In7  1  0.750000  0.359433  0.569482  1
  Pt  Pt8  1  0.250000  0.265173  0.370308  1
  Pt  Pt9  1  0.250000  0.754766  0.097449  1
  Pt  Pt10  1  0.750000  0.740598  0.615987  1
  Pt  Pt11  1  0.750000  0.230877  0.904243  1
