# generated using pymatgen
data_HSI3
_symmetry_space_group_name_H-M   'P 1'
_cell_length_a   5.83928157
_cell_length_b   6.29071016
_cell_length_c   7.06208224
_cell_angle_alpha   84.57330433
_cell_angle_beta   66.68632057
_cell_angle_gamma   71.53089195
_symmetry_Int_Tables_number   1
_chemical_formula_structural   HSI3
_chemical_formula_sum   'H1 S1 I3'
_cell_volume   225.82089946
_cell_formula_units_Z   1
loop_
 _symmetry_equiv_pos_site_id
 _symmetry_equiv_pos_as_xyz
  1  'x, y, z'
loop_
 _atom_site_type_symbol
 _atom_site_label
 _atom_site_symmetry_multiplicity
 _atom_site_fract_x
 _atom_site_fract_y
 _atom_site_fract_z
 _atom_site_occupancy
  H  H0  1  0.667426  0.190462  0.061889  1
  S  S1  1  0.803418  0.020038  0.914101  1
  I  I2  1  0.081187  0.787837  0.115239  1
  I  I3  1  0.075540  0.252930  0.652663  1
  I  I4  1  0.399668  0.520930  0.353235  1
