# generated using pymatgen
data_Ac20Si15H
_symmetry_space_group_name_H-M   'P 1'
_cell_length_a   8.26832456
_cell_length_b   8.29091920
_cell_length_c   16.29675300
_cell_angle_alpha   90.07122826
_cell_angle_beta   89.76496975
_cell_angle_gamma   90.41558885
_symmetry_Int_Tables_number   1
_chemical_formula_structural   Ac20Si15H
_chemical_formula_sum   'Ac20 Si15 H1'
_cell_volume   1117.13557982
_cell_formula_units_Z   1
loop_
 _symmetry_equiv_pos_site_id
 _symmetry_equiv_pos_as_xyz
  1  'x, y, z'
loop_
 _atom_site_type_symbol
 _atom_site_label
 _atom_site_symmetry_multiplicity
 _atom_site_fract_x
 _atom_site_fract_y
 _atom_site_fract_z
 _atom_site_occupancy
  Ac  Ac0  1  0.311385  0.304153  0.995456  1
  Ac  Ac1  1  0.197748  0.807667  0.250451  1
  Ac  Ac2  1  0.825851  0.192155  0.748779  1
  Ac  Ac3  1  0.684653  0.679204  0.501866  1
  Ac  Ac4  1  0.376570  0.006683  0.446168  1
  Ac  Ac5  1  0.494749  0.868894  0.698404  1
  Ac  Ac6  1  0.515846  0.115571  0.196443  1
  Ac  Ac7  1  0.877202  0.479680  0.300214  1
  Ac  Ac8  1  0.119000  0.521850  0.800849  1
  Ac  Ac9  1  0.637923  0.980623  0.948012  1
  Ac  Ac10  1  0.001488  0.383960  0.550169  1
  Ac  Ac11  1  0.992996  0.618896  0.053412  1
  Ac  Ac12  1  0.143907  0.977196  0.874644  1
  Ac  Ac13  1  0.527898  0.621126  0.127783  1
  Ac  Ac14  1  0.445447  0.350584  0.635678  1
  Ac  Ac15  1  0.631491  0.520450  0.874563  1
  Ac  Ac16  1  0.373561  0.469997  0.373659  1
  Ac  Ac17  1  0.873512  0.022290  0.380018  1
  Ac  Ac18  1  0.978876  0.120003  0.123148  1
  Ac  Ac19  1  0.025876  0.871843  0.621466  1
  Si  Si20  1  0.336845  0.695885  0.957708  1
  Si  Si21  1  0.661205  0.298859  0.463712  1
  Si  Si22  1  0.704250  0.328363  0.043447  1
  Si  Si23  1  0.300480  0.663620  0.542698  1
  Si  Si24  1  0.808249  0.824794  0.211188  1
  Si  Si25  1  0.172001  0.191695  0.289715  1
  Si  Si26  1  0.838040  0.803055  0.790455  1
  Si  Si27  1  0.293500  0.914383  0.058522  1
  Si  Si28  1  0.585498  0.783342  0.311481  1
  Si  Si29  1  0.450184  0.197056  0.817375  1
  Si  Si30  1  0.783576  0.583311  0.689927  1
  Si  Si31  1  0.211717  0.415374  0.189943  1
  Si  Si32  1  0.705720  0.078001  0.562890  1
  Si  Si33  1  0.926846  0.287872  0.939696  1
  Si  Si34  1  0.080949  0.707510  0.440712  1
  H  H35  1  0.104961  0.314055  0.689351  1
