# generated using pymatgen
data_Sr4Ti3NbO12
_symmetry_space_group_name_H-M   'P 1'
_cell_length_a   5.60933600
_cell_length_b   5.61415101
_cell_length_c   7.99379900
_cell_angle_alpha   90.00000000
_cell_angle_beta   90.00000000
_cell_angle_gamma   89.99574269
_symmetry_Int_Tables_number   1
_chemical_formula_structural   Sr4Ti3NbO12
_chemical_formula_sum   'Sr4 Ti3 Nb1 O12'
_cell_volume   251.73799439
_cell_formula_units_Z   1
loop_
 _symmetry_equiv_pos_site_id
 _symmetry_equiv_pos_as_xyz
  1  'x, y, z'
loop_
 _atom_site_type_symbol
 _atom_site_label
 _atom_site_symmetry_multiplicity
 _atom_site_fract_x
 _atom_site_fract_y
 _atom_site_fract_z
 _atom_site_occupancy
  Sr  Sr0  1  0.000000  0.000000  0.011428  1
  Sr  Sr1  1  0.000000  0.000000  0.490618  1
  Sr  Sr2  1  0.500000  0.500000  0.487964  1
  Sr  Sr3  1  0.500000  0.500000  0.010009  1
  Ti  Ti4  1  0.500000  0.000000  0.249897  1
  Ti  Ti5  1  0.500000  0.000000  0.749918  1
  Ti  Ti6  1  0.000000  0.500000  0.250015  1
  Nb  Nb7  1  0.000000  0.500000  0.750029  1
  O  O8  1  0.244697  0.245329  0.249897  1
  O  O9  1  0.500000  0.000000  0.500670  1
  O  O10  1  0.712393  0.715961  0.749576  1
  O  O11  1  0.784102  0.212064  0.750350  1
  O  O12  1  0.000000  0.500000  0.002330  1
  O  O13  1  0.000000  0.500000  0.497693  1
  O  O14  1  0.254547  0.744487  0.250227  1
  O  O15  1  0.287607  0.284039  0.749576  1
  O  O16  1  0.500000  0.000000  0.999328  1
  O  O17  1  0.755303  0.754671  0.249897  1
  O  O18  1  0.745453  0.255513  0.250227  1
  O  O19  1  0.215898  0.787936  0.750350  1
