# generated using pymatgen
data_Li9Cd3Pb4
_symmetry_space_group_name_H-M   'P 1'
_cell_length_a   6.80807900
_cell_length_b   6.80807900
_cell_length_c   6.80807900
_cell_angle_alpha   90.00010099
_cell_angle_beta   89.99989901
_cell_angle_gamma   89.99989901
_symmetry_Int_Tables_number   1
_chemical_formula_structural   Li9Cd3Pb4
_chemical_formula_sum   'Li9 Cd3 Pb4'
_cell_volume   315.55405092
_cell_formula_units_Z   1
loop_
 _symmetry_equiv_pos_site_id
 _symmetry_equiv_pos_as_xyz
  1  'x, y, z'
loop_
 _atom_site_type_symbol
 _atom_site_label
 _atom_site_symmetry_multiplicity
 _atom_site_fract_x
 _atom_site_fract_y
 _atom_site_fract_z
 _atom_site_occupancy
  Li  Li0  1  0.000873  0.999127  0.999127  1
  Li  Li1  1  0.499124  0.999113  0.999113  1
  Li  Li2  1  0.000887  0.500878  0.999113  1
  Li  Li3  1  0.499116  0.500886  0.999098  1
  Li  Li4  1  0.000887  0.999113  0.500878  1
  Li  Li5  1  0.499116  0.999098  0.500886  1
  Li  Li6  1  0.000902  0.500886  0.500886  1
  Li  Li7  1  0.499099  0.500903  0.500903  1
  Li  Li8  1  0.250594  0.749407  0.749407  1
  Cd  Cd9  1  0.250585  0.250589  0.250589  1
  Cd  Cd10  1  0.749412  0.749416  0.250589  1
  Cd  Cd11  1  0.749412  0.250589  0.749416  1
  Pb  Pb12  1  0.750071  0.249930  0.249930  1
  Pb  Pb13  1  0.249937  0.750064  0.249944  1
  Pb  Pb14  1  0.249937  0.249944  0.750064  1
  Pb  Pb15  1  0.750057  0.750064  0.750064  1
