# generated using pymatgen
data_TbEu4Er3(Si3Pd)4
_symmetry_space_group_name_H-M   'P 1'
_cell_length_a   8.28148200
_cell_length_b   8.28148181
_cell_length_c   8.31275100
_cell_angle_alpha   90.00000000
_cell_angle_beta   90.00000000
_cell_angle_gamma   120.00000873
_symmetry_Int_Tables_number   1
_chemical_formula_structural   TbEu4Er3(Si3Pd)4
_chemical_formula_sum   'Tb1 Eu4 Er3 Si12 Pd4'
_cell_volume   493.73223213
_cell_formula_units_Z   1
loop_
 _symmetry_equiv_pos_site_id
 _symmetry_equiv_pos_as_xyz
  1  'x, y, z'
loop_
 _atom_site_type_symbol
 _atom_site_label
 _atom_site_symmetry_multiplicity
 _atom_site_fract_x
 _atom_site_fract_y
 _atom_site_fract_z
 _atom_site_occupancy
  Tb  Tb0  1  0.000000  0.000000  0.750000  1
  Eu  Eu1  1  0.501567  0.003131  0.250000  1
  Eu  Eu2  1  0.996869  0.498433  0.250000  1
  Eu  Eu3  1  0.501567  0.498433  0.250000  1
  Eu  Eu4  1  0.000000  0.000000  0.250000  1
  Er  Er5  1  0.498289  0.996579  0.750000  1
  Er  Er6  1  0.003421  0.501711  0.750000  1
  Er  Er7  1  0.498289  0.501711  0.750000  1
  Si  Si8  1  0.164654  0.329308  0.989570  1
  Si  Si9  1  0.834955  0.669912  0.990868  1
  Si  Si10  1  0.670692  0.835346  0.989570  1
  Si  Si11  1  0.834955  0.669912  0.509132  1
  Si  Si12  1  0.330088  0.165045  0.990868  1
  Si  Si13  1  0.164654  0.329308  0.510430  1
  Si  Si14  1  0.164654  0.835346  0.989570  1
  Si  Si15  1  0.330088  0.165045  0.509132  1
  Si  Si16  1  0.834955  0.165045  0.990868  1
  Si  Si17  1  0.670692  0.835346  0.510430  1
  Si  Si18  1  0.834955  0.165045  0.509132  1
  Si  Si19  1  0.164654  0.835346  0.510430  1
  Pd  Pd20  1  0.333333  0.666667  0.978687  1
  Pd  Pd21  1  0.666667  0.333333  0.965210  1
  Pd  Pd22  1  0.666667  0.333333  0.534790  1
  Pd  Pd23  1  0.333333  0.666667  0.521313  1
