# generated using pymatgen
data_Rb4Bi3Sb9Se20
_symmetry_space_group_name_H-M   'P 1'
_cell_length_a   4.13012200
_cell_length_b   12.41522893
_cell_length_c   22.36121562
_cell_angle_alpha   90.13645229
_cell_angle_beta   90.00000000
_cell_angle_gamma   90.00000000
_symmetry_Int_Tables_number   1
_chemical_formula_structural   Rb4Bi3Sb9Se20
_chemical_formula_sum   'Rb4 Bi3 Sb9 Se20'
_cell_volume   1146.59961195
_cell_formula_units_Z   1
loop_
 _symmetry_equiv_pos_site_id
 _symmetry_equiv_pos_as_xyz
  1  'x, y, z'
loop_
 _atom_site_type_symbol
 _atom_site_label
 _atom_site_symmetry_multiplicity
 _atom_site_fract_x
 _atom_site_fract_y
 _atom_site_fract_z
 _atom_site_occupancy
  Rb  Rb0  1  0.250000  0.490722  0.212110  1
  Rb  Rb1  1  0.750000  0.511547  0.788658  1
  Rb  Rb2  1  0.750000  0.989703  0.288848  1
  Rb  Rb3  1  0.250000  0.010480  0.710578  1
  Bi  Bi4  1  0.750000  0.407833  0.570880  1
  Bi  Bi5  1  0.750000  0.092537  0.071268  1
  Bi  Bi6  1  0.250000  0.907665  0.928827  1
  Sb  Sb7  1  0.250000  0.370235  0.026145  1
  Sb  Sb8  1  0.750000  0.629782  0.974105  1
  Sb  Sb9  1  0.750000  0.868341  0.475100  1
  Sb  Sb10  1  0.250000  0.131292  0.524651  1
  Sb  Sb11  1  0.250000  0.808222  0.126712  1
  Sb  Sb12  1  0.750000  0.191951  0.873238  1
  Sb  Sb13  1  0.750000  0.311064  0.374220  1
  Sb  Sb14  1  0.250000  0.691844  0.625052  1
  Sb  Sb15  1  0.250000  0.593104  0.429695  1
  Se  Se16  1  0.250000  0.802074  0.389818  1
  Se  Se17  1  0.750000  0.187430  0.610307  1
  Se  Se18  1  0.750000  0.313271  0.111272  1
  Se  Se19  1  0.250000  0.686902  0.889021  1
  Se  Se20  1  0.250000  0.255802  0.299329  1
  Se  Se21  1  0.750000  0.747683  0.699748  1
  Se  Se22  1  0.750000  0.753748  0.201534  1
  Se  Se23  1  0.250000  0.246459  0.798552  1
  Se  Se24  1  0.250000  0.361146  0.478835  1
  Se  Se25  1  0.750000  0.637210  0.519379  1
  Se  Se26  1  0.750000  0.862660  0.021302  1
  Se  Se27  1  0.250000  0.137405  0.978944  1
  Se  Se28  1  0.250000  0.019357  0.158644  1
  Se  Se29  1  0.750000  0.980717  0.841558  1
  Se  Se30  1  0.750000  0.523698  0.344548  1
  Se  Se31  1  0.250000  0.480845  0.658114  1
  Se  Se32  1  0.250000  0.580014  0.062626  1
  Se  Se33  1  0.750000  0.420054  0.937706  1
  Se  Se34  1  0.750000  0.077895  0.436734  1
  Se  Se35  1  0.250000  0.919310  0.561941  1
