# generated using pymatgen
data_Lu8Si12Rh3Au
_symmetry_space_group_name_H-M   'P 1'
_cell_length_a   8.14024600
_cell_length_b   8.14024615
_cell_length_c   7.71325900
_cell_angle_alpha   90.00000000
_cell_angle_beta   90.00000000
_cell_angle_gamma   119.99999940
_symmetry_Int_Tables_number   1
_chemical_formula_structural   Lu8Si12Rh3Au
_chemical_formula_sum   'Lu8 Si12 Rh3 Au1'
_cell_volume   442.63282348
_cell_formula_units_Z   1
loop_
 _symmetry_equiv_pos_site_id
 _symmetry_equiv_pos_as_xyz
  1  'x, y, z'
loop_
 _atom_site_type_symbol
 _atom_site_label
 _atom_site_symmetry_multiplicity
 _atom_site_fract_x
 _atom_site_fract_y
 _atom_site_fract_z
 _atom_site_occupancy
  Lu  Lu0  1  0.000000  0.000000  0.249552  1
  Lu  Lu1  1  0.000000  0.000000  0.753345  1
  Lu  Lu2  1  0.512278  0.487722  0.244939  1
  Lu  Lu3  1  0.512278  0.024556  0.244939  1
  Lu  Lu4  1  0.975444  0.487722  0.244939  1
  Lu  Lu5  1  0.492603  0.507397  0.754180  1
  Lu  Lu6  1  0.492603  0.985207  0.754180  1
  Lu  Lu7  1  0.014793  0.507397  0.754180  1
  Si  Si8  1  0.160579  0.839421  0.502634  1
  Si  Si9  1  0.160579  0.321158  0.502634  1
  Si  Si10  1  0.678842  0.839421  0.502634  1
  Si  Si11  1  0.831470  0.168530  0.499316  1
  Si  Si12  1  0.831470  0.662943  0.499316  1
  Si  Si13  1  0.337057  0.168530  0.499316  1
  Si  Si14  1  0.833958  0.166042  0.998606  1
  Si  Si15  1  0.833958  0.667918  0.998606  1
  Si  Si16  1  0.332082  0.166042  0.998606  1
  Si  Si17  1  0.166843  0.833157  0.001705  1
  Si  Si18  1  0.166843  0.333684  0.001705  1
  Si  Si19  1  0.666316  0.833157  0.001705  1
  Rh  Rh20  1  0.666667  0.333333  0.537776  1
  Rh  Rh21  1  0.666667  0.333333  0.964839  1
  Rh  Rh22  1  0.333333  0.666667  0.031083  1
  Au  Au23  1  0.333333  0.666667  0.459270  1
