# generated using pymatgen
data_Zr10AlCu(BiPb)3
_symmetry_space_group_name_H-M   'P 1'
_cell_length_a   8.86885800
_cell_length_b   8.86885858
_cell_length_c   5.92530100
_cell_angle_alpha   90.00000000
_cell_angle_beta   90.00000000
_cell_angle_gamma   119.99999784
_symmetry_Int_Tables_number   1
_chemical_formula_structural   Zr10AlCu(BiPb)3
_chemical_formula_sum   'Zr10 Al1 Cu1 Bi3 Pb3'
_cell_volume   403.62354217
_cell_formula_units_Z   1
loop_
 _symmetry_equiv_pos_site_id
 _symmetry_equiv_pos_as_xyz
  1  'x, y, z'
loop_
 _atom_site_type_symbol
 _atom_site_label
 _atom_site_symmetry_multiplicity
 _atom_site_fract_x
 _atom_site_fract_y
 _atom_site_fract_z
 _atom_site_occupancy
  Zr  Zr0  1  0.735136  0.000000  0.247129  1
  Zr  Zr1  1  0.000000  0.735136  0.247129  1
  Zr  Zr2  1  0.264864  0.264864  0.247129  1
  Zr  Zr3  1  0.264028  0.000000  0.752897  1
  Zr  Zr4  1  0.000000  0.264028  0.752897  1
  Zr  Zr5  1  0.735972  0.735972  0.752897  1
  Zr  Zr6  1  0.333333  0.666667  0.498682  1
  Zr  Zr7  1  0.666667  0.333333  0.498682  1
  Zr  Zr8  1  0.666667  0.333333  0.001408  1
  Zr  Zr9  1  0.333333  0.666667  0.001408  1
  Al  Al10  1  0.000000  0.000000  0.498219  1
  Cu  Cu11  1  0.000000  0.000000  0.001890  1
  Bi  Bi12  1  0.613235  0.000000  0.750408  1
  Bi  Bi13  1  0.000000  0.613235  0.750408  1
  Bi  Bi14  1  0.386765  0.386765  0.750408  1
  Pb  Pb15  1  0.385249  0.000000  0.249470  1
  Pb  Pb16  1  0.000000  0.385249  0.249470  1
  Pb  Pb17  1  0.614751  0.614751  0.249470  1
