# generated using pymatgen
data_Ho5Tc2C7
_symmetry_space_group_name_H-M   'P 1'
_cell_length_a   8.26495361
_cell_length_b   8.26495349
_cell_length_c   3.43495700
_cell_angle_alpha   90.00000000
_cell_angle_beta   90.00000000
_cell_angle_gamma   122.29201507
_symmetry_Int_Tables_number   1
_chemical_formula_structural   Ho5Tc2C7
_chemical_formula_sum   'Ho5 Tc2 C7'
_cell_volume   198.34974871
_cell_formula_units_Z   1
loop_
 _symmetry_equiv_pos_site_id
 _symmetry_equiv_pos_as_xyz
  1  'x, y, z'
loop_
 _atom_site_type_symbol
 _atom_site_label
 _atom_site_symmetry_multiplicity
 _atom_site_fract_x
 _atom_site_fract_y
 _atom_site_fract_z
 _atom_site_occupancy
  Ho  Ho0  1  0.500000  0.500000  0.000000  1
  Ho  Ho1  1  0.076287  0.336858  0.500000  1
  Ho  Ho2  1  0.923713  0.663142  0.500000  1
  Ho  Ho3  1  0.663142  0.923713  0.500000  1
  Ho  Ho4  1  0.336858  0.076287  0.500000  1
  Tc  Tc5  1  0.713184  0.286816  0.000000  1
  Tc  Tc6  1  0.286816  0.713184  0.000000  1
  C  C7  1  0.625731  0.374269  0.500000  1
  C  C8  1  0.374269  0.625731  0.500000  1
  C  C9  1  0.000000  0.000000  0.000000  1
  C  C10  1  0.169964  0.169964  0.000000  1
  C  C11  1  0.830036  0.830036  0.000000  1
  C  C12  1  0.000000  0.500000  0.000000  1
  C  C13  1  0.500000  0.000000  0.000000  1
