# generated using pymatgen
data_Ho3Tm5(C2Cl3)2
_symmetry_space_group_name_H-M   'P 1'
_cell_length_a   3.62452200
_cell_length_b   10.38030516
_cell_length_c   19.56923900
_cell_angle_alpha   90.02708498
_cell_angle_beta   90.00000000
_cell_angle_gamma   90.00000000
_symmetry_Int_Tables_number   1
_chemical_formula_structural   Ho3Tm5(C2Cl3)2
_chemical_formula_sum   'Ho6 Tm10 C8 Cl12'
_cell_volume   736.26600741
_cell_formula_units_Z   2
loop_
 _symmetry_equiv_pos_site_id
 _symmetry_equiv_pos_as_xyz
  1  'x, y, z'
loop_
 _atom_site_type_symbol
 _atom_site_label
 _atom_site_symmetry_multiplicity
 _atom_site_fract_x
 _atom_site_fract_y
 _atom_site_fract_z
 _atom_site_occupancy
  Ho  Ho0  1  0.250000  0.862081  0.573992  1
  Ho  Ho1  1  0.750000  0.137919  0.426008  1
  Ho  Ho2  1  0.750000  0.637728  0.074488  1
  Ho  Ho3  1  0.250000  0.362272  0.925512  1
  Ho  Ho4  1  0.250000  0.864172  0.744414  1
  Ho  Ho5  1  0.750000  0.135828  0.255586  1
  Tm  Tm6  1  0.750000  0.636002  0.243739  1
  Tm  Tm7  1  0.250000  0.363998  0.756261  1
  Tm  Tm8  1  0.250000  0.872803  0.166317  1
  Tm  Tm9  1  0.750000  0.127197  0.833683  1
  Tm  Tm10  1  0.750000  0.626698  0.666083  1
  Tm  Tm11  1  0.250000  0.373302  0.333917  1
  Tm  Tm12  1  0.250000  0.898697  0.330807  1
  Tm  Tm13  1  0.750000  0.101303  0.669193  1
  Tm  Tm14  1  0.750000  0.600621  0.830563  1
  Tm  Tm15  1  0.250000  0.399379  0.169437  1
  C  C16  1  0.250000  0.611786  0.750211  1
  C  C17  1  0.750000  0.388214  0.249789  1
  C  C18  1  0.750000  0.884569  0.250216  1
  C  C19  1  0.250000  0.115431  0.749784  1
  C  C20  1  0.250000  0.634664  0.153410  1
  C  C21  1  0.750000  0.365336  0.846590  1
  C  C22  1  0.750000  0.865210  0.652762  1
  C  C23  1  0.250000  0.134790  0.347238  1
  Cl  Cl24  1  0.250000  0.610330  0.557854  1
  Cl  Cl25  1  0.750000  0.389670  0.442146  1
  Cl  Cl26  1  0.750000  0.888606  0.057933  1
  Cl  Cl27  1  0.250000  0.111394  0.942067  1
  Cl  Cl28  1  0.250000  0.623878  0.951359  1
  Cl  Cl29  1  0.750000  0.376122  0.048641  1
  Cl  Cl30  1  0.750000  0.874913  0.450893  1
  Cl  Cl31  1  0.250000  0.125087  0.549107  1
  Cl  Cl32  1  0.250000  0.637940  0.353038  1
  Cl  Cl33  1  0.750000  0.362060  0.646962  1
  Cl  Cl34  1  0.750000  0.861847  0.855022  1
  Cl  Cl35  1  0.250000  0.138153  0.144978  1
