# generated using pymatgen
data_TbTm9(SiBi2)2
_symmetry_space_group_name_H-M   'P 1'
_cell_length_a   7.97215700
_cell_length_b   9.10467400
_cell_length_c   11.89580600
_cell_angle_alpha   90.00000000
_cell_angle_beta   90.00000000
_cell_angle_gamma   90.00000000
_symmetry_Int_Tables_number   1
_chemical_formula_structural   TbTm9(SiBi2)2
_chemical_formula_sum   'Tb2 Tm18 Si4 Bi8'
_cell_volume   863.44388085
_cell_formula_units_Z   2
loop_
 _symmetry_equiv_pos_site_id
 _symmetry_equiv_pos_as_xyz
  1  'x, y, z'
loop_
 _atom_site_type_symbol
 _atom_site_label
 _atom_site_symmetry_multiplicity
 _atom_site_fract_x
 _atom_site_fract_y
 _atom_site_fract_z
 _atom_site_occupancy
  Tb  Tb0  1  0.333525  0.750000  0.286464  1
  Tb  Tb1  1  0.166475  0.750000  0.786464  1
  Tm  Tm2  1  0.678457  0.945683  0.437746  1
  Tm  Tm3  1  0.821543  0.554317  0.937746  1
  Tm  Tm4  1  0.320188  0.444527  0.561882  1
  Tm  Tm5  1  0.179812  0.055473  0.061882  1
  Tm  Tm6  1  0.320188  0.055473  0.561882  1
  Tm  Tm7  1  0.179812  0.444527  0.061882  1
  Tm  Tm8  1  0.678457  0.554317  0.437746  1
  Tm  Tm9  1  0.821543  0.945683  0.937746  1
  Tm  Tm10  1  0.665100  0.250000  0.711555  1
  Tm  Tm11  1  0.834900  0.250000  0.211555  1
  Tm  Tm12  1  0.038159  0.750000  0.498405  1
  Tm  Tm13  1  0.461841  0.750000  0.998405  1
  Tm  Tm14  1  0.959965  0.250000  0.501469  1
  Tm  Tm15  1  0.540035  0.250000  0.001469  1
  Tm  Tm16  1  0.861213  0.750000  0.206258  1
  Tm  Tm17  1  0.638787  0.750000  0.706258  1
  Tm  Tm18  1  0.137130  0.250000  0.794502  1
  Tm  Tm19  1  0.362870  0.250000  0.294502  1
  Si  Si20  1  0.090697  0.750000  0.025222  1
  Si  Si21  1  0.409303  0.750000  0.525222  1
  Si  Si22  1  0.911221  0.250000  0.978374  1
  Si  Si23  1  0.588779  0.250000  0.478374  1
  Bi  Bi24  1  0.569810  0.990212  0.173412  1
  Bi  Bi25  1  0.930190  0.509788  0.673413  1
  Bi  Bi26  1  0.433528  0.488123  0.825835  1
  Bi  Bi27  1  0.066472  0.011877  0.325836  1
  Bi  Bi28  1  0.433528  0.011877  0.825835  1
  Bi  Bi29  1  0.066472  0.488123  0.325836  1
  Bi  Bi30  1  0.569810  0.509788  0.173412  1
  Bi  Bi31  1  0.930190  0.990212  0.673413  1
