# generated using pymatgen
data_EuDy2YNi13C4
_symmetry_space_group_name_H-M   'P 1'
_cell_length_a   8.40522704
_cell_length_b   8.40522747
_cell_length_c   3.88122900
_cell_angle_alpha   90.00000000
_cell_angle_beta   90.00000000
_cell_angle_gamma   90.64532968
_symmetry_Int_Tables_number   1
_chemical_formula_structural   EuDy2YNi13C4
_chemical_formula_sum   'Eu1 Dy2 Y1 Ni13 C4'
_cell_volume   274.18307326
_cell_formula_units_Z   1
loop_
 _symmetry_equiv_pos_site_id
 _symmetry_equiv_pos_as_xyz
  1  'x, y, z'
loop_
 _atom_site_type_symbol
 _atom_site_label
 _atom_site_symmetry_multiplicity
 _atom_site_fract_x
 _atom_site_fract_y
 _atom_site_fract_z
 _atom_site_occupancy
  Eu  Eu0  1  0.649864  0.649864  0.500000  1
  Dy  Dy1  1  0.812353  0.187775  0.500000  1
  Dy  Dy2  1  0.187775  0.812353  0.500000  1
  Y  Y3  1  0.349240  0.349240  0.500000  1
  Ni  Ni4  1  0.495187  0.006870  0.500000  1
  Ni  Ni5  1  0.006870  0.495187  0.500000  1
  Ni  Ni6  1  0.002593  0.002593  0.000000  1
  Ni  Ni7  1  0.426131  0.783867  0.000000  1
  Ni  Ni8  1  0.568890  0.212817  0.000000  1
  Ni  Ni9  1  0.212817  0.568890  0.000000  1
  Ni  Ni10  1  0.783867  0.426131  0.000000  1
  Ni  Ni11  1  0.712350  0.932057  0.000000  1
  Ni  Ni12  1  0.291927  0.074024  0.000000  1
  Ni  Ni13  1  0.074024  0.291927  0.000000  1
  Ni  Ni14  1  0.932057  0.712350  0.000000  1
  Ni  Ni15  1  0.880090  0.880090  0.500000  1
  Ni  Ni16  1  0.124256  0.124256  0.500000  1
  C  C17  1  0.439357  0.553327  0.000000  1
  C  C18  1  0.553327  0.439357  0.000000  1
  C  C19  1  0.500777  0.996248  0.000000  1
  C  C20  1  0.996248  0.500777  0.000000  1
