# generated using pymatgen
data_Ba10InSi4Hg
_symmetry_space_group_name_H-M   'P 1'
_cell_length_a   8.58779000
_cell_length_b   8.58779000
_cell_length_c   17.57280300
_cell_angle_alpha   90.00000000
_cell_angle_beta   90.00000000
_cell_angle_gamma   90.00000000
_symmetry_Int_Tables_number   1
_chemical_formula_structural   Ba10InSi4Hg
_chemical_formula_sum   'Ba20 In2 Si8 Hg2'
_cell_volume   1295.99663020
_cell_formula_units_Z   2
loop_
 _symmetry_equiv_pos_site_id
 _symmetry_equiv_pos_as_xyz
  1  'x, y, z'
loop_
 _atom_site_type_symbol
 _atom_site_label
 _atom_site_symmetry_multiplicity
 _atom_site_fract_x
 _atom_site_fract_y
 _atom_site_fract_z
 _atom_site_occupancy
  Ba  Ba0  1  0.320393  0.669681  0.112843  1
  Ba  Ba1  1  0.169681  0.179607  0.112843  1
  Ba  Ba2  1  0.500000  0.000000  0.735784  1
  Ba  Ba3  1  0.330203  0.679771  0.390412  1
  Ba  Ba4  1  0.669681  0.679607  0.887157  1
  Ba  Ba5  1  0.179771  0.169797  0.390412  1
  Ba  Ba6  1  0.669797  0.320229  0.390412  1
  Ba  Ba7  1  0.169797  0.820229  0.609588  1
  Ba  Ba8  1  0.330319  0.320393  0.887157  1
  Ba  Ba9  1  0.179607  0.830319  0.887157  1
  Ba  Ba10  1  0.500000  0.000000  0.247048  1
  Ba  Ba11  1  0.830203  0.179771  0.609588  1
  Ba  Ba12  1  0.320229  0.330203  0.609588  1
  Ba  Ba13  1  0.820229  0.830203  0.390412  1
  Ba  Ba14  1  0.820393  0.169681  0.887157  1
  Ba  Ba15  1  0.830319  0.820393  0.112843  1
  Ba  Ba16  1  0.000000  0.500000  0.264216  1
  Ba  Ba17  1  0.000000  0.500000  0.752952  1
  Ba  Ba18  1  0.679607  0.330319  0.112843  1
  Ba  Ba19  1  0.679771  0.669797  0.609588  1
  In  In20  1  0.500000  0.000000  0.506509  1
  In  In21  1  0.000000  0.500000  0.493491  1
  Si  Si22  1  0.100791  0.100189  0.749208  1
  Si  Si23  1  0.399811  0.600791  0.749208  1
  Si  Si24  1  0.600791  0.600189  0.250792  1
  Si  Si25  1  0.100189  0.899209  0.250792  1
  Si  Si26  1  0.600189  0.399209  0.749208  1
  Si  Si27  1  0.899209  0.899811  0.749208  1
  Si  Si28  1  0.399209  0.399811  0.250792  1
  Si  Si29  1  0.899811  0.100791  0.250792  1
  Hg  Hg30  1  0.000000  0.500000  0.992138  1
  Hg  Hg31  1  0.500000  0.000000  0.007862  1
