# generated using pymatgen
data_Sr3Sm(Tm3Sn4)2
_symmetry_space_group_name_H-M   'P 1'
_cell_length_a   8.01512400
_cell_length_b   8.38826729
_cell_length_c   15.78318900
_cell_angle_alpha   90.22606171
_cell_angle_beta   90.00000000
_cell_angle_gamma   90.00000000
_symmetry_Int_Tables_number   1
_chemical_formula_structural   Sr3Sm(Tm3Sn4)2
_chemical_formula_sum   'Sr6 Sm2 Tm12 Sn16'
_cell_volume   1061.14292563
_cell_formula_units_Z   2
loop_
 _symmetry_equiv_pos_site_id
 _symmetry_equiv_pos_as_xyz
  1  'x, y, z'
loop_
 _atom_site_type_symbol
 _atom_site_label
 _atom_site_symmetry_multiplicity
 _atom_site_fract_x
 _atom_site_fract_y
 _atom_site_fract_z
 _atom_site_occupancy
  Sr  Sr0  1  0.505592  0.326578  0.904828  1
  Sr  Sr1  1  0.005592  0.173422  0.595172  1
  Sr  Sr2  1  0.499597  0.674817  0.410159  1
  Sr  Sr3  1  0.999597  0.825183  0.089841  1
  Sr  Sr4  1  0.498407  0.676730  0.089640  1
  Sr  Sr5  1  0.998407  0.823270  0.410360  1
  Sm  Sm6  1  0.500811  0.318054  0.602134  1
  Sm  Sm7  1  0.000811  0.181946  0.897866  1
  Tm  Tm8  1  0.330291  0.839872  0.872031  1
  Tm  Tm9  1  0.830291  0.660128  0.627969  1
  Tm  Tm10  1  0.665883  0.165181  0.376179  1
  Tm  Tm11  1  0.165883  0.334819  0.123821  1
  Tm  Tm12  1  0.667611  0.161107  0.123626  1
  Tm  Tm13  1  0.167611  0.338893  0.376374  1
  Tm  Tm14  1  0.329466  0.837749  0.627999  1
  Tm  Tm15  1  0.829466  0.662251  0.872001  1
  Tm  Tm16  1  0.168255  0.497758  0.750442  1
  Tm  Tm17  1  0.668255  0.002242  0.749558  1
  Tm  Tm18  1  0.829837  0.502580  0.249620  1
  Tm  Tm19  1  0.329837  0.997420  0.250380  1
  Sn  Sn20  1  0.329800  0.046422  0.038076  1
  Sn  Sn21  1  0.829800  0.453578  0.461924  1
  Sn  Sn22  1  0.664296  0.964922  0.546007  1
  Sn  Sn23  1  0.164296  0.535078  0.953993  1
  Sn  Sn24  1  0.675566  0.963432  0.953164  1
  Sn  Sn25  1  0.175566  0.536568  0.546836  1
  Sn  Sn26  1  0.335993  0.050025  0.462324  1
  Sn  Sn27  1  0.835993  0.449975  0.037676  1
  Sn  Sn28  1  0.527130  0.628191  0.749053  1
  Sn  Sn29  1  0.027130  0.871809  0.750947  1
  Sn  Sn30  1  0.466800  0.368630  0.248864  1
  Sn  Sn31  1  0.966800  0.131370  0.251136  1
  Sn  Sn32  1  0.306661  0.145748  0.751223  1
  Sn  Sn33  1  0.806661  0.354252  0.748777  1
  Sn  Sn34  1  0.698007  0.863678  0.249368  1
  Sn  Sn35  1  0.198007  0.636322  0.250632  1
