# generated using pymatgen
data_Si12Tc(P4Rh)3
_symmetry_space_group_name_H-M   'P 1'
_cell_length_a   5.86226714
_cell_length_b   6.11617235
_cell_length_c   13.13163255
_cell_angle_alpha   90.43683698
_cell_angle_beta   90.62995578
_cell_angle_gamma   92.32406492
_symmetry_Int_Tables_number   1
_chemical_formula_structural   Si12Tc(P4Rh)3
_chemical_formula_sum   'Si12 Tc1 P12 Rh3'
_cell_volume   470.39884789
_cell_formula_units_Z   1
loop_
 _symmetry_equiv_pos_site_id
 _symmetry_equiv_pos_as_xyz
  1  'x, y, z'
loop_
 _atom_site_type_symbol
 _atom_site_label
 _atom_site_symmetry_multiplicity
 _atom_site_fract_x
 _atom_site_fract_y
 _atom_site_fract_z
 _atom_site_occupancy
  Si  Si0  1  0.015385  0.133742  0.312216  1
  Si  Si1  1  0.464084  0.841447  0.683120  1
  Si  Si2  1  0.923154  0.617721  0.211611  1
  Si  Si3  1  0.432729  0.375546  0.787244  1
  Si  Si4  1  0.345850  0.916206  0.951632  1
  Si  Si5  1  0.843262  0.084082  0.046206  1
  Si  Si6  1  0.915010  0.523686  0.673701  1
  Si  Si7  1  0.400015  0.484230  0.329538  1
  Si  Si8  1  0.993178  0.058003  0.567871  1
  Si  Si9  1  0.501700  0.949908  0.431181  1
  Si  Si10  1  0.915981  0.623916  0.926804  1
  Si  Si11  1  0.405955  0.378174  0.074083  1
  Tc  Tc12  1  0.993420  0.490796  0.378145  1
  P  P13  1  0.581290  0.034463  0.826403  1
  P  P14  1  0.083122  0.957112  0.167143  1
  P  P15  1  0.520181  0.564777  0.932675  1
  P  P16  1  0.015815  0.435530  0.067762  1
  P  P17  1  0.606318  0.119993  0.577462  1
  P  P18  1  0.112192  0.864247  0.424756  1
  P  P19  1  0.536912  0.653170  0.181239  1
  P  P20  1  0.044193  0.356142  0.818301  1
  P  P21  1  0.604713  0.159348  0.294841  1
  P  P22  1  0.076714  0.867470  0.708621  1
  P  P23  1  0.143295  0.401226  0.551633  1
  P  P24  1  0.644723  0.615332  0.453561  1
  Rh  Rh25  1  0.969548  0.985379  0.878169  1
  Rh  Rh26  1  0.473814  0.020534  0.122416  1
  Rh  Rh27  1  0.531246  0.487816  0.621667  1
