# generated using pymatgen
data_In2Ni11Te4
_symmetry_space_group_name_H-M   'P 1'
_cell_length_a   3.78124800
_cell_length_b   3.78124800
_cell_length_c   19.39224700
_cell_angle_alpha   90.00000000
_cell_angle_beta   90.00000000
_cell_angle_gamma   90.00000000
_symmetry_Int_Tables_number   1
_chemical_formula_structural   In2Ni11Te4
_chemical_formula_sum   'In2 Ni11 Te4'
_cell_volume   277.26717576
_cell_formula_units_Z   1
loop_
 _symmetry_equiv_pos_site_id
 _symmetry_equiv_pos_as_xyz
  1  'x, y, z'
loop_
 _atom_site_type_symbol
 _atom_site_label
 _atom_site_symmetry_multiplicity
 _atom_site_fract_x
 _atom_site_fract_y
 _atom_site_fract_z
 _atom_site_occupancy
  In  In0  1  0.000000  0.000000  0.001150  1
  In  In1  1  0.500000  0.500000  0.499842  1
  Ni  Ni2  1  0.000000  0.500000  0.404977  1
  Ni  Ni3  1  0.500000  0.000000  0.906011  1
  Ni  Ni4  1  0.500000  0.000000  0.404977  1
  Ni  Ni5  1  0.000000  0.500000  0.906011  1
  Ni  Ni6  1  0.500000  0.000000  0.096038  1
  Ni  Ni7  1  0.000000  0.500000  0.594846  1
  Ni  Ni8  1  0.000000  0.500000  0.096038  1
  Ni  Ni9  1  0.500000  0.000000  0.594846  1
  Ni  Ni10  1  0.500000  0.500000  0.000899  1
  Ni  Ni11  1  0.000000  0.000000  0.500823  1
  Ni  Ni12  1  0.500000  0.500000  0.308508  1
  Te  Te13  1  0.000000  0.000000  0.315338  1
  Te  Te14  1  0.500000  0.500000  0.822159  1
  Te  Te15  1  0.500000  0.500000  0.178884  1
  Te  Te16  1  0.000000  0.000000  0.678252  1
