# generated using pymatgen
data_CePu2F12
_symmetry_space_group_name_H-M   'P 1'
_cell_length_a   8.34148236
_cell_length_b   8.34148191
_cell_length_c   8.33004500
_cell_angle_alpha   63.31709442
_cell_angle_beta   63.31709158
_cell_angle_gamma   80.54733747
_symmetry_Int_Tables_number   1
_chemical_formula_structural   CePu2F12
_chemical_formula_sum   'Ce2 Pu4 F24'
_cell_volume   462.22207603
_cell_formula_units_Z   2
loop_
 _symmetry_equiv_pos_site_id
 _symmetry_equiv_pos_as_xyz
  1  'x, y, z'
loop_
 _atom_site_type_symbol
 _atom_site_label
 _atom_site_symmetry_multiplicity
 _atom_site_fract_x
 _atom_site_fract_y
 _atom_site_fract_z
 _atom_site_occupancy
  Ce  Ce0  1  0.212642  0.787358  0.250000  1
  Ce  Ce1  1  0.787358  0.212642  0.750000  1
  Pu  Pu2  1  0.367897  0.223041  0.331228  1
  Pu  Pu3  1  0.776959  0.632103  0.168772  1
  Pu  Pu4  1  0.632103  0.776959  0.668772  1
  Pu  Pu5  1  0.223041  0.367897  0.831228  1
  F  F6  1  0.598420  0.401580  0.250000  1
  F  F7  1  0.401580  0.598420  0.750000  1
  F  F8  1  0.497225  0.741068  0.217588  1
  F  F9  1  0.258932  0.502775  0.282412  1
  F  F10  1  0.502775  0.258932  0.782412  1
  F  F11  1  0.741068  0.497225  0.717588  1
  F  F12  1  0.271803  0.973516  0.353237  1
  F  F13  1  0.026484  0.728197  0.146763  1
  F  F14  1  0.728197  0.026484  0.646763  1
  F  F15  1  0.973516  0.271803  0.853237  1
  F  F16  1  0.500000  0.000000  0.500000  1
  F  F17  1  0.000000  0.500000  0.000000  1
  F  F18  1  0.178571  0.066020  0.040224  1
  F  F19  1  0.933980  0.821429  0.459776  1
  F  F20  1  0.821429  0.933980  0.959776  1
  F  F21  1  0.066020  0.178571  0.540224  1
  F  F22  1  0.592828  0.185537  0.077898  1
  F  F23  1  0.814463  0.407172  0.422102  1
  F  F24  1  0.407172  0.814463  0.922102  1
  F  F25  1  0.185537  0.592828  0.577898  1
  F  F26  1  0.257195  0.318064  0.106040  1
  F  F27  1  0.681936  0.742805  0.393960  1
  F  F28  1  0.742805  0.681936  0.893960  1
  F  F29  1  0.318064  0.257195  0.606040  1
