# generated using pymatgen
data_AcNd3B4I5
_symmetry_space_group_name_H-M   'P 1'
_cell_length_a   9.98667920
_cell_length_b   9.98667698
_cell_length_c   10.54906000
_cell_angle_alpha   73.12315523
_cell_angle_beta   73.12315910
_cell_angle_gamma   25.30923046
_symmetry_Int_Tables_number   1
_chemical_formula_structural   AcNd3B4I5
_chemical_formula_sum   'Ac1 Nd3 B4 I5'
_cell_volume   429.40417365
_cell_formula_units_Z   1
loop_
 _symmetry_equiv_pos_site_id
 _symmetry_equiv_pos_as_xyz
  1  'x, y, z'
loop_
 _atom_site_type_symbol
 _atom_site_label
 _atom_site_symmetry_multiplicity
 _atom_site_fract_x
 _atom_site_fract_y
 _atom_site_fract_z
 _atom_site_occupancy
  Ac  Ac0  1  0.508472  0.508472  0.743305  1
  Nd  Nd1  1  0.493663  0.493663  0.239943  1
  Nd  Nd2  1  0.132542  0.132542  0.939321  1
  Nd  Nd3  1  0.868154  0.868154  0.067844  1
  B  B4  1  0.316015  0.684786  0.000335  1
  B  B5  1  0.684786  0.316015  0.000335  1
  B  B6  1  0.998237  0.998237  0.091760  1
  B  B7  1  0.002335  0.002335  0.910401  1
  I  I8  1  0.685263  0.685263  0.695715  1
  I  I9  1  0.321418  0.321418  0.310683  1
  I  I10  1  0.327182  0.327182  0.864385  1
  I  I11  1  0.669403  0.669403  0.144965  1
  I  I12  1  0.006830  0.006830  0.481207  1
