# generated using pymatgen
data_Ho2Bi5SbO14
_symmetry_space_group_name_H-M   'P 1'
_cell_length_a   6.57099902
_cell_length_b   6.81209394
_cell_length_c   7.75602757
_cell_angle_alpha   106.23166092
_cell_angle_beta   89.99029394
_cell_angle_gamma   99.04880422
_symmetry_Int_Tables_number   1
_chemical_formula_structural   Ho2Bi5SbO14
_chemical_formula_sum   'Ho2 Bi5 Sb1 O14'
_cell_volume   328.83886323
_cell_formula_units_Z   1
loop_
 _symmetry_equiv_pos_site_id
 _symmetry_equiv_pos_as_xyz
  1  'x, y, z'
loop_
 _atom_site_type_symbol
 _atom_site_label
 _atom_site_symmetry_multiplicity
 _atom_site_fract_x
 _atom_site_fract_y
 _atom_site_fract_z
 _atom_site_occupancy
  Ho  Ho0  1  0.459787  0.003492  0.244834  1
  Ho  Ho1  1  0.540213  0.996508  0.755166  1
  Bi  Bi2  1  0.000000  0.000000  0.500000  1
  Bi  Bi3  1  0.257816  0.516401  0.881832  1
  Bi  Bi4  1  0.742184  0.483599  0.118168  1
  Bi  Bi5  1  0.725697  0.465274  0.609501  1
  Bi  Bi6  1  0.274303  0.534726  0.390499  1
  Sb  Sb7  1  0.000000  0.000000  0.000000  1
  O  O8  1  0.462993  0.659313  0.180508  1
  O  O9  1  0.537007  0.340687  0.819492  1
  O  O10  1  0.291178  0.950976  0.950299  1
  O  O11  1  0.708822  0.049024  0.049701  1
  O  O12  1  0.300591  0.920737  0.508497  1
  O  O13  1  0.699409  0.079263  0.491503  1
  O  O14  1  0.531011  0.348511  0.349408  1
  O  O15  1  0.468989  0.651489  0.650592  1
  O  O16  1  0.920056  0.691485  0.966654  1
  O  O17  1  0.079944  0.308515  0.033346  1
  O  O18  1  0.097663  0.326054  0.618388  1
  O  O19  1  0.902337  0.673946  0.381612  1
  O  O20  1  0.887710  0.939635  0.744075  1
  O  O21  1  0.112290  0.060365  0.255925  1
