# generated using pymatgen
data_YbY2UGe6Ir7
_symmetry_space_group_name_H-M   'P 1'
_cell_length_a   7.25232762
_cell_length_b   7.25232820
_cell_length_c   7.28667608
_cell_angle_alpha   109.42386232
_cell_angle_beta   109.42386323
_cell_angle_gamma   109.08385892
_symmetry_Int_Tables_number   1
_chemical_formula_structural   YbY2UGe6Ir7
_chemical_formula_sum   'Yb1 Y2 U1 Ge6 Ir7'
_cell_volume   296.76712515
_cell_formula_units_Z   1
loop_
 _symmetry_equiv_pos_site_id
 _symmetry_equiv_pos_as_xyz
  1  'x, y, z'
loop_
 _atom_site_type_symbol
 _atom_site_label
 _atom_site_symmetry_multiplicity
 _atom_site_fract_x
 _atom_site_fract_y
 _atom_site_fract_z
 _atom_site_occupancy
  Yb  Yb0  1  0.000000  0.000000  0.500000  1
  Y  Y1  1  0.000000  0.500000  0.000000  1
  Y  Y2  1  0.500000  0.000000  0.000000  1
  U  U3  1  0.500000  0.500000  0.500000  1
  Ge  Ge4  1  0.687298  0.002937  0.681471  1
  Ge  Ge5  1  0.312702  0.997063  0.318529  1
  Ge  Ge6  1  0.997063  0.312702  0.318529  1
  Ge  Ge7  1  0.002937  0.687298  0.681471  1
  Ge  Ge8  1  0.687193  0.687193  0.008979  1
  Ge  Ge9  1  0.312807  0.312807  0.991021  1
  Ir  Ir10  1  0.254080  0.500769  0.746434  1
  Ir  Ir11  1  0.254456  0.745544  0.500000  1
  Ir  Ir12  1  0.500769  0.254080  0.746434  1
  Ir  Ir13  1  0.499231  0.745920  0.253566  1
  Ir  Ir14  1  0.745920  0.499231  0.253566  1
  Ir  Ir15  1  0.000000  0.000000  0.000000  1
  Ir  Ir16  1  0.745544  0.254456  0.500000  1
