# generated using pymatgen
data_Yb8P5Au
_symmetry_space_group_name_H-M   'P 1'
_cell_length_a   7.53662340
_cell_length_b   7.53662337
_cell_length_c   7.53662303
_cell_angle_alpha   109.16658698
_cell_angle_beta   109.16658945
_cell_angle_gamma   110.08221328
_symmetry_Int_Tables_number   1
_chemical_formula_structural   Yb8P5Au
_chemical_formula_sum   'Yb8 P5 Au1'
_cell_volume   329.51217879
_cell_formula_units_Z   1
loop_
 _symmetry_equiv_pos_site_id
 _symmetry_equiv_pos_as_xyz
  1  'x, y, z'
loop_
 _atom_site_type_symbol
 _atom_site_label
 _atom_site_symmetry_multiplicity
 _atom_site_fract_x
 _atom_site_fract_y
 _atom_site_fract_z
 _atom_site_occupancy
  Yb  Yb0  1  0.745435  0.365296  0.241435  1
  Yb  Yb1  1  0.970678  0.728880  0.088508  1
  Yb  Yb2  1  0.640375  0.882172  0.911492  1
  Yb  Yb3  1  0.123861  0.503999  0.758565  1
  Yb  Yb4  1  0.634704  0.876139  0.380140  1
  Yb  Yb5  1  0.496001  0.254565  0.619860  1
  Yb  Yb6  1  0.271120  0.359625  0.241797  1
  Yb  Yb7  1  0.117828  0.029322  0.758203  1
  P  P8  1  0.744076  0.631699  0.618825  1
  P  P9  1  0.368301  0.987126  0.112377  1
  P  P10  1  0.012874  0.125252  0.381175  1
  P  P11  1  0.500000  0.500000  0.000000  1
  P  P12  1  0.874748  0.255924  0.887623  1
  Au  Au13  1  0.250000  0.750000  0.500000  1
