# generated using pymatgen
data_Rb6GaSbAs2
_symmetry_space_group_name_H-M   'P 1'
_cell_length_a   6.14983400
_cell_length_b   10.40008691
_cell_length_c   12.24418255
_cell_angle_alpha   78.10938323
_cell_angle_beta   90.00000000
_cell_angle_gamma   90.00000000
_symmetry_Int_Tables_number   1
_chemical_formula_structural   Rb6GaSbAs2
_chemical_formula_sum   'Rb12 Ga2 Sb2 As4'
_cell_volume   766.31964256
_cell_formula_units_Z   2
loop_
 _symmetry_equiv_pos_site_id
 _symmetry_equiv_pos_as_xyz
  1  'x, y, z'
loop_
 _atom_site_type_symbol
 _atom_site_label
 _atom_site_symmetry_multiplicity
 _atom_site_fract_x
 _atom_site_fract_y
 _atom_site_fract_z
 _atom_site_occupancy
  Rb  Rb0  1  0.750000  0.458471  0.077843  1
  Rb  Rb1  1  0.250000  0.541529  0.922157  1
  Rb  Rb2  1  0.750000  0.735470  0.232395  1
  Rb  Rb3  1  0.250000  0.264530  0.767605  1
  Rb  Rb4  1  0.250000  0.566910  0.530281  1
  Rb  Rb5  1  0.750000  0.433090  0.469719  1
  Rb  Rb6  1  0.250000  0.862252  0.027695  1
  Rb  Rb7  1  0.750000  0.137748  0.972305  1
  Rb  Rb8  1  0.250000  0.878885  0.674979  1
  Rb  Rb9  1  0.750000  0.121115  0.325021  1
  Rb  Rb10  1  0.250000  0.917298  0.373790  1
  Rb  Rb11  1  0.750000  0.082702  0.626210  1
  Ga  Ga12  1  0.250000  0.334222  0.291430  1
  Ga  Ga13  1  0.750000  0.665778  0.708570  1
  Sb  Sb14  1  0.250000  0.186165  0.127122  1
  Sb  Sb15  1  0.750000  0.813835  0.872878  1
  As  As16  1  0.250000  0.214798  0.486307  1
  As  As17  1  0.750000  0.785202  0.513693  1
  As  As18  1  0.250000  0.571111  0.230802  1
  As  As19  1  0.750000  0.428889  0.769198  1
