# generated using pymatgen
data_TbLuTa2(SnPt)4
_symmetry_space_group_name_H-M   'P 1'
_cell_length_a   6.44188724
_cell_length_b   4.53717000
_cell_length_c   9.09976474
_cell_angle_alpha   90.00000000
_cell_angle_beta   90.07094312
_cell_angle_gamma   90.00000000
_symmetry_Int_Tables_number   1
_chemical_formula_structural   TbLuTa2(SnPt)4
_chemical_formula_sum   'Tb1 Lu1 Ta2 Sn4 Pt4'
_cell_volume   265.96715135
_cell_formula_units_Z   1
loop_
 _symmetry_equiv_pos_site_id
 _symmetry_equiv_pos_as_xyz
  1  'x, y, z'
loop_
 _atom_site_type_symbol
 _atom_site_label
 _atom_site_symmetry_multiplicity
 _atom_site_fract_x
 _atom_site_fract_y
 _atom_site_fract_z
 _atom_site_occupancy
  Tb  Tb0  1  0.003009  0.000000  0.376173  1
  Lu  Lu1  1  0.503582  0.500001  0.623616  1
  Ta  Ta2  1  0.497782  0.500001  0.123915  1
  Ta  Ta3  1  0.997205  0.000000  0.876071  1
  Sn  Sn4  1  0.987587  0.500001  0.124462  1
  Sn  Sn5  1  0.510050  0.000000  0.374293  1
  Sn  Sn6  1  0.009678  0.500001  0.627794  1
  Sn  Sn7  1  0.486420  0.000000  0.873433  1
  Pt  Pt8  1  0.735371  0.000000  0.110282  1
  Pt  Pt9  1  0.269366  0.500001  0.358679  1
  Pt  Pt10  1  0.762788  0.000000  0.643347  1
  Pt  Pt11  1  0.237159  0.500001  0.887940  1
