# generated using pymatgen
data_Mg2Cu3SbO6
_symmetry_space_group_name_H-M   'P 1'
_cell_length_a   5.42213124
_cell_length_b   5.42213075
_cell_length_c   5.90061706
_cell_angle_alpha   83.46363820
_cell_angle_beta   83.46363564
_cell_angle_gamma   120.68784262
_symmetry_Int_Tables_number   1
_chemical_formula_structural   Mg2Cu3SbO6
_chemical_formula_sum   'Mg2 Cu3 Sb1 O6'
_cell_volume   145.18013610
_cell_formula_units_Z   1
loop_
 _symmetry_equiv_pos_site_id
 _symmetry_equiv_pos_as_xyz
  1  'x, y, z'
loop_
 _atom_site_type_symbol
 _atom_site_label
 _atom_site_symmetry_multiplicity
 _atom_site_fract_x
 _atom_site_fract_y
 _atom_site_fract_z
 _atom_site_occupancy
  Mg  Mg0  1  0.667014  0.332985  0.000000  1
  Mg  Mg1  1  0.332985  0.667014  0.000000  1
  Cu  Cu2  1  0.838359  0.161640  0.500000  1
  Cu  Cu3  1  0.499999  0.499999  0.500000  1
  Cu  Cu4  1  0.161640  0.838359  0.500000  1
  Sb  Sb5  1  0.000000  0.000000  0.000000  1
  O  O6  1  0.630354  0.630354  0.179621  1
  O  O7  1  0.275064  0.954272  0.179682  1
  O  O8  1  0.954272  0.275064  0.179682  1
  O  O9  1  0.045729  0.724937  0.820319  1
  O  O10  1  0.724937  0.045729  0.820319  1
  O  O11  1  0.369647  0.369647  0.820379  1
