# generated using pymatgen
data_Tb15Ho(InRu)4
_symmetry_space_group_name_H-M   'P 1'
_cell_length_a   9.65932429
_cell_length_b   9.65913707
_cell_length_c   9.65913600
_cell_angle_alpha   59.99999682
_cell_angle_beta   60.00063799
_cell_angle_gamma   60.00063428
_symmetry_Int_Tables_number   1
_chemical_formula_structural   Tb15Ho(InRu)4
_chemical_formula_sum   'Tb15 Ho1 In4 Ru4'
_cell_volume   637.25393293
_cell_formula_units_Z   1
loop_
 _symmetry_equiv_pos_site_id
 _symmetry_equiv_pos_as_xyz
  1  'x, y, z'
loop_
 _atom_site_type_symbol
 _atom_site_label
 _atom_site_symmetry_multiplicity
 _atom_site_fract_x
 _atom_site_fract_y
 _atom_site_fract_z
 _atom_site_occupancy
  Tb  Tb0  1  0.808839  0.191332  0.808496  1
  Tb  Tb1  1  0.940837  0.559170  0.559170  1
  Tb  Tb2  1  0.559294  0.940692  0.559322  1
  Tb  Tb3  1  0.808839  0.191332  0.191332  1
  Tb  Tb4  1  0.191313  0.808763  0.191162  1
  Tb  Tb5  1  0.348556  0.953989  0.348728  1
  Tb  Tb6  1  0.940837  0.940823  0.559170  1
  Tb  Tb7  1  0.559294  0.940692  0.940692  1
  Tb  Tb8  1  0.191313  0.808763  0.808763  1
  Tb  Tb9  1  0.348556  0.348728  0.953989  1
  Tb  Tb10  1  0.559294  0.559322  0.940692  1
  Tb  Tb11  1  0.348556  0.348728  0.348728  1
  Tb  Tb12  1  0.191313  0.191162  0.808763  1
  Tb  Tb13  1  0.808839  0.808496  0.191332  1
  Tb  Tb14  1  0.940837  0.559170  0.940823  1
  Ho  Ho15  1  0.954158  0.348614  0.348614  1
  In  In16  1  0.582231  0.582058  0.582058  1
  In  In17  1  0.582231  0.253654  0.582058  1
  In  In18  1  0.582231  0.582058  0.253654  1
  In  In19  1  0.253643  0.582119  0.582119  1
  Ru  Ru20  1  0.139405  0.140101  0.580394  1
  Ru  Ru21  1  0.580779  0.139741  0.139741  1
  Ru  Ru22  1  0.139405  0.580394  0.140101  1
  Ru  Ru23  1  0.139405  0.140101  0.140101  1
