# generated using pymatgen
data_Tm2Fe2Co7P7W3
_symmetry_space_group_name_H-M   'P 1'
_cell_length_a   9.04625395
_cell_length_b   9.05004933
_cell_length_c   3.69841800
_cell_angle_alpha   90.00000000
_cell_angle_beta   90.00000000
_cell_angle_gamma   119.83879789
_symmetry_Int_Tables_number   1
_chemical_formula_structural   Tm2Fe2Co7P7W3
_chemical_formula_sum   'Tm2 Fe2 Co7 P7 W3'
_cell_volume   262.64522941
_cell_formula_units_Z   1
loop_
 _symmetry_equiv_pos_site_id
 _symmetry_equiv_pos_as_xyz
  1  'x, y, z'
loop_
 _atom_site_type_symbol
 _atom_site_label
 _atom_site_symmetry_multiplicity
 _atom_site_fract_x
 _atom_site_fract_y
 _atom_site_fract_z
 _atom_site_occupancy
  Tm  Tm0  1  0.335029  0.667671  0.000000  1
  Tm  Tm1  1  0.999921  0.999474  0.500000  1
  Fe  Fe2  1  0.506155  0.054497  0.000000  1
  Fe  Fe3  1  0.547359  0.492862  0.000000  1
  Co  Co4  1  0.730518  0.964835  0.000000  1
  Co  Co5  1  0.233736  0.269547  0.000000  1
  Co  Co6  1  0.035575  0.765286  0.000000  1
  Co  Co7  1  0.946641  0.452961  0.000000  1
  Co  Co8  1  0.105972  0.385551  0.500000  1
  Co  Co9  1  0.278354  0.893159  0.500000  1
  Co  Co10  1  0.615556  0.721887  0.500000  1
  P  P11  1  0.969416  0.219705  0.000000  1
  P  P12  1  0.250776  0.029440  0.000000  1
  P  P13  1  0.778313  0.748333  0.000000  1
  P  P14  1  0.079066  0.623539  0.500000  1
  P  P15  1  0.543838  0.922405  0.500000  1
  P  P16  1  0.378868  0.458669  0.500000  1
  P  P17  1  0.665378  0.332355  0.000000  1
  W  W18  1  0.765510  0.210252  0.500000  1
  W  W19  1  0.443843  0.233478  0.500000  1
  W  W20  1  0.790179  0.554093  0.500000  1
