# generated using pymatgen
data_YbHo5NpO12
_symmetry_space_group_name_H-M   'P 1'
_cell_length_a   6.55524205
_cell_length_b   6.54250861
_cell_length_c   6.52812748
_cell_angle_alpha   98.91636880
_cell_angle_beta   98.53489684
_cell_angle_gamma   98.88128689
_symmetry_Int_Tables_number   1
_chemical_formula_structural   YbHo5NpO12
_chemical_formula_sum   'Yb1 Ho5 Np1 O12'
_cell_volume   268.98345633
_cell_formula_units_Z   1
loop_
 _symmetry_equiv_pos_site_id
 _symmetry_equiv_pos_as_xyz
  1  'x, y, z'
loop_
 _atom_site_type_symbol
 _atom_site_label
 _atom_site_symmetry_multiplicity
 _atom_site_fract_x
 _atom_site_fract_y
 _atom_site_fract_z
 _atom_site_occupancy
  Yb  Yb0  1  0.146563  0.324120  0.609127  1
  Ho  Ho1  1  0.386238  0.850314  0.671783  1
  Ho  Ho2  1  0.669563  0.389127  0.847378  1
  Ho  Ho3  1  0.327396  0.610647  0.145765  1
  Ho  Ho4  1  0.611180  0.148984  0.329941  1
  Ho  Ho5  1  0.854227  0.671768  0.390285  1
  Np  Np6  1  0.999275  0.000141  0.001389  1
  O  O7  1  0.079166  0.301651  0.968087  1
  O  O8  1  0.038930  0.919128  0.698834  1
  O  O9  1  0.417442  0.577878  0.825240  1
  O  O10  1  0.177154  0.602828  0.424554  1
  O  O11  1  0.696724  0.042065  0.922181  1
  O  O12  1  0.433748  0.174087  0.593178  1
  O  O13  1  0.573349  0.821679  0.406914  1
  O  O14  1  0.304395  0.958942  0.079101  1
  O  O15  1  0.818566  0.412393  0.569523  1
  O  O16  1  0.590110  0.426619  0.176434  1
  O  O17  1  0.953942  0.072168  0.301539  1
  O  O18  1  0.922033  0.695461  0.038747  1
