# generated using pymatgen
data_Th7UH30
_symmetry_space_group_name_H-M   'P 1'
_cell_length_a   7.87544477
_cell_length_b   7.87544426
_cell_length_c   7.87544405
_cell_angle_alpha   109.47222327
_cell_angle_beta   109.47222731
_cell_angle_gamma   109.47221921
_symmetry_Int_Tables_number   1
_chemical_formula_structural   Th7UH30
_chemical_formula_sum   'Th7 U1 H30'
_cell_volume   375.99943251
_cell_formula_units_Z   1
loop_
 _symmetry_equiv_pos_site_id
 _symmetry_equiv_pos_as_xyz
  1  'x, y, z'
loop_
 _atom_site_type_symbol
 _atom_site_label
 _atom_site_symmetry_multiplicity
 _atom_site_fract_x
 _atom_site_fract_y
 _atom_site_fract_z
 _atom_site_occupancy
  Th  Th0  1  0.499486  0.000133  0.081968  1
  Th  Th1  1  0.000133  0.081968  0.499486  1
  Th  Th2  1  0.081968  0.499486  0.000133  1
  Th  Th3  1  0.998329  0.585093  0.503246  1
  Th  Th4  1  0.585093  0.503246  0.998329  1
  Th  Th5  1  0.503246  0.998329  0.585093  1
  Th  Th6  1  0.414733  0.414733  0.414733  1
  U  U7  1  0.913284  0.913284  0.913284  1
  H  H8  1  0.653741  0.968163  0.370928  1
  H  H9  1  0.221376  0.320059  0.845693  1
  H  H10  1  0.184801  0.404076  0.533363  1
  H  H11  1  0.094022  0.277350  0.125423  1
  H  H12  1  0.277350  0.125423  0.094022  1
  H  H13  1  0.125423  0.094022  0.277350  1
  H  H14  1  0.468850  0.154119  0.870728  1
  H  H15  1  0.718251  0.345620  0.815360  1
  H  H16  1  0.624839  0.376062  0.250010  1
  H  H17  1  0.250010  0.624839  0.376062  1
  H  H18  1  0.750534  0.875831  0.124101  1
  H  H19  1  0.124101  0.750534  0.875831  1
  H  H20  1  0.376062  0.250010  0.624839  1
  H  H21  1  0.875831  0.124101  0.750534  1
  H  H22  1  0.780358  0.597085  0.630316  1
  H  H23  1  0.320059  0.845693  0.221376  1
  H  H24  1  0.370928  0.653741  0.968163  1
  H  H25  1  0.968163  0.370928  0.653741  1
  H  H26  1  0.533363  0.184801  0.404076  1
  H  H27  1  0.404076  0.533363  0.184801  1
  H  H28  1  0.845693  0.221376  0.320059  1
  H  H29  1  0.904575  0.687054  0.031041  1
  H  H30  1  0.815360  0.718251  0.345620  1
  H  H31  1  0.154119  0.870728  0.468850  1
  H  H32  1  0.687054  0.031041  0.904575  1
  H  H33  1  0.345620  0.815360  0.718251  1
  H  H34  1  0.870728  0.468850  0.154119  1
  H  H35  1  0.630316  0.780358  0.597085  1
  H  H36  1  0.597085  0.630316  0.780358  1
  H  H37  1  0.031041  0.904575  0.687054  1
