# generated using pymatgen
data_Ce3Sc2Tc2Ru
_symmetry_space_group_name_H-M   'P 1'
_cell_length_a   6.38961900
_cell_length_b   7.83935971
_cell_length_c   7.83715210
_cell_angle_alpha   120.00932360
_cell_angle_beta   90.00000000
_cell_angle_gamma   90.00000000
_symmetry_Int_Tables_number   1
_chemical_formula_structural   Ce3Sc2Tc2Ru
_chemical_formula_sum   'Ce6 Sc4 Tc4 Ru2'
_cell_volume   339.94108239
_cell_formula_units_Z   2
loop_
 _symmetry_equiv_pos_site_id
 _symmetry_equiv_pos_as_xyz
  1  'x, y, z'
loop_
 _atom_site_type_symbol
 _atom_site_label
 _atom_site_symmetry_multiplicity
 _atom_site_fract_x
 _atom_site_fract_y
 _atom_site_fract_z
 _atom_site_occupancy
  Ce  Ce0  1  0.750000  0.757449  0.752599  1
  Ce  Ce1  1  0.250000  0.242551  0.247401  1
  Ce  Ce2  1  0.750000  0.004850  0.247401  1
  Ce  Ce3  1  0.250000  0.995150  0.752599  1
  Ce  Ce4  1  0.750000  0.246066  0.000000  1
  Ce  Ce5  1  0.250000  0.753934  0.000000  1
  Sc  Sc6  1  0.000000  0.665176  0.330350  1
  Sc  Sc7  1  0.000000  0.334824  0.669650  1
  Sc  Sc8  1  0.500000  0.334824  0.669650  1
  Sc  Sc9  1  0.500000  0.665176  0.330350  1
  Tc  Tc10  1  0.750000  0.378369  0.377759  1
  Tc  Tc11  1  0.250000  0.621631  0.622241  1
  Tc  Tc12  1  0.750000  0.000610  0.622241  1
  Tc  Tc13  1  0.250000  0.999390  0.377759  1
  Ru  Ru14  1  0.750000  0.624133  0.000000  1
  Ru  Ru15  1  0.250000  0.375867  0.000000  1
