# generated using pymatgen
data_Dy5Tm11CdIn3Rh4
_symmetry_space_group_name_H-M   'P 1'
_cell_length_a   9.57140568
_cell_length_b   9.55823618
_cell_length_c   9.55823567
_cell_angle_alpha   60.08274918
_cell_angle_beta   60.03416425
_cell_angle_gamma   60.03417695
_symmetry_Int_Tables_number   1
_chemical_formula_structural   Dy5Tm11CdIn3Rh4
_chemical_formula_sum   'Dy5 Tm11 Cd1 In3 Rh4'
_cell_volume   619.02968461
_cell_formula_units_Z   1
loop_
 _symmetry_equiv_pos_site_id
 _symmetry_equiv_pos_as_xyz
  1  'x, y, z'
loop_
 _atom_site_type_symbol
 _atom_site_label
 _atom_site_symmetry_multiplicity
 _atom_site_fract_x
 _atom_site_fract_y
 _atom_site_fract_z
 _atom_site_occupancy
  Dy  Dy0  1  0.061419  0.061678  0.438082  1
  Dy  Dy1  1  0.436134  0.065015  0.435585  1
  Dy  Dy2  1  0.061419  0.438082  0.061678  1
  Dy  Dy3  1  0.051501  0.648557  0.648557  1
  Dy  Dy4  1  0.436134  0.435585  0.065015  1
  Tm  Tm5  1  0.648662  0.049960  0.648849  1
  Tm  Tm6  1  0.187838  0.814080  0.187500  1
  Tm  Tm7  1  0.187838  0.187500  0.814080  1
  Tm  Tm8  1  0.810422  0.810553  0.190248  1
  Tm  Tm9  1  0.439697  0.059820  0.059820  1
  Tm  Tm10  1  0.814017  0.187767  0.187767  1
  Tm  Tm11  1  0.063316  0.437321  0.437321  1
  Tm  Tm12  1  0.810422  0.190248  0.810553  1
  Tm  Tm13  1  0.190217  0.811091  0.811091  1
  Tm  Tm14  1  0.648662  0.648849  0.049960  1
  Tm  Tm15  1  0.651415  0.652148  0.652148  1
  Cd  Cd16  1  0.418203  0.418052  0.418052  1
  In  In17  1  0.747223  0.418036  0.418036  1
  In  In18  1  0.419104  0.747045  0.417072  1
  In  In19  1  0.419104  0.417072  0.747045  1
  Rh  Rh20  1  0.857901  0.858524  0.425842  1
  Rh  Rh21  1  0.854873  0.858154  0.858154  1
  Rh  Rh22  1  0.426577  0.859020  0.859020  1
  Rh  Rh23  1  0.857901  0.425842  0.858524  1
