# generated using pymatgen
data_Ir3RhPb4O13
_symmetry_space_group_name_H-M   'P 1'
_cell_length_a   7.33162112
_cell_length_b   7.33162125
_cell_length_c   7.33162132
_cell_angle_alpha   60.01061666
_cell_angle_beta   60.01061237
_cell_angle_gamma   60.01062840
_symmetry_Int_Tables_number   1
_chemical_formula_structural   Ir3RhPb4O13
_chemical_formula_sum   'Ir3 Rh1 Pb4 O13'
_cell_volume   278.73378034
_cell_formula_units_Z   1
loop_
 _symmetry_equiv_pos_site_id
 _symmetry_equiv_pos_as_xyz
  1  'x, y, z'
loop_
 _atom_site_type_symbol
 _atom_site_label
 _atom_site_symmetry_multiplicity
 _atom_site_fract_x
 _atom_site_fract_y
 _atom_site_fract_z
 _atom_site_occupancy
  Ir  Ir0  1  0.000342  0.499886  0.499886  1
  Ir  Ir1  1  0.499886  0.499886  0.000342  1
  Ir  Ir2  1  0.499886  0.000342  0.499886  1
  Rh  Rh3  1  0.499737  0.499737  0.499737  1
  Pb  Pb4  1  0.996703  0.996703  0.996703  1
  Pb  Pb5  1  0.506360  0.998241  0.998241  1
  Pb  Pb6  1  0.998241  0.998241  0.506360  1
  Pb  Pb7  1  0.998241  0.506360  0.998241  1
  O  O8  1  0.833112  0.420139  0.420139  1
  O  O9  1  0.420447  0.827494  0.827494  1
  O  O10  1  0.420139  0.420139  0.833112  1
  O  O11  1  0.827494  0.827494  0.420447  1
  O  O12  1  0.827494  0.420447  0.827494  1
  O  O13  1  0.420139  0.833112  0.420139  1
  O  O14  1  0.169552  0.577515  0.577515  1
  O  O15  1  0.577958  0.174862  0.174862  1
  O  O16  1  0.577515  0.577515  0.169552  1
  O  O17  1  0.174862  0.174862  0.577958  1
  O  O18  1  0.174862  0.577958  0.174862  1
  O  O19  1  0.577515  0.169552  0.577515  1
  O  O20  1  0.124516  0.124516  0.124516  1
