# generated using pymatgen
data_Tb3Ho(WN3)4
_symmetry_space_group_name_H-M   'P 1'
_cell_length_a   7.36245149
_cell_length_b   7.36245078
_cell_length_c   6.30118143
_cell_angle_alpha   73.61873938
_cell_angle_beta   73.61874119
_cell_angle_gamma   81.52117730
_symmetry_Int_Tables_number   1
_chemical_formula_structural   Tb3Ho(WN3)4
_chemical_formula_sum   'Tb3 Ho1 W4 N12'
_cell_volume   313.53565113
_cell_formula_units_Z   1
loop_
 _symmetry_equiv_pos_site_id
 _symmetry_equiv_pos_as_xyz
  1  'x, y, z'
loop_
 _atom_site_type_symbol
 _atom_site_label
 _atom_site_symmetry_multiplicity
 _atom_site_fract_x
 _atom_site_fract_y
 _atom_site_fract_z
 _atom_site_occupancy
  Tb  Tb0  1  0.709597  0.290403  0.250000  1
  Tb  Tb1  1  0.089879  0.910121  0.250000  1
  Tb  Tb2  1  0.290394  0.709606  0.750000  1
  Ho  Ho3  1  0.909476  0.090524  0.750000  1
  W  W4  1  0.799770  0.619658  0.771713  1
  W  W5  1  0.200312  0.379648  0.229212  1
  W  W6  1  0.620352  0.799688  0.270788  1
  W  W7  1  0.380342  0.200230  0.728287  1
  N  N8  1  0.218672  0.001648  0.844944  1
  N  N9  1  0.364507  0.346903  0.433189  1
  N  N10  1  0.637134  0.653903  0.565856  1
  N  N11  1  0.625769  0.111411  0.660816  1
  N  N12  1  0.998352  0.781328  0.655056  1
  N  N13  1  0.780557  0.999537  0.151065  1
  N  N14  1  0.111278  0.624638  0.159235  1
  N  N15  1  0.888589  0.374231  0.839184  1
  N  N16  1  0.000463  0.219443  0.348935  1
  N  N17  1  0.346097  0.362866  0.934144  1
  N  N18  1  0.653097  0.635493  0.066811  1
  N  N19  1  0.375362  0.888722  0.340765  1
