# generated using pymatgen
data_SnB2PbO6
_symmetry_space_group_name_H-M   'P 1'
_cell_length_a   6.43194041
_cell_length_b   6.43193997
_cell_length_c   6.43194078
_cell_angle_alpha   45.98042199
_cell_angle_beta   45.98042441
_cell_angle_gamma   45.98041687
_symmetry_Int_Tables_number   1
_chemical_formula_structural   SnB2PbO6
_chemical_formula_sum   'Sn1 B2 Pb1 O6'
_cell_volume   125.50004358
_cell_formula_units_Z   1
loop_
 _symmetry_equiv_pos_site_id
 _symmetry_equiv_pos_as_xyz
  1  'x, y, z'
loop_
 _atom_site_type_symbol
 _atom_site_label
 _atom_site_symmetry_multiplicity
 _atom_site_fract_x
 _atom_site_fract_y
 _atom_site_fract_z
 _atom_site_occupancy
  Sn  Sn0  1  0.500000  0.500000  0.500000  1
  B  B1  1  0.765714  0.765714  0.765714  1
  B  B2  1  0.234286  0.234286  0.234286  1
  Pb  Pb3  1  0.000000  0.000000  0.000000  1
  O  O4  1  0.513184  0.715232  0.058563  1
  O  O5  1  0.715232  0.058563  0.513184  1
  O  O6  1  0.941437  0.486816  0.284768  1
  O  O7  1  0.486816  0.284768  0.941437  1
  O  O8  1  0.284768  0.941437  0.486816  1
  O  O9  1  0.058563  0.513184  0.715232  1
