# generated using pymatgen
data_Li2CaYSi4
_symmetry_space_group_name_H-M   'P 1'
_cell_length_a   3.78854500
_cell_length_b   7.77762484
_cell_length_c   10.40752495
_cell_angle_alpha   89.39625292
_cell_angle_beta   90.00000000
_cell_angle_gamma   90.00000000
_symmetry_Int_Tables_number   1
_chemical_formula_structural   Li2CaYSi4
_chemical_formula_sum   'Li4 Ca2 Y2 Si8'
_cell_volume   306.64987336
_cell_formula_units_Z   2
loop_
 _symmetry_equiv_pos_site_id
 _symmetry_equiv_pos_as_xyz
  1  'x, y, z'
loop_
 _atom_site_type_symbol
 _atom_site_label
 _atom_site_symmetry_multiplicity
 _atom_site_fract_x
 _atom_site_fract_y
 _atom_site_fract_z
 _atom_site_occupancy
  Li  Li0  1  0.250000  0.998843  0.389405  1
  Li  Li1  1  0.750000  0.001157  0.610595  1
  Li  Li2  1  0.250000  0.493014  0.110892  1
  Li  Li3  1  0.750000  0.506986  0.889108  1
  Ca  Ca4  1  0.250000  0.636238  0.634859  1
  Ca  Ca5  1  0.750000  0.363762  0.365141  1
  Y  Y6  1  0.250000  0.130403  0.864799  1
  Y  Y7  1  0.750000  0.869597  0.135201  1
  Si  Si8  1  0.750000  0.263958  0.062650  1
  Si  Si9  1  0.250000  0.736042  0.937350  1
  Si  Si10  1  0.750000  0.773443  0.427798  1
  Si  Si11  1  0.250000  0.226557  0.572202  1
  Si  Si12  1  0.750000  0.842164  0.826387  1
  Si  Si13  1  0.250000  0.157836  0.173613  1
  Si  Si14  1  0.750000  0.331715  0.682500  1
  Si  Si15  1  0.250000  0.668285  0.317500  1
