# generated using pymatgen
data_ErZnGaCu2Pd
_symmetry_space_group_name_H-M   'P 1'
_cell_length_a   5.07399421
_cell_length_b   5.06456384
_cell_length_c   5.05558421
_cell_angle_alpha   60.78310390
_cell_angle_beta   59.87946568
_cell_angle_gamma   59.93838415
_symmetry_Int_Tables_number   1
_chemical_formula_structural   ErZnGaCu2Pd
_chemical_formula_sum   'Er1 Zn1 Ga1 Cu2 Pd1'
_cell_volume   92.26696374
_cell_formula_units_Z   1
loop_
 _symmetry_equiv_pos_site_id
 _symmetry_equiv_pos_as_xyz
  1  'x, y, z'
loop_
 _atom_site_type_symbol
 _atom_site_label
 _atom_site_symmetry_multiplicity
 _atom_site_fract_x
 _atom_site_fract_y
 _atom_site_fract_z
 _atom_site_occupancy
  Er  Er0  1  0.003246  0.997806  0.995700  1
  Zn  Zn1  1  0.621739  0.130957  0.625565  1
  Ga  Ga2  1  0.620620  0.624095  0.134668  1
  Cu  Cu3  1  0.123540  0.624049  0.626061  1
  Cu  Cu4  1  0.626351  0.624049  0.626061  1
  Pd  Pd5  1  0.254505  0.249044  0.241945  1
