# generated using pymatgen
data_Dy3Ho13MgAg3Rh4
_symmetry_space_group_name_H-M   'P 1'
_cell_length_a   9.50947710
_cell_length_b   9.53418470
_cell_length_c   9.53286615
_cell_angle_alpha   60.17020912
_cell_angle_beta   60.22755851
_cell_angle_gamma   60.19268561
_symmetry_Int_Tables_number   1
_chemical_formula_structural   Dy3Ho13MgAg3Rh4
_chemical_formula_sum   'Dy3 Ho13 Mg1 Ag3 Rh4'
_cell_volume   613.87469375
_cell_formula_units_Z   1
loop_
 _symmetry_equiv_pos_site_id
 _symmetry_equiv_pos_as_xyz
  1  'x, y, z'
loop_
 _atom_site_type_symbol
 _atom_site_label
 _atom_site_symmetry_multiplicity
 _atom_site_fract_x
 _atom_site_fract_y
 _atom_site_fract_z
 _atom_site_occupancy
  Dy  Dy0  1  0.066782  0.063101  0.435075  1
  Dy  Dy1  1  0.814213  0.186853  0.813526  1
  Dy  Dy2  1  0.647438  0.650745  0.650542  1
  Ho  Ho3  1  0.067478  0.435526  0.434938  1
  Ho  Ho4  1  0.648979  0.048730  0.650744  1
  Ho  Ho5  1  0.814562  0.813088  0.187008  1
  Ho  Ho6  1  0.435212  0.064627  0.064601  1
  Ho  Ho7  1  0.436002  0.434569  0.064771  1
  Ho  Ho8  1  0.189879  0.188719  0.811634  1
  Ho  Ho9  1  0.814129  0.187099  0.187077  1
  Ho  Ho10  1  0.066680  0.435710  0.062638  1
  Ho  Ho11  1  0.436492  0.064671  0.434435  1
  Ho  Ho12  1  0.062211  0.645684  0.645787  1
  Ho  Ho13  1  0.189340  0.811837  0.812533  1
  Ho  Ho14  1  0.648970  0.650686  0.049018  1
  Ho  Ho15  1  0.189747  0.811443  0.188610  1
  Mg  Mg16  1  0.715083  0.427784  0.427541  1
  Ag  Ag17  1  0.416915  0.415387  0.750476  1
  Ag  Ag18  1  0.417388  0.415787  0.415697  1
  Ag  Ag19  1  0.417294  0.750207  0.415361  1
  Rh  Rh20  1  0.858754  0.429682  0.855396  1
  Rh  Rh21  1  0.428252  0.857254  0.857094  1
  Rh  Rh22  1  0.858605  0.855350  0.429169  1
  Rh  Rh23  1  0.859598  0.855461  0.856327  1
