# generated using pymatgen
data_Hf3NbSi4PtRh3
_symmetry_space_group_name_H-M   'P 1'
_cell_length_a   3.87408100
_cell_length_b   6.53560804
_cell_length_c   7.48132299
_cell_angle_alpha   90.57100379
_cell_angle_beta   90.00000000
_cell_angle_gamma   90.00000000
_symmetry_Int_Tables_number   1
_chemical_formula_structural   Hf3NbSi4PtRh3
_chemical_formula_sum   'Hf3 Nb1 Si4 Pt1 Rh3'
_cell_volume   189.41376331
_cell_formula_units_Z   1
loop_
 _symmetry_equiv_pos_site_id
 _symmetry_equiv_pos_as_xyz
  1  'x, y, z'
loop_
 _atom_site_type_symbol
 _atom_site_label
 _atom_site_symmetry_multiplicity
 _atom_site_fract_x
 _atom_site_fract_y
 _atom_site_fract_z
 _atom_site_occupancy
  Hf  Hf0  1  0.750000  0.474929  0.323994  1
  Hf  Hf1  1  0.250000  0.023400  0.815826  1
  Hf  Hf2  1  0.750000  0.975862  0.181452  1
  Nb  Nb3  1  0.250000  0.521787  0.676294  1
  Si  Si4  1  0.250000  0.266427  0.118780  1
  Si  Si5  1  0.250000  0.770516  0.391686  1
  Si  Si6  1  0.750000  0.721851  0.867336  1
  Si  Si7  1  0.750000  0.235271  0.622168  1
  Pt  Pt8  1  0.250000  0.652022  0.067133  1
  Rh  Rh9  1  0.250000  0.149048  0.433557  1
  Rh  Rh10  1  0.750000  0.857299  0.562890  1
  Rh  Rh11  1  0.750000  0.351591  0.938886  1
