# generated using pymatgen
data_Dy6Zn18Ir5S
_symmetry_space_group_name_H-M   'P 1'
_cell_length_a   8.97089766
_cell_length_b   9.00910411
_cell_length_c   8.97089800
_cell_angle_alpha   59.85901270
_cell_angle_beta   60.14192321
_cell_angle_gamma   59.85901528
_symmetry_Int_Tables_number   1
_chemical_formula_structural   Dy6Zn18Ir5S
_chemical_formula_sum   'Dy6 Zn18 Ir5 S1'
_cell_volume   512.11948786
_cell_formula_units_Z   1
loop_
 _symmetry_equiv_pos_site_id
 _symmetry_equiv_pos_as_xyz
  1  'x, y, z'
loop_
 _atom_site_type_symbol
 _atom_site_label
 _atom_site_symmetry_multiplicity
 _atom_site_fract_x
 _atom_site_fract_y
 _atom_site_fract_z
 _atom_site_occupancy
  Dy  Dy0  1  0.715057  0.277925  0.284943  1
  Dy  Dy1  1  0.717581  0.282419  0.717581  1
  Dy  Dy2  1  0.715057  0.722075  0.284943  1
  Dy  Dy3  1  0.284943  0.722075  0.715057  1
  Dy  Dy4  1  0.282419  0.717581  0.282419  1
  Dy  Dy5  1  0.284943  0.277925  0.715057  1
  Zn  Zn6  1  0.622442  0.125792  0.125975  1
  Zn  Zn7  1  0.125887  0.624662  0.125887  1
  Zn  Zn8  1  0.125975  0.125792  0.622442  1
  Zn  Zn9  1  0.125887  0.123565  0.125887  1
  Zn  Zn10  1  0.377558  0.874208  0.874025  1
  Zn  Zn11  1  0.874113  0.375338  0.874113  1
  Zn  Zn12  1  0.874025  0.874208  0.377558  1
  Zn  Zn13  1  0.874113  0.876435  0.874113  1
  Zn  Zn14  1  0.000000  0.500000  0.000000  1
  Zn  Zn15  1  0.000000  0.000000  0.000000  1
  Zn  Zn16  1  0.998920  0.333485  0.334107  1
  Zn  Zn17  1  0.331437  0.003757  0.331437  1
  Zn  Zn18  1  0.334107  0.333485  0.998920  1
  Zn  Zn19  1  0.331437  0.333367  0.331437  1
  Zn  Zn20  1  0.001080  0.666515  0.665893  1
  Zn  Zn21  1  0.668563  0.996243  0.668563  1
  Zn  Zn22  1  0.665893  0.666515  0.001080  1
  Zn  Zn23  1  0.668563  0.666633  0.668563  1
  Ir  Ir24  1  0.500000  0.000000  0.000000  1
  Ir  Ir25  1  0.500000  0.000000  0.500000  1
  Ir  Ir26  1  0.500000  0.500000  0.000000  1
  Ir  Ir27  1  0.000000  0.500000  0.500000  1
  Ir  Ir28  1  0.000000  0.000000  0.500000  1
  S  S29  1  0.500000  0.500000  0.500000  1
