# generated using pymatgen
data_NaCa3(YHg2)4
_symmetry_space_group_name_H-M   'P 1'
_cell_length_a   7.51558201
_cell_length_b   7.54061000
_cell_length_c   7.40835001
_cell_angle_alpha   90.00000000
_cell_angle_beta   89.99391698
_cell_angle_gamma   90.00000000
_symmetry_Int_Tables_number   1
_chemical_formula_structural   NaCa3(YHg2)4
_chemical_formula_sum   'Na1 Ca3 Y4 Hg8'
_cell_volume   419.84654924
_cell_formula_units_Z   1
loop_
 _symmetry_equiv_pos_site_id
 _symmetry_equiv_pos_as_xyz
  1  'x, y, z'
loop_
 _atom_site_type_symbol
 _atom_site_label
 _atom_site_symmetry_multiplicity
 _atom_site_fract_x
 _atom_site_fract_y
 _atom_site_fract_z
 _atom_site_occupancy
  Na  Na0  1  0.749511  0.250000  0.000142  1
  Ca  Ca1  1  0.249488  0.750000  0.499886  1
  Ca  Ca2  1  0.750552  0.250000  0.500095  1
  Ca  Ca3  1  0.250513  0.750000  0.999903  1
  Y  Y4  1  0.250839  0.250000  0.999996  1
  Y  Y5  1  0.749349  0.750000  0.000000  1
  Y  Y6  1  0.750665  0.750000  0.499991  1
  Y  Y7  1  0.249327  0.250000  0.500005  1
  Hg  Hg8  1  0.999707  0.499646  0.247712  1
  Hg  Hg9  1  0.999707  0.000356  0.247712  1
  Hg  Hg10  1  0.500577  0.000452  0.250207  1
  Hg  Hg11  1  0.500577  0.499548  0.250207  1
  Hg  Hg12  1  0.500241  0.499762  0.749769  1
  Hg  Hg13  1  0.500241  0.000240  0.749769  1
  Hg  Hg14  1  0.999353  0.000552  0.752303  1
  Hg  Hg15  1  0.999353  0.499448  0.752303  1
