# generated using pymatgen
data_Ta9Nb(Si2Ge)2
_symmetry_space_group_name_H-M   'P 1'
_cell_length_a   7.58470997
_cell_length_b   7.57422248
_cell_length_c   7.57972889
_cell_angle_alpha   128.23106487
_cell_angle_beta   128.26950339
_cell_angle_gamma   76.21741482
_symmetry_Int_Tables_number   1
_chemical_formula_structural   Ta9Nb(Si2Ge)2
_chemical_formula_sum   'Ta9 Nb1 Si4 Ge2'
_cell_volume   261.01242663
_cell_formula_units_Z   1
loop_
 _symmetry_equiv_pos_site_id
 _symmetry_equiv_pos_as_xyz
  1  'x, y, z'
loop_
 _atom_site_type_symbol
 _atom_site_label
 _atom_site_symmetry_multiplicity
 _atom_site_fract_x
 _atom_site_fract_y
 _atom_site_fract_z
 _atom_site_occupancy
  Ta  Ta0  1  0.514350  0.014149  0.826668  1
  Ta  Ta1  1  0.187683  0.687482  0.173332  1
  Ta  Ta2  1  0.485381  0.985671  0.173289  1
  Ta  Ta3  1  0.687201  0.514393  0.500000  1
  Ta  Ta4  1  0.985849  0.812350  0.500000  1
  Ta  Ta5  1  0.312056  0.485757  0.500000  1
  Ta  Ta6  1  0.812091  0.312381  0.826711  1
  Ta  Ta7  1  0.500397  0.500356  0.000477  1
  Ta  Ta8  1  0.999919  0.999879  0.999523  1
  Nb  Nb9  1  0.015291  0.187669  0.500000  1
  Si  Si10  1  0.130868  0.630961  0.761823  1
  Si  Si11  1  0.630926  0.869063  0.500000  1
  Si  Si12  1  0.369107  0.130747  0.500000  1
  Si  Si13  1  0.869046  0.369140  0.238177  1
  Ge  Ge14  1  0.749869  0.749952  0.999903  1
  Ge  Ge15  1  0.249966  0.250049  0.000097  1
