# generated using pymatgen
data_Np2TlF8
_symmetry_space_group_name_H-M   'P 1'
_cell_length_a   6.57214054
_cell_length_b   6.57130311
_cell_length_c   4.45325400
_cell_angle_alpha   95.47625815
_cell_angle_beta   95.54111503
_cell_angle_gamma   113.15951739
_symmetry_Int_Tables_number   1
_chemical_formula_structural   Np2TlF8
_chemical_formula_sum   'Np2 Tl1 F8'
_cell_volume   174.11962968
_cell_formula_units_Z   1
loop_
 _symmetry_equiv_pos_site_id
 _symmetry_equiv_pos_as_xyz
  1  'x, y, z'
loop_
 _atom_site_type_symbol
 _atom_site_label
 _atom_site_symmetry_multiplicity
 _atom_site_fract_x
 _atom_site_fract_y
 _atom_site_fract_z
 _atom_site_occupancy
  Np  Np0  1  0.676589  0.322954  0.494976  1
  Np  Np1  1  0.323412  0.677047  0.505026  1
  Tl  Tl2  1  0.000000  0.000000  0.000000  1
  F  F3  1  0.735247  0.264582  0.997954  1
  F  F4  1  0.264752  0.735417  0.002046  1
  F  F5  1  0.399545  0.400369  0.230853  1
  F  F6  1  0.953955  0.661940  0.429471  1
  F  F7  1  0.661672  0.952972  0.433217  1
  F  F8  1  0.338328  0.047027  0.566783  1
  F  F9  1  0.046044  0.338060  0.570529  1
  F  F10  1  0.600454  0.599630  0.769147  1
