# generated using pymatgen
data_RbAc2AgSe4
_symmetry_space_group_name_H-M   'P 1'
_cell_length_a   4.52845900
_cell_length_b   7.97181922
_cell_length_c   15.75673500
_cell_angle_alpha   90.00000000
_cell_angle_beta   90.00000000
_cell_angle_gamma   73.49917531
_symmetry_Int_Tables_number   1
_chemical_formula_structural   RbAc2AgSe4
_chemical_formula_sum   'Rb2 Ac4 Ag2 Se8'
_cell_volume   545.39257996
_cell_formula_units_Z   2
loop_
 _symmetry_equiv_pos_site_id
 _symmetry_equiv_pos_as_xyz
  1  'x, y, z'
loop_
 _atom_site_type_symbol
 _atom_site_label
 _atom_site_symmetry_multiplicity
 _atom_site_fract_x
 _atom_site_fract_y
 _atom_site_fract_z
 _atom_site_occupancy
  Rb  Rb0  1  0.887861  0.224276  0.250000  1
  Rb  Rb1  1  0.112138  0.775724  0.750000  1
  Ac  Ac2  1  0.632404  0.735193  0.064632  1
  Ac  Ac3  1  0.632404  0.735193  0.435368  1
  Ac  Ac4  1  0.367596  0.264807  0.564632  1
  Ac  Ac5  1  0.367596  0.264807  0.935368  1
  Ag  Ag6  1  0.164059  0.671882  0.250000  1
  Ag  Ag7  1  0.835941  0.328117  0.750000  1
  Se  Se8  1  0.000000  0.000000  0.000000  1
  Se  Se9  1  0.262720  0.474560  0.107358  1
  Se  Se10  1  0.565610  0.868779  0.250000  1
  Se  Se11  1  0.262720  0.474560  0.392642  1
  Se  Se12  1  0.000000  0.000000  0.500000  1
  Se  Se13  1  0.737280  0.525439  0.607358  1
  Se  Se14  1  0.434388  0.131222  0.750000  1
  Se  Se15  1  0.737280  0.525439  0.892642  1
