# generated using pymatgen
data_Er3Tm16Lu(CoSb2)4
_symmetry_space_group_name_H-M   'P 1'
_cell_length_a   7.76145518
_cell_length_b   8.71286616
_cell_length_c   12.05025525
_cell_angle_alpha   90.01400103
_cell_angle_beta   89.98197365
_cell_angle_gamma   89.98294488
_symmetry_Int_Tables_number   1
_chemical_formula_structural   Er3Tm16Lu(CoSb2)4
_chemical_formula_sum   'Er3 Tm16 Lu1 Co4 Sb8'
_cell_volume   814.89262830
_cell_formula_units_Z   1
loop_
 _symmetry_equiv_pos_site_id
 _symmetry_equiv_pos_as_xyz
  1  'x, y, z'
loop_
 _atom_site_type_symbol
 _atom_site_label
 _atom_site_symmetry_multiplicity
 _atom_site_fract_x
 _atom_site_fract_y
 _atom_site_fract_z
 _atom_site_occupancy
  Er  Er0  1  0.122126  0.249819  0.191461  1
  Er  Er1  1  0.377636  0.250000  0.691628  1
  Er  Er2  1  0.877316  0.750285  0.808491  1
  Tm  Tm3  1  0.156831  0.750143  0.203979  1
  Tm  Tm4  1  0.657060  0.249953  0.295872  1
  Tm  Tm5  1  0.843117  0.249935  0.796137  1
  Tm  Tm6  1  0.343030  0.750009  0.704051  1
  Tm  Tm7  1  0.450091  0.750163  0.998048  1
  Tm  Tm8  1  0.949706  0.249991  0.501883  1
  Tm  Tm9  1  0.550458  0.249733  0.002043  1
  Tm  Tm10  1  0.049770  0.750037  0.498092  1
  Tm  Tm11  1  0.622024  0.749962  0.308824  1
  Tm  Tm12  1  0.323902  0.036772  0.434257  1
  Tm  Tm13  1  0.176308  0.462921  0.934504  1
  Tm  Tm14  1  0.676413  0.537429  0.565423  1
  Tm  Tm15  1  0.176047  0.037213  0.934525  1
  Tm  Tm16  1  0.676427  0.962595  0.565450  1
  Tm  Tm17  1  0.823769  0.537078  0.065649  1
  Tm  Tm18  1  0.323882  0.463244  0.434260  1
  Lu  Lu19  1  0.825022  0.962804  0.065517  1
  Co  Co20  1  0.432144  0.750002  0.491017  1
  Co  Co21  1  0.931660  0.249693  0.008932  1
  Co  Co22  1  0.567903  0.249987  0.508688  1
  Co  Co23  1  0.067115  0.750397  0.991395  1
  Sb  Sb24  1  0.930717  0.991320  0.327538  1
  Sb  Sb25  1  0.432089  0.008028  0.172262  1
  Sb  Sb26  1  0.068801  0.491559  0.672360  1
  Sb  Sb27  1  0.568785  0.508430  0.827719  1
  Sb  Sb28  1  0.068855  0.008443  0.672310  1
  Sb  Sb29  1  0.568596  0.991563  0.827636  1
  Sb  Sb30  1  0.930842  0.508636  0.327667  1
  Sb  Sb31  1  0.431561  0.491854  0.172380  1
