# generated using pymatgen
data_Li4Yb5Au4
_symmetry_space_group_name_H-M   'P 1'
_cell_length_a   8.50774739
_cell_length_b   8.50774838
_cell_length_c   8.50774807
_cell_angle_alpha   93.95645871
_cell_angle_beta   93.95646206
_cell_angle_gamma   149.54226470
_symmetry_Int_Tables_number   1
_chemical_formula_structural   Li4Yb5Au4
_chemical_formula_sum   'Li4 Yb5 Au4'
_cell_volume   301.19211453
_cell_formula_units_Z   1
loop_
 _symmetry_equiv_pos_site_id
 _symmetry_equiv_pos_as_xyz
  1  'x, y, z'
loop_
 _atom_site_type_symbol
 _atom_site_label
 _atom_site_symmetry_multiplicity
 _atom_site_fract_x
 _atom_site_fract_y
 _atom_site_fract_z
 _atom_site_occupancy
  Li  Li0  1  0.603457  0.078339  0.681795  1
  Li  Li1  1  0.921661  0.603457  0.525118  1
  Li  Li2  1  0.078339  0.396543  0.474882  1
  Li  Li3  1  0.396543  0.921661  0.318205  1
  Yb  Yb4  1  0.126034  0.795178  0.921212  1
  Yb  Yb5  1  0.204822  0.126034  0.330856  1
  Yb  Yb6  1  0.873966  0.204822  0.078788  1
  Yb  Yb7  1  0.500000  0.500000  0.000000  1
  Yb  Yb8  1  0.795178  0.873966  0.669144  1
  Au  Au9  1  0.437630  0.246756  0.684386  1
  Au  Au10  1  0.562370  0.753244  0.315614  1
  Au  Au11  1  0.246756  0.562370  0.809127  1
  Au  Au12  1  0.753244  0.437630  0.190873  1
