# generated using pymatgen
data_Ac3Yb3Ho4Co6(NiSn10)2
_symmetry_space_group_name_H-M   'P 1'
_cell_length_a   14.03190500
_cell_length_b   14.03190559
_cell_length_c   4.53052600
_cell_angle_alpha   90.00000000
_cell_angle_beta   90.00000000
_cell_angle_gamma   90.05112230
_symmetry_Int_Tables_number   1
_chemical_formula_structural   Ac3Yb3Ho4Co6(NiSn10)2
_chemical_formula_sum   'Ac3 Yb3 Ho4 Co6 Ni2 Sn20'
_cell_volume   892.03468999
_cell_formula_units_Z   1
loop_
 _symmetry_equiv_pos_site_id
 _symmetry_equiv_pos_as_xyz
  1  'x, y, z'
loop_
 _atom_site_type_symbol
 _atom_site_label
 _atom_site_symmetry_multiplicity
 _atom_site_fract_x
 _atom_site_fract_y
 _atom_site_fract_z
 _atom_site_occupancy
  Ac  Ac0  1  0.889390  0.609694  0.500000  1
  Ac  Ac1  1  0.109752  0.389520  0.500000  1
  Ac  Ac2  1  0.391717  0.891602  0.500000  1
  Yb  Yb3  1  0.999396  0.000212  0.000000  1
  Yb  Yb4  1  0.500285  0.499396  0.000000  1
  Yb  Yb5  1  0.609309  0.109307  0.500000  1
  Ho  Ho6  1  0.181294  0.679764  0.500000  1
  Ho  Ho7  1  0.816865  0.318747  0.500000  1
  Ho  Ho8  1  0.680662  0.820517  0.500000  1
  Ho  Ho9  1  0.320771  0.180563  0.500000  1
  Co  Co10  1  0.257167  0.535726  0.000000  1
  Co  Co11  1  0.741903  0.463222  0.000000  1
  Co  Co12  1  0.758098  0.965000  0.000000  1
  Co  Co13  1  0.245374  0.034711  0.000000  1
  Co  Co14  1  0.464676  0.256988  0.000000  1
  Co  Co15  1  0.534749  0.746573  0.000000  1
  Ni  Ni16  1  0.035664  0.756846  0.000000  1
  Ni  Ni17  1  0.963319  0.242108  0.000000  1
  Sn  Sn18  1  0.352224  0.697298  0.000000  1
  Sn  Sn19  1  0.646230  0.299045  0.000000  1
  Sn  Sn20  1  0.851116  0.803368  0.000000  1
  Sn  Sn21  1  0.148922  0.196164  0.000000  1
  Sn  Sn22  1  0.303461  0.352462  0.000000  1
  Sn  Sn23  1  0.696231  0.647574  0.000000  1
  Sn  Sn24  1  0.198645  0.852449  0.000000  1
  Sn  Sn25  1  0.797408  0.146155  0.000000  1
  Sn  Sn26  1  0.337577  0.515317  0.500000  1
  Sn  Sn27  1  0.662390  0.482987  0.500000  1
  Sn  Sn28  1  0.836963  0.986332  0.500000  1
  Sn  Sn29  1  0.162141  0.016160  0.500000  1
  Sn  Sn30  1  0.486513  0.336124  0.500000  1
  Sn  Sn31  1  0.516147  0.662926  0.500000  1
  Sn  Sn32  1  0.014591  0.838637  0.500000  1
  Sn  Sn33  1  0.983433  0.161130  0.500000  1
  Sn  Sn34  1  0.075852  0.574074  0.000000  1
  Sn  Sn35  1  0.923072  0.424762  0.000000  1
  Sn  Sn36  1  0.578262  0.928668  0.000000  1
  Sn  Sn37  1  0.428434  0.077873  0.000000  1
