# generated using pymatgen
data_Eu3ThTi4O14
_symmetry_space_group_name_H-M   'P 1'
_cell_length_a   7.31111224
_cell_length_b   7.34364121
_cell_length_c   7.31111200
_cell_angle_alpha   60.14642132
_cell_angle_beta   60.00000109
_cell_angle_gamma   60.14642355
_symmetry_Int_Tables_number   1
_chemical_formula_structural   Eu3ThTi4O14
_chemical_formula_sum   'Eu3 Th1 Ti4 O14'
_cell_volume   278.17684474
_cell_formula_units_Z   1
loop_
 _symmetry_equiv_pos_site_id
 _symmetry_equiv_pos_as_xyz
  1  'x, y, z'
loop_
 _atom_site_type_symbol
 _atom_site_label
 _atom_site_symmetry_multiplicity
 _atom_site_fract_x
 _atom_site_fract_y
 _atom_site_fract_z
 _atom_site_occupancy
  Eu  Eu0  1  0.125000  0.125000  0.625000  1
  Eu  Eu1  1  0.625000  0.125000  0.125000  1
  Eu  Eu2  1  0.125000  0.125000  0.125000  1
  Th  Th3  1  0.125000  0.625000  0.125000  1
  Ti  Ti4  1  0.625000  0.125000  0.625000  1
  Ti  Ti5  1  0.625000  0.625000  0.125000  1
  Ti  Ti6  1  0.125000  0.625000  0.625000  1
  Ti  Ti7  1  0.625000  0.625000  0.625000  1
  O  O8  1  0.705804  0.698078  0.298059  1
  O  O9  1  0.951941  0.551922  0.544196  1
  O  O10  1  0.551197  0.947287  0.950319  1
  O  O11  1  0.950319  0.947287  0.551197  1
  O  O12  1  0.951941  0.551922  0.951941  1
  O  O13  1  0.551197  0.947287  0.551197  1
  O  O14  1  0.298059  0.698078  0.298059  1
  O  O15  1  0.298059  0.698078  0.705804  1
  O  O16  1  0.698803  0.302713  0.299681  1
  O  O17  1  0.698803  0.302713  0.698803  1
  O  O18  1  0.544196  0.551922  0.951941  1
  O  O19  1  0.299681  0.302713  0.698803  1
  O  O20  1  0.247461  0.257616  0.247461  1
  O  O21  1  0.002539  0.992384  0.002539  1
