# generated using pymatgen
data_Dy2Tm8Cd3Ni
_symmetry_space_group_name_H-M   'P 1'
_cell_length_a   9.48925206
_cell_length_b   9.48925041
_cell_length_c   9.63368100
_cell_angle_alpha   90.00000000
_cell_angle_beta   90.00000000
_cell_angle_gamma   120.01269622
_symmetry_Int_Tables_number   1
_chemical_formula_structural   Dy2Tm8Cd3Ni
_chemical_formula_sum   'Dy4 Tm16 Cd6 Ni2'
_cell_volume   751.15784469
_cell_formula_units_Z   2
loop_
 _symmetry_equiv_pos_site_id
 _symmetry_equiv_pos_as_xyz
  1  'x, y, z'
loop_
 _atom_site_type_symbol
 _atom_site_label
 _atom_site_symmetry_multiplicity
 _atom_site_fract_x
 _atom_site_fract_y
 _atom_site_fract_z
 _atom_site_occupancy
  Dy  Dy0  1  0.542549  0.457451  0.250000  1
  Dy  Dy1  1  0.542608  0.085262  0.250000  1
  Dy  Dy2  1  0.914738  0.457391  0.250000  1
  Dy  Dy3  1  0.456642  0.543357  0.750000  1
  Tm  Tm4  1  0.999924  0.000076  0.499757  1
  Tm  Tm5  1  0.999924  0.000076  0.000243  1
  Tm  Tm6  1  0.456709  0.914326  0.750000  1
  Tm  Tm7  1  0.085673  0.543291  0.750000  1
  Tm  Tm8  1  0.211232  0.788769  0.439381  1
  Tm  Tm9  1  0.210840  0.422455  0.438903  1
  Tm  Tm10  1  0.577546  0.789160  0.438904  1
  Tm  Tm11  1  0.789053  0.210946  0.562406  1
  Tm  Tm12  1  0.789825  0.578000  0.562129  1
  Tm  Tm13  1  0.422000  0.210174  0.562129  1
  Tm  Tm14  1  0.789053  0.210946  0.937594  1
  Tm  Tm15  1  0.789825  0.578000  0.937871  1
  Tm  Tm16  1  0.422000  0.210174  0.937871  1
  Tm  Tm17  1  0.211232  0.788769  0.060619  1
  Tm  Tm18  1  0.210840  0.422455  0.061097  1
  Tm  Tm19  1  0.577546  0.789160  0.061096  1
  Cd  Cd20  1  0.885987  0.114015  0.250000  1
  Cd  Cd21  1  0.886340  0.772384  0.250000  1
  Cd  Cd22  1  0.227615  0.113661  0.250000  1
  Cd  Cd23  1  0.115015  0.884984  0.750000  1
  Cd  Cd24  1  0.113953  0.229146  0.750000  1
  Cd  Cd25  1  0.770854  0.886047  0.750000  1
  Ni  Ni26  1  0.333494  0.666508  0.250000  1
  Ni  Ni27  1  0.666982  0.333019  0.750000  1
