# generated using pymatgen
data_Ba2PrAg5Se6
_symmetry_space_group_name_H-M   'P 1'
_cell_length_a   4.42667200
_cell_length_b   7.66317812
_cell_length_c   11.69692984
_cell_angle_alpha   94.26569326
_cell_angle_beta   90.00000000
_cell_angle_gamma   106.78777648
_symmetry_Int_Tables_number   1
_chemical_formula_structural   Ba2PrAg5Se6
_chemical_formula_sum   'Ba2 Pr1 Ag5 Se6'
_cell_volume   378.72877677
_cell_formula_units_Z   1
loop_
 _symmetry_equiv_pos_site_id
 _symmetry_equiv_pos_as_xyz
  1  'x, y, z'
loop_
 _atom_site_type_symbol
 _atom_site_label
 _atom_site_symmetry_multiplicity
 _atom_site_fract_x
 _atom_site_fract_y
 _atom_site_fract_z
 _atom_site_occupancy
  Ba  Ba0  1  0.252286  0.504573  0.706530  1
  Ba  Ba1  1  0.747714  0.495427  0.293470  1
  Pr  Pr2  1  0.500000  0.000000  0.500000  1
  Ag  Ag3  1  0.018805  0.037610  0.254545  1
  Ag  Ag4  1  0.981195  0.962390  0.745455  1
  Ag  Ag5  1  0.353847  0.707696  0.034622  1
  Ag  Ag6  1  0.646153  0.292304  0.965378  1
  Ag  Ag7  1  0.000000  0.000000  0.000000  1
  Se  Se8  1  0.132141  0.264280  0.449799  1
  Se  Se9  1  0.867859  0.735720  0.550201  1
  Se  Se10  1  0.158252  0.316504  0.101488  1
  Se  Se11  1  0.841748  0.683496  0.898512  1
  Se  Se12  1  0.412143  0.824285  0.258337  1
  Se  Se13  1  0.587857  0.175715  0.741663  1
