# generated using pymatgen
data_Lu6Al17Si7Ru8
_symmetry_space_group_name_H-M   'P 1'
_cell_length_a   8.63208093
_cell_length_b   8.62328020
_cell_length_c   9.42298900
_cell_angle_alpha   90.00000000
_cell_angle_beta   90.00000000
_cell_angle_gamma   120.11036032
_symmetry_Int_Tables_number   1
_chemical_formula_structural   Lu6Al17Si7Ru8
_chemical_formula_sum   'Lu6 Al17 Si7 Ru8'
_cell_volume   606.76885271
_cell_formula_units_Z   1
loop_
 _symmetry_equiv_pos_site_id
 _symmetry_equiv_pos_as_xyz
  1  'x, y, z'
loop_
 _atom_site_type_symbol
 _atom_site_label
 _atom_site_symmetry_multiplicity
 _atom_site_fract_x
 _atom_site_fract_y
 _atom_site_fract_z
 _atom_site_occupancy
  Lu  Lu0  1  0.193140  0.390058  0.250000  1
  Lu  Lu1  1  0.805898  0.612603  0.750000  1
  Lu  Lu2  1  0.609148  0.806624  0.250000  1
  Lu  Lu3  1  0.389709  0.191755  0.750000  1
  Lu  Lu4  1  0.196660  0.803785  0.250000  1
  Lu  Lu5  1  0.800982  0.191980  0.750000  1
  Al  Al6  1  0.163845  0.328912  0.580583  1
  Al  Al7  1  0.834808  0.671371  0.418663  1
  Al  Al8  1  0.671501  0.835694  0.579898  1
  Al  Al9  1  0.834808  0.671371  0.081337  1
  Al  Al10  1  0.329524  0.165218  0.420251  1
  Al  Al11  1  0.163845  0.328912  0.919417  1
  Al  Al12  1  0.163941  0.834911  0.578509  1
  Al  Al13  1  0.329524  0.165218  0.079749  1
  Al  Al14  1  0.835348  0.164032  0.420040  1
  Al  Al15  1  0.671501  0.835694  0.920102  1
  Al  Al16  1  0.835348  0.164032  0.079960  1
  Al  Al17  1  0.163941  0.834911  0.921491  1
  Al  Al18  1  0.123704  0.564612  0.750000  1
  Al  Al19  1  0.563298  0.435833  0.250000  1
  Al  Al20  1  0.439378  0.565334  0.750000  1
  Al  Al21  1  0.000036  0.998814  0.250000  1
  Al  Al22  1  0.999807  0.001448  0.750000  1
  Si  Si23  1  0.333588  0.664622  0.040770  1
  Si  Si24  1  0.666562  0.335898  0.957250  1
  Si  Si25  1  0.666562  0.335898  0.542750  1
  Si  Si26  1  0.333588  0.664622  0.459230  1
  Si  Si27  1  0.563965  0.122675  0.250000  1
  Si  Si28  1  0.436858  0.874996  0.750000  1
  Si  Si29  1  0.876227  0.434998  0.250000  1
  Ru  Ru30  1  0.501431  0.001388  0.000912  1
  Ru  Ru31  1  0.998545  0.499714  0.006417  1
  Ru  Ru32  1  0.501431  0.001388  0.499088  1
  Ru  Ru33  1  0.500669  0.500097  0.000094  1
  Ru  Ru34  1  0.998545  0.499714  0.493583  1
  Ru  Ru35  1  0.500669  0.500097  0.499906  1
  Ru  Ru36  1  0.000834  0.000386  0.999965  1
  Ru  Ru37  1  0.000834  0.000386  0.500035  1
