# generated using pymatgen
data_SrZn9Ni2
_symmetry_space_group_name_H-M   'P 1'
_cell_length_a   8.23214338
_cell_length_b   8.23214354
_cell_length_c   8.23214354
_cell_angle_alpha   99.94865722
_cell_angle_beta   99.94866303
_cell_angle_gamma   130.87938107
_symmetry_Int_Tables_number   1
_chemical_formula_structural   SrZn9Ni2
_chemical_formula_sum   'Sr2 Zn18 Ni4'
_cell_volume   383.64186873
_cell_formula_units_Z   2
loop_
 _symmetry_equiv_pos_site_id
 _symmetry_equiv_pos_as_xyz
  1  'x, y, z'
loop_
 _atom_site_type_symbol
 _atom_site_label
 _atom_site_symmetry_multiplicity
 _atom_site_fract_x
 _atom_site_fract_y
 _atom_site_fract_z
 _atom_site_occupancy
  Sr  Sr0  1  0.000000  0.000000  0.000000  1
  Sr  Sr1  1  0.250000  0.750000  0.500000  1
  Zn  Zn2  1  0.055766  0.637382  0.826470  1
  Zn  Zn3  1  0.810912  0.229296  0.173530  1
  Zn  Zn4  1  0.750000  0.250000  0.500000  1
  Zn  Zn5  1  0.500000  0.500000  0.000000  1
  Zn  Zn6  1  0.810912  0.637382  0.581617  1
  Zn  Zn7  1  0.887382  0.805766  0.326470  1
  Zn  Zn8  1  0.479296  0.560912  0.673530  1
  Zn  Zn9  1  0.055766  0.229296  0.418383  1
  Zn  Zn10  1  0.770704  0.944234  0.581617  1
  Zn  Zn11  1  0.362618  0.189088  0.418383  1
  Zn  Zn12  1  0.439088  0.520704  0.326470  1
  Zn  Zn13  1  0.194234  0.112618  0.673530  1
  Zn  Zn14  1  0.439088  0.112618  0.918383  1
  Zn  Zn15  1  0.362618  0.944234  0.173530  1
  Zn  Zn16  1  0.770704  0.189088  0.826470  1
  Zn  Zn17  1  0.194234  0.520704  0.081617  1
  Zn  Zn18  1  0.479296  0.805766  0.918383  1
  Zn  Zn19  1  0.887382  0.560912  0.081617  1
  Ni  Ni20  1  0.625000  0.375000  0.750000  1
  Ni  Ni21  1  0.625000  0.375000  0.250000  1
  Ni  Ni22  1  0.125000  0.375000  0.750000  1
  Ni  Ni23  1  0.625000  0.875000  0.250000  1
