# generated using pymatgen
data_Th2TlC
_symmetry_space_group_name_H-M   'P 1'
_cell_length_a   8.79913072
_cell_length_b   8.79913072
_cell_length_c   8.79913139
_cell_angle_alpha   24.43074294
_cell_angle_beta   24.43074432
_cell_angle_gamma   24.43073882
_symmetry_Int_Tables_number   1
_chemical_formula_structural   Th2TlC
_chemical_formula_sum   'Th2 Tl1 C1'
_cell_volume   102.45260233
_cell_formula_units_Z   1
loop_
 _symmetry_equiv_pos_site_id
 _symmetry_equiv_pos_as_xyz
  1  'x, y, z'
loop_
 _atom_site_type_symbol
 _atom_site_label
 _atom_site_symmetry_multiplicity
 _atom_site_fract_x
 _atom_site_fract_y
 _atom_site_fract_z
 _atom_site_occupancy
  Th  Th0  1  0.277223  0.277223  0.277223  1
  Th  Th1  1  0.722777  0.722777  0.722777  1
  Tl  Tl2  1  0.500000  0.500000  0.500000  1
  C  C3  1  0.000000  0.000000  0.000000  1
