# generated using pymatgen
data_Lu5Tc5(P6Ir7)2
_symmetry_space_group_name_H-M   'P 1'
_cell_length_a   12.59049672
_cell_length_b   12.69890821
_cell_length_c   3.95584700
_cell_angle_alpha   90.00000000
_cell_angle_beta   90.00000000
_cell_angle_gamma   120.15066115
_symmetry_Int_Tables_number   1
_chemical_formula_structural   Lu5Tc5(P6Ir7)2
_chemical_formula_sum   'Lu5 Tc5 P12 Ir14'
_cell_volume   546.91273068
_cell_formula_units_Z   1
loop_
 _symmetry_equiv_pos_site_id
 _symmetry_equiv_pos_as_xyz
  1  'x, y, z'
loop_
 _atom_site_type_symbol
 _atom_site_label
 _atom_site_symmetry_multiplicity
 _atom_site_fract_x
 _atom_site_fract_y
 _atom_site_fract_z
 _atom_site_occupancy
  Lu  Lu0  1  0.334492  0.668329  0.500000  1
  Lu  Lu1  1  0.666624  0.333457  0.500000  1
  Lu  Lu2  1  0.999245  0.810854  0.000000  1
  Lu  Lu3  1  0.186309  0.184632  0.000000  1
  Lu  Lu4  1  0.810679  0.998318  0.000000  1
  Tc  Tc5  1  0.996169  0.449921  0.500000  1
  Tc  Tc6  1  0.548623  0.544720  0.500000  1
  Tc  Tc7  1  0.457461  0.010042  0.500000  1
  Tc  Tc8  1  0.621179  0.799997  0.500000  1
  Tc  Tc9  1  0.200281  0.821692  0.500000  1
  P  P10  1  0.006591  0.640850  0.500000  1
  P  P11  1  0.362689  0.364131  0.500000  1
  P  P12  1  0.634201  0.993522  0.500000  1
  P  P13  1  0.519556  0.693717  0.000000  1
  P  P14  1  0.308563  0.829870  0.000000  1
  P  P15  1  0.170080  0.483653  0.000000  1
  P  P16  1  0.483845  0.169777  0.000000  1
  P  P17  1  0.685354  0.516009  0.000000  1
  P  P18  1  0.832551  0.315364  0.000000  1
  P  P19  1  0.999156  0.175669  0.500000  1
  P  P20  1  0.817928  0.821303  0.500000  1
  P  P21  1  0.176013  0.993200  0.500000  1
  Ir  Ir22  1  0.507031  0.873646  0.000000  1
  Ir  Ir23  1  0.129180  0.636295  0.000000  1
  Ir  Ir24  1  0.361615  0.495070  0.000000  1
  Ir  Ir25  1  0.491496  0.358425  0.000000  1
  Ir  Ir26  1  0.864310  0.505367  0.000000  1
  Ir  Ir27  1  0.644018  0.138263  0.000000  1
  Ir  Ir28  1  0.000293  0.284237  0.000000  1
  Ir  Ir29  1  0.717731  0.711897  0.000000  1
  Ir  Ir30  1  0.286379  0.005652  0.000000  1
  Ir  Ir31  1  0.180395  0.374154  0.500000  1
  Ir  Ir32  1  0.372182  0.183926  0.500000  1
  Ir  Ir33  1  0.809365  0.624204  0.500000  1
  Ir  Ir34  1  0.818848  0.190523  0.500000  1
  Ir  Ir35  1  0.999565  0.999311  0.500000  1
