# generated using pymatgen
data_Tb6Ho(ErSn2)3
_symmetry_space_group_name_H-M   'P 1'
_cell_length_a   8.97362400
_cell_length_b   8.97362506
_cell_length_c   6.52840500
_cell_angle_alpha   90.00000000
_cell_angle_beta   90.00000000
_cell_angle_gamma   120.00000345
_symmetry_Int_Tables_number   1
_chemical_formula_structural   Tb6Ho(ErSn2)3
_chemical_formula_sum   'Tb6 Ho1 Er3 Sn6'
_cell_volume   455.27467565
_cell_formula_units_Z   1
loop_
 _symmetry_equiv_pos_site_id
 _symmetry_equiv_pos_as_xyz
  1  'x, y, z'
loop_
 _atom_site_type_symbol
 _atom_site_label
 _atom_site_symmetry_multiplicity
 _atom_site_fract_x
 _atom_site_fract_y
 _atom_site_fract_z
 _atom_site_occupancy
  Tb  Tb0  1  0.999985  0.761184  0.750011  1
  Tb  Tb1  1  0.999985  0.238802  0.249989  1
  Tb  Tb2  1  0.761198  0.761184  0.249989  1
  Tb  Tb3  1  0.761198  0.000015  0.750011  1
  Tb  Tb4  1  0.238816  0.238802  0.750011  1
  Tb  Tb5  1  0.238816  0.000015  0.249989  1
  Ho  Ho6  1  0.333333  0.666667  0.500000  1
  Er  Er7  1  0.666667  0.333333  0.000000  1
  Er  Er8  1  0.666667  0.333333  0.500000  1
  Er  Er9  1  0.333333  0.666667  0.000000  1
  Sn  Sn10  1  0.396318  0.000053  0.750037  1
  Sn  Sn11  1  0.396318  0.396264  0.249963  1
  Sn  Sn12  1  0.999947  0.603682  0.249963  1
  Sn  Sn13  1  0.999947  0.396264  0.750037  1
  Sn  Sn14  1  0.603736  0.603682  0.750037  1
  Sn  Sn15  1  0.603736  0.000053  0.249963  1
