# generated using pymatgen
data_Dy8Ti3Si16W9
_symmetry_space_group_name_H-M   'P 1'
_cell_length_a   6.90298242
_cell_length_b   6.90298242
_cell_length_c   12.82134261
_cell_angle_alpha   90.02558712
_cell_angle_beta   89.97441288
_cell_angle_gamma   89.85880083
_symmetry_Int_Tables_number   1
_chemical_formula_structural   Dy8Ti3Si16W9
_chemical_formula_sum   'Dy8 Ti3 Si16 W9'
_cell_volume   610.94995162
_cell_formula_units_Z   1
loop_
 _symmetry_equiv_pos_site_id
 _symmetry_equiv_pos_as_xyz
  1  'x, y, z'
loop_
 _atom_site_type_symbol
 _atom_site_label
 _atom_site_symmetry_multiplicity
 _atom_site_fract_x
 _atom_site_fract_y
 _atom_site_fract_z
 _atom_site_occupancy
  Dy  Dy0  1  0.997901  0.660565  0.031255  1
  Dy  Dy1  1  0.001170  0.339927  0.531093  1
  Dy  Dy2  1  0.660565  0.997901  0.968745  1
  Dy  Dy3  1  0.161761  0.503324  0.780671  1
  Dy  Dy4  1  0.838319  0.500296  0.282394  1
  Dy  Dy5  1  0.503324  0.161761  0.219329  1
  Dy  Dy6  1  0.500296  0.838319  0.717606  1
  Dy  Dy7  1  0.339927  0.001170  0.468907  1
  Ti  Ti8  1  0.829304  0.168570  0.748556  1
  Ti  Ti9  1  0.168570  0.829304  0.251444  1
  Ti  Ti10  1  0.331003  0.331003  0.000000  1
  Si  Si11  1  0.036633  0.711516  0.437794  1
  Si  Si12  1  0.959390  0.289942  0.936032  1
  Si  Si13  1  0.711516  0.036633  0.562206  1
  Si  Si14  1  0.208816  0.460358  0.186131  1
  Si  Si15  1  0.790119  0.540553  0.685797  1
  Si  Si16  1  0.460358  0.208816  0.813869  1
  Si  Si17  1  0.540553  0.790119  0.314203  1
  Si  Si18  1  0.289942  0.959390  0.063968  1
  Si  Si19  1  0.800180  0.871001  0.183426  1
  Si  Si20  1  0.302196  0.626434  0.566288  1
  Si  Si21  1  0.700616  0.371336  0.066328  1
  Si  Si22  1  0.626434  0.302196  0.433712  1
  Si  Si23  1  0.371336  0.700616  0.933672  1
  Si  Si24  1  0.127937  0.202559  0.315890  1
  Si  Si25  1  0.202559  0.127937  0.684110  1
  Si  Si26  1  0.871001  0.800180  0.816574  1
  W  W27  1  0.334393  0.505661  0.374940  1
  W  W28  1  0.841463  0.997396  0.373368  1
  W  W29  1  0.006186  0.160580  0.125710  1
  W  W30  1  0.997396  0.841463  0.626632  1
  W  W31  1  0.505661  0.334393  0.625060  1
  W  W32  1  0.160580  0.006186  0.874290  1
  W  W33  1  0.668254  0.668254  0.500000  1
  W  W34  1  0.494230  0.660114  0.124852  1
  W  W35  1  0.660114  0.494230  0.875148  1
