# generated using pymatgen
data_Sc6Zn20Ni3C
_symmetry_space_group_name_H-M   'P 1'
_cell_length_a   8.62977276
_cell_length_b   8.62977338
_cell_length_c   8.61433500
_cell_angle_alpha   59.91080470
_cell_angle_beta   59.91080232
_cell_angle_gamma   59.79939969
_symmetry_Int_Tables_number   1
_chemical_formula_structural   Sc6Zn20Ni3C
_chemical_formula_sum   'Sc6 Zn20 Ni3 C1'
_cell_volume   452.33241907
_cell_formula_units_Z   1
loop_
 _symmetry_equiv_pos_site_id
 _symmetry_equiv_pos_as_xyz
  1  'x, y, z'
loop_
 _atom_site_type_symbol
 _atom_site_label
 _atom_site_symmetry_multiplicity
 _atom_site_fract_x
 _atom_site_fract_y
 _atom_site_fract_z
 _atom_site_occupancy
  Sc  Sc0  1  0.689465  0.308094  0.310692  1
  Sc  Sc1  1  0.310535  0.691906  0.689308  1
  Sc  Sc2  1  0.308094  0.689465  0.310692  1
  Sc  Sc3  1  0.691906  0.310535  0.689308  1
  Sc  Sc4  1  0.311567  0.311567  0.685219  1
  Sc  Sc5  1  0.688433  0.688433  0.314781  1
  Zn  Zn6  1  0.116268  0.116268  0.116061  1
  Zn  Zn7  1  0.883732  0.883732  0.883939  1
  Zn  Zn8  1  0.122404  0.122404  0.646663  1
  Zn  Zn9  1  0.111922  0.648715  0.128277  1
  Zn  Zn10  1  0.877596  0.877596  0.353337  1
  Zn  Zn11  1  0.888078  0.351285  0.871723  1
  Zn  Zn12  1  0.648715  0.111922  0.128277  1
  Zn  Zn13  1  0.351285  0.888078  0.871723  1
  Zn  Zn14  1  0.500000  0.000000  0.000000  1
  Zn  Zn15  1  0.000000  0.500000  0.000000  1
  Zn  Zn16  1  0.000000  0.000000  0.500000  1
  Zn  Zn17  1  0.500000  0.500000  0.000000  1
  Zn  Zn18  1  0.327729  0.327729  0.336662  1
  Zn  Zn19  1  0.672271  0.672271  0.663338  1
  Zn  Zn20  1  0.331348  0.331348  0.006537  1
  Zn  Zn21  1  0.334067  0.007700  0.334711  1
  Zn  Zn22  1  0.668652  0.668652  0.993463  1
  Zn  Zn23  1  0.665933  0.992300  0.665289  1
  Zn  Zn24  1  0.007700  0.334067  0.334711  1
  Zn  Zn25  1  0.992300  0.665933  0.665289  1
  Ni  Ni26  1  0.000000  0.500000  0.500000  1
  Ni  Ni27  1  0.500000  0.000000  0.500000  1
  Ni  Ni28  1  0.000000  0.000000  0.000000  1
  C  C29  1  0.500000  0.500000  0.500000  1
