# generated using pymatgen
data_CsRbSc2O4
_symmetry_space_group_name_H-M   'P 1'
_cell_length_a   6.19991413
_cell_length_b   6.20283800
_cell_length_c   8.68801900
_cell_angle_alpha   90.00000000
_cell_angle_beta   89.93385941
_cell_angle_gamma   90.00000000
_symmetry_Int_Tables_number   1
_chemical_formula_structural   CsRbSc2O4
_chemical_formula_sum   'Cs2 Rb2 Sc4 O8'
_cell_volume   334.11547113
_cell_formula_units_Z   2
loop_
 _symmetry_equiv_pos_site_id
 _symmetry_equiv_pos_as_xyz
  1  'x, y, z'
loop_
 _atom_site_type_symbol
 _atom_site_label
 _atom_site_symmetry_multiplicity
 _atom_site_fract_x
 _atom_site_fract_y
 _atom_site_fract_z
 _atom_site_occupancy
  Cs  Cs0  1  0.725175  0.724950  0.998243  1
  Cs  Cs1  1  0.774825  0.224949  0.251758  1
  Rb  Rb2  1  0.278475  0.278236  0.501178  1
  Rb  Rb3  1  0.221524  0.778236  0.748823  1
  Sc  Sc4  1  0.287186  0.287455  0.998794  1
  Sc  Sc5  1  0.212815  0.787454  0.251207  1
  Sc  Sc6  1  0.710744  0.711692  0.501085  1
  Sc  Sc7  1  0.789255  0.211693  0.748916  1
  O  O8  1  0.256784  0.590861  0.070661  1
  O  O9  1  0.243215  0.090860  0.179340  1
  O  O10  1  0.910776  0.757872  0.324063  1
  O  O11  1  0.405656  0.740073  0.432126  1
  O  O12  1  0.738156  0.408860  0.572323  1
  O  O13  1  0.761844  0.908861  0.677677  1
  O  O14  1  0.094343  0.240072  0.817874  1
  O  O15  1  0.589225  0.257872  0.925937  1
