# generated using pymatgen
data_TmU7(B6Mo)4
_symmetry_space_group_name_H-M   'P 1'
_cell_length_a   3.68924800
_cell_length_b   9.26872737
_cell_length_c   11.36623445
_cell_angle_alpha   89.96769417
_cell_angle_beta   90.00000000
_cell_angle_gamma   90.00000000
_symmetry_Int_Tables_number   1
_chemical_formula_structural   TmU7(B6Mo)4
_chemical_formula_sum   'Tm1 U7 B24 Mo4'
_cell_volume   388.66416419
_cell_formula_units_Z   1
loop_
 _symmetry_equiv_pos_site_id
 _symmetry_equiv_pos_as_xyz
  1  'x, y, z'
loop_
 _atom_site_type_symbol
 _atom_site_label
 _atom_site_symmetry_multiplicity
 _atom_site_fract_x
 _atom_site_fract_y
 _atom_site_fract_z
 _atom_site_occupancy
  Tm  Tm0  1  0.000000  0.335310  0.408069  1
  U  U1  1  0.000000  0.664119  0.592026  1
  U  U2  1  0.000000  0.834611  0.092740  1
  U  U3  1  0.000000  0.165198  0.907539  1
  U  U4  1  0.000000  0.956662  0.394568  1
  U  U5  1  0.000000  0.044924  0.604820  1
  U  U6  1  0.000000  0.456017  0.105425  1
  U  U7  1  0.000000  0.543703  0.894701  1
  B  B8  1  0.500000  0.551840  0.433453  1
  B  B9  1  0.500000  0.451114  0.568581  1
  B  B10  1  0.500000  0.049560  0.066634  1
  B  B11  1  0.500000  0.950043  0.932885  1
  B  B12  1  0.500000  0.742697  0.424722  1
  B  B13  1  0.500000  0.256198  0.576359  1
  B  B14  1  0.500000  0.243607  0.075958  1
  B  B15  1  0.500000  0.756651  0.924180  1
  B  B16  1  0.500000  0.803608  0.272954  1
  B  B17  1  0.500000  0.196448  0.727389  1
  B  B18  1  0.500000  0.302970  0.225638  1
  B  B19  1  0.500000  0.696313  0.772347  1
  B  B20  1  0.500000  0.644024  0.187822  1
  B  B21  1  0.500000  0.355241  0.812609  1
  B  B22  1  0.500000  0.143513  0.311930  1
  B  B23  1  0.500000  0.855286  0.687517  1
  B  B24  1  0.500000  0.985696  0.218244  1
  B  B25  1  0.500000  0.014380  0.781310  1
  B  B26  1  0.500000  0.486742  0.280770  1
  B  B27  1  0.500000  0.515185  0.718076  1
  B  B28  1  0.500000  0.642375  0.039488  1
  B  B29  1  0.500000  0.357952  0.960758  1
  B  B30  1  0.500000  0.139529  0.461138  1
  B  B31  1  0.500000  0.857429  0.539683  1
  Mo  Mo32  1  0.000000  0.647375  0.319502  1
  Mo  Mo33  1  0.000000  0.355279  0.682180  1
  Mo  Mo34  1  0.000000  0.143405  0.177760  1
  Mo  Mo35  1  0.000000  0.854996  0.820225  1
