# generated using pymatgen
data_Yb(RuC)2
_symmetry_space_group_name_H-M   'P 1'
_cell_length_a   5.40270157
_cell_length_b   5.40211655
_cell_length_c   5.82424846
_cell_angle_alpha   107.24886289
_cell_angle_beta   107.26449411
_cell_angle_gamma   111.21854107
_symmetry_Int_Tables_number   1
_chemical_formula_structural   Yb(RuC)2
_chemical_formula_sum   'Yb2 Ru4 C4'
_cell_volume   134.84799616
_cell_formula_units_Z   2
loop_
 _symmetry_equiv_pos_site_id
 _symmetry_equiv_pos_as_xyz
  1  'x, y, z'
loop_
 _atom_site_type_symbol
 _atom_site_label
 _atom_site_symmetry_multiplicity
 _atom_site_fract_x
 _atom_site_fract_y
 _atom_site_fract_z
 _atom_site_occupancy
  Yb  Yb0  1  0.374330  0.625773  0.250090  1
  Yb  Yb1  1  0.625670  0.374227  0.749911  1
  Ru  Ru2  1  0.259451  0.009514  0.019234  1
  Ru  Ru3  1  0.990483  0.740471  0.480638  1
  Ru  Ru4  1  0.009517  0.259529  0.519362  1
  Ru  Ru5  1  0.740549  0.990486  0.980766  1
  C  C6  1  0.693759  0.306202  0.249995  1
  C  C7  1  0.057179  0.942926  0.250037  1
  C  C8  1  0.942820  0.057074  0.749964  1
  C  C9  1  0.306241  0.693797  0.750006  1
