# generated using pymatgen
data_Sm(NbBr3)6
_symmetry_space_group_name_H-M   'P 1'
_cell_length_a   10.78236303
_cell_length_b   10.78236334
_cell_length_c   10.78236235
_cell_angle_alpha   55.97053895
_cell_angle_beta   55.97052982
_cell_angle_gamma   55.97053614
_symmetry_Int_Tables_number   1
_chemical_formula_structural   Sm(NbBr3)6
_chemical_formula_sum   'Sm1 Nb6 Br18'
_cell_volume   803.63740117
_cell_formula_units_Z   1
loop_
 _symmetry_equiv_pos_site_id
 _symmetry_equiv_pos_as_xyz
  1  'x, y, z'
loop_
 _atom_site_type_symbol
 _atom_site_label
 _atom_site_symmetry_multiplicity
 _atom_site_fract_x
 _atom_site_fract_y
 _atom_site_fract_z
 _atom_site_occupancy
  Sm  Sm0  1  0.000000  0.000000  0.000000  1
  Nb  Nb1  1  0.412559  0.307950  0.643566  1
  Nb  Nb2  1  0.356434  0.587441  0.692050  1
  Nb  Nb3  1  0.692050  0.356434  0.587441  1
  Nb  Nb4  1  0.307950  0.643566  0.412559  1
  Nb  Nb5  1  0.643566  0.412559  0.307950  1
  Nb  Nb6  1  0.587441  0.692050  0.356434  1
  Br  Br7  1  0.568680  0.163706  0.441198  1
  Br  Br8  1  0.224984  0.371015  0.905709  1
  Br  Br9  1  0.905709  0.224984  0.371015  1
  Br  Br10  1  0.371015  0.905709  0.224984  1
  Br  Br11  1  0.775016  0.628985  0.094291  1
  Br  Br12  1  0.094291  0.775016  0.628985  1
  Br  Br13  1  0.696148  0.958661  0.163259  1
  Br  Br14  1  0.958661  0.163259  0.696148  1
  Br  Br15  1  0.163259  0.696148  0.958661  1
  Br  Br16  1  0.303852  0.041339  0.836741  1
  Br  Br17  1  0.041339  0.836741  0.303852  1
  Br  Br18  1  0.836741  0.303852  0.041339  1
  Br  Br19  1  0.558802  0.431320  0.836294  1
  Br  Br20  1  0.163706  0.441198  0.568680  1
  Br  Br21  1  0.441198  0.568680  0.163706  1
  Br  Br22  1  0.431320  0.836294  0.558802  1
  Br  Br23  1  0.836294  0.558802  0.431320  1
  Br  Br24  1  0.628985  0.094291  0.775016  1
