# generated using pymatgen
data_Ho12OsPd2Rh
_symmetry_space_group_name_H-M   'P 1'
_cell_length_a   6.38751803
_cell_length_b   7.16017397
_cell_length_c   9.37344800
_cell_angle_alpha   90.00000000
_cell_angle_beta   90.00000000
_cell_angle_gamma   90.14706260
_symmetry_Int_Tables_number   1
_chemical_formula_structural   Ho12OsPd2Rh
_chemical_formula_sum   'Ho12 Os1 Pd2 Rh1'
_cell_volume   428.70017121
_cell_formula_units_Z   1
loop_
 _symmetry_equiv_pos_site_id
 _symmetry_equiv_pos_as_xyz
  1  'x, y, z'
loop_
 _atom_site_type_symbol
 _atom_site_label
 _atom_site_symmetry_multiplicity
 _atom_site_fract_x
 _atom_site_fract_y
 _atom_site_fract_z
 _atom_site_occupancy
  Ho  Ho0  1  0.334539  0.677870  0.056487  1
  Ho  Ho1  1  0.174849  0.184791  0.438111  1
  Ho  Ho2  1  0.670131  0.322629  0.561572  1
  Ho  Ho3  1  0.821038  0.815152  0.937819  1
  Ho  Ho4  1  0.670131  0.322629  0.938428  1
  Ho  Ho5  1  0.821038  0.815152  0.562181  1
  Ho  Ho6  1  0.334539  0.677870  0.443513  1
  Ho  Ho7  1  0.174849  0.184791  0.061889  1
  Ho  Ho8  1  0.868409  0.524992  0.250000  1
  Ho  Ho9  1  0.627123  0.038545  0.250000  1
  Ho  Ho10  1  0.129480  0.475389  0.750000  1
  Ho  Ho11  1  0.376501  0.961960  0.750000  1
  Os  Os12  1  0.545129  0.612236  0.750000  1
  Pd  Pd13  1  0.051601  0.886825  0.250000  1
  Pd  Pd14  1  0.952259  0.112292  0.750000  1
  Rh  Rh15  1  0.448386  0.386877  0.250000  1
