# generated using pymatgen
data_Lu12Re5Si16Tc3
_symmetry_space_group_name_H-M   'P 1'
_cell_length_a   10.48307730
_cell_length_b   10.48139326
_cell_length_c   14.20241500
_cell_angle_alpha   55.19884394
_cell_angle_beta   55.19696779
_cell_angle_gamma   30.69409942
_symmetry_Int_Tables_number   1
_chemical_formula_structural   Lu12Re5Si16Tc3
_chemical_formula_sum   'Lu12 Re5 Si16 Tc3'
_cell_volume   642.07893734
_cell_formula_units_Z   1
loop_
 _symmetry_equiv_pos_site_id
 _symmetry_equiv_pos_as_xyz
  1  'x, y, z'
loop_
 _atom_site_type_symbol
 _atom_site_label
 _atom_site_symmetry_multiplicity
 _atom_site_fract_x
 _atom_site_fract_y
 _atom_site_fract_z
 _atom_site_occupancy
  Lu  Lu0  1  0.752686  0.485086  0.048209  1
  Lu  Lu1  1  0.536656  0.307781  0.153448  1
  Lu  Lu2  1  0.515077  0.246957  0.451683  1
  Lu  Lu3  1  0.463768  0.692363  0.846562  1
  Lu  Lu4  1  0.292005  0.040081  0.138777  1
  Lu  Lu5  1  0.959765  0.707617  0.361206  1
  Lu  Lu6  1  0.707949  0.959402  0.861225  1
  Lu  Lu7  1  0.040311  0.292446  0.638714  1
  Lu  Lu8  1  0.247139  0.514852  0.951653  1
  Lu  Lu9  1  0.484533  0.753336  0.548546  1
  Lu  Lu10  1  0.307725  0.536071  0.653348  1
  Lu  Lu11  1  0.693074  0.463437  0.346387  1
  Re  Re12  1  0.171507  0.356401  0.218055  1
  Re  Re13  1  0.137862  0.912422  0.077571  1
  Re  Re14  1  0.087405  0.862568  0.422177  1
  Re  Re15  1  0.862604  0.086936  0.922643  1
  Re  Re16  1  0.912711  0.137236  0.577839  1
  Si  Si17  1  0.901136  0.098887  0.249962  1
  Si  Si18  1  0.098833  0.901186  0.750112  1
  Si  Si19  1  0.346248  0.653685  0.250018  1
  Si  Si20  1  0.654025  0.346000  0.750065  1
  Si  Si21  1  0.999267  0.230648  0.876897  1
  Si  Si22  1  0.769264  0.000845  0.623030  1
  Si  Si23  1  0.001650  0.769231  0.122494  1
  Si  Si24  1  0.229935  0.999572  0.377091  1
  Si  Si25  1  0.605017  0.047639  0.076419  1
  Si  Si26  1  0.952995  0.393655  0.424972  1
  Si  Si27  1  0.394129  0.953512  0.923261  1
  Si  Si28  1  0.046703  0.605984  0.576457  1
  Si  Si29  1  0.384839  0.160898  0.379580  1
  Si  Si30  1  0.839392  0.615482  0.119448  1
  Si  Si31  1  0.615361  0.839277  0.620731  1
  Si  Si32  1  0.160225  0.385127  0.879520  1
  Tc  Tc33  1  0.642584  0.828899  0.282028  1
  Tc  Tc34  1  0.828396  0.642980  0.782445  1
  Tc  Tc35  1  0.357228  0.171503  0.717428  1
