# generated using pymatgen
data_TbHo2Mg3Ge2Pd
_symmetry_space_group_name_H-M   'P 1'
_cell_length_a   7.25826500
_cell_length_b   7.27298496
_cell_length_c   4.29703400
_cell_angle_alpha   90.00000000
_cell_angle_beta   90.00000000
_cell_angle_gamma   119.93307629
_symmetry_Int_Tables_number   1
_chemical_formula_structural   TbHo2Mg3Ge2Pd
_chemical_formula_sum   'Tb1 Ho2 Mg3 Ge2 Pd1'
_cell_volume   196.57913083
_cell_formula_units_Z   1
loop_
 _symmetry_equiv_pos_site_id
 _symmetry_equiv_pos_as_xyz
  1  'x, y, z'
loop_
 _atom_site_type_symbol
 _atom_site_label
 _atom_site_symmetry_multiplicity
 _atom_site_fract_x
 _atom_site_fract_y
 _atom_site_fract_z
 _atom_site_occupancy
  Tb  Tb0  1  0.583390  0.000000  0.000000  1
  Ho  Ho1  1  0.000459  0.583762  0.000000  1
  Ho  Ho2  1  0.416697  0.416238  0.000000  1
  Mg  Mg3  1  0.241433  0.000000  0.500000  1
  Mg  Mg4  1  0.000712  0.242449  0.500000  1
  Mg  Mg5  1  0.758263  0.757551  0.500000  1
  Ge  Ge6  1  0.332016  0.665298  0.500000  1
  Ge  Ge7  1  0.666719  0.334702  0.500000  1
  Pd  Pd8  1  0.000310  0.000000  0.000000  1
