# generated using pymatgen
data_Ta3GaSe6
_symmetry_space_group_name_H-M   'P 1'
_cell_length_a   6.03275000
_cell_length_b   6.03275021
_cell_length_c   15.57214400
_cell_angle_alpha   90.00000000
_cell_angle_beta   90.00000000
_cell_angle_gamma   119.99999884
_symmetry_Int_Tables_number   1
_chemical_formula_structural   Ta3GaSe6
_chemical_formula_sum   'Ta6 Ga2 Se12'
_cell_volume   490.80583793
_cell_formula_units_Z   2
loop_
 _symmetry_equiv_pos_site_id
 _symmetry_equiv_pos_as_xyz
  1  'x, y, z'
loop_
 _atom_site_type_symbol
 _atom_site_label
 _atom_site_symmetry_multiplicity
 _atom_site_fract_x
 _atom_site_fract_y
 _atom_site_fract_z
 _atom_site_occupancy
  Ta  Ta0  1  0.000000  0.000000  0.000000  1
  Ta  Ta1  1  0.666667  0.333333  0.999821  1
  Ta  Ta2  1  0.333333  0.666667  0.499821  1
  Ta  Ta3  1  0.000000  0.000000  0.500000  1
  Ta  Ta4  1  0.333333  0.666667  0.000179  1
  Ta  Ta5  1  0.666667  0.333333  0.500179  1
  Ga  Ga6  1  0.666667  0.333333  0.750000  1
  Ga  Ga7  1  0.333333  0.666667  0.250000  1
  Se  Se8  1  0.668464  0.666403  0.107459  1
  Se  Se9  1  0.331536  0.333597  0.607459  1
  Se  Se10  1  0.666403  0.668464  0.892541  1
  Se  Se11  1  0.331536  0.997939  0.892541  1
  Se  Se12  1  0.002061  0.668464  0.607459  1
  Se  Se13  1  0.002061  0.333597  0.892541  1
  Se  Se14  1  0.997939  0.666403  0.392541  1
  Se  Se15  1  0.333597  0.331536  0.392541  1
  Se  Se16  1  0.668464  0.002061  0.392541  1
  Se  Se17  1  0.997939  0.331536  0.107459  1
  Se  Se18  1  0.666403  0.997939  0.607459  1
  Se  Se19  1  0.333597  0.002061  0.107459  1
