# generated using pymatgen
data_Sm8Sb(IO8)3
_symmetry_space_group_name_H-M   'P 1'
_cell_length_a   5.60310347
_cell_length_b   7.85670103
_cell_length_c   11.89204210
_cell_angle_alpha   76.35562135
_cell_angle_beta   90.05364287
_cell_angle_gamma   89.95276963
_symmetry_Int_Tables_number   1
_chemical_formula_structural   Sm8Sb(IO8)3
_chemical_formula_sum   'Sm8 Sb1 I3 O24'
_cell_volume   508.73566774
_cell_formula_units_Z   1
loop_
 _symmetry_equiv_pos_site_id
 _symmetry_equiv_pos_as_xyz
  1  'x, y, z'
loop_
 _atom_site_type_symbol
 _atom_site_label
 _atom_site_symmetry_multiplicity
 _atom_site_fract_x
 _atom_site_fract_y
 _atom_site_fract_z
 _atom_site_occupancy
  Sm  Sm0  1  0.738928  0.983807  0.751695  1
  Sm  Sm1  1  0.253718  0.020093  0.251527  1
  Sm  Sm2  1  0.194225  0.776999  0.581479  1
  Sm  Sm3  1  0.817575  0.802319  0.069709  1
  Sm  Sm4  1  0.681194  0.502991  0.757582  1
  Sm  Sm5  1  0.307047  0.500205  0.241783  1
  Sm  Sm6  1  0.186074  0.202813  0.925860  1
  Sm  Sm7  1  0.808605  0.220965  0.418932  1
  Sb  Sb8  1  0.251942  0.721665  0.885644  1
  I  I9  1  0.744899  0.732948  0.382272  1
  I  I10  1  0.251350  0.267285  0.620119  1
  I  I11  1  0.738157  0.289798  0.106515  1
  O  O12  1  0.041467  0.935899  0.889978  1
  O  O13  1  0.532491  0.852248  0.927876  1
  O  O14  1  0.929290  0.939620  0.395373  1
  O  O15  1  0.460319  0.779157  0.727270  1
  O  O16  1  0.470682  0.836307  0.434706  1
  O  O17  1  0.979988  0.707001  0.765852  1
  O  O18  1  0.583815  0.817938  0.234634  1
  O  O19  1  0.849051  0.641387  0.536133  1
  O  O20  1  0.358766  0.484413  0.883213  1
  O  O21  1  0.017663  0.700003  0.288672  1
  O  O22  1  0.374309  0.490243  0.621049  1
  O  O23  1  0.829330  0.347886  0.939429  1
  O  O24  1  0.138881  0.634522  0.051081  1
  O  O25  1  0.621516  0.511635  0.379328  1
  O  O26  1  0.983264  0.293083  0.718625  1
  O  O27  1  0.615868  0.516562  0.100900  1
  O  O28  1  0.135414  0.365790  0.472752  1
  O  O29  1  0.426794  0.188998  0.765517  1
  O  O30  1  0.058775  0.277696  0.262342  1
  O  O31  1  0.522418  0.164855  0.565629  1
  O  O32  1  0.547180  0.230091  0.269450  1
  O  O33  1  0.067834  0.056677  0.607196  1
  O  O34  1  0.474868  0.161065  0.070369  1
  O  O35  1  0.006302  0.045038  0.099508  1
