# generated using pymatgen
data_La6Cd23Sb
_symmetry_space_group_name_H-M   'P 1'
_cell_length_a   10.20882630
_cell_length_b   10.20882633
_cell_length_c   10.20882600
_cell_angle_alpha   60.00000105
_cell_angle_beta   60.00000096
_cell_angle_gamma   60.00000260
_symmetry_Int_Tables_number   1
_chemical_formula_structural   La6Cd23Sb
_chemical_formula_sum   'La6 Cd23 Sb1'
_cell_volume   752.33704837
_cell_formula_units_Z   1
loop_
 _symmetry_equiv_pos_site_id
 _symmetry_equiv_pos_as_xyz
  1  'x, y, z'
loop_
 _atom_site_type_symbol
 _atom_site_label
 _atom_site_symmetry_multiplicity
 _atom_site_fract_x
 _atom_site_fract_y
 _atom_site_fract_z
 _atom_site_occupancy
  La  La0  1  0.781630  0.781630  0.218370  1
  La  La1  1  0.218370  0.781630  0.218370  1
  La  La2  1  0.781630  0.218370  0.218370  1
  La  La3  1  0.218370  0.218370  0.781630  1
  La  La4  1  0.781630  0.218370  0.781630  1
  La  La5  1  0.218370  0.781630  0.781630  1
  Cd  Cd6  1  0.831600  0.831600  0.505200  1
  Cd  Cd7  1  0.831600  0.505200  0.831600  1
  Cd  Cd8  1  0.505200  0.831600  0.831600  1
  Cd  Cd9  1  0.831600  0.831600  0.831600  1
  Cd  Cd10  1  0.168400  0.168400  0.494800  1
  Cd  Cd11  1  0.168400  0.494800  0.168400  1
  Cd  Cd12  1  0.494800  0.168400  0.168400  1
  Cd  Cd13  1  0.168400  0.168400  0.168400  1
  Cd  Cd14  1  0.622301  0.622301  0.133097  1
  Cd  Cd15  1  0.622301  0.133097  0.622301  1
  Cd  Cd16  1  0.133097  0.622301  0.622301  1
  Cd  Cd17  1  0.622301  0.622301  0.622301  1
  Cd  Cd18  1  0.377699  0.377699  0.866903  1
  Cd  Cd19  1  0.377699  0.866903  0.377699  1
  Cd  Cd20  1  0.866903  0.377699  0.377699  1
  Cd  Cd21  1  0.377699  0.377699  0.377699  1
  Cd  Cd22  1  0.000000  0.000000  0.500000  1
  Cd  Cd23  1  0.500000  0.000000  0.500000  1
  Cd  Cd24  1  0.000000  0.500000  0.500000  1
  Cd  Cd25  1  0.500000  0.500000  0.000000  1
  Cd  Cd26  1  0.000000  0.500000  0.000000  1
  Cd  Cd27  1  0.500000  0.000000  0.000000  1
  Cd  Cd28  1  0.500000  0.500000  0.500000  1
  Sb  Sb29  1  0.000000  0.000000  0.000000  1
