# generated using pymatgen
data_Zr5Fe18CoP12
_symmetry_space_group_name_H-M   'P 1'
_cell_length_a   11.78791000
_cell_length_b   11.78791042
_cell_length_c   3.63069800
_cell_angle_alpha   90.00000000
_cell_angle_beta   90.00000000
_cell_angle_gamma   119.99999883
_symmetry_Int_Tables_number   1
_chemical_formula_structural   Zr5Fe18CoP12
_chemical_formula_sum   'Zr5 Fe18 Co1 P12'
_cell_volume   436.91243055
_cell_formula_units_Z   1
loop_
 _symmetry_equiv_pos_site_id
 _symmetry_equiv_pos_as_xyz
  1  'x, y, z'
loop_
 _atom_site_type_symbol
 _atom_site_label
 _atom_site_symmetry_multiplicity
 _atom_site_fract_x
 _atom_site_fract_y
 _atom_site_fract_z
 _atom_site_occupancy
  Zr  Zr0  1  0.333333  0.666667  0.500000  1
  Zr  Zr1  1  0.666667  0.333333  0.500000  1
  Zr  Zr2  1  0.188112  0.000000  0.000000  1
  Zr  Zr3  1  0.000000  0.188112  0.000000  1
  Zr  Zr4  1  0.811888  0.811888  0.000000  1
  Fe  Fe5  1  0.196974  0.376847  0.500000  1
  Fe  Fe6  1  0.623153  0.820127  0.500000  1
  Fe  Fe7  1  0.179873  0.803026  0.500000  1
  Fe  Fe8  1  0.820127  0.623153  0.500000  1
  Fe  Fe9  1  0.803026  0.179873  0.500000  1
  Fe  Fe10  1  0.376847  0.196974  0.500000  1
  Fe  Fe11  1  0.556611  0.000000  0.500000  1
  Fe  Fe12  1  0.000000  0.556611  0.500000  1
  Fe  Fe13  1  0.443389  0.443389  0.500000  1
  Fe  Fe14  1  0.123863  0.484381  0.000000  1
  Fe  Fe15  1  0.515619  0.639482  0.000000  1
  Fe  Fe16  1  0.360518  0.876137  0.000000  1
  Fe  Fe17  1  0.639482  0.515619  0.000000  1
  Fe  Fe18  1  0.876137  0.360518  0.000000  1
  Fe  Fe19  1  0.484381  0.123863  0.000000  1
  Fe  Fe20  1  0.717135  0.000000  0.000000  1
  Fe  Fe21  1  0.000000  0.717135  0.000000  1
  Fe  Fe22  1  0.282865  0.282865  0.000000  1
  Co  Co23  1  0.000000  0.000000  0.500000  1
  P  P24  1  0.367937  0.000000  0.500000  1
  P  P25  1  0.000000  0.367937  0.500000  1
  P  P26  1  0.632063  0.632063  0.500000  1
  P  P27  1  0.313356  0.480706  0.000000  1
  P  P28  1  0.519294  0.832649  0.000000  1
  P  P29  1  0.167351  0.686644  0.000000  1
  P  P30  1  0.832649  0.519294  0.000000  1
  P  P31  1  0.686644  0.167351  0.000000  1
  P  P32  1  0.480706  0.313356  0.000000  1
  P  P33  1  0.819761  0.000000  0.500000  1
  P  P34  1  0.000000  0.819761  0.500000  1
  P  P35  1  0.180239  0.180239  0.500000  1
