# generated using pymatgen
data_Er9ScHg3Ru
_symmetry_space_group_name_H-M   'P 1'
_cell_length_a   9.43207600
_cell_length_b   9.43207563
_cell_length_c   9.70674000
_cell_angle_alpha   90.00000000
_cell_angle_beta   90.00000000
_cell_angle_gamma   120.00000130
_symmetry_Int_Tables_number   1
_chemical_formula_structural   Er9ScHg3Ru
_chemical_formula_sum   'Er18 Sc2 Hg6 Ru2'
_cell_volume   747.85704463
_cell_formula_units_Z   2
loop_
 _symmetry_equiv_pos_site_id
 _symmetry_equiv_pos_as_xyz
  1  'x, y, z'
loop_
 _atom_site_type_symbol
 _atom_site_label
 _atom_site_symmetry_multiplicity
 _atom_site_fract_x
 _atom_site_fract_y
 _atom_site_fract_z
 _atom_site_occupancy
  Er  Er0  1  0.208663  0.791337  0.441026  1
  Er  Er1  1  0.208663  0.417325  0.441026  1
  Er  Er2  1  0.582675  0.791337  0.441026  1
  Er  Er3  1  0.791337  0.208663  0.558974  1
  Er  Er4  1  0.791337  0.582675  0.558974  1
  Er  Er5  1  0.417325  0.208663  0.558974  1
  Er  Er6  1  0.791337  0.208663  0.941026  1
  Er  Er7  1  0.791337  0.582675  0.941026  1
  Er  Er8  1  0.417325  0.208663  0.941026  1
  Er  Er9  1  0.208663  0.791337  0.058974  1
  Er  Er10  1  0.208663  0.417325  0.058974  1
  Er  Er11  1  0.582675  0.791337  0.058974  1
  Er  Er12  1  0.540829  0.459171  0.250000  1
  Er  Er13  1  0.540829  0.081658  0.250000  1
  Er  Er14  1  0.918342  0.459171  0.250000  1
  Er  Er15  1  0.459171  0.540829  0.750000  1
  Er  Er16  1  0.459171  0.918342  0.750000  1
  Er  Er17  1  0.081658  0.540829  0.750000  1
  Sc  Sc18  1  0.000000  0.000000  0.500000  1
  Sc  Sc19  1  0.000000  0.000000  0.000000  1
  Hg  Hg20  1  0.886319  0.113681  0.250000  1
  Hg  Hg21  1  0.886319  0.772640  0.250000  1
  Hg  Hg22  1  0.227360  0.113681  0.250000  1
  Hg  Hg23  1  0.113681  0.886319  0.750000  1
  Hg  Hg24  1  0.113681  0.227360  0.750000  1
  Hg  Hg25  1  0.772640  0.886319  0.750000  1
  Ru  Ru26  1  0.333333  0.666667  0.250000  1
  Ru  Ru27  1  0.666667  0.333333  0.750000  1
