# generated using pymatgen
data_Ho7TmSc11Si16Rh
_symmetry_space_group_name_H-M   'P 1'
_cell_length_a   6.96453003
_cell_length_b   7.38914918
_cell_length_c   13.86421640
_cell_angle_alpha   89.97475911
_cell_angle_beta   90.01074856
_cell_angle_gamma   89.91012177
_symmetry_Int_Tables_number   1
_chemical_formula_structural   Ho7TmSc11Si16Rh
_chemical_formula_sum   'Ho7 Tm1 Sc11 Si16 Rh1'
_cell_volume   713.47867039
_cell_formula_units_Z   1
loop_
 _symmetry_equiv_pos_site_id
 _symmetry_equiv_pos_as_xyz
  1  'x, y, z'
loop_
 _atom_site_type_symbol
 _atom_site_label
 _atom_site_symmetry_multiplicity
 _atom_site_fract_x
 _atom_site_fract_y
 _atom_site_fract_z
 _atom_site_occupancy
  Ho  Ho0  1  0.012280  0.178913  0.093445  1
  Ho  Ho1  1  0.990781  0.814652  0.902344  1
  Ho  Ho2  1  0.489324  0.674606  0.903128  1
  Ho  Ho3  1  0.990789  0.814547  0.597596  1
  Ho  Ho4  1  0.510172  0.322206  0.094111  1
  Ho  Ho5  1  0.012246  0.178899  0.406626  1
  Ho  Ho6  1  0.510158  0.322278  0.406026  1
  Tm  Tm7  1  0.489172  0.674758  0.597223  1
  Sc  Sc8  1  0.840829  0.496739  0.249992  1
  Sc  Sc9  1  0.342139  0.004709  0.250010  1
  Sc  Sc10  1  0.653137  0.996992  0.749895  1
  Sc  Sc11  1  0.321583  0.176997  0.628352  1
  Sc  Sc12  1  0.672364  0.824990  0.374280  1
  Sc  Sc13  1  0.173243  0.673669  0.375920  1
  Sc  Sc14  1  0.672396  0.825111  0.125830  1
  Sc  Sc15  1  0.831074  0.328893  0.629673  1
  Sc  Sc16  1  0.321512  0.176945  0.871599  1
  Sc  Sc17  1  0.831293  0.328735  0.870183  1
  Sc  Sc18  1  0.173223  0.673641  0.124149  1
  Si  Si19  1  0.024012  0.094791  0.749944  1
  Si  Si20  1  0.973216  0.888954  0.250005  1
  Si  Si21  1  0.469676  0.613255  0.250043  1
  Si  Si22  1  0.517105  0.396170  0.749782  1
  Si  Si23  1  0.282855  0.862226  0.749720  1
  Si  Si24  1  0.716041  0.131225  0.250008  1
  Si  Si25  1  0.215004  0.370506  0.249991  1
  Si  Si26  1  0.791641  0.628936  0.749764  1
  Si  Si27  1  0.161242  0.464337  0.542679  1
  Si  Si28  1  0.842279  0.535003  0.463650  1
  Si  Si29  1  0.344357  0.964204  0.463398  1
  Si  Si30  1  0.842479  0.534918  0.036428  1
  Si  Si31  1  0.658611  0.034184  0.540277  1
  Si  Si32  1  0.160441  0.463898  0.957489  1
  Si  Si33  1  0.658840  0.034777  0.959814  1
  Si  Si34  1  0.344198  0.964660  0.036772  1
  Rh  Rh35  1  0.160288  0.529676  0.749853  1
