# generated using pymatgen
data_V5B2As
_symmetry_space_group_name_H-M   'P 1'
_cell_length_a   6.80003817
_cell_length_b   6.80003856
_cell_length_c   6.80003928
_cell_angle_alpha   129.43222061
_cell_angle_beta   129.43222427
_cell_angle_gamma   74.31609719
_symmetry_Int_Tables_number   1
_chemical_formula_structural   V5B2As
_chemical_formula_sum   'V10 B4 As2'
_cell_volume   182.85377295
_cell_formula_units_Z   2
loop_
 _symmetry_equiv_pos_site_id
 _symmetry_equiv_pos_as_xyz
  1  'x, y, z'
loop_
 _atom_site_type_symbol
 _atom_site_label
 _atom_site_symmetry_multiplicity
 _atom_site_fract_x
 _atom_site_fract_y
 _atom_site_fract_z
 _atom_site_occupancy
  V  V0  1  0.532320  0.695931  0.500000  1
  V  V1  1  0.032320  0.532320  0.836388  1
  V  V2  1  0.695931  0.195931  0.163612  1
  V  V3  1  0.967680  0.467680  0.163612  1
  V  V4  1  0.195931  0.032320  0.500000  1
  V  V5  1  0.467680  0.304069  0.500000  1
  V  V6  1  0.804069  0.967680  0.500000  1
  V  V7  1  0.304069  0.804069  0.836388  1
  V  V8  1  0.000000  0.000000  0.000000  1
  V  V9  1  0.500000  0.500000  0.000000  1
  B  B10  1  0.615041  0.115041  0.730081  1
  B  B11  1  0.115041  0.384959  0.500000  1
  B  B12  1  0.884959  0.615041  0.500000  1
  B  B13  1  0.384959  0.884959  0.269919  1
  As  As14  1  0.250000  0.250000  0.000000  1
  As  As15  1  0.750000  0.750000  0.000000  1
