# generated using pymatgen
data_LuTa3Pb4O13
_symmetry_space_group_name_H-M   'P 1'
_cell_length_a   7.64487300
_cell_length_b   7.64487269
_cell_length_c   7.64487172
_cell_angle_alpha   59.74614531
_cell_angle_beta   59.74614646
_cell_angle_gamma   59.74614729
_symmetry_Int_Tables_number   1
_chemical_formula_structural   LuTa3Pb4O13
_chemical_formula_sum   'Lu1 Ta3 Pb4 O13'
_cell_volume   314.11230614
_cell_formula_units_Z   1
loop_
 _symmetry_equiv_pos_site_id
 _symmetry_equiv_pos_as_xyz
  1  'x, y, z'
loop_
 _atom_site_type_symbol
 _atom_site_label
 _atom_site_symmetry_multiplicity
 _atom_site_fract_x
 _atom_site_fract_y
 _atom_site_fract_z
 _atom_site_occupancy
  Lu  Lu0  1  0.501482  0.501482  0.501482  1
  Ta  Ta1  1  0.002517  0.500954  0.500954  1
  Ta  Ta2  1  0.500954  0.500954  0.002517  1
  Ta  Ta3  1  0.500954  0.002517  0.500954  1
  Pb  Pb4  1  0.999961  0.999961  0.999961  1
  Pb  Pb5  1  0.498669  0.007147  0.007147  1
  Pb  Pb6  1  0.007147  0.007147  0.498669  1
  Pb  Pb7  1  0.007147  0.498669  0.007147  1
  O  O8  1  0.854587  0.413052  0.413052  1
  O  O9  1  0.426620  0.806732  0.806732  1
  O  O10  1  0.413052  0.413052  0.854587  1
  O  O11  1  0.806732  0.806732  0.426620  1
  O  O12  1  0.806732  0.426620  0.806732  1
  O  O13  1  0.413052  0.854587  0.413052  1
  O  O14  1  0.157521  0.576455  0.576455  1
  O  O15  1  0.574386  0.189941  0.189941  1
  O  O16  1  0.576455  0.576455  0.157521  1
  O  O17  1  0.189941  0.189941  0.574386  1
  O  O18  1  0.189941  0.574386  0.189941  1
  O  O19  1  0.576455  0.157521  0.576455  1
  O  O20  1  0.120700  0.120700  0.120700  1
