# generated using pymatgen
data_Y8Zn(Si5W4)3
_symmetry_space_group_name_H-M   'P 1'
_cell_length_a   6.79646314
_cell_length_b   6.95892382
_cell_length_c   12.95315600
_cell_angle_alpha   90.02462618
_cell_angle_beta   89.96675958
_cell_angle_gamma   90.01296546
_symmetry_Int_Tables_number   1
_chemical_formula_structural   Y8Zn(Si5W4)3
_chemical_formula_sum   'Y8 Zn1 Si15 W12'
_cell_volume   612.63318806
_cell_formula_units_Z   1
loop_
 _symmetry_equiv_pos_site_id
 _symmetry_equiv_pos_as_xyz
  1  'x, y, z'
loop_
 _atom_site_type_symbol
 _atom_site_label
 _atom_site_symmetry_multiplicity
 _atom_site_fract_x
 _atom_site_fract_y
 _atom_site_fract_z
 _atom_site_occupancy
  Y  Y0  1  0.495555  0.332210  0.093686  1
  Y  Y1  1  0.995296  0.168339  0.405923  1
  Y  Y2  1  0.505981  0.666854  0.593865  1
  Y  Y3  1  0.003622  0.831888  0.906539  1
  Y  Y4  1  0.503400  0.667909  0.906431  1
  Y  Y5  1  0.005510  0.830680  0.592762  1
  Y  Y6  1  0.496449  0.333688  0.405937  1
  Y  Y7  1  0.996464  0.168408  0.093843  1
  Zn  Zn8  1  0.166038  0.457067  0.543164  1
  Si  Si9  1  0.805865  0.631429  0.749852  1
  Si  Si10  1  0.302506  0.865361  0.750111  1
  Si  Si11  1  0.195488  0.369718  0.250295  1
  Si  Si12  1  0.696706  0.132705  0.250244  1
  Si  Si13  1  0.533393  0.370934  0.750489  1
  Si  Si14  1  0.035971  0.129436  0.748643  1
  Si  Si15  1  0.464087  0.631553  0.249481  1
  Si  Si16  1  0.962419  0.871778  0.248485  1
  Si  Si17  1  0.662663  0.042281  0.545740  1
  Si  Si18  1  0.161586  0.455259  0.955745  1
  Si  Si19  1  0.337597  0.957190  0.046292  1
  Si  Si20  1  0.841296  0.543289  0.454373  1
  Si  Si21  1  0.337642  0.956972  0.454281  1
  Si  Si22  1  0.837743  0.543377  0.046162  1
  Si  Si23  1  0.661671  0.042590  0.954638  1
  W  W24  1  0.665607  0.004246  0.750980  1
  W  W25  1  0.163174  0.491248  0.753939  1
  W  W26  1  0.334733  0.998264  0.249343  1
  W  W27  1  0.834098  0.504646  0.249621  1
  W  W28  1  0.824897  0.336402  0.627714  1
  W  W29  1  0.332799  0.162002  0.875694  1
  W  W30  1  0.168929  0.663187  0.123505  1
  W  W31  1  0.668873  0.836942  0.374393  1
  W  W32  1  0.165975  0.671326  0.368579  1
  W  W33  1  0.667572  0.837298  0.125545  1
  W  W34  1  0.831055  0.336418  0.875340  1
  W  W35  1  0.337338  0.157107  0.628367  1
