# generated using pymatgen
data_Nd2Pa(ZnPt)3
_symmetry_space_group_name_H-M   'P 1'
_cell_length_a   7.48568875
_cell_length_b   7.50655247
_cell_length_c   3.86732000
_cell_angle_alpha   90.00000000
_cell_angle_beta   90.00000000
_cell_angle_gamma   120.09223901
_symmetry_Int_Tables_number   1
_chemical_formula_structural   Nd2Pa(ZnPt)3
_chemical_formula_sum   'Nd2 Pa1 Zn3 Pt3'
_cell_volume   188.02197922
_cell_formula_units_Z   1
loop_
 _symmetry_equiv_pos_site_id
 _symmetry_equiv_pos_as_xyz
  1  'x, y, z'
loop_
 _atom_site_type_symbol
 _atom_site_label
 _atom_site_symmetry_multiplicity
 _atom_site_fract_x
 _atom_site_fract_y
 _atom_site_fract_z
 _atom_site_occupancy
  Nd  Nd0  1  0.595834  0.003207  0.500000  1
  Nd  Nd1  1  0.404166  0.407372  0.500000  1
  Pa  Pa2  1  0.000000  0.592764  0.500000  1
  Zn  Zn3  1  0.000000  0.238708  0.000000  1
  Zn  Zn4  1  0.256740  0.007457  0.000000  1
  Zn  Zn5  1  0.743260  0.750716  0.000000  1
  Pt  Pt6  1  0.000000  0.980780  0.500000  1
  Pt  Pt7  1  0.694429  0.356711  0.000000  1
  Pt  Pt8  1  0.305571  0.662283  0.000000  1
