# generated using pymatgen
data_DyY3Al4(CoO5)4
_symmetry_space_group_name_H-M   'P 1'
_cell_length_a   5.64923900
_cell_length_b   7.22910601
_cell_length_c   8.32900601
_cell_angle_alpha   89.99521252
_cell_angle_beta   90.00000000
_cell_angle_gamma   90.00000000
_symmetry_Int_Tables_number   1
_chemical_formula_structural   DyY3Al4(CoO5)4
_chemical_formula_sum   'Dy1 Y3 Al4 Co4 O20'
_cell_volume   340.14783859
_cell_formula_units_Z   1
loop_
 _symmetry_equiv_pos_site_id
 _symmetry_equiv_pos_as_xyz
  1  'x, y, z'
loop_
 _atom_site_type_symbol
 _atom_site_label
 _atom_site_symmetry_multiplicity
 _atom_site_fract_x
 _atom_site_fract_y
 _atom_site_fract_z
 _atom_site_occupancy
  Dy  Dy0  1  0.500000  0.365078  0.330518  1
  Y  Y1  1  0.500000  0.634954  0.669486  1
  Y  Y2  1  0.500000  0.134934  0.830516  1
  Y  Y3  1  0.500000  0.865062  0.169495  1
  Al  Al4  1  0.000000  0.109084  0.143046  1
  Al  Al5  1  0.000000  0.890938  0.856952  1
  Al  Al6  1  0.000000  0.390905  0.643033  1
  Al  Al7  1  0.000000  0.609070  0.356948  1
  Co  Co8  1  0.245453  0.000016  0.499999  1
  Co  Co9  1  0.754547  0.000016  0.499999  1
  Co  Co10  1  0.754558  0.499990  0.000038  1
  Co  Co11  1  0.245442  0.499990  0.000038  1
  O  O12  1  0.500000  0.340915  0.055272  1
  O  O13  1  0.500000  0.659102  0.945013  1
  O  O14  1  0.500000  0.159305  0.554796  1
  O  O15  1  0.500000  0.840865  0.444992  1
  O  O16  1  0.219722  0.000003  0.000000  1
  O  O17  1  0.780278  0.000003  0.000000  1
  O  O18  1  0.779945  0.499804  0.499799  1
  O  O19  1  0.220055  0.499804  0.499799  1
  O  O20  1  0.249669  0.105206  0.291842  1
  O  O21  1  0.750608  0.895064  0.708188  1
  O  O22  1  0.249392  0.895064  0.708188  1
  O  O23  1  0.750612  0.395089  0.791798  1
  O  O24  1  0.750331  0.105206  0.291842  1
  O  O25  1  0.249589  0.604723  0.208285  1
  O  O26  1  0.750411  0.604723  0.208285  1
  O  O27  1  0.249388  0.395089  0.791798  1
  O  O28  1  0.000000  0.346519  0.071366  1
  O  O29  1  0.000000  0.653465  0.928649  1
  O  O30  1  0.000000  0.153492  0.571352  1
  O  O31  1  0.000000  0.846521  0.428669  1
