# generated using pymatgen
data_La2SiPtI
_symmetry_space_group_name_H-M   'P 1'
_cell_length_a   4.35330400
_cell_length_b   4.35330363
_cell_length_c   17.39831100
_cell_angle_alpha   90.00000000
_cell_angle_beta   90.00000000
_cell_angle_gamma   119.99998764
_symmetry_Int_Tables_number   1
_chemical_formula_structural   La2SiPtI
_chemical_formula_sum   'La4 Si2 Pt2 I2'
_cell_volume   285.54576929
_cell_formula_units_Z   2
loop_
 _symmetry_equiv_pos_site_id
 _symmetry_equiv_pos_as_xyz
  1  'x, y, z'
loop_
 _atom_site_type_symbol
 _atom_site_label
 _atom_site_symmetry_multiplicity
 _atom_site_fract_x
 _atom_site_fract_y
 _atom_site_fract_z
 _atom_site_occupancy
  La  La0  1  0.000000  0.000000  0.106128  1
  La  La1  1  0.000000  0.000000  0.606128  1
  La  La2  1  0.000000  0.000000  0.891173  1
  La  La3  1  0.000000  0.000000  0.391173  1
  Si  Si4  1  0.666667  0.333333  0.991093  1
  Si  Si5  1  0.333333  0.666667  0.491093  1
  Pt  Pt6  1  0.333333  0.666667  0.009929  1
  Pt  Pt7  1  0.666667  0.333333  0.509929  1
  I  I8  1  0.666667  0.333333  0.251678  1
  I  I9  1  0.333333  0.666667  0.751678  1
