# generated using pymatgen
data_TbDyHo2(SbO4)4
_symmetry_space_group_name_H-M   'P 1'
_cell_length_a   5.39901029
_cell_length_b   7.66817468
_cell_length_c   7.55696737
_cell_angle_alpha   81.09188454
_cell_angle_beta   90.34970772
_cell_angle_gamma   92.26631147
_symmetry_Int_Tables_number   1
_chemical_formula_structural   TbDyHo2(SbO4)4
_chemical_formula_sum   'Tb1 Dy1 Ho2 Sb4 O16'
_cell_volume   308.84710502
_cell_formula_units_Z   1
loop_
 _symmetry_equiv_pos_site_id
 _symmetry_equiv_pos_as_xyz
  1  'x, y, z'
loop_
 _atom_site_type_symbol
 _atom_site_label
 _atom_site_symmetry_multiplicity
 _atom_site_fract_x
 _atom_site_fract_y
 _atom_site_fract_z
 _atom_site_occupancy
  Tb  Tb0  1  0.262350  0.132333  0.613226  1
  Dy  Dy1  1  0.737340  0.867794  0.386054  1
  Ho  Ho2  1  0.211706  0.158489  0.108772  1
  Ho  Ho3  1  0.788119  0.841254  0.891371  1
  Sb  Sb4  1  0.240188  0.663517  0.194338  1
  Sb  Sb5  1  0.759750  0.336792  0.805963  1
  Sb  Sb6  1  0.724240  0.336019  0.307629  1
  Sb  Sb7  1  0.275630  0.664106  0.691979  1
  O  O8  1  0.086447  0.435067  0.689841  1
  O  O9  1  0.913587  0.565072  0.310262  1
  O  O10  1  0.610521  0.326634  0.560416  1
  O  O11  1  0.390855  0.674013  0.439440  1
  O  O12  1  0.872999  0.331639  0.061388  1
  O  O13  1  0.127236  0.668704  0.938585  1
  O  O14  1  0.400286  0.430589  0.195620  1
  O  O15  1  0.599522  0.569265  0.804591  1
  O  O16  1  0.043424  0.885925  0.173113  1
  O  O17  1  0.955559  0.113928  0.827883  1
  O  O18  1  0.506844  0.111445  0.321963  1
  O  O19  1  0.494130  0.887684  0.677849  1
  O  O20  1  0.463743  0.188726  0.879400  1
  O  O21  1  0.536630  0.811492  0.121410  1
  O  O22  1  0.989279  0.167427  0.379753  1
  O  O23  1  0.009615  0.832085  0.619154  1
