# generated using pymatgen
data_LiTbLu3Co19P12
_symmetry_space_group_name_H-M   'P 1'
_cell_length_a   3.63961500
_cell_length_b   10.23307523
_cell_length_c   11.74638924
_cell_angle_alpha   89.95051900
_cell_angle_beta   90.00000000
_cell_angle_gamma   90.00000000
_symmetry_Int_Tables_number   1
_chemical_formula_structural   LiTbLu3Co19P12
_chemical_formula_sum   'Li1 Tb1 Lu3 Co19 P12'
_cell_volume   437.48769192
_cell_formula_units_Z   1
loop_
 _symmetry_equiv_pos_site_id
 _symmetry_equiv_pos_as_xyz
  1  'x, y, z'
loop_
 _atom_site_type_symbol
 _atom_site_label
 _atom_site_symmetry_multiplicity
 _atom_site_fract_x
 _atom_site_fract_y
 _atom_site_fract_z
 _atom_site_occupancy
  Li  Li0  1  0.250000  0.703832  0.990096  1
  Tb  Tb1  1  0.750000  0.418425  0.297509  1
  Lu  Lu2  1  0.250000  0.581356  0.701629  1
  Lu  Lu3  1  0.250000  0.920213  0.203424  1
  Lu  Lu4  1  0.750000  0.079692  0.796944  1
  Co  Co5  1  0.250000  0.783314  0.494405  1
  Co  Co6  1  0.750000  0.288264  0.010079  1
  Co  Co7  1  0.750000  0.217261  0.506558  1
  Co  Co8  1  0.250000  0.407306  0.489365  1
  Co  Co9  1  0.250000  0.095170  0.985993  1
  Co  Co10  1  0.750000  0.593442  0.515483  1
  Co  Co11  1  0.750000  0.908798  0.014442  1
  Co  Co12  1  0.250000  0.222503  0.175287  1
  Co  Co13  1  0.250000  0.277164  0.675795  1
  Co  Co14  1  0.750000  0.779218  0.821342  1
  Co  Co15  1  0.750000  0.721713  0.328032  1
  Co  Co16  1  0.250000  0.884029  0.698284  1
  Co  Co17  1  0.250000  0.621650  0.199748  1
  Co  Co18  1  0.750000  0.116657  0.299679  1
  Co  Co19  1  0.750000  0.379675  0.799990  1
  Co  Co20  1  0.250000  0.463806  0.930372  1
  Co  Co21  1  0.250000  0.032072  0.431062  1
  Co  Co22  1  0.750000  0.535340  0.066109  1
  Co  Co23  1  0.750000  0.967645  0.567741  1
  P  P24  1  0.250000  0.422239  0.111476  1
  P  P25  1  0.250000  0.080484  0.612428  1
  P  P26  1  0.750000  0.577830  0.882244  1
  P  P27  1  0.750000  0.919624  0.387051  1
  P  P28  1  0.250000  0.266491  0.867230  1
  P  P29  1  0.250000  0.229469  0.369914  1
  P  P30  1  0.750000  0.732916  0.137649  1
  P  P31  1  0.750000  0.769750  0.631243  1
  P  P32  1  0.250000  0.602569  0.393690  1
  P  P33  1  0.250000  0.899614  0.890682  1
  P  P34  1  0.750000  0.398494  0.609090  1
  P  P35  1  0.750000  0.101975  0.107938  1
