# generated using pymatgen
data_YHo19(Bi2Rh)4
_symmetry_space_group_name_H-M   'P 1'
_cell_length_a   7.99062300
_cell_length_b   8.96954100
_cell_length_c   12.44518701
_cell_angle_alpha   90.00000000
_cell_angle_beta   90.00370531
_cell_angle_gamma   90.00000000
_symmetry_Int_Tables_number   1
_chemical_formula_structural   YHo19(Bi2Rh)4
_chemical_formula_sum   'Y1 Ho19 Bi8 Rh4'
_cell_volume   891.97418731
_cell_formula_units_Z   1
loop_
 _symmetry_equiv_pos_site_id
 _symmetry_equiv_pos_as_xyz
  1  'x, y, z'
loop_
 _atom_site_type_symbol
 _atom_site_label
 _atom_site_symmetry_multiplicity
 _atom_site_fract_x
 _atom_site_fract_y
 _atom_site_fract_z
 _atom_site_occupancy
  Y  Y0  1  0.839190  0.750000  0.792901  1
  Ho  Ho1  1  0.160478  0.250000  0.206078  1
  Ho  Ho2  1  0.339627  0.250000  0.705924  1
  Ho  Ho3  1  0.660461  0.750000  0.293984  1
  Ho  Ho4  1  0.374873  0.750000  0.690659  1
  Ho  Ho5  1  0.624890  0.250000  0.309291  1
  Ho  Ho6  1  0.875043  0.250000  0.809292  1
  Ho  Ho7  1  0.124931  0.750000  0.190757  1
  Ho  Ho8  1  0.952394  0.750000  0.501335  1
  Ho  Ho9  1  0.047627  0.250000  0.498421  1
  Ho  Ho10  1  0.452323  0.250000  0.998550  1
  Ho  Ho11  1  0.547291  0.750000  0.001714  1
  Ho  Ho12  1  0.676979  0.042347  0.566306  1
  Ho  Ho13  1  0.323102  0.957736  0.433664  1
  Ho  Ho14  1  0.177065  0.957940  0.933859  1
  Ho  Ho15  1  0.323102  0.542264  0.433664  1
  Ho  Ho16  1  0.822981  0.042287  0.066352  1
  Ho  Ho17  1  0.676979  0.457653  0.566306  1
  Ho  Ho18  1  0.822981  0.457713  0.066352  1
  Ho  Ho19  1  0.177065  0.542060  0.933859  1
  Bi  Bi20  1  0.566782  0.491725  0.826295  1
  Bi  Bi21  1  0.433044  0.508016  0.173759  1
  Bi  Bi22  1  0.067377  0.507822  0.673635  1
  Bi  Bi23  1  0.433044  0.991984  0.173759  1
  Bi  Bi24  1  0.932857  0.491898  0.326139  1
  Bi  Bi25  1  0.566782  0.008275  0.826295  1
  Bi  Bi26  1  0.932857  0.008102  0.326139  1
  Bi  Bi27  1  0.067377  0.992178  0.673635  1
  Rh  Rh28  1  0.572198  0.750000  0.509241  1
  Rh  Rh29  1  0.427718  0.250000  0.490736  1
  Rh  Rh30  1  0.072211  0.250000  0.990796  1
  Rh  Rh31  1  0.928371  0.750000  0.010302  1
