# generated using pymatgen
data_Pr4Al4IrPt3
_symmetry_space_group_name_H-M   'P 1'
_cell_length_a   4.52819800
_cell_length_b   7.14346711
_cell_length_c   7.91143610
_cell_angle_alpha   90.01933261
_cell_angle_beta   90.00000000
_cell_angle_gamma   90.00000000
_symmetry_Int_Tables_number   1
_chemical_formula_structural   Pr4Al4IrPt3
_chemical_formula_sum   'Pr4 Al4 Ir1 Pt3'
_cell_volume   255.91147396
_cell_formula_units_Z   1
loop_
 _symmetry_equiv_pos_site_id
 _symmetry_equiv_pos_as_xyz
  1  'x, y, z'
loop_
 _atom_site_type_symbol
 _atom_site_label
 _atom_site_symmetry_multiplicity
 _atom_site_fract_x
 _atom_site_fract_y
 _atom_site_fract_z
 _atom_site_occupancy
  Pr  Pr0  1  0.250000  0.534224  0.820300  1
  Pr  Pr1  1  0.250000  0.030283  0.681940  1
  Pr  Pr2  1  0.750000  0.967379  0.315228  1
  Pr  Pr3  1  0.750000  0.474650  0.181700  1
  Al  Al4  1  0.250000  0.142032  0.066441  1
  Al  Al5  1  0.750000  0.353560  0.565597  1
  Al  Al6  1  0.250000  0.647996  0.431328  1
  Al  Al7  1  0.750000  0.852247  0.935821  1
  Ir  Ir8  1  0.250000  0.781674  0.112757  1
  Pt  Pt9  1  0.250000  0.284963  0.388373  1
  Pt  Pt10  1  0.750000  0.714891  0.613238  1
  Pt  Pt11  1  0.750000  0.216102  0.887278  1
