# generated using pymatgen
data_Be9BRh2
_symmetry_space_group_name_H-M   'P 1'
_cell_length_a   4.13914429
_cell_length_b   4.18818782
_cell_length_c   6.80850824
_cell_angle_alpha   89.99999722
_cell_angle_beta   89.48333995
_cell_angle_gamma   120.39272979
_symmetry_Int_Tables_number   1
_chemical_formula_structural   Be9BRh2
_chemical_formula_sum   'Be9 B1 Rh2'
_cell_volume   101.80362999
_cell_formula_units_Z   1
loop_
 _symmetry_equiv_pos_site_id
 _symmetry_equiv_pos_as_xyz
  1  'x, y, z'
loop_
 _atom_site_type_symbol
 _atom_site_label
 _atom_site_symmetry_multiplicity
 _atom_site_fract_x
 _atom_site_fract_y
 _atom_site_fract_z
 _atom_site_occupancy
  Be  Be0  1  0.826292  0.166565  0.053143  1
  Be  Be1  1  0.826291  0.659727  0.053143  1
  Be  Be2  1  0.018148  0.009074  0.294271  1
  Be  Be3  1  0.664546  0.332273  0.369819  1
  Be  Be4  1  0.167333  0.336579  0.550536  1
  Be  Be5  1  0.167332  0.830757  0.550536  1
  Be  Be6  1  0.665379  0.832690  0.552912  1
  Be  Be7  1  0.010687  0.005344  0.801509  1
  Be  Be8  1  0.330784  0.665391  0.862540  1
  B  B9  1  0.322416  0.161208  0.047181  1
  Rh  Rh10  1  0.334153  0.667076  0.239965  1
  Rh  Rh11  1  0.666640  0.333320  0.752578  1
