# generated using pymatgen
data_TmLu5Al16Os7
_symmetry_space_group_name_H-M   'P 1'
_cell_length_a   8.88062633
_cell_length_b   8.88062578
_cell_length_c   8.88533900
_cell_angle_alpha   59.98245320
_cell_angle_beta   59.98245526
_cell_angle_gamma   60.03510892
_symmetry_Int_Tables_number   1
_chemical_formula_structural   TmLu5Al16Os7
_chemical_formula_sum   'Tm1 Lu5 Al16 Os7'
_cell_volume   495.50265197
_cell_formula_units_Z   1
loop_
 _symmetry_equiv_pos_site_id
 _symmetry_equiv_pos_as_xyz
  1  'x, y, z'
loop_
 _atom_site_type_symbol
 _atom_site_label
 _atom_site_symmetry_multiplicity
 _atom_site_fract_x
 _atom_site_fract_y
 _atom_site_fract_z
 _atom_site_occupancy
  Tm  Tm0  1  0.711063  0.711063  0.288937  1
  Lu  Lu1  1  0.288637  0.711325  0.288675  1
  Lu  Lu2  1  0.711325  0.288637  0.288675  1
  Lu  Lu3  1  0.288783  0.288783  0.711217  1
  Lu  Lu4  1  0.711325  0.288637  0.711363  1
  Lu  Lu5  1  0.288637  0.711325  0.711363  1
  Al  Al6  1  0.879121  0.879121  0.363072  1
  Al  Al7  1  0.879034  0.362978  0.878994  1
  Al  Al8  1  0.362978  0.879034  0.878994  1
  Al  Al9  1  0.879121  0.879121  0.878687  1
  Al  Al10  1  0.121006  0.121006  0.637022  1
  Al  Al11  1  0.121313  0.636928  0.120879  1
  Al  Al12  1  0.636928  0.121313  0.120879  1
  Al  Al13  1  0.121006  0.121006  0.120966  1
  Al  Al14  1  0.666637  0.666637  0.999773  1
  Al  Al15  1  0.666621  0.000074  0.666654  1
  Al  Al16  1  0.000074  0.666621  0.666654  1
  Al  Al17  1  0.666637  0.666637  0.666955  1
  Al  Al18  1  0.333346  0.333346  0.999926  1
  Al  Al19  1  0.333045  0.000227  0.333363  1
  Al  Al20  1  0.000227  0.333045  0.333363  1
  Al  Al21  1  0.333346  0.333346  0.333379  1
  Os  Os22  1  0.000028  0.000028  0.999972  1
  Os  Os23  1  0.999947  0.999947  0.500053  1
  Os  Os24  1  0.499751  0.000184  0.500249  1
  Os  Os25  1  0.000184  0.499751  0.500249  1
  Os  Os26  1  0.499947  0.499947  0.000053  1
  Os  Os27  1  0.000184  0.499751  0.999816  1
  Os  Os28  1  0.499751  0.000184  0.999816  1
