# generated using pymatgen
data_Ho2Lu2ZnRu7
_symmetry_space_group_name_H-M   'P 1'
_cell_length_a   5.27512038
_cell_length_b   5.18453794
_cell_length_c   8.75044100
_cell_angle_alpha   90.17437841
_cell_angle_beta   90.02169044
_cell_angle_gamma   120.48160843
_symmetry_Int_Tables_number   1
_chemical_formula_structural   Ho2Lu2ZnRu7
_chemical_formula_sum   'Ho2 Lu2 Zn1 Ru7'
_cell_volume   206.23945637
_cell_formula_units_Z   1
loop_
 _symmetry_equiv_pos_site_id
 _symmetry_equiv_pos_as_xyz
  1  'x, y, z'
loop_
 _atom_site_type_symbol
 _atom_site_label
 _atom_site_symmetry_multiplicity
 _atom_site_fract_x
 _atom_site_fract_y
 _atom_site_fract_z
 _atom_site_occupancy
  Ho  Ho0  1  0.330207  0.660288  0.067764  1
  Ho  Ho1  1  0.665603  0.330802  0.935409  1
  Lu  Lu2  1  0.666742  0.332973  0.562634  1
  Lu  Lu3  1  0.330864  0.661633  0.433341  1
  Zn  Zn4  1  0.167428  0.335531  0.748875  1
  Ru  Ru5  1  0.992818  0.985369  0.499552  1
  Ru  Ru6  1  0.991502  0.982982  0.000388  1
  Ru  Ru7  1  0.179754  0.837113  0.747640  1
  Ru  Ru8  1  0.656126  0.837107  0.747702  1
  Ru  Ru9  1  0.840558  0.681025  0.251675  1
  Ru  Ru10  1  0.825628  0.177468  0.252507  1
  Ru  Ru11  1  0.352770  0.177709  0.252511  1
