# generated using pymatgen
data_U2Co2B2CN
_symmetry_space_group_name_H-M   'P 1'
_cell_length_a   3.53315700
_cell_length_b   3.53315700
_cell_length_c   7.27782200
_cell_angle_alpha   90.00000000
_cell_angle_beta   90.00000000
_cell_angle_gamma   90.00000000
_symmetry_Int_Tables_number   1
_chemical_formula_structural   U2Co2B2CN
_chemical_formula_sum   'U2 Co2 B2 C1 N1'
_cell_volume   90.85049585
_cell_formula_units_Z   1
loop_
 _symmetry_equiv_pos_site_id
 _symmetry_equiv_pos_as_xyz
  1  'x, y, z'
loop_
 _atom_site_type_symbol
 _atom_site_label
 _atom_site_symmetry_multiplicity
 _atom_site_fract_x
 _atom_site_fract_y
 _atom_site_fract_z
 _atom_site_occupancy
  U  U0  1  0.000000  0.500000  0.317552  1
  U  U1  1  0.500000  0.000000  0.683824  1
  Co  Co2  1  0.500000  0.500000  0.998379  1
  Co  Co3  1  0.000000  0.000000  0.998379  1
  B  B4  1  0.000000  0.500000  0.845347  1
  B  B5  1  0.500000  0.000000  0.151290  1
  C  C6  1  0.500000  0.000000  0.369147  1
  N  N7  1  0.000000  0.500000  0.636082  1
