# generated using pymatgen
data_Y5Tm5(AlSb)3
_symmetry_space_group_name_H-M   'P 1'
_cell_length_a   8.79299905
_cell_length_b   8.82037124
_cell_length_c   6.41652300
_cell_angle_alpha   90.00000000
_cell_angle_beta   90.00000000
_cell_angle_gamma   119.94224768
_symmetry_Int_Tables_number   1
_chemical_formula_structural   Y5Tm5(AlSb)3
_chemical_formula_sum   'Y5 Tm5 Al3 Sb3'
_cell_volume   431.22777129
_cell_formula_units_Z   1
loop_
 _symmetry_equiv_pos_site_id
 _symmetry_equiv_pos_as_xyz
  1  'x, y, z'
loop_
 _atom_site_type_symbol
 _atom_site_label
 _atom_site_symmetry_multiplicity
 _atom_site_fract_x
 _atom_site_fract_y
 _atom_site_fract_z
 _atom_site_occupancy
  Y  Y0  1  0.234694  0.990090  0.250000  1
  Y  Y1  1  0.759634  0.000491  0.750000  1
  Y  Y2  1  0.989376  0.236712  0.250000  1
  Y  Y3  1  0.762059  0.761972  0.250000  1
  Y  Y4  1  0.245581  0.235446  0.750000  1
  Tm  Tm5  1  0.332473  0.679117  0.002356  1
  Tm  Tm6  1  0.666422  0.325893  0.497467  1
  Tm  Tm7  1  0.666422  0.325893  0.002533  1
  Tm  Tm8  1  0.332473  0.679117  0.497644  1
  Tm  Tm9  1  0.011765  0.767947  0.750000  1
  Al  Al10  1  0.597119  0.998791  0.250000  1
  Al  Al11  1  0.404803  0.002568  0.750000  1
  Al  Al12  1  0.994422  0.597778  0.250000  1
  Sb  Sb13  1  0.388546  0.392411  0.250000  1
  Sb  Sb14  1  0.610954  0.607097  0.750000  1
  Sb  Sb15  1  0.003257  0.398674  0.750000  1
