# generated using pymatgen
data_Tb4Gd6Si5P
_symmetry_space_group_name_H-M   'P 1'
_cell_length_a   8.43754200
_cell_length_b   8.44355317
_cell_length_c   6.34522400
_cell_angle_alpha   90.00000000
_cell_angle_beta   90.00000000
_cell_angle_gamma   119.97645251
_symmetry_Int_Tables_number   1
_chemical_formula_structural   Tb4Gd6Si5P
_chemical_formula_sum   'Tb4 Gd6 Si5 P1'
_cell_volume   391.58115303
_cell_formula_units_Z   1
loop_
 _symmetry_equiv_pos_site_id
 _symmetry_equiv_pos_as_xyz
  1  'x, y, z'
loop_
 _atom_site_type_symbol
 _atom_site_label
 _atom_site_symmetry_multiplicity
 _atom_site_fract_x
 _atom_site_fract_y
 _atom_site_fract_z
 _atom_site_occupancy
  Tb  Tb0  1  0.333841  0.668171  0.500156  1
  Tb  Tb1  1  0.665671  0.331829  0.999844  1
  Tb  Tb2  1  0.665671  0.331829  0.500156  1
  Tb  Tb3  1  0.333841  0.668171  0.999844  1
  Gd  Gd4  1  0.001158  0.751251  0.750000  1
  Gd  Gd5  1  0.001248  0.250132  0.250000  1
  Gd  Gd6  1  0.751115  0.749868  0.250000  1
  Gd  Gd7  1  0.747023  0.000000  0.750000  1
  Gd  Gd8  1  0.249906  0.248749  0.750000  1
  Gd  Gd9  1  0.251320  0.000000  0.250000  1
  Si  Si10  1  0.392522  0.392786  0.250000  1
  Si  Si11  1  0.999736  0.607214  0.250000  1
  Si  Si12  1  0.000327  0.392268  0.750000  1
  Si  Si13  1  0.608059  0.607732  0.750000  1
  Si  Si14  1  0.609627  0.000000  0.250000  1
  P  P15  1  0.388932  0.000000  0.750000  1
