# generated using pymatgen
data_Tb3TmAl4(NiRh)2
_symmetry_space_group_name_H-M   'P 1'
_cell_length_a   4.22730100
_cell_length_b   6.75675305
_cell_length_c   7.84403940
_cell_angle_alpha   90.27953157
_cell_angle_beta   90.00000000
_cell_angle_gamma   90.00000000
_symmetry_Int_Tables_number   1
_chemical_formula_structural   Tb3TmAl4(NiRh)2
_chemical_formula_sum   'Tb3 Tm1 Al4 Ni2 Rh2'
_cell_volume   224.04528905
_cell_formula_units_Z   1
loop_
 _symmetry_equiv_pos_site_id
 _symmetry_equiv_pos_as_xyz
  1  'x, y, z'
loop_
 _atom_site_type_symbol
 _atom_site_label
 _atom_site_symmetry_multiplicity
 _atom_site_fract_x
 _atom_site_fract_y
 _atom_site_fract_z
 _atom_site_occupancy
  Tb  Tb0  1  0.250000  0.967378  0.320492  1
  Tb  Tb1  1  0.750000  0.537222  0.825835  1
  Tb  Tb2  1  0.250000  0.466581  0.180366  1
  Tm  Tm3  1  0.750000  0.037569  0.674225  1
  Al  Al4  1  0.750000  0.632650  0.437447  1
  Al  Al5  1  0.750000  0.131666  0.062059  1
  Al  Al6  1  0.250000  0.360183  0.554809  1
  Al  Al7  1  0.250000  0.862029  0.944913  1
  Ni  Ni8  1  0.750000  0.768506  0.128227  1
  Ni  Ni9  1  0.750000  0.267940  0.373082  1
  Rh  Rh10  1  0.250000  0.231745  0.876340  1
  Rh  Rh11  1  0.250000  0.736531  0.622204  1
