# generated using pymatgen
data_Nb3(Al2Au)2
_symmetry_space_group_name_H-M   'P 1'
_cell_length_a   9.06411617
_cell_length_b   9.09443748
_cell_length_c   8.37863400
_cell_angle_alpha   90.00000000
_cell_angle_beta   90.00000000
_cell_angle_gamma   120.77309921
_symmetry_Int_Tables_number   1
_chemical_formula_structural   Nb3(Al2Au)2
_chemical_formula_sum   'Nb12 Al16 Au8'
_cell_volume   593.42918224
_cell_formula_units_Z   4
loop_
 _symmetry_equiv_pos_site_id
 _symmetry_equiv_pos_as_xyz
  1  'x, y, z'
loop_
 _atom_site_type_symbol
 _atom_site_label
 _atom_site_symmetry_multiplicity
 _atom_site_fract_x
 _atom_site_fract_y
 _atom_site_fract_z
 _atom_site_occupancy
  Nb  Nb0  1  0.325957  0.985719  0.064200  1
  Nb  Nb1  1  0.674043  0.014281  0.935800  1
  Nb  Nb2  1  0.996102  0.327905  0.070186  1
  Nb  Nb3  1  0.674043  0.014281  0.564200  1
  Nb  Nb4  1  0.996102  0.327905  0.429814  1
  Nb  Nb5  1  0.003898  0.672095  0.929814  1
  Nb  Nb6  1  0.325957  0.985719  0.435800  1
  Nb  Nb7  1  0.003898  0.672095  0.570186  1
  Nb  Nb8  1  0.666315  0.659519  0.066247  1
  Nb  Nb9  1  0.333685  0.340481  0.933753  1
  Nb  Nb10  1  0.333685  0.340481  0.566247  1
  Nb  Nb11  1  0.666315  0.659519  0.433753  1
  Al  Al12  1  0.337462  0.844675  0.750000  1
  Al  Al13  1  0.665596  0.508651  0.750000  1
  Al  Al14  1  0.662538  0.155325  0.250000  1
  Al  Al15  1  0.334404  0.491349  0.250000  1
  Al  Al16  1  0.839497  0.335332  0.750000  1
  Al  Al17  1  0.160503  0.664668  0.250000  1
  Al  Al18  1  0.335208  0.664021  0.503686  1
  Al  Al19  1  0.664792  0.335979  0.496314  1
  Al  Al20  1  0.664792  0.335979  0.003686  1
  Al  Al21  1  0.335208  0.664021  0.996314  1
  Al  Al22  1  0.178080  0.006986  0.750000  1
  Al  Al23  1  0.821920  0.993014  0.250000  1
  Al  Al24  1  0.000825  0.174401  0.750000  1
  Al  Al25  1  0.999175  0.825599  0.250000  1
  Al  Al26  1  0.831333  0.830367  0.750000  1
  Al  Al27  1  0.168667  0.169633  0.250000  1
  Au  Au28  1  0.000000  0.000000  0.500000  1
  Au  Au29  1  0.000000  0.000000  0.000000  1
  Au  Au30  1  0.156171  0.494359  0.750000  1
  Au  Au31  1  0.843829  0.505641  0.250000  1
  Au  Au32  1  0.516491  0.680621  0.750000  1
  Au  Au33  1  0.500049  0.170043  0.750000  1
  Au  Au34  1  0.483509  0.319379  0.250000  1
  Au  Au35  1  0.499951  0.829957  0.250000  1
