# generated using pymatgen
data_Ho12In2GaFe2
_symmetry_space_group_name_H-M   'P 1'
_cell_length_a   8.38216108
_cell_length_b   8.38216182
_cell_length_c   8.38216144
_cell_angle_alpha   109.86607997
_cell_angle_beta   109.86607656
_cell_angle_gamma   108.68435702
_symmetry_Int_Tables_number   1
_chemical_formula_structural   Ho12In2GaFe2
_chemical_formula_sum   'Ho12 In2 Ga1 Fe2'
_cell_volume   453.29909248
_cell_formula_units_Z   1
loop_
 _symmetry_equiv_pos_site_id
 _symmetry_equiv_pos_as_xyz
  1  'x, y, z'
loop_
 _atom_site_type_symbol
 _atom_site_label
 _atom_site_symmetry_multiplicity
 _atom_site_fract_x
 _atom_site_fract_y
 _atom_site_fract_z
 _atom_site_occupancy
  Ho  Ho0  1  0.446320  0.202687  0.243633  1
  Ho  Ho1  1  0.553680  0.797313  0.756367  1
  Ho  Ho2  1  0.959053  0.202687  0.756367  1
  Ho  Ho3  1  0.202687  0.959053  0.756367  1
  Ho  Ho4  1  0.040947  0.797313  0.243633  1
  Ho  Ho5  1  0.797313  0.040947  0.243633  1
  Ho  Ho6  1  0.202687  0.446320  0.243633  1
  Ho  Ho7  1  0.797313  0.553680  0.756367  1
  Ho  Ho8  1  0.305252  0.305252  0.610504  1
  Ho  Ho9  1  0.694748  0.694748  0.389496  1
  Ho  Ho10  1  0.305252  0.694748  0.000000  1
  Ho  Ho11  1  0.694748  0.305252  0.000000  1
  In  In12  1  0.500000  0.000000  0.500000  1
  In  In13  1  0.000000  0.500000  0.500000  1
  Ga  Ga14  1  0.000000  0.000000  0.000000  1
  Fe  Fe15  1  0.388049  0.388049  0.000000  1
  Fe  Fe16  1  0.611951  0.611951  0.000000  1
