# generated using pymatgen
data_ErHf5(InRh2)6
_symmetry_space_group_name_H-M   'P 1'
_cell_length_a   4.69820672
_cell_length_b   6.27771400
_cell_length_c   14.12537400
_cell_angle_alpha   90.00000000
_cell_angle_beta   96.17082099
_cell_angle_gamma   90.00000000
_symmetry_Int_Tables_number   1
_chemical_formula_structural   ErHf5(InRh2)6
_chemical_formula_sum   'Er1 Hf5 In6 Rh12'
_cell_volume   414.19982571
_cell_formula_units_Z   1
loop_
 _symmetry_equiv_pos_site_id
 _symmetry_equiv_pos_as_xyz
  1  'x, y, z'
loop_
 _atom_site_type_symbol
 _atom_site_label
 _atom_site_symmetry_multiplicity
 _atom_site_fract_x
 _atom_site_fract_y
 _atom_site_fract_z
 _atom_site_occupancy
  Er  Er0  1  0.000000  0.000000  0.000000  1
  Hf  Hf1  1  0.500293  0.500001  0.167449  1
  Hf  Hf2  1  0.001844  0.000000  0.333220  1
  Hf  Hf3  1  0.499999  0.500001  0.500001  1
  Hf  Hf4  1  0.998156  0.000000  0.666780  1
  Hf  Hf5  1  0.499707  0.500001  0.832551  1
  In  In6  1  0.000000  0.500001  0.000000  1
  In  In7  1  0.503082  0.000000  0.166176  1
  In  In8  1  0.000417  0.500001  0.335922  1
  In  In9  1  0.499999  0.000000  0.500001  1
  In  In10  1  0.999585  0.500001  0.664078  1
  In  In11  1  0.496920  0.000000  0.833824  1
  Rh  Rh12  1  0.500001  0.260042  0.000000  1
  Rh  Rh13  1  0.500001  0.739958  0.000000  1
  Rh  Rh14  1  0.002389  0.256373  0.172841  1
  Rh  Rh15  1  0.002389  0.743628  0.172841  1
  Rh  Rh16  1  0.501929  0.247321  0.333999  1
  Rh  Rh17  1  0.501929  0.752680  0.333999  1
  Rh  Rh18  1  0.000000  0.250123  0.500001  1
  Rh  Rh19  1  0.000000  0.749876  0.500001  1
  Rh  Rh20  1  0.498071  0.247321  0.666000  1
  Rh  Rh21  1  0.498071  0.752680  0.666000  1
  Rh  Rh22  1  0.997611  0.256373  0.827159  1
  Rh  Rh23  1  0.997611  0.743628  0.827159  1
