# generated using pymatgen
data_YLu2Al3GeAu2
_symmetry_space_group_name_H-M   'P 1'
_cell_length_a   6.99879944
_cell_length_b   7.02609850
_cell_length_c   4.28980600
_cell_angle_alpha   90.00000000
_cell_angle_beta   90.00000000
_cell_angle_gamma   120.41289562
_symmetry_Int_Tables_number   1
_chemical_formula_structural   YLu2Al3GeAu2
_chemical_formula_sum   'Y1 Lu2 Al3 Ge1 Au2'
_cell_volume   181.92151272
_cell_formula_units_Z   1
loop_
 _symmetry_equiv_pos_site_id
 _symmetry_equiv_pos_as_xyz
  1  'x, y, z'
loop_
 _atom_site_type_symbol
 _atom_site_label
 _atom_site_symmetry_multiplicity
 _atom_site_fract_x
 _atom_site_fract_y
 _atom_site_fract_z
 _atom_site_occupancy
  Y  Y0  1  0.425221  0.422558  0.500000  1
  Lu  Lu1  1  0.577368  0.999121  0.500000  1
  Lu  Lu2  1  0.002420  0.579559  0.500000  1
  Al  Al3  1  0.751108  0.764408  0.000000  1
  Al  Al4  1  0.236716  0.988524  0.000000  1
  Al  Al5  1  0.010642  0.248447  0.000000  1
  Ge  Ge6  1  0.668742  0.331707  0.000000  1
  Au  Au7  1  0.331727  0.669620  0.000000  1
  Au  Au8  1  0.996055  0.996058  0.500000  1
