# generated using pymatgen
data_SmHo2Co7(P3Ru)2
_symmetry_space_group_name_H-M   'P 1'
_cell_length_a   3.75112200
_cell_length_b   10.59576300
_cell_length_c   12.35806500
_cell_angle_alpha   90.00000000
_cell_angle_beta   90.00000000
_cell_angle_gamma   90.00000000
_symmetry_Int_Tables_number   1
_chemical_formula_structural   SmHo2Co7(P3Ru)2
_chemical_formula_sum   'Sm2 Ho4 Co14 P12 Ru4'
_cell_volume   491.18364773
_cell_formula_units_Z   2
loop_
 _symmetry_equiv_pos_site_id
 _symmetry_equiv_pos_as_xyz
  1  'x, y, z'
loop_
 _atom_site_type_symbol
 _atom_site_label
 _atom_site_symmetry_multiplicity
 _atom_site_fract_x
 _atom_site_fract_y
 _atom_site_fract_z
 _atom_site_occupancy
  Sm  Sm0  1  0.000000  0.500000  0.528774  1
  Sm  Sm1  1  0.500000  0.000000  0.478300  1
  Ho  Ho2  1  0.500000  0.817964  0.202080  1
  Ho  Ho3  1  0.500000  0.182036  0.202080  1
  Ho  Ho4  1  0.000000  0.683618  0.796394  1
  Ho  Ho5  1  0.000000  0.316382  0.796394  1
  Co  Co6  1  0.000000  0.500000  0.985836  1
  Co  Co7  1  0.500000  0.000000  0.013312  1
  Co  Co8  1  0.000000  0.200955  0.574989  1
  Co  Co9  1  0.000000  0.799045  0.574989  1
  Co  Co10  1  0.500000  0.880075  0.712264  1
  Co  Co11  1  0.500000  0.119925  0.712264  1
  Co  Co12  1  0.000000  0.621021  0.285539  1
  Co  Co13  1  0.000000  0.378979  0.285539  1
  Co  Co14  1  0.500000  0.332232  0.990109  1
  Co  Co15  1  0.500000  0.667768  0.990109  1
  Co  Co16  1  0.000000  0.167304  0.008685  1
  Co  Co17  1  0.000000  0.832696  0.008685  1
  Co  Co18  1  0.500000  0.500000  0.707437  1
  Co  Co19  1  0.000000  0.000000  0.292421  1
  P  P20  1  0.500000  0.307455  0.621909  1
  P  P21  1  0.500000  0.692545  0.621909  1
  P  P22  1  0.000000  0.185393  0.380028  1
  P  P23  1  0.000000  0.814607  0.380028  1
  P  P24  1  0.500000  0.500000  0.883084  1
  P  P25  1  0.000000  0.000000  0.116083  1
  P  P26  1  0.500000  0.846427  0.894392  1
  P  P27  1  0.500000  0.153573  0.894392  1
  P  P28  1  0.000000  0.653849  0.104337  1
  P  P29  1  0.000000  0.346151  0.104337  1
  P  P30  1  0.500000  0.500000  0.343107  1
  P  P31  1  0.000000  0.000000  0.653794  1
  Ru  Ru32  1  0.500000  0.295672  0.429446  1
  Ru  Ru33  1  0.500000  0.704328  0.429446  1
  Ru  Ru34  1  0.500000  0.500000  0.155463  1
  Ru  Ru35  1  0.000000  0.000000  0.842043  1
