# generated using pymatgen
data_ErNb6InCl18
_symmetry_space_group_name_H-M   'P 1'
_cell_length_a   10.18751504
_cell_length_b   10.18751541
_cell_length_c   10.18751602
_cell_angle_alpha   55.33867714
_cell_angle_beta   55.33866852
_cell_angle_gamma   55.33867559
_symmetry_Int_Tables_number   1
_chemical_formula_structural   ErNb6InCl18
_chemical_formula_sum   'Er1 Nb6 In1 Cl18'
_cell_volume   666.66483305
_cell_formula_units_Z   1
loop_
 _symmetry_equiv_pos_site_id
 _symmetry_equiv_pos_as_xyz
  1  'x, y, z'
loop_
 _atom_site_type_symbol
 _atom_site_label
 _atom_site_symmetry_multiplicity
 _atom_site_fract_x
 _atom_site_fract_y
 _atom_site_fract_z
 _atom_site_occupancy
  Er  Er0  1  0.498463  0.498463  0.498463  1
  Nb  Nb1  1  0.799730  0.149876  0.911755  1
  Nb  Nb2  1  0.911755  0.799730  0.149876  1
  Nb  Nb3  1  0.149876  0.911755  0.799730  1
  Nb  Nb4  1  0.201416  0.850467  0.087224  1
  Nb  Nb5  1  0.087224  0.201416  0.850467  1
  Nb  Nb6  1  0.850467  0.087224  0.201416  1
  In  In7  1  0.221453  0.221453  0.221453  1
  Cl  Cl8  1  0.863112  0.414709  0.725187  1
  Cl  Cl9  1  0.725187  0.863112  0.414709  1
  Cl  Cl10  1  0.414709  0.725187  0.863112  1
  Cl  Cl11  1  0.136531  0.584882  0.276128  1
  Cl  Cl12  1  0.276128  0.136531  0.584882  1
  Cl  Cl13  1  0.584882  0.276128  0.136531  1
  Cl  Cl14  1  0.530950  0.343611  0.802457  1
  Cl  Cl15  1  0.802457  0.530950  0.343611  1
  Cl  Cl16  1  0.343611  0.802457  0.530950  1
  Cl  Cl17  1  0.464868  0.657543  0.200750  1
  Cl  Cl18  1  0.200750  0.464868  0.657543  1
  Cl  Cl19  1  0.657543  0.200750  0.464868  1
  Cl  Cl20  1  0.660054  0.939266  0.072241  1
  Cl  Cl21  1  0.072241  0.660054  0.939266  1
  Cl  Cl22  1  0.939266  0.072241  0.660054  1
  Cl  Cl23  1  0.340568  0.061135  0.926764  1
  Cl  Cl24  1  0.926764  0.340568  0.061135  1
  Cl  Cl25  1  0.061135  0.926764  0.340568  1
