# generated using pymatgen
data_Yb3Zr5(Si4W3)4
_symmetry_space_group_name_H-M   'P 1'
_cell_length_a   6.65973128
_cell_length_b   6.81079779
_cell_length_c   12.80310985
_cell_angle_alpha   90.25419011
_cell_angle_beta   90.00162124
_cell_angle_gamma   90.12016625
_symmetry_Int_Tables_number   1
_chemical_formula_structural   Yb3Zr5(Si4W3)4
_chemical_formula_sum   'Yb3 Zr5 Si16 W12'
_cell_volume   580.71752774
_cell_formula_units_Z   1
loop_
 _symmetry_equiv_pos_site_id
 _symmetry_equiv_pos_as_xyz
  1  'x, y, z'
loop_
 _atom_site_type_symbol
 _atom_site_label
 _atom_site_symmetry_multiplicity
 _atom_site_fract_x
 _atom_site_fract_y
 _atom_site_fract_z
 _atom_site_occupancy
  Yb  Yb0  1  0.995167  0.163540  0.089155  1
  Yb  Yb1  1  0.002931  0.835204  0.911126  1
  Yb  Yb2  1  0.503097  0.666624  0.909114  1
  Zr  Zr3  1  0.002925  0.831918  0.592636  1
  Zr  Zr4  1  0.494541  0.329340  0.097356  1
  Zr  Zr5  1  0.995243  0.168494  0.407591  1
  Zr  Zr6  1  0.494787  0.331092  0.407414  1
  Zr  Zr7  1  0.503611  0.670028  0.592577  1
  Si  Si8  1  0.035830  0.123973  0.748686  1
  Si  Si9  1  0.966696  0.875694  0.250449  1
  Si  Si10  1  0.464777  0.623961  0.250976  1
  Si  Si11  1  0.535311  0.379714  0.747110  1
  Si  Si12  1  0.300550  0.862056  0.750741  1
  Si  Si13  1  0.700353  0.138527  0.250106  1
  Si  Si14  1  0.197654  0.358842  0.250905  1
  Si  Si15  1  0.801111  0.640268  0.750692  1
  Si  Si16  1  0.168509  0.457760  0.541845  1
  Si  Si17  1  0.832037  0.542908  0.457545  1
  Si  Si18  1  0.332993  0.956734  0.457496  1
  Si  Si19  1  0.834812  0.536749  0.047482  1
  Si  Si20  1  0.666834  0.042909  0.540541  1
  Si  Si21  1  0.162837  0.460079  0.953983  1
  Si  Si22  1  0.658968  0.043508  0.955229  1
  Si  Si23  1  0.341460  0.960536  0.047009  1
  W  W24  1  0.165379  0.501765  0.745024  1
  W  W25  1  0.833410  0.496348  0.253573  1
  W  W26  1  0.335978  0.005852  0.253286  1
  W  W27  1  0.664639  0.001295  0.744220  1
  W  W28  1  0.333025  0.161592  0.622604  1
  W  W29  1  0.667866  0.839116  0.375788  1
  W  W30  1  0.167124  0.659867  0.377301  1
  W  W31  1  0.666998  0.834632  0.127110  1
  W  W32  1  0.834578  0.336944  0.621215  1
  W  W33  1  0.336372  0.169652  0.873081  1
  W  W34  1  0.833193  0.332439  0.870823  1
  W  W35  1  0.168406  0.660036  0.128215  1
