# generated using pymatgen
data_La7Ho(SiI6)2
_symmetry_space_group_name_H-M   'P 1'
_cell_length_a   4.42015500
_cell_length_b   14.69581292
_cell_length_c   15.42783103
_cell_angle_alpha   90.60137289
_cell_angle_beta   90.00000000
_cell_angle_gamma   90.00000000
_symmetry_Int_Tables_number   1
_chemical_formula_structural   La7Ho(SiI6)2
_chemical_formula_sum   'La7 Ho1 Si2 I12'
_cell_volume   1002.10231392
_cell_formula_units_Z   1
loop_
 _symmetry_equiv_pos_site_id
 _symmetry_equiv_pos_as_xyz
  1  'x, y, z'
loop_
 _atom_site_type_symbol
 _atom_site_label
 _atom_site_symmetry_multiplicity
 _atom_site_fract_x
 _atom_site_fract_y
 _atom_site_fract_z
 _atom_site_occupancy
  La  La0  1  0.500000  0.115980  0.345451  1
  La  La1  1  0.500000  0.885239  0.655530  1
  La  La2  1  0.500000  0.614354  0.153658  1
  La  La3  1  0.000000  0.117675  0.579206  1
  La  La4  1  0.000000  0.886179  0.424004  1
  La  La5  1  0.000000  0.612535  0.922116  1
  La  La6  1  0.000000  0.384384  0.073679  1
  Ho  Ho7  1  0.500000  0.387860  0.849090  1
  Si  Si8  1  0.500000  0.001874  0.501297  1
  Si  Si9  1  0.500000  0.497901  0.997109  1
  I  I10  1  0.500000  0.242647  0.159900  1
  I  I11  1  0.500000  0.755392  0.837626  1
  I  I12  1  0.500000  0.742842  0.337951  1
  I  I13  1  0.500000  0.259414  0.669047  1
  I  I14  1  0.000000  0.260459  0.415837  1
  I  I15  1  0.000000  0.740475  0.585271  1
  I  I16  1  0.000000  0.758249  0.085355  1
  I  I17  1  0.000000  0.250550  0.903061  1
  I  I18  1  0.000000  0.997007  0.239851  1
  I  I19  1  0.000000  0.003296  0.761577  1
  I  I20  1  0.000000  0.497166  0.258612  1
  I  I21  1  0.000000  0.488525  0.744775  1
