# generated using pymatgen
data_LiTmCo4P3
_symmetry_space_group_name_H-M   'P 1'
_cell_length_a   3.67531000
_cell_length_b   10.21809500
_cell_length_c   11.87560600
_cell_angle_alpha   90.00000000
_cell_angle_beta   90.00000000
_cell_angle_gamma   90.00000000
_symmetry_Int_Tables_number   1
_chemical_formula_structural   LiTmCo4P3
_chemical_formula_sum   'Li4 Tm4 Co16 P12'
_cell_volume   445.98442560
_cell_formula_units_Z   4
loop_
 _symmetry_equiv_pos_site_id
 _symmetry_equiv_pos_as_xyz
  1  'x, y, z'
loop_
 _atom_site_type_symbol
 _atom_site_label
 _atom_site_symmetry_multiplicity
 _atom_site_fract_x
 _atom_site_fract_y
 _atom_site_fract_z
 _atom_site_occupancy
  Li  Li0  1  0.250000  0.796929  0.492564  1
  Li  Li1  1  0.750000  0.203071  0.507436  1
  Li  Li2  1  0.750000  0.296929  0.007436  1
  Li  Li3  1  0.250000  0.703071  0.992564  1
  Tm  Tm4  1  0.250000  0.921488  0.202219  1
  Tm  Tm5  1  0.750000  0.078512  0.797781  1
  Tm  Tm6  1  0.750000  0.421488  0.297781  1
  Tm  Tm7  1  0.250000  0.578512  0.702219  1
  Co  Co8  1  0.250000  0.094187  0.984370  1
  Co  Co9  1  0.750000  0.905813  0.015630  1
  Co  Co10  1  0.750000  0.594187  0.515630  1
  Co  Co11  1  0.250000  0.405813  0.484370  1
  Co  Co12  1  0.250000  0.278308  0.673191  1
  Co  Co13  1  0.750000  0.721692  0.326809  1
  Co  Co14  1  0.750000  0.778308  0.826809  1
  Co  Co15  1  0.250000  0.221692  0.173191  1
  Co  Co16  1  0.250000  0.621040  0.200305  1
  Co  Co17  1  0.750000  0.378960  0.799695  1
  Co  Co18  1  0.750000  0.121040  0.299695  1
  Co  Co19  1  0.250000  0.878960  0.700305  1
  Co  Co20  1  0.250000  0.034518  0.432222  1
  Co  Co21  1  0.750000  0.965482  0.567778  1
  Co  Co22  1  0.750000  0.534518  0.067778  1
  Co  Co23  1  0.250000  0.465482  0.932222  1
  P  P24  1  0.250000  0.075390  0.615663  1
  P  P25  1  0.750000  0.924610  0.384337  1
  P  P26  1  0.750000  0.575390  0.884337  1
  P  P27  1  0.250000  0.424610  0.115663  1
  P  P28  1  0.250000  0.231655  0.359946  1
  P  P29  1  0.750000  0.768345  0.640054  1
  P  P30  1  0.750000  0.731655  0.140054  1
  P  P31  1  0.250000  0.268345  0.859946  1
  P  P32  1  0.250000  0.899084  0.892510  1
  P  P33  1  0.750000  0.100916  0.107490  1
  P  P34  1  0.750000  0.399084  0.607490  1
  P  P35  1  0.250000  0.600916  0.392510  1
