# generated using pymatgen
data_Ho4MgCo2Pb
_symmetry_space_group_name_H-M   'P 1'
_cell_length_a   8.97851689
_cell_length_b   8.97844654
_cell_length_c   8.97798559
_cell_angle_alpha   132.35748070
_cell_angle_beta   132.35786328
_cell_angle_gamma   69.66956058
_symmetry_Int_Tables_number   1
_chemical_formula_structural   Ho4MgCo2Pb
_chemical_formula_sum   'Ho8 Mg2 Co4 Pb2'
_cell_volume   387.61010187
_cell_formula_units_Z   2
loop_
 _symmetry_equiv_pos_site_id
 _symmetry_equiv_pos_as_xyz
  1  'x, y, z'
loop_
 _atom_site_type_symbol
 _atom_site_label
 _atom_site_symmetry_multiplicity
 _atom_site_fract_x
 _atom_site_fract_y
 _atom_site_fract_z
 _atom_site_occupancy
  Ho  Ho0  1  0.697081  0.559250  0.500002  1
  Ho  Ho1  1  0.440672  0.940672  0.137635  1
  Ho  Ho2  1  0.803037  0.303035  0.862363  1
  Ho  Ho3  1  0.559328  0.059328  0.862365  1
  Ho  Ho4  1  0.059245  0.197082  0.499997  1
  Ho  Ho5  1  0.302919  0.440750  0.499998  1
  Ho  Ho6  1  0.196963  0.696965  0.137637  1
  Ho  Ho7  1  0.940755  0.802918  0.500003  1
  Mg  Mg8  1  0.000000  0.000000  0.000000  1
  Mg  Mg9  1  0.500000  0.500000  0.000000  1
  Co  Co10  1  0.112352  0.612350  0.724704  1
  Co  Co11  1  0.887648  0.387650  0.275296  1
  Co  Co12  1  0.612360  0.887636  0.499997  1
  Co  Co13  1  0.387640  0.112364  0.500003  1
  Pb  Pb14  1  0.250016  0.249986  0.000019  1
  Pb  Pb15  1  0.749984  0.750014  0.999981  1
