# generated using pymatgen
data_K7Sb(SeO4)6
_symmetry_space_group_name_H-M   'P 1'
_cell_length_a   9.72895691
_cell_length_b   9.72895606
_cell_length_c   9.72895662
_cell_angle_alpha   109.33145768
_cell_angle_beta   109.33146018
_cell_angle_gamma   109.33146189
_symmetry_Int_Tables_number   1
_chemical_formula_structural   K7Sb(SeO4)6
_chemical_formula_sum   'K7 Sb1 Se6 O24'
_cell_volume   712.53134417
_cell_formula_units_Z   1
loop_
 _symmetry_equiv_pos_site_id
 _symmetry_equiv_pos_as_xyz
  1  'x, y, z'
loop_
 _atom_site_type_symbol
 _atom_site_label
 _atom_site_symmetry_multiplicity
 _atom_site_fract_x
 _atom_site_fract_y
 _atom_site_fract_z
 _atom_site_occupancy
  K  K0  1  0.500000  0.500000  0.500000  1
  K  K1  1  0.836122  0.335656  0.676617  1
  K  K2  1  0.335656  0.676617  0.836122  1
  K  K3  1  0.676617  0.836122  0.335656  1
  K  K4  1  0.163878  0.664344  0.323383  1
  K  K5  1  0.664344  0.323383  0.163878  1
  K  K6  1  0.323383  0.163878  0.664344  1
  Sb  Sb7  1  0.000000  0.000000  0.000000  1
  Se  Se8  1  0.970019  0.748667  0.621862  1
  Se  Se9  1  0.748667  0.621862  0.970019  1
  Se  Se10  1  0.621862  0.970019  0.748667  1
  Se  Se11  1  0.029981  0.251333  0.378138  1
  Se  Se12  1  0.251333  0.378138  0.029981  1
  Se  Se13  1  0.378138  0.029981  0.251333  1
  O  O14  1  0.431503  0.897113  0.159697  1
  O  O15  1  0.897113  0.159697  0.431503  1
  O  O16  1  0.159697  0.431503  0.897113  1
  O  O17  1  0.568497  0.102887  0.840303  1
  O  O18  1  0.102887  0.840303  0.568497  1
  O  O19  1  0.840303  0.568497  0.102887  1
  O  O20  1  0.295198  0.977377  0.361501  1
  O  O21  1  0.977377  0.361501  0.295198  1
  O  O22  1  0.361501  0.295198  0.977377  1
  O  O23  1  0.704802  0.022623  0.638499  1
  O  O24  1  0.022623  0.638499  0.704802  1
  O  O25  1  0.638499  0.704802  0.022623  1
  O  O26  1  0.768025  0.972127  0.918908  1
  O  O27  1  0.972127  0.918908  0.768025  1
  O  O28  1  0.638791  0.465195  0.773480  1
  O  O29  1  0.773480  0.638791  0.465195  1
  O  O30  1  0.465195  0.773480  0.638791  1
  O  O31  1  0.361209  0.534805  0.226520  1
  O  O32  1  0.226520  0.361209  0.534805  1
  O  O33  1  0.534805  0.226520  0.361209  1
  O  O34  1  0.081092  0.231975  0.027873  1
  O  O35  1  0.027873  0.081092  0.231975  1
  O  O36  1  0.231975  0.027873  0.081092  1
  O  O37  1  0.918908  0.768025  0.972127  1
