# generated using pymatgen
data_LuZrFe4
_symmetry_space_group_name_H-M   'P 1'
_cell_length_a   5.02499584
_cell_length_b   5.02499531
_cell_length_c   5.02499500
_cell_angle_alpha   59.99999549
_cell_angle_beta   59.99999892
_cell_angle_gamma   59.99998825
_symmetry_Int_Tables_number   1
_chemical_formula_structural   LuZrFe4
_chemical_formula_sum   'Lu1 Zr1 Fe4'
_cell_volume   89.72055398
_cell_formula_units_Z   1
loop_
 _symmetry_equiv_pos_site_id
 _symmetry_equiv_pos_as_xyz
  1  'x, y, z'
loop_
 _atom_site_type_symbol
 _atom_site_label
 _atom_site_symmetry_multiplicity
 _atom_site_fract_x
 _atom_site_fract_y
 _atom_site_fract_z
 _atom_site_occupancy
  Lu  Lu0  1  0.250000  0.250000  0.250000  1
  Zr  Zr1  1  0.000000  0.000000  0.000000  1
  Fe  Fe2  1  0.624782  0.624782  0.125655  1
  Fe  Fe3  1  0.624782  0.125655  0.624782  1
  Fe  Fe4  1  0.125655  0.624782  0.624782  1
  Fe  Fe5  1  0.624782  0.624782  0.624782  1
