# generated using pymatgen
data_CdIn(SbAu2)2
_symmetry_space_group_name_H-M   'P 1'
_cell_length_a   4.35736300
_cell_length_b   4.35736271
_cell_length_c   11.41970700
_cell_angle_alpha   90.00000000
_cell_angle_beta   90.00000000
_cell_angle_gamma   119.99999464
_symmetry_Int_Tables_number   1
_chemical_formula_structural   CdIn(SbAu2)2
_chemical_formula_sum   'Cd1 In1 Sb2 Au4'
_cell_volume   187.77296743
_cell_formula_units_Z   1
loop_
 _symmetry_equiv_pos_site_id
 _symmetry_equiv_pos_as_xyz
  1  'x, y, z'
loop_
 _atom_site_type_symbol
 _atom_site_label
 _atom_site_symmetry_multiplicity
 _atom_site_fract_x
 _atom_site_fract_y
 _atom_site_fract_z
 _atom_site_occupancy
  Cd  Cd0  1  0.666667  0.333333  0.500000  1
  In  In1  1  0.666667  0.333333  0.000000  1
  Sb  Sb2  1  0.333333  0.666667  0.251689  1
  Sb  Sb3  1  0.333333  0.666667  0.748311  1
  Au  Au4  1  0.000000  0.000000  0.124362  1
  Au  Au5  1  0.000000  0.000000  0.623189  1
  Au  Au6  1  0.000000  0.000000  0.376811  1
  Au  Au7  1  0.000000  0.000000  0.875638  1
