# generated using pymatgen
data_TmLu2Ta3(B2Ru5)2
_symmetry_space_group_name_H-M   'P 1'
_cell_length_a   9.55029382
_cell_length_b   9.55016210
_cell_length_c   3.10799600
_cell_angle_alpha   90.00000000
_cell_angle_beta   90.00000000
_cell_angle_gamma   90.28078109
_symmetry_Int_Tables_number   1
_chemical_formula_structural   TmLu2Ta3(B2Ru5)2
_chemical_formula_sum   'Tm1 Lu2 Ta3 B4 Ru10'
_cell_volume   283.46713395
_cell_formula_units_Z   1
loop_
 _symmetry_equiv_pos_site_id
 _symmetry_equiv_pos_as_xyz
  1  'x, y, z'
loop_
 _atom_site_type_symbol
 _atom_site_label
 _atom_site_symmetry_multiplicity
 _atom_site_fract_x
 _atom_site_fract_y
 _atom_site_fract_z
 _atom_site_occupancy
  Tm  Tm0  1  0.824365  0.674876  0.000000  1
  Lu  Lu1  1  0.175204  0.324147  0.000000  1
  Lu  Lu2  1  0.325619  0.825680  0.000000  1
  Ta  Ta3  1  0.675426  0.175381  0.000000  1
  Ta  Ta4  1  0.497800  0.503255  0.000000  1
  Ta  Ta5  1  0.003456  0.998329  0.000000  1
  B  B6  1  0.623053  0.880670  0.000000  1
  B  B7  1  0.380288  0.123384  0.000000  1
  B  B8  1  0.119380  0.619068  0.000000  1
  B  B9  1  0.876824  0.376562  0.000000  1
  Ru  Ru10  1  0.570981  0.721786  0.500000  1
  Ru  Ru11  1  0.439220  0.280790  0.500000  1
  Ru  Ru12  1  0.070438  0.780614  0.500000  1
  Ru  Ru13  1  0.916922  0.213494  0.500000  1
  Ru  Ru14  1  0.280559  0.569793  0.500000  1
  Ru  Ru15  1  0.713447  0.416530  0.500000  1
  Ru  Ru16  1  0.221475  0.071803  0.500000  1
  Ru  Ru17  1  0.780623  0.939837  0.500000  1
  Ru  Ru18  1  0.508083  0.008366  0.500000  1
  Ru  Ru19  1  0.996838  0.495633  0.500000  1
