# generated using pymatgen
data_Ho4ReMoRu6
_symmetry_space_group_name_H-M   'P 1'
_cell_length_a   5.55972304
_cell_length_b   5.16230616
_cell_length_c   9.03015800
_cell_angle_alpha   90.00000000
_cell_angle_beta   90.00000000
_cell_angle_gamma   122.76256397
_symmetry_Int_Tables_number   1
_chemical_formula_structural   Ho4ReMoRu6
_chemical_formula_sum   'Ho4 Re1 Mo1 Ru6'
_cell_volume   217.94511310
_cell_formula_units_Z   1
loop_
 _symmetry_equiv_pos_site_id
 _symmetry_equiv_pos_as_xyz
  1  'x, y, z'
loop_
 _atom_site_type_symbol
 _atom_site_label
 _atom_site_symmetry_multiplicity
 _atom_site_fract_x
 _atom_site_fract_y
 _atom_site_fract_z
 _atom_site_occupancy
  Ho  Ho0  1  0.670401  0.341772  0.564267  1
  Ho  Ho1  1  0.332005  0.663618  0.432459  1
  Ho  Ho2  1  0.332005  0.663618  0.067541  1
  Ho  Ho3  1  0.670401  0.341772  0.935733  1
  Re  Re4  1  0.832124  0.665736  0.250000  1
  Mo  Mo5  1  0.162942  0.327851  0.750000  1
  Ru  Ru6  1  0.000530  0.999559  0.499002  1
  Ru  Ru7  1  0.000530  0.999559  0.000998  1
  Ru  Ru8  1  0.169142  0.820323  0.750000  1
  Ru  Ru9  1  0.652833  0.820310  0.750000  1
  Ru  Ru10  1  0.833960  0.178312  0.250000  1
  Ru  Ru11  1  0.343126  0.177571  0.250000  1
