# generated using pymatgen
data_Tc6Se7I4
_symmetry_space_group_name_H-M   'P 1'
_cell_length_a   12.38875393
_cell_length_b   12.38875308
_cell_length_c   12.38875311
_cell_angle_alpha   51.34437419
_cell_angle_beta   51.34437761
_cell_angle_gamma   51.34436638
_symmetry_Int_Tables_number   1
_chemical_formula_structural   Tc6Se7I4
_chemical_formula_sum   'Tc12 Se14 I8'
_cell_volume   1070.42055201
_cell_formula_units_Z   2
loop_
 _symmetry_equiv_pos_site_id
 _symmetry_equiv_pos_as_xyz
  1  'x, y, z'
loop_
 _atom_site_type_symbol
 _atom_site_label
 _atom_site_symmetry_multiplicity
 _atom_site_fract_x
 _atom_site_fract_y
 _atom_site_fract_z
 _atom_site_occupancy
  Tc  Tc0  1  0.521224  0.398914  0.681710  1
  Tc  Tc1  1  0.398914  0.681710  0.521224  1
  Tc  Tc2  1  0.681710  0.521224  0.398914  1
  Tc  Tc3  1  0.181710  0.898914  0.021224  1
  Tc  Tc4  1  0.898914  0.021224  0.181710  1
  Tc  Tc5  1  0.021224  0.181710  0.898914  1
  Tc  Tc6  1  0.479895  0.603452  0.317569  1
  Tc  Tc7  1  0.603452  0.317569  0.479895  1
  Tc  Tc8  1  0.317569  0.479895  0.603452  1
  Tc  Tc9  1  0.817569  0.103452  0.979895  1
  Tc  Tc10  1  0.103452  0.979895  0.817569  1
  Tc  Tc11  1  0.979895  0.817569  0.103452  1
  Se  Se12  1  0.788730  0.249456  0.556769  1
  Se  Se13  1  0.249456  0.556769  0.788730  1
  Se  Se14  1  0.556769  0.788730  0.249456  1
  Se  Se15  1  0.056769  0.749456  0.288730  1
  Se  Se16  1  0.749456  0.288730  0.056769  1
  Se  Se17  1  0.288730  0.056769  0.749456  1
  Se  Se18  1  0.211202  0.752680  0.443313  1
  Se  Se19  1  0.752680  0.443313  0.211202  1
  Se  Se20  1  0.443313  0.211202  0.752680  1
  Se  Se21  1  0.943313  0.252680  0.711202  1
  Se  Se22  1  0.252680  0.711202  0.943313  1
  Se  Se23  1  0.711202  0.943313  0.252680  1
  Se  Se24  1  0.596309  0.596309  0.596309  1
  Se  Se25  1  0.096309  0.096309  0.096309  1
  I  I26  1  0.966096  0.533592  0.253857  1
  I  I27  1  0.533592  0.253857  0.966096  1
  I  I28  1  0.253857  0.966096  0.533592  1
  I  I29  1  0.753857  0.033592  0.466096  1
  I  I30  1  0.033592  0.466096  0.753857  1
  I  I31  1  0.466096  0.753857  0.033592  1
  I  I32  1  0.395194  0.395194  0.395194  1
  I  I33  1  0.895194  0.895194  0.895194  1
