# generated using pymatgen
data_Tm4GaIr6Ru
_symmetry_space_group_name_H-M   'P 1'
_cell_length_a   5.43136400
_cell_length_b   5.43144993
_cell_length_c   8.33317301
_cell_angle_alpha   90.00434775
_cell_angle_beta   89.99585810
_cell_angle_gamma   119.99766056
_symmetry_Int_Tables_number   1
_chemical_formula_structural   Tm4GaIr6Ru
_chemical_formula_sum   'Tm4 Ga1 Ir6 Ru1'
_cell_volume   212.90014456
_cell_formula_units_Z   1
loop_
 _symmetry_equiv_pos_site_id
 _symmetry_equiv_pos_as_xyz
  1  'x, y, z'
loop_
 _atom_site_type_symbol
 _atom_site_label
 _atom_site_symmetry_multiplicity
 _atom_site_fract_x
 _atom_site_fract_y
 _atom_site_fract_z
 _atom_site_occupancy
  Tm  Tm0  1  0.666666  0.333338  0.568953  1
  Tm  Tm1  1  0.333334  0.666662  0.431047  1
  Tm  Tm2  1  0.333340  0.666667  0.060643  1
  Tm  Tm3  1  0.666660  0.333333  0.939357  1
  Ga  Ga4  1  0.000000  0.000000  0.500000  1
  Ir  Ir5  1  0.170615  0.341260  0.748151  1
  Ir  Ir6  1  0.170619  0.829381  0.748138  1
  Ir  Ir7  1  0.658740  0.829385  0.748150  1
  Ir  Ir8  1  0.829385  0.658740  0.251849  1
  Ir  Ir9  1  0.829381  0.170619  0.251862  1
  Ir  Ir10  1  0.341260  0.170615  0.251850  1
  Ru  Ru11  1  0.000000  0.000000  0.000000  1
