# generated using pymatgen
data_Er10TlCd2Ni
_symmetry_space_group_name_H-M   'P 1'
_cell_length_a   9.60174400
_cell_length_b   9.64908180
_cell_length_c   9.54297400
_cell_angle_alpha   90.00000000
_cell_angle_beta   90.00000000
_cell_angle_gamma   120.16321144
_symmetry_Int_Tables_number   1
_chemical_formula_structural   Er10TlCd2Ni
_chemical_formula_sum   'Er20 Tl2 Cd4 Ni2'
_cell_volume   764.42323443
_cell_formula_units_Z   2
loop_
 _symmetry_equiv_pos_site_id
 _symmetry_equiv_pos_as_xyz
  1  'x, y, z'
loop_
 _atom_site_type_symbol
 _atom_site_label
 _atom_site_symmetry_multiplicity
 _atom_site_fract_x
 _atom_site_fract_y
 _atom_site_fract_z
 _atom_site_occupancy
  Er  Er0  1  0.003174  0.001587  0.503896  1
  Er  Er1  1  0.003174  0.001587  0.996104  1
  Er  Er2  1  0.540135  0.453361  0.250000  1
  Er  Er3  1  0.540135  0.086775  0.250000  1
  Er  Er4  1  0.913148  0.456574  0.250000  1
  Er  Er5  1  0.456062  0.544478  0.750000  1
  Er  Er6  1  0.456062  0.911581  0.750000  1
  Er  Er7  1  0.087551  0.543775  0.750000  1
  Er  Er8  1  0.212277  0.788578  0.439193  1
  Er  Er9  1  0.212277  0.423699  0.439193  1
  Er  Er10  1  0.576985  0.788492  0.437783  1
  Er  Er11  1  0.787935  0.211368  0.562679  1
  Er  Er12  1  0.787935  0.576568  0.562679  1
  Er  Er13  1  0.422693  0.211347  0.564347  1
  Er  Er14  1  0.787935  0.211368  0.937321  1
  Er  Er15  1  0.787935  0.576568  0.937321  1
  Er  Er16  1  0.422693  0.211347  0.935653  1
  Er  Er17  1  0.212277  0.788578  0.060807  1
  Er  Er18  1  0.212277  0.423699  0.060807  1
  Er  Er19  1  0.576985  0.788492  0.062217  1
  Tl  Tl20  1  0.883655  0.118743  0.250000  1
  Tl  Tl21  1  0.883655  0.764913  0.250000  1
  Cd  Cd22  1  0.232797  0.116399  0.250000  1
  Cd  Cd23  1  0.115892  0.881783  0.750000  1
  Cd  Cd24  1  0.115892  0.234109  0.750000  1
  Cd  Cd25  1  0.767129  0.883564  0.750000  1
  Ni  Ni26  1  0.332384  0.666193  0.250000  1
  Ni  Ni27  1  0.668950  0.334475  0.750000  1
