# generated using pymatgen
data_Ta6Be6C
_symmetry_space_group_name_H-M   'P 1'
_cell_length_a   7.72480716
_cell_length_b   7.72480745
_cell_length_c   7.72480800
_cell_angle_alpha   59.99999766
_cell_angle_beta   59.99999641
_cell_angle_gamma   60.00000380
_symmetry_Int_Tables_number   1
_chemical_formula_structural   Ta6Be6C
_chemical_formula_sum   'Ta12 Be12 C2'
_cell_volume   325.94775854
_cell_formula_units_Z   2
loop_
 _symmetry_equiv_pos_site_id
 _symmetry_equiv_pos_as_xyz
  1  'x, y, z'
loop_
 _atom_site_type_symbol
 _atom_site_label
 _atom_site_symmetry_multiplicity
 _atom_site_fract_x
 _atom_site_fract_y
 _atom_site_fract_z
 _atom_site_occupancy
  Ta  Ta0  1  0.050668  0.050668  0.449332  1
  Ta  Ta1  1  0.449332  0.050668  0.449332  1
  Ta  Ta2  1  0.050668  0.449332  0.449332  1
  Ta  Ta3  1  0.449332  0.449332  0.050668  1
  Ta  Ta4  1  0.050668  0.449332  0.050668  1
  Ta  Ta5  1  0.449332  0.050668  0.050668  1
  Ta  Ta6  1  0.199332  0.199332  0.800668  1
  Ta  Ta7  1  0.800668  0.199332  0.800668  1
  Ta  Ta8  1  0.199332  0.800668  0.800668  1
  Ta  Ta9  1  0.800668  0.800668  0.199332  1
  Ta  Ta10  1  0.199332  0.800668  0.199332  1
  Ta  Ta11  1  0.800668  0.199332  0.199332  1
  Be  Be12  1  0.424540  0.424540  0.726382  1
  Be  Be13  1  0.424540  0.726382  0.424540  1
  Be  Be14  1  0.726382  0.424540  0.424540  1
  Be  Be15  1  0.424540  0.424540  0.424540  1
  Be  Be16  1  0.825460  0.825460  0.523618  1
  Be  Be17  1  0.825460  0.523618  0.825460  1
  Be  Be18  1  0.523618  0.825460  0.825460  1
  Be  Be19  1  0.825460  0.825460  0.825460  1
  Be  Be20  1  0.625000  0.625000  0.125000  1
  Be  Be21  1  0.625000  0.125000  0.625000  1
  Be  Be22  1  0.125000  0.625000  0.625000  1
  Be  Be23  1  0.625000  0.625000  0.625000  1
  C  C24  1  0.250000  0.250000  0.250000  1
  C  C25  1  0.000000  0.000000  0.000000  1
