# generated using pymatgen
data_Nb6Co4ReMoN2
_symmetry_space_group_name_H-M   'P 1'
_cell_length_a   8.14704371
_cell_length_b   8.14704360
_cell_length_c   8.16958500
_cell_angle_alpha   59.90842801
_cell_angle_beta   59.90842844
_cell_angle_gamma   59.80340767
_symmetry_Int_Tables_number   1
_chemical_formula_structural   Nb6Co4ReMoN2
_chemical_formula_sum   'Nb12 Co8 Re2 Mo2 N4'
_cell_volume   382.32699545
_cell_formula_units_Z   2
loop_
 _symmetry_equiv_pos_site_id
 _symmetry_equiv_pos_as_xyz
  1  'x, y, z'
loop_
 _atom_site_type_symbol
 _atom_site_label
 _atom_site_symmetry_multiplicity
 _atom_site_fract_x
 _atom_site_fract_y
 _atom_site_fract_z
 _atom_site_occupancy
  Nb  Nb0  1  0.807332  0.807332  0.192668  1
  Nb  Nb1  1  0.189441  0.189441  0.810559  1
  Nb  Nb2  1  0.808575  0.192655  0.808953  1
  Nb  Nb3  1  0.192655  0.808575  0.189817  1
  Nb  Nb4  1  0.192655  0.808575  0.808953  1
  Nb  Nb5  1  0.808575  0.192655  0.189817  1
  Nb  Nb6  1  0.442668  0.442668  0.057332  1
  Nb  Nb7  1  0.060559  0.060559  0.439441  1
  Nb  Nb8  1  0.441425  0.057345  0.441047  1
  Nb  Nb9  1  0.057345  0.441425  0.060183  1
  Nb  Nb10  1  0.057345  0.441425  0.441047  1
  Nb  Nb11  1  0.441425  0.057345  0.060183  1
  Co  Co12  1  0.728738  0.424856  0.423203  1
  Co  Co13  1  0.424856  0.728738  0.423203  1
  Co  Co14  1  0.423834  0.423834  0.730149  1
  Co  Co15  1  0.423834  0.423834  0.422182  1
  Co  Co16  1  0.521262  0.825144  0.826797  1
  Co  Co17  1  0.825144  0.521262  0.826797  1
  Co  Co18  1  0.826166  0.826166  0.519851  1
  Co  Co19  1  0.826166  0.826166  0.827818  1
  Re  Re20  1  0.625000  0.625000  0.125000  1
  Re  Re21  1  0.625000  0.625000  0.625000  1
  Mo  Mo22  1  0.125000  0.625000  0.625000  1
  Mo  Mo23  1  0.625000  0.125000  0.625000  1
  N  N24  1  0.625000  0.125000  0.125000  1
  N  N25  1  0.125000  0.625000  0.125000  1
  N  N26  1  0.125000  0.125000  0.625000  1
  N  N27  1  0.125000  0.125000  0.125000  1
