# generated using pymatgen
data_VB4W3
_symmetry_space_group_name_H-M   'P 1'
_cell_length_a   3.11581785
_cell_length_b   3.11030863
_cell_length_c   8.70577130
_cell_angle_alpha   100.29026881
_cell_angle_beta   100.30868742
_cell_angle_gamma   90.00001018
_symmetry_Int_Tables_number   1
_chemical_formula_structural   VB4W3
_chemical_formula_sum   'V1 B4 W3'
_cell_volume   81.62740886
_cell_formula_units_Z   1
loop_
 _symmetry_equiv_pos_site_id
 _symmetry_equiv_pos_as_xyz
  1  'x, y, z'
loop_
 _atom_site_type_symbol
 _atom_site_label
 _atom_site_symmetry_multiplicity
 _atom_site_fract_x
 _atom_site_fract_y
 _atom_site_fract_z
 _atom_site_occupancy
  V  V0  1  0.054113  0.554113  0.108226  1
  B  B1  1  0.591366  0.091366  0.182732  1
  B  B2  1  0.650731  0.650731  0.301462  1
  B  B3  1  0.346467  0.346467  0.692934  1
  B  B4  1  0.908515  0.408515  0.817031  1
  W  W5  1  0.195636  0.195636  0.391272  1
  W  W6  1  0.802465  0.802465  0.604929  1
  W  W7  1  0.450708  0.950708  0.901415  1
