# generated using pymatgen
data_YbEuDy2(ReB4)4
_symmetry_space_group_name_H-M   'P 1'
_cell_length_a   3.61557200
_cell_length_b   5.99839163
_cell_length_c   11.60815558
_cell_angle_alpha   89.91646639
_cell_angle_beta   90.00000000
_cell_angle_gamma   90.00000000
_symmetry_Int_Tables_number   1
_chemical_formula_structural   YbEuDy2(ReB4)4
_chemical_formula_sum   'Yb1 Eu1 Dy2 Re4 B16'
_cell_volume   251.75296268
_cell_formula_units_Z   1
loop_
 _symmetry_equiv_pos_site_id
 _symmetry_equiv_pos_as_xyz
  1  'x, y, z'
loop_
 _atom_site_type_symbol
 _atom_site_label
 _atom_site_symmetry_multiplicity
 _atom_site_fract_x
 _atom_site_fract_y
 _atom_site_fract_z
 _atom_site_occupancy
  Yb  Yb0  1  0.500000  0.872255  0.349956  1
  Eu  Eu1  1  0.500000  0.372265  0.151344  1
  Dy  Dy2  1  0.500000  0.626262  0.850081  1
  Dy  Dy3  1  0.500000  0.125846  0.649309  1
  Re  Re4  1  0.500000  0.367880  0.416962  1
  Re  Re5  1  0.500000  0.630932  0.586353  1
  Re  Re6  1  0.500000  0.130451  0.912565  1
  Re  Re7  1  0.500000  0.867829  0.084416  1
  B  B8  1  0.000000  0.112641  0.046373  1
  B  B9  1  0.000000  0.886623  0.952016  1
  B  B10  1  0.000000  0.387531  0.547397  1
  B  B11  1  0.000000  0.615671  0.453011  1
  B  B12  1  0.000000  0.136359  0.468646  1
  B  B13  1  0.000000  0.863928  0.532005  1
  B  B14  1  0.000000  0.363246  0.966952  1
  B  B15  1  0.000000  0.636953  0.030890  1
  B  B16  1  0.000000  0.022291  0.192083  1
  B  B17  1  0.000000  0.976132  0.807200  1
  B  B18  1  0.000000  0.476856  0.692159  1
  B  B19  1  0.000000  0.524453  0.309547  1
  B  B20  1  0.000000  0.214977  0.316616  1
  B  B21  1  0.000000  0.785987  0.684415  1
  B  B22  1  0.000000  0.285808  0.814505  1
  B  B23  1  0.000000  0.716825  0.185199  1
