# generated using pymatgen
data_Dy2YEr3Al21Si3Os8
_symmetry_space_group_name_H-M   'P 1'
_cell_length_a   8.71384115
_cell_length_b   8.71204801
_cell_length_c   9.63904101
_cell_angle_alpha   90.00353309
_cell_angle_beta   90.00128678
_cell_angle_gamma   119.98590679
_symmetry_Int_Tables_number   1
_chemical_formula_structural   Dy2YEr3Al21Si3Os8
_chemical_formula_sum   'Dy2 Y1 Er3 Al21 Si3 Os8'
_cell_volume   633.80551547
_cell_formula_units_Z   1
loop_
 _symmetry_equiv_pos_site_id
 _symmetry_equiv_pos_as_xyz
  1  'x, y, z'
loop_
 _atom_site_type_symbol
 _atom_site_label
 _atom_site_symmetry_multiplicity
 _atom_site_fract_x
 _atom_site_fract_y
 _atom_site_fract_z
 _atom_site_occupancy
  Dy  Dy0  1  0.194990  0.805318  0.247524  1
  Dy  Dy1  1  0.804556  0.195612  0.752626  1
  Y  Y2  1  0.194802  0.389453  0.247621  1
  Er  Er3  1  0.803690  0.607565  0.752726  1
  Er  Er4  1  0.608776  0.804458  0.247568  1
  Er  Er5  1  0.392694  0.196487  0.752665  1
  Al  Al6  1  0.333478  0.666843  0.476087  1
  Al  Al7  1  0.164473  0.328557  0.574697  1
  Al  Al8  1  0.834888  0.670156  0.423701  1
  Al  Al9  1  0.671566  0.835543  0.574201  1
  Al  Al10  1  0.834722  0.669862  0.076497  1
  Al  Al11  1  0.330137  0.164975  0.423952  1
  Al  Al12  1  0.165712  0.330964  0.922560  1
  Al  Al13  1  0.164159  0.835769  0.574526  1
  Al  Al14  1  0.330459  0.165260  0.076199  1
  Al  Al15  1  0.834783  0.164682  0.423622  1
  Al  Al16  1  0.669122  0.834394  0.922913  1
  Al  Al17  1  0.834648  0.164932  0.076613  1
  Al  Al18  1  0.165424  0.834667  0.922564  1
  Al  Al19  1  0.563654  0.126951  0.248699  1
  Al  Al20  1  0.436786  0.873868  0.748680  1
  Al  Al21  1  0.872629  0.436486  0.248780  1
  Al  Al22  1  0.126260  0.563410  0.748793  1
  Al  Al23  1  0.563711  0.436921  0.248763  1
  Al  Al24  1  0.437250  0.562998  0.748703  1
  Al  Al25  1  0.998564  0.998827  0.249130  1
  Al  Al26  1  0.000564  0.999597  0.749769  1
  Si  Si27  1  0.333829  0.667111  0.039276  1
  Si  Si28  1  0.666672  0.333817  0.961575  1
  Si  Si29  1  0.666561  0.333603  0.539521  1
  Os  Os30  1  0.500114  0.000328  0.998683  1
  Os  Os31  1  0.000124  0.500411  0.998942  1
  Os  Os32  1  0.504437  0.008636  0.501243  1
  Os  Os33  1  0.500260  0.500261  0.998747  1
  Os  Os34  1  0.991040  0.495651  0.501604  1
  Os  Os35  1  0.504486  0.495730  0.501549  1
  Os  Os36  1  0.999958  0.999870  0.999165  1
  Os  Os37  1  0.000020  0.000031  0.499513  1
