# generated using pymatgen
data_Dy16MgIn(AgRh2)2
_symmetry_space_group_name_H-M   'P 1'
_cell_length_a   9.60867696
_cell_length_b   9.61261122
_cell_length_c   9.59556577
_cell_angle_alpha   59.94121690
_cell_angle_beta   60.07058319
_cell_angle_gamma   59.98646089
_symmetry_Int_Tables_number   1
_chemical_formula_structural   Dy16MgIn(AgRh2)2
_chemical_formula_sum   'Dy16 Mg1 In1 Ag2 Rh4'
_cell_volume   626.69136463
_cell_formula_units_Z   1
loop_
 _symmetry_equiv_pos_site_id
 _symmetry_equiv_pos_as_xyz
  1  'x, y, z'
loop_
 _atom_site_type_symbol
 _atom_site_label
 _atom_site_symmetry_multiplicity
 _atom_site_fract_x
 _atom_site_fract_y
 _atom_site_fract_z
 _atom_site_occupancy
  Dy  Dy0  1  0.065202  0.435619  0.437996  1
  Dy  Dy1  1  0.649959  0.046364  0.651979  1
  Dy  Dy2  1  0.814671  0.811667  0.186640  1
  Dy  Dy3  1  0.436766  0.059690  0.069207  1
  Dy  Dy4  1  0.436766  0.434337  0.069207  1
  Dy  Dy5  1  0.191683  0.190309  0.809835  1
  Dy  Dy6  1  0.814671  0.187021  0.186640  1
  Dy  Dy7  1  0.064254  0.435374  0.064998  1
  Dy  Dy8  1  0.437505  0.062231  0.438033  1
  Dy  Dy9  1  0.055427  0.648302  0.647968  1
  Dy  Dy10  1  0.191683  0.808173  0.809835  1
  Dy  Dy11  1  0.649425  0.652340  0.045895  1
  Dy  Dy12  1  0.190165  0.810891  0.188052  1
  Dy  Dy13  1  0.065202  0.061183  0.437996  1
  Dy  Dy14  1  0.809704  0.189470  0.811356  1
  Dy  Dy15  1  0.649959  0.651700  0.651979  1
  Mg  Mg16  1  0.720283  0.428477  0.422763  1
  In  In17  1  0.416888  0.418554  0.746003  1
  Ag  Ag18  1  0.417584  0.416486  0.414642  1
  Ag  Ag19  1  0.417584  0.751287  0.414642  1
  Rh  Rh20  1  0.859491  0.427007  0.855508  1
  Rh  Rh21  1  0.426538  0.858748  0.855966  1
  Rh  Rh22  1  0.859102  0.856773  0.427352  1
  Rh  Rh23  1  0.859491  0.857994  0.855508  1
