# generated using pymatgen
data_Ho8AlInPt23
_symmetry_space_group_name_H-M   'P 1'
_cell_length_a   8.33929300
_cell_length_b   8.33929300
_cell_length_c   8.34934900
_cell_angle_alpha   90.00000000
_cell_angle_beta   90.00000000
_cell_angle_gamma   90.00000000
_symmetry_Int_Tables_number   1
_chemical_formula_structural   Ho8AlInPt23
_chemical_formula_sum   'Ho8 Al1 In1 Pt23'
_cell_volume   580.64552161
_cell_formula_units_Z   1
loop_
 _symmetry_equiv_pos_site_id
 _symmetry_equiv_pos_as_xyz
  1  'x, y, z'
loop_
 _atom_site_type_symbol
 _atom_site_label
 _atom_site_symmetry_multiplicity
 _atom_site_fract_x
 _atom_site_fract_y
 _atom_site_fract_z
 _atom_site_occupancy
  Ho  Ho0  1  0.251983  0.251983  0.251952  1
  Ho  Ho1  1  0.759163  0.759163  0.749060  1
  Ho  Ho2  1  0.748017  0.748017  0.251952  1
  Ho  Ho3  1  0.759163  0.240837  0.749060  1
  Ho  Ho4  1  0.240837  0.240837  0.749060  1
  Ho  Ho5  1  0.251983  0.748017  0.251952  1
  Ho  Ho6  1  0.240837  0.759163  0.749060  1
  Ho  Ho7  1  0.748017  0.251983  0.251952  1
  Al  Al8  1  0.000000  0.000000  0.001292  1
  In  In9  1  0.500000  0.500000  0.741793  1
  Pt  Pt10  1  0.259712  0.500000  0.995313  1
  Pt  Pt11  1  0.740288  0.500000  0.995313  1
  Pt  Pt12  1  0.000000  0.260759  0.498009  1
  Pt  Pt13  1  0.500000  0.259712  0.995313  1
  Pt  Pt14  1  0.000000  0.739241  0.498009  1
  Pt  Pt15  1  0.500000  0.740288  0.995313  1
  Pt  Pt16  1  0.500000  0.000000  0.260721  1
  Pt  Pt17  1  0.260759  0.000000  0.498009  1
  Pt  Pt18  1  0.500000  0.000000  0.740756  1
  Pt  Pt19  1  0.739241  0.000000  0.498009  1
  Pt  Pt20  1  0.000000  0.500000  0.260721  1
  Pt  Pt21  1  0.000000  0.500000  0.740756  1
  Pt  Pt22  1  0.251542  0.500000  0.504136  1
  Pt  Pt23  1  0.748458  0.500000  0.504136  1
  Pt  Pt24  1  0.500000  0.251542  0.504136  1
  Pt  Pt25  1  0.500000  0.748458  0.504136  1
  Pt  Pt26  1  0.500000  0.500000  0.253034  1
  Pt  Pt27  1  0.290589  0.000000  0.002021  1
  Pt  Pt28  1  0.709411  0.000000  0.002021  1
  Pt  Pt29  1  0.000000  0.290589  0.002021  1
  Pt  Pt30  1  0.000000  0.709411  0.002021  1
  Pt  Pt31  1  0.000000  0.000000  0.290258  1
  Pt  Pt32  1  0.000000  0.000000  0.708706  1
