# generated using pymatgen
data_TaMn3InPt11
_symmetry_space_group_name_H-M   'P 1'
_cell_length_a   3.99906800
_cell_length_b   5.62323957
_cell_length_c   11.22395234
_cell_angle_alpha   88.62974757
_cell_angle_beta   90.00000000
_cell_angle_gamma   90.00000000
_symmetry_Int_Tables_number   1
_chemical_formula_structural   TaMn3InPt11
_chemical_formula_sum   'Ta1 Mn3 In1 Pt11'
_cell_volume   252.32889208
_cell_formula_units_Z   1
loop_
 _symmetry_equiv_pos_site_id
 _symmetry_equiv_pos_as_xyz
  1  'x, y, z'
loop_
 _atom_site_type_symbol
 _atom_site_label
 _atom_site_symmetry_multiplicity
 _atom_site_fract_x
 _atom_site_fract_y
 _atom_site_fract_z
 _atom_site_occupancy
  Ta  Ta0  1  0.500000  0.753972  0.376520  1
  Mn  Mn1  1  0.500000  0.725573  0.864209  1
  Mn  Mn2  1  0.500000  0.274698  0.131089  1
  Mn  Mn3  1  0.500000  0.246382  0.628769  1
  In  In4  1  0.000000  0.998637  0.999238  1
  Pt  Pt5  1  0.000000  0.009996  0.250705  1
  Pt  Pt6  1  0.000000  0.989475  0.749945  1
  Pt  Pt7  1  0.000000  0.500937  0.000284  1
  Pt  Pt8  1  0.000000  0.501317  0.498660  1
  Pt  Pt9  1  0.000000  0.511317  0.251998  1
  Pt  Pt10  1  0.000000  0.491066  0.749428  1
  Pt  Pt11  1  0.500000  0.252355  0.376675  1
  Pt  Pt12  1  0.500000  0.241092  0.877321  1
  Pt  Pt13  1  0.500000  0.758897  0.124517  1
  Pt  Pt14  1  0.500000  0.747814  0.622499  1
  Pt  Pt15  1  0.000000  0.996471  0.498144  1
