# generated using pymatgen
data_Dy2Ni11P7W
_symmetry_space_group_name_H-M   'P 1'
_cell_length_a   9.09825389
_cell_length_b   9.12652320
_cell_length_c   3.69165700
_cell_angle_alpha   90.00000000
_cell_angle_beta   90.00000000
_cell_angle_gamma   120.27684352
_symmetry_Int_Tables_number   1
_chemical_formula_structural   Dy2Ni11P7W
_chemical_formula_sum   'Dy2 Ni11 P7 W1'
_cell_volume   264.72629575
_cell_formula_units_Z   1
loop_
 _symmetry_equiv_pos_site_id
 _symmetry_equiv_pos_as_xyz
  1  'x, y, z'
loop_
 _atom_site_type_symbol
 _atom_site_label
 _atom_site_symmetry_multiplicity
 _atom_site_fract_x
 _atom_site_fract_y
 _atom_site_fract_z
 _atom_site_occupancy
  Dy  Dy0  1  0.001195  0.003796  0.000000  1
  Dy  Dy1  1  0.333319  0.667983  0.500000  1
  Ni  Ni2  1  0.297421  0.396473  0.000000  1
  Ni  Ni3  1  0.100133  0.706065  0.000000  1
  Ni  Ni4  1  0.540739  0.433120  0.500000  1
  Ni  Ni5  1  0.390104  0.177798  0.000000  1
  Ni  Ni6  1  0.787675  0.614165  0.000000  1
  Ni  Ni7  1  0.819466  0.205758  0.000000  1
  Ni  Ni8  1  0.235773  0.949455  0.500000  1
  Ni  Ni9  1  0.051496  0.281285  0.500000  1
  Ni  Ni10  1  0.716638  0.766399  0.500000  1
  Ni  Ni11  1  0.571506  0.115145  0.500000  1
  Ni  Ni12  1  0.606846  0.896377  0.000000  1
  P  P13  1  0.662884  0.331471  0.000000  1
  P  P14  1  0.077350  0.444481  0.000000  1
  P  P15  1  0.262747  0.219914  0.500000  1
  P  P16  1  0.778178  0.041336  0.500000  1
  P  P17  1  0.961001  0.744313  0.500000  1
  P  P18  1  0.553104  0.628927  0.000000  1
  P  P19  1  0.375254  0.926311  0.000000  1
  W  W20  1  0.877172  0.449430  0.500000  1
