# generated using pymatgen
data_Ce3PrSi10(OsPt)3
_symmetry_space_group_name_H-M   'P 1'
_cell_length_a   8.21566729
_cell_length_b   8.24745739
_cell_length_c   8.24745704
_cell_angle_alpha   137.51949253
_cell_angle_beta   105.01564611
_cell_angle_gamma   90.25357870
_symmetry_Int_Tables_number   1
_chemical_formula_structural   Ce3PrSi10(OsPt)3
_chemical_formula_sum   'Ce3 Pr1 Si10 Os3 Pt3'
_cell_volume   347.75854970
_cell_formula_units_Z   1
loop_
 _symmetry_equiv_pos_site_id
 _symmetry_equiv_pos_as_xyz
  1  'x, y, z'
loop_
 _atom_site_type_symbol
 _atom_site_label
 _atom_site_symmetry_multiplicity
 _atom_site_fract_x
 _atom_site_fract_y
 _atom_site_fract_z
 _atom_site_occupancy
  Ce  Ce0  1  0.865048  0.629745  0.235303  1
  Ce  Ce1  1  0.139065  0.370893  0.768172  1
  Ce  Ce2  1  0.395852  0.129894  0.265958  1
  Pr  Pr3  1  0.603704  0.870511  0.733192  1
  Si  Si4  1  0.493723  0.752866  0.252280  1
  Si  Si5  1  0.493723  0.241443  0.740857  1
  Si  Si6  1  0.221727  0.973881  0.745560  1
  Si  Si7  1  0.777236  0.525499  0.748498  1
  Si  Si8  1  0.777236  0.028738  0.251737  1
  Si  Si9  1  0.221727  0.476167  0.247846  1
  Si  Si10  1  0.047909  0.895714  0.152195  1
  Si  Si11  1  0.957688  0.105534  0.852155  1
  Si  Si12  1  0.746286  0.394077  0.352209  1
  Si  Si13  1  0.255286  0.604228  0.651058  1
  Os  Os14  1  0.002506  0.751121  0.751939  1
  Os  Os15  1  0.002506  0.250567  0.251386  1
  Os  Os16  1  0.243221  0.858844  0.384378  1
  Pt  Pt17  1  0.751796  0.139356  0.612439  1
  Pt  Pt18  1  0.475113  0.362098  0.113015  1
  Pt  Pt19  1  0.528648  0.638824  0.889825  1
