# generated using pymatgen
data_Tb5Ho3(AgPd)2
_symmetry_space_group_name_H-M   'P 1'
_cell_length_a   9.65132147
_cell_length_b   9.65132044
_cell_length_c   9.65132200
_cell_angle_alpha   60.00000150
_cell_angle_beta   60.00000505
_cell_angle_gamma   59.99999784
_symmetry_Int_Tables_number   1
_chemical_formula_structural   Tb5Ho3(AgPd)2
_chemical_formula_sum   'Tb10 Ho6 Ag4 Pd4'
_cell_volume   635.68994000
_cell_formula_units_Z   2
loop_
 _symmetry_equiv_pos_site_id
 _symmetry_equiv_pos_as_xyz
  1  'x, y, z'
loop_
 _atom_site_type_symbol
 _atom_site_label
 _atom_site_symmetry_multiplicity
 _atom_site_fract_x
 _atom_site_fract_y
 _atom_site_fract_z
 _atom_site_occupancy
  Tb  Tb0  1  0.933735  0.566264  0.566265  1
  Tb  Tb1  1  0.566264  0.933735  0.933736  1
  Tb  Tb2  1  0.566265  0.933735  0.566265  1
  Tb  Tb3  1  0.933735  0.566264  0.933736  1
  Tb  Tb4  1  0.566265  0.566264  0.933736  1
  Tb  Tb5  1  0.933735  0.933735  0.566265  1
  Tb  Tb6  1  0.357010  0.357010  0.357010  1
  Tb  Tb7  1  0.357010  0.357010  0.928971  1
  Tb  Tb8  1  0.357010  0.928971  0.357010  1
  Tb  Tb9  1  0.928971  0.357010  0.357010  1
  Ho  Ho10  1  0.812027  0.187973  0.187973  1
  Ho  Ho11  1  0.187973  0.812027  0.812027  1
  Ho  Ho12  1  0.187973  0.812027  0.187973  1
  Ho  Ho13  1  0.812027  0.187973  0.812027  1
  Ho  Ho14  1  0.187973  0.187973  0.812027  1
  Ho  Ho15  1  0.812027  0.812027  0.187973  1
  Ag  Ag16  1  0.583044  0.583044  0.583044  1
  Ag  Ag17  1  0.583044  0.583044  0.250869  1
  Ag  Ag18  1  0.583044  0.250869  0.583044  1
  Ag  Ag19  1  0.250869  0.583044  0.583044  1
  Pd  Pd20  1  0.144554  0.144554  0.144554  1
  Pd  Pd21  1  0.144554  0.144554  0.566339  1
  Pd  Pd22  1  0.144554  0.566339  0.144554  1
  Pd  Pd23  1  0.566339  0.144554  0.144554  1
