# generated using pymatgen
data_La7Pr3(Mg2Ru3)2
_symmetry_space_group_name_H-M   'P 1'
_cell_length_a   8.80749541
_cell_length_b   8.69570306
_cell_length_c   8.69570376
_cell_angle_alpha   109.05221638
_cell_angle_beta   109.36215045
_cell_angle_gamma   109.48030277
_symmetry_Int_Tables_number   1
_chemical_formula_structural   La7Pr3(Mg2Ru3)2
_chemical_formula_sum   'La7 Pr3 Mg4 Ru6'
_cell_volume   515.92424218
_cell_formula_units_Z   1
loop_
 _symmetry_equiv_pos_site_id
 _symmetry_equiv_pos_as_xyz
  1  'x, y, z'
loop_
 _atom_site_type_symbol
 _atom_site_label
 _atom_site_symmetry_multiplicity
 _atom_site_fract_x
 _atom_site_fract_y
 _atom_site_fract_z
 _atom_site_occupancy
  La  La0  1  0.176536  0.933229  0.248766  1
  La  La1  1  0.002217  0.500291  0.293245  1
  La  La2  1  0.750000  0.181820  0.431820  1
  La  La3  1  0.497784  0.791028  0.498074  1
  La  La4  1  0.930207  0.750912  0.683747  1
  La  La5  1  0.323464  0.572230  0.756693  1
  La  La6  1  0.569793  0.253540  0.820704  1
  Pr  Pr7  1  0.784021  0.000910  0.998233  1
  Pr  Pr8  1  0.250000  0.322352  0.072352  1
  Pr  Pr9  1  0.715981  0.714215  0.216891  1
  Mg  Mg10  1  0.404510  0.000402  0.000664  1
  Mg  Mg11  1  0.500764  0.406958  0.498090  1
  Mg  Mg12  1  0.095490  0.096154  0.595892  1
  Mg  Mg13  1  0.999236  0.497326  0.906194  1
  Ru  Ru14  1  0.376312  0.741455  0.127215  1
  Ru  Ru15  1  0.645606  0.376279  0.256478  1
  Ru  Ru16  1  0.123688  0.250903  0.365142  1
  Ru  Ru17  1  0.250000  0.869404  0.619405  1
  Ru  Ru18  1  0.854393  0.110871  0.730673  1
  Ru  Ru19  1  0.750000  0.629723  0.879723  1
