# generated using pymatgen
data_Dy6Al24ZnRu7
_symmetry_space_group_name_H-M   'P 1'
_cell_length_a   8.84397498
_cell_length_b   8.84397508
_cell_length_c   9.54955408
_cell_angle_alpha   90.01307484
_cell_angle_beta   89.98692332
_cell_angle_gamma   119.90677470
_symmetry_Int_Tables_number   1
_chemical_formula_structural   Dy6Al24ZnRu7
_chemical_formula_sum   'Dy6 Al24 Zn1 Ru7'
_cell_volume   647.46446064
_cell_formula_units_Z   1
loop_
 _symmetry_equiv_pos_site_id
 _symmetry_equiv_pos_as_xyz
  1  'x, y, z'
loop_
 _atom_site_type_symbol
 _atom_site_label
 _atom_site_symmetry_multiplicity
 _atom_site_fract_x
 _atom_site_fract_y
 _atom_site_fract_z
 _atom_site_occupancy
  Dy  Dy0  1  0.194079  0.805921  0.247270  1
  Dy  Dy1  1  0.192370  0.385986  0.252499  1
  Dy  Dy2  1  0.614014  0.807630  0.252499  1
  Dy  Dy3  1  0.805921  0.194079  0.752730  1
  Dy  Dy4  1  0.807630  0.614014  0.747501  1
  Dy  Dy5  1  0.385986  0.192370  0.747501  1
  Al  Al6  1  0.563534  0.436466  0.244833  1
  Al  Al7  1  0.561026  0.121484  0.251534  1
  Al  Al8  1  0.878516  0.438974  0.251534  1
  Al  Al9  1  0.436466  0.563534  0.755167  1
  Al  Al10  1  0.438974  0.878516  0.748466  1
  Al  Al11  1  0.121484  0.561026  0.748466  1
  Al  Al12  1  0.321856  0.150099  0.418501  1
  Al  Al13  1  0.837331  0.162669  0.421657  1
  Al  Al14  1  0.849901  0.678144  0.418501  1
  Al  Al15  1  0.678144  0.849901  0.581499  1
  Al  Al16  1  0.162669  0.837331  0.578343  1
  Al  Al17  1  0.150099  0.321856  0.581499  1
  Al  Al18  1  0.675860  0.837927  0.923355  1
  Al  Al19  1  0.162617  0.837383  0.922431  1
  Al  Al20  1  0.162073  0.324140  0.923355  1
  Al  Al21  1  0.324140  0.162073  0.076645  1
  Al  Al22  1  0.837383  0.162617  0.077569  1
  Al  Al23  1  0.837927  0.675860  0.076645  1
  Al  Al24  1  0.671164  0.328836  0.520786  1
  Al  Al25  1  0.328836  0.671164  0.479214  1
  Al  Al26  1  0.333421  0.666579  0.016023  1
  Al  Al27  1  0.666579  0.333421  0.983977  1
  Al  Al28  1  0.999027  0.000973  0.249620  1
  Al  Al29  1  0.000973  0.999027  0.750380  1
  Zn  Zn30  1  0.500000  0.500000  0.500000  1
  Ru  Ru31  1  0.000000  0.000000  0.500000  1
  Ru  Ru32  1  0.000000  0.000000  0.000000  1
  Ru  Ru33  1  0.500000  0.000000  0.500000  1
  Ru  Ru34  1  0.000000  0.500000  0.500000  1
  Ru  Ru35  1  0.500000  0.500000  0.000000  1
  Ru  Ru36  1  0.500000  0.000000  0.000000  1
  Ru  Ru37  1  0.000000  0.500000  0.000000  1
