# generated using pymatgen
data_AcPd2F12
_symmetry_space_group_name_H-M   'P 1'
_cell_length_a   7.66172353
_cell_length_b   7.66172524
_cell_length_c   10.53798045
_cell_angle_alpha   65.97201129
_cell_angle_beta   65.97200183
_cell_angle_gamma   74.54920587
_symmetry_Int_Tables_number   1
_chemical_formula_structural   AcPd2F12
_chemical_formula_sum   'Ac2 Pd4 F24'
_cell_volume   512.27094763
_cell_formula_units_Z   2
loop_
 _symmetry_equiv_pos_site_id
 _symmetry_equiv_pos_as_xyz
  1  'x, y, z'
loop_
 _atom_site_type_symbol
 _atom_site_label
 _atom_site_symmetry_multiplicity
 _atom_site_fract_x
 _atom_site_fract_y
 _atom_site_fract_z
 _atom_site_occupancy
  Ac  Ac0  1  0.227410  0.772590  0.750000  1
  Ac  Ac1  1  0.772590  0.227410  0.250000  1
  Pd  Pd2  1  0.244769  0.258739  0.361576  1
  Pd  Pd3  1  0.258739  0.244769  0.861576  1
  Pd  Pd4  1  0.755231  0.741261  0.638424  1
  Pd  Pd5  1  0.741261  0.755231  0.138424  1
  F  F6  1  0.820797  0.920993  0.202002  1
  F  F7  1  0.179203  0.079007  0.797998  1
  F  F8  1  0.295738  0.990570  0.488588  1
  F  F9  1  0.026476  0.292793  0.524121  1
  F  F10  1  0.292793  0.026476  0.024121  1
  F  F11  1  0.424979  0.327265  0.416153  1
  F  F12  1  0.327265  0.424979  0.916153  1
  F  F13  1  0.920993  0.820797  0.702002  1
  F  F14  1  0.790406  0.521208  0.296947  1
  F  F15  1  0.009430  0.704262  0.011412  1
  F  F16  1  0.704262  0.009430  0.511412  1
  F  F17  1  0.990570  0.295738  0.988588  1
  F  F18  1  0.515313  0.206264  0.738871  1
  F  F19  1  0.575021  0.672735  0.583847  1
  F  F20  1  0.209594  0.478792  0.703053  1
  F  F21  1  0.672735  0.575021  0.083847  1
  F  F22  1  0.521208  0.790406  0.796947  1
  F  F23  1  0.793736  0.484687  0.761129  1
  F  F24  1  0.478792  0.209594  0.203053  1
  F  F25  1  0.484687  0.793736  0.261129  1
  F  F26  1  0.206264  0.515313  0.238871  1
  F  F27  1  0.707207  0.973524  0.975879  1
  F  F28  1  0.079007  0.179203  0.297998  1
  F  F29  1  0.973524  0.707207  0.475879  1
