# generated using pymatgen
data_TmLu2Be2Ni7
_symmetry_space_group_name_H-M   'P 1'
_cell_length_a   4.99294600
_cell_length_b   4.99294543
_cell_length_c   15.10543800
_cell_angle_alpha   90.00000000
_cell_angle_beta   90.00000000
_cell_angle_gamma   119.99999050
_symmetry_Int_Tables_number   1
_chemical_formula_structural   TmLu2Be2Ni7
_chemical_formula_sum   'Tm2 Lu4 Be4 Ni14'
_cell_volume   326.12018867
_cell_formula_units_Z   2
loop_
 _symmetry_equiv_pos_site_id
 _symmetry_equiv_pos_as_xyz
  1  'x, y, z'
loop_
 _atom_site_type_symbol
 _atom_site_label
 _atom_site_symmetry_multiplicity
 _atom_site_fract_x
 _atom_site_fract_y
 _atom_site_fract_z
 _atom_site_occupancy
  Tm  Tm0  1  0.333333  0.666667  0.750000  1
  Tm  Tm1  1  0.666667  0.333333  0.250000  1
  Lu  Lu2  1  0.333333  0.666667  0.540066  1
  Lu  Lu3  1  0.666667  0.333333  0.040066  1
  Lu  Lu4  1  0.666667  0.333333  0.459934  1
  Lu  Lu5  1  0.333333  0.666667  0.959934  1
  Be  Be6  1  0.333333  0.666667  0.250000  1
  Be  Be7  1  0.666667  0.333333  0.750000  1
  Be  Be8  1  0.000000  0.000000  0.250000  1
  Be  Be9  1  0.000000  0.000000  0.750000  1
  Ni  Ni10  1  0.000000  0.000000  0.000000  1
  Ni  Ni11  1  0.000000  0.000000  0.500000  1
  Ni  Ni12  1  0.167419  0.334838  0.135253  1
  Ni  Ni13  1  0.832581  0.665162  0.635253  1
  Ni  Ni14  1  0.665162  0.832581  0.135253  1
  Ni  Ni15  1  0.167419  0.832581  0.135253  1
  Ni  Ni16  1  0.832581  0.167419  0.635253  1
  Ni  Ni17  1  0.334838  0.167419  0.635253  1
  Ni  Ni18  1  0.832581  0.665162  0.864747  1
  Ni  Ni19  1  0.832581  0.167419  0.864747  1
  Ni  Ni20  1  0.334838  0.167419  0.864747  1
  Ni  Ni21  1  0.665162  0.832581  0.364747  1
  Ni  Ni22  1  0.167419  0.832581  0.364747  1
  Ni  Ni23  1  0.167419  0.334838  0.364747  1
