# generated using pymatgen
data_Yb3Ho(InPd5)2
_symmetry_space_group_name_H-M   'P 1'
_cell_length_a   4.29556600
_cell_length_b   5.80749020
_cell_length_c   11.47435940
_cell_angle_alpha   89.96976060
_cell_angle_beta   90.00000000
_cell_angle_gamma   90.00000000
_symmetry_Int_Tables_number   1
_chemical_formula_structural   Yb3Ho(InPd5)2
_chemical_formula_sum   'Yb3 Ho1 In2 Pd10'
_cell_volume   286.24457875
_cell_formula_units_Z   1
loop_
 _symmetry_equiv_pos_site_id
 _symmetry_equiv_pos_as_xyz
  1  'x, y, z'
loop_
 _atom_site_type_symbol
 _atom_site_label
 _atom_site_symmetry_multiplicity
 _atom_site_fract_x
 _atom_site_fract_y
 _atom_site_fract_z
 _atom_site_occupancy
  Yb  Yb0  1  0.500000  0.810526  0.637360  1
  Yb  Yb1  1  0.500000  0.689778  0.141126  1
  Yb  Yb2  1  0.500000  0.189014  0.360212  1
  Ho  Ho3  1  0.500000  0.310976  0.860574  1
  In  In4  1  0.000000  0.500241  0.498771  1
  In  In5  1  0.000000  0.997078  0.002348  1
  Pd  Pd6  1  0.500000  0.702237  0.386237  1
  Pd  Pd7  1  0.500000  0.297894  0.614043  1
  Pd  Pd8  1  0.000000  0.057974  0.751146  1
  Pd  Pd9  1  0.500000  0.798412  0.886152  1
  Pd  Pd10  1  0.000000  0.441304  0.251388  1
  Pd  Pd11  1  0.000000  0.941737  0.248694  1
  Pd  Pd12  1  0.000000  0.559188  0.748621  1
  Pd  Pd13  1  0.000000  0.500264  0.000420  1
  Pd  Pd14  1  0.000000  0.000273  0.499829  1
  Pd  Pd15  1  0.500000  0.203102  0.113078  1
