# generated using pymatgen
data_Ba2EuMnV2F14
_symmetry_space_group_name_H-M   'P 1'
_cell_length_a   7.54105286
_cell_length_b   7.54105304
_cell_length_c   15.54427424
_cell_angle_alpha   88.87873807
_cell_angle_beta   88.87873828
_cell_angle_gamma   43.06391608
_symmetry_Int_Tables_number   1
_chemical_formula_structural   Ba2EuMnV2F14
_chemical_formula_sum   'Ba4 Eu2 Mn2 V4 F28'
_cell_volume   603.44903783
_cell_formula_units_Z   2
loop_
 _symmetry_equiv_pos_site_id
 _symmetry_equiv_pos_as_xyz
  1  'x, y, z'
loop_
 _atom_site_type_symbol
 _atom_site_label
 _atom_site_symmetry_multiplicity
 _atom_site_fract_x
 _atom_site_fract_y
 _atom_site_fract_z
 _atom_site_occupancy
  Ba  Ba0  1  0.650436  0.733782  0.879233  1
  Ba  Ba1  1  0.349564  0.266218  0.120767  1
  Ba  Ba2  1  0.266218  0.349564  0.620767  1
  Ba  Ba3  1  0.733782  0.650436  0.379233  1
  Eu  Eu4  1  0.948199  0.051801  0.750000  1
  Eu  Eu5  1  0.051801  0.948199  0.250000  1
  Mn  Mn6  1  0.000000  0.000000  0.500000  1
  Mn  Mn7  1  0.000000  0.000000  0.000000  1
  V  V8  1  0.621288  0.621608  0.622510  1
  V  V9  1  0.378712  0.378392  0.377490  1
  V  V10  1  0.378392  0.378712  0.877490  1
  V  V11  1  0.621608  0.621288  0.122510  1
  F  F12  1  0.405976  0.765143  0.515706  1
  F  F13  1  0.594024  0.234857  0.484294  1
  F  F14  1  0.234857  0.594024  0.984294  1
  F  F15  1  0.765143  0.405976  0.015706  1
  F  F16  1  0.691995  0.816239  0.589780  1
  F  F17  1  0.308005  0.183761  0.410220  1
  F  F18  1  0.183761  0.308005  0.910220  1
  F  F19  1  0.816239  0.691995  0.089780  1
  F  F20  1  0.670213  0.070518  0.951579  1
  F  F21  1  0.329787  0.929482  0.048421  1
  F  F22  1  0.929482  0.329787  0.548421  1
  F  F23  1  0.070518  0.670213  0.451579  1
  F  F24  1  0.549248  0.126438  0.777824  1
  F  F25  1  0.450752  0.873562  0.222176  1
  F  F26  1  0.873562  0.450752  0.722176  1
  F  F27  1  0.126438  0.549248  0.277824  1
  F  F28  1  0.841863  0.042924  0.119343  1
  F  F29  1  0.158137  0.957076  0.880657  1
  F  F30  1  0.957076  0.158137  0.380657  1
  F  F31  1  0.042924  0.841863  0.619343  1
  F  F32  1  0.346334  0.908522  0.702817  1
  F  F33  1  0.653666  0.091478  0.297183  1
  F  F34  1  0.091478  0.653666  0.797183  1
  F  F35  1  0.908522  0.346334  0.202817  1
  F  F36  1  0.583804  0.394789  0.655460  1
  F  F37  1  0.416196  0.605211  0.344540  1
  F  F38  1  0.605211  0.416196  0.844540  1
  F  F39  1  0.394789  0.583804  0.155460  1
