# generated using pymatgen
data_HfTh3Sn5
_symmetry_space_group_name_H-M   'P 1'
_cell_length_a   9.51892400
_cell_length_b   9.51892487
_cell_length_c   6.28294900
_cell_angle_alpha   90.00000000
_cell_angle_beta   90.00000000
_cell_angle_gamma   119.99999699
_symmetry_Int_Tables_number   1
_chemical_formula_structural   HfTh3Sn5
_chemical_formula_sum   'Hf2 Th6 Sn10'
_cell_volume   493.02613049
_cell_formula_units_Z   2
loop_
 _symmetry_equiv_pos_site_id
 _symmetry_equiv_pos_as_xyz
  1  'x, y, z'
loop_
 _atom_site_type_symbol
 _atom_site_label
 _atom_site_symmetry_multiplicity
 _atom_site_fract_x
 _atom_site_fract_y
 _atom_site_fract_z
 _atom_site_occupancy
  Hf  Hf0  1  0.000000  0.000000  0.000000  1
  Hf  Hf1  1  0.000000  0.000000  0.500000  1
  Th  Th2  1  0.616126  0.000000  0.250000  1
  Th  Th3  1  0.383874  0.000000  0.750000  1
  Th  Th4  1  0.000000  0.616126  0.250000  1
  Th  Th5  1  0.000000  0.383874  0.750000  1
  Th  Th6  1  0.383874  0.383874  0.250000  1
  Th  Th7  1  0.616126  0.616126  0.750000  1
  Sn  Sn8  1  0.267292  0.000000  0.250000  1
  Sn  Sn9  1  0.732708  0.000000  0.750000  1
  Sn  Sn10  1  0.000000  0.267292  0.250000  1
  Sn  Sn11  1  0.000000  0.732708  0.750000  1
  Sn  Sn12  1  0.732708  0.732708  0.250000  1
  Sn  Sn13  1  0.267292  0.267292  0.750000  1
  Sn  Sn14  1  0.333333  0.666667  0.000000  1
  Sn  Sn15  1  0.666667  0.333333  0.000000  1
  Sn  Sn16  1  0.666667  0.333333  0.500000  1
  Sn  Sn17  1  0.333333  0.666667  0.500000  1
