# generated using pymatgen
data_LiYMnWO6
_symmetry_space_group_name_H-M   'P 1'
_cell_length_a   5.39499309
_cell_length_b   5.69332100
_cell_length_c   7.88834784
_cell_angle_alpha   90.00000000
_cell_angle_beta   89.75199251
_cell_angle_gamma   90.00000000
_symmetry_Int_Tables_number   1
_chemical_formula_structural   LiYMnWO6
_chemical_formula_sum   'Li2 Y2 Mn2 W2 O12'
_cell_volume   242.29170588
_cell_formula_units_Z   2
loop_
 _symmetry_equiv_pos_site_id
 _symmetry_equiv_pos_as_xyz
  1  'x, y, z'
loop_
 _atom_site_type_symbol
 _atom_site_label
 _atom_site_symmetry_multiplicity
 _atom_site_fract_x
 _atom_site_fract_y
 _atom_site_fract_z
 _atom_site_occupancy
  Li  Li0  1  0.287282  0.340953  0.995152  1
  Li  Li1  1  0.712718  0.840953  0.004847  1
  Y  Y2  1  0.728027  0.781122  0.501330  1
  Y  Y3  1  0.271973  0.281122  0.498670  1
  Mn  Mn4  1  0.760662  0.236616  0.237384  1
  Mn  Mn5  1  0.239338  0.736616  0.762617  1
  W  W6  1  0.240143  0.714689  0.239779  1
  W  W7  1  0.759857  0.214689  0.760222  1
  O  O8  1  0.367946  0.715324  0.017449  1
  O  O9  1  0.104968  0.401052  0.209039  1
  O  O10  1  0.937006  0.873154  0.207136  1
  O  O11  1  0.535650  0.519661  0.327494  1
  O  O12  1  0.434190  0.984028  0.318008  1
  O  O13  1  0.129907  0.668999  0.490858  1
  O  O14  1  0.870093  0.168999  0.509142  1
  O  O15  1  0.565811  0.484028  0.681993  1
  O  O16  1  0.464351  0.019661  0.672507  1
  O  O17  1  0.062994  0.373154  0.792863  1
  O  O18  1  0.895032  0.901052  0.790961  1
  O  O19  1  0.632054  0.215324  0.982551  1
