# generated using pymatgen
data_Gd5YSi10
_symmetry_space_group_name_H-M   'P 1'
_cell_length_a   6.70887217
_cell_length_b   6.70887031
_cell_length_c   8.34070900
_cell_angle_alpha   90.00215633
_cell_angle_beta   89.99784398
_cell_angle_gamma   120.03040936
_symmetry_Int_Tables_number   1
_chemical_formula_structural   Gd5YSi10
_chemical_formula_sum   'Gd5 Y1 Si10'
_cell_volume   325.01196860
_cell_formula_units_Z   1
loop_
 _symmetry_equiv_pos_site_id
 _symmetry_equiv_pos_as_xyz
  1  'x, y, z'
loop_
 _atom_site_type_symbol
 _atom_site_label
 _atom_site_symmetry_multiplicity
 _atom_site_fract_x
 _atom_site_fract_y
 _atom_site_fract_z
 _atom_site_occupancy
  Gd  Gd0  1  0.330715  0.999973  0.000013  1
  Gd  Gd1  1  0.330811  0.999935  0.499991  1
  Gd  Gd2  1  0.999935  0.330811  0.500009  1
  Gd  Gd3  1  0.999973  0.330715  0.999987  1
  Gd  Gd4  1  0.669243  0.669243  0.000000  1
  Y  Y5  1  0.669313  0.669313  0.500000  1
  Si  Si6  1  0.380721  0.331490  0.250091  1
  Si  Si7  1  0.668705  0.049340  0.250049  1
  Si  Si8  1  0.950653  0.619367  0.250145  1
  Si  Si9  1  0.619367  0.950653  0.749855  1
  Si  Si10  1  0.999913  0.999918  0.250040  1
  Si  Si11  1  0.666612  0.333292  0.749975  1
  Si  Si12  1  0.049340  0.668705  0.749951  1
  Si  Si13  1  0.331490  0.380721  0.749909  1
  Si  Si14  1  0.333292  0.666612  0.250025  1
  Si  Si15  1  0.999918  0.999913  0.749960  1
