# generated using pymatgen
data_CaYb11(AgGe)12
_symmetry_space_group_name_H-M   'P 1'
_cell_length_a   4.56812400
_cell_length_b   7.85098100
_cell_length_c   21.42922500
_cell_angle_alpha   90.00060330
_cell_angle_beta   90.00000000
_cell_angle_gamma   90.00000000
_symmetry_Int_Tables_number   1
_chemical_formula_structural   CaYb11(AgGe)12
_chemical_formula_sum   'Ca1 Yb11 Ag12 Ge12'
_cell_volume   768.54318404
_cell_formula_units_Z   1
loop_
 _symmetry_equiv_pos_site_id
 _symmetry_equiv_pos_as_xyz
  1  'x, y, z'
loop_
 _atom_site_type_symbol
 _atom_site_label
 _atom_site_symmetry_multiplicity
 _atom_site_fract_x
 _atom_site_fract_y
 _atom_site_fract_z
 _atom_site_occupancy
  Ca  Ca0  1  0.750000  0.708903  0.832842  1
  Yb  Yb1  1  0.250000  0.221586  0.000615  1
  Yb  Yb2  1  0.250000  0.278018  0.500418  1
  Yb  Yb3  1  0.750000  0.778499  0.999860  1
  Yb  Yb4  1  0.750000  0.721935  0.499525  1
  Yb  Yb5  1  0.250000  0.209981  0.334016  1
  Yb  Yb6  1  0.250000  0.289679  0.833974  1
  Yb  Yb7  1  0.750000  0.790277  0.665683  1
  Yb  Yb8  1  0.750000  0.710131  0.166050  1
  Yb  Yb9  1  0.250000  0.210565  0.666820  1
  Yb  Yb10  1  0.250000  0.289158  0.167119  1
  Yb  Yb11  1  0.750000  0.789303  0.332925  1
  Ag  Ag12  1  0.250000  0.914312  0.761904  1
  Ag  Ag13  1  0.250000  0.587716  0.262471  1
  Ag  Ag14  1  0.750000  0.087721  0.237305  1
  Ag  Ag15  1  0.750000  0.410718  0.736672  1
  Ag  Ag16  1  0.250000  0.920950  0.906242  1
  Ag  Ag17  1  0.250000  0.580682  0.405459  1
  Ag  Ag18  1  0.750000  0.080605  0.094533  1
  Ag  Ag19  1  0.750000  0.419382  0.594423  1
  Ag  Ag20  1  0.250000  0.918112  0.564305  1
  Ag  Ag21  1  0.250000  0.581876  0.064448  1
  Ag  Ag22  1  0.750000  0.081976  0.435590  1
  Ag  Ag23  1  0.750000  0.417289  0.936447  1
  Ge  Ge24  1  0.250000  0.582004  0.727703  1
  Ge  Ge25  1  0.250000  0.917412  0.228170  1
  Ge  Ge26  1  0.750000  0.417515  0.271836  1
  Ge  Ge27  1  0.750000  0.083230  0.771720  1
  Ge  Ge28  1  0.250000  0.910812  0.102656  1
  Ge  Ge29  1  0.250000  0.589400  0.602461  1
  Ge  Ge30  1  0.750000  0.089871  0.897512  1
  Ge  Ge31  1  0.750000  0.410594  0.397358  1
  Ge  Ge32  1  0.250000  0.590437  0.928323  1
  Ge  Ge33  1  0.250000  0.908999  0.427083  1
  Ge  Ge34  1  0.750000  0.409240  0.072727  1
  Ge  Ge35  1  0.750000  0.091113  0.572807  1
