# generated using pymatgen
data_UCo2AsP
_symmetry_space_group_name_H-M   'P 1'
_cell_length_a   4.01669400
_cell_length_b   4.01981000
_cell_length_c   9.12174100
_cell_angle_alpha   90.00000000
_cell_angle_beta   90.00000000
_cell_angle_gamma   90.00000000
_symmetry_Int_Tables_number   1
_chemical_formula_structural   UCo2AsP
_chemical_formula_sum   'U2 Co4 As2 P2'
_cell_volume   147.28279277
_cell_formula_units_Z   2
loop_
 _symmetry_equiv_pos_site_id
 _symmetry_equiv_pos_as_xyz
  1  'x, y, z'
loop_
 _atom_site_type_symbol
 _atom_site_label
 _atom_site_symmetry_multiplicity
 _atom_site_fract_x
 _atom_site_fract_y
 _atom_site_fract_z
 _atom_site_occupancy
  U  U0  1  0.500000  0.000000  0.246842  1
  U  U1  1  0.000000  0.500000  0.747759  1
  Co  Co2  1  0.000000  0.500000  0.111206  1
  Co  Co3  1  0.500000  0.000000  0.878226  1
  Co  Co4  1  0.000000  0.000000  0.510850  1
  Co  Co5  1  0.500000  0.500000  0.511473  1
  As  As6  1  0.000000  0.500000  0.366107  1
  As  As7  1  0.500000  0.500000  0.995860  1
  P  P8  1  0.500000  0.000000  0.634719  1
  P  P9  1  0.000000  0.000000  0.996959  1
