# generated using pymatgen
data_Tb3Yb(AlSi2)2
_symmetry_space_group_name_H-M   'P 1'
_cell_length_a   6.88588193
_cell_length_b   6.88588193
_cell_length_c   4.34253500
_cell_angle_alpha   90.00000000
_cell_angle_beta   90.00000000
_cell_angle_gamma   90.16252116
_symmetry_Int_Tables_number   1
_chemical_formula_structural   Tb3Yb(AlSi2)2
_chemical_formula_sum   'Tb3 Yb1 Al2 Si4'
_cell_volume   205.90207495
_cell_formula_units_Z   1
loop_
 _symmetry_equiv_pos_site_id
 _symmetry_equiv_pos_as_xyz
  1  'x, y, z'
loop_
 _atom_site_type_symbol
 _atom_site_label
 _atom_site_symmetry_multiplicity
 _atom_site_fract_x
 _atom_site_fract_y
 _atom_site_fract_z
 _atom_site_occupancy
  Tb  Tb0  1  0.323804  0.823804  0.500000  1
  Tb  Tb1  1  0.822517  0.676748  0.500000  1
  Tb  Tb2  1  0.176748  0.322517  0.500000  1
  Yb  Yb3  1  0.676595  0.176595  0.500000  1
  Al  Al4  1  0.498646  0.501335  0.000000  1
  Al  Al5  1  0.001335  0.998646  0.000000  1
  Si  Si6  1  0.622289  0.876006  0.000000  1
  Si  Si7  1  0.877963  0.377963  0.000000  1
  Si  Si8  1  0.376006  0.122289  0.000000  1
  Si  Si9  1  0.124097  0.624097  0.000000  1
