# generated using pymatgen
data_Er15Tm(ZnCo)4
_symmetry_space_group_name_H-M   'P 1'
_cell_length_a   9.24931493
_cell_length_b   9.24931434
_cell_length_c   9.24942300
_cell_angle_alpha   59.99960779
_cell_angle_beta   59.99960993
_cell_angle_gamma   60.02141531
_symmetry_Int_Tables_number   1
_chemical_formula_structural   Er15Tm(ZnCo)4
_chemical_formula_sum   'Er15 Tm1 Zn4 Co4'
_cell_volume   559.61122966
_cell_formula_units_Z   1
loop_
 _symmetry_equiv_pos_site_id
 _symmetry_equiv_pos_as_xyz
  1  'x, y, z'
loop_
 _atom_site_type_symbol
 _atom_site_label
 _atom_site_symmetry_multiplicity
 _atom_site_fract_x
 _atom_site_fract_y
 _atom_site_fract_z
 _atom_site_occupancy
  Er  Er0  1  0.350312  0.350312  0.350498  1
  Er  Er1  1  0.350312  0.350312  0.948880  1
  Er  Er2  1  0.350213  0.948817  0.350486  1
  Er  Er3  1  0.948817  0.350213  0.350486  1
  Er  Er4  1  0.809740  0.190240  0.190512  1
  Er  Er5  1  0.190240  0.809740  0.809509  1
  Er  Er6  1  0.190240  0.809740  0.190512  1
  Er  Er7  1  0.809740  0.190240  0.809509  1
  Er  Er8  1  0.190361  0.190361  0.809639  1
  Er  Er9  1  0.809654  0.809654  0.190346  1
  Er  Er10  1  0.937734  0.562493  0.562307  1
  Er  Er11  1  0.562493  0.937734  0.937466  1
  Er  Er12  1  0.562493  0.937734  0.562307  1
  Er  Er13  1  0.937734  0.562493  0.937466  1
  Er  Er14  1  0.562319  0.562319  0.937681  1
  Tm  Tm15  1  0.937710  0.937710  0.562290  1
  Zn  Zn16  1  0.577555  0.577555  0.577557  1
  Zn  Zn17  1  0.577555  0.577555  0.267333  1
  Zn  Zn18  1  0.577667  0.267169  0.577582  1
  Zn  Zn19  1  0.267169  0.577667  0.577582  1
  Co  Co20  1  0.142006  0.142006  0.142184  1
  Co  Co21  1  0.142006  0.142006  0.573807  1
  Co  Co22  1  0.142076  0.573859  0.142034  1
  Co  Co23  1  0.573859  0.142076  0.142034  1
