# generated using pymatgen
data_Tb13Dy3(LuPb4)4
_symmetry_space_group_name_H-M   'P 1'
_cell_length_a   8.17890897
_cell_length_b   8.27148216
_cell_length_c   15.66261143
_cell_angle_alpha   89.96248800
_cell_angle_beta   90.04826601
_cell_angle_gamma   90.09227140
_symmetry_Int_Tables_number   1
_chemical_formula_structural   Tb13Dy3(LuPb4)4
_chemical_formula_sum   'Tb13 Dy3 Lu4 Pb16'
_cell_volume   1059.60030838
_cell_formula_units_Z   1
loop_
 _symmetry_equiv_pos_site_id
 _symmetry_equiv_pos_as_xyz
  1  'x, y, z'
loop_
 _atom_site_type_symbol
 _atom_site_label
 _atom_site_symmetry_multiplicity
 _atom_site_fract_x
 _atom_site_fract_y
 _atom_site_fract_z
 _atom_site_occupancy
  Tb  Tb0  1  0.125638  0.342922  0.120753  1
  Tb  Tb1  1  0.624303  0.158500  0.121327  1
  Tb  Tb2  1  0.124142  0.342060  0.379020  1
  Tb  Tb3  1  0.375350  0.842177  0.621098  1
  Tb  Tb4  1  0.875737  0.657642  0.879005  1
  Tb  Tb5  1  0.533948  0.323594  0.901143  1
  Tb  Tb6  1  0.033548  0.176352  0.598745  1
  Tb  Tb7  1  0.466625  0.676972  0.401596  1
  Tb  Tb8  1  0.965948  0.823833  0.098801  1
  Tb  Tb9  1  0.467416  0.677562  0.098540  1
  Tb  Tb10  1  0.968676  0.822728  0.402009  1
  Tb  Tb11  1  0.532052  0.323131  0.598352  1
  Tb  Tb12  1  0.033088  0.175731  0.900722  1
  Dy  Dy13  1  0.373961  0.843207  0.878135  1
  Dy  Dy14  1  0.873490  0.656305  0.621426  1
  Dy  Dy15  1  0.626512  0.156757  0.378885  1
  Lu  Lu16  1  0.207327  0.504991  0.750053  1
  Lu  Lu17  1  0.707217  0.995385  0.749947  1
  Lu  Lu18  1  0.792525  0.495009  0.250481  1
  Lu  Lu19  1  0.293150  0.004773  0.249897  1
  Pb  Pb20  1  0.282531  0.033696  0.043539  1
  Pb  Pb21  1  0.782035  0.465407  0.456378  1
  Pb  Pb22  1  0.717890  0.964432  0.543692  1
  Pb  Pb23  1  0.218330  0.534545  0.955774  1
  Pb  Pb24  1  0.715407  0.965455  0.956131  1
  Pb  Pb25  1  0.214954  0.534619  0.544117  1
  Pb  Pb26  1  0.284750  0.034974  0.455907  1
  Pb  Pb27  1  0.783064  0.466913  0.044610  1
  Pb  Pb28  1  0.569943  0.625666  0.750256  1
  Pb  Pb29  1  0.069404  0.874639  0.749164  1
  Pb  Pb30  1  0.429971  0.375259  0.250780  1
  Pb  Pb31  1  0.930428  0.124198  0.249670  1
  Pb  Pb32  1  0.346274  0.156515  0.749887  1
  Pb  Pb33  1  0.846166  0.343927  0.749755  1
  Pb  Pb34  1  0.654408  0.844135  0.250392  1
  Pb  Pb35  1  0.153793  0.655989  0.250009  1
