# generated using pymatgen
data_Lu6Si6Ir11Rh
_symmetry_space_group_name_H-M   'P 1'
_cell_length_a   5.53210249
_cell_length_b   5.53210244
_cell_length_c   15.03362602
_cell_angle_alpha   89.97891927
_cell_angle_beta   90.02107982
_cell_angle_gamma   119.94084937
_symmetry_Int_Tables_number   1
_chemical_formula_structural   Lu6Si6Ir11Rh
_chemical_formula_sum   'Lu6 Si6 Ir11 Rh1'
_cell_volume   398.68813871
_cell_formula_units_Z   1
loop_
 _symmetry_equiv_pos_site_id
 _symmetry_equiv_pos_as_xyz
  1  'x, y, z'
loop_
 _atom_site_type_symbol
 _atom_site_label
 _atom_site_symmetry_multiplicity
 _atom_site_fract_x
 _atom_site_fract_y
 _atom_site_fract_z
 _atom_site_occupancy
  Lu  Lu0  1  0.334037  0.665963  0.539087  1
  Lu  Lu1  1  0.666951  0.333049  0.460890  1
  Lu  Lu2  1  0.666838  0.333162  0.039119  1
  Lu  Lu3  1  0.333276  0.666724  0.960894  1
  Lu  Lu4  1  0.333448  0.666552  0.749982  1
  Lu  Lu5  1  0.666861  0.333139  0.249134  1
  Si  Si6  1  0.999984  0.000016  0.250323  1
  Si  Si7  1  0.000069  0.999931  0.749960  1
  Si  Si8  1  0.333022  0.666978  0.250581  1
  Si  Si9  1  0.666321  0.333679  0.749947  1
  Si  Si10  1  0.999660  0.000340  0.000226  1
  Si  Si11  1  0.998202  0.001798  0.499750  1
  Ir  Ir12  1  0.167932  0.335855  0.129228  1
  Ir  Ir13  1  0.832406  0.664334  0.870879  1
  Ir  Ir14  1  0.664145  0.832068  0.129228  1
  Ir  Ir15  1  0.832632  0.664394  0.628878  1
  Ir  Ir16  1  0.335666  0.167594  0.870879  1
  Ir  Ir17  1  0.168495  0.335346  0.370717  1
  Ir  Ir18  1  0.167706  0.832294  0.129970  1
  Ir  Ir19  1  0.335606  0.167368  0.628878  1
  Ir  Ir20  1  0.832185  0.167815  0.870821  1
  Ir  Ir21  1  0.664654  0.831505  0.370717  1
  Ir  Ir22  1  0.832153  0.167847  0.629178  1
  Rh  Rh23  1  0.167749  0.832251  0.370731  1
