# generated using pymatgen
data_Yb2Al3Ag4
_symmetry_space_group_name_H-M   'P 1'
_cell_length_a   5.44952945
_cell_length_b   5.44953061
_cell_length_c   13.71313700
_cell_angle_alpha   90.00000000
_cell_angle_beta   90.00000000
_cell_angle_gamma   119.27398314
_symmetry_Int_Tables_number   1
_chemical_formula_structural   Yb2Al3Ag4
_chemical_formula_sum   'Yb4 Al6 Ag8'
_cell_volume   355.23561971
_cell_formula_units_Z   2
loop_
 _symmetry_equiv_pos_site_id
 _symmetry_equiv_pos_as_xyz
  1  'x, y, z'
loop_
 _atom_site_type_symbol
 _atom_site_label
 _atom_site_symmetry_multiplicity
 _atom_site_fract_x
 _atom_site_fract_y
 _atom_site_fract_z
 _atom_site_occupancy
  Yb  Yb0  1  0.819211  0.819211  0.114780  1
  Yb  Yb1  1  0.180789  0.180789  0.885220  1
  Yb  Yb2  1  0.819211  0.819211  0.385220  1
  Yb  Yb3  1  0.180789  0.180789  0.614780  1
  Al  Al4  1  0.173222  0.678927  0.750000  1
  Al  Al5  1  0.678927  0.173222  0.750000  1
  Al  Al6  1  0.681971  0.681971  0.750000  1
  Al  Al7  1  0.321073  0.826778  0.250000  1
  Al  Al8  1  0.826778  0.321073  0.250000  1
  Al  Al9  1  0.318029  0.318029  0.250000  1
  Ag  Ag10  1  0.166120  0.491706  0.080578  1
  Ag  Ag11  1  0.508294  0.833880  0.919422  1
  Ag  Ag12  1  0.491706  0.166120  0.080578  1
  Ag  Ag13  1  0.833880  0.508294  0.580578  1
  Ag  Ag14  1  0.491706  0.166120  0.419422  1
  Ag  Ag15  1  0.833880  0.508294  0.919422  1
  Ag  Ag16  1  0.508294  0.833880  0.580578  1
  Ag  Ag17  1  0.166120  0.491706  0.419422  1
