# generated using pymatgen
data_La8Yb12Si15Pd
_symmetry_space_group_name_H-M   'P 1'
_cell_length_a   8.00656509
_cell_length_b   7.94317116
_cell_length_c   14.61405265
_cell_angle_alpha   89.94263861
_cell_angle_beta   89.07914531
_cell_angle_gamma   89.91434886
_symmetry_Int_Tables_number   1
_chemical_formula_structural   La8Yb12Si15Pd
_chemical_formula_sum   'La8 Yb12 Si15 Pd1'
_cell_volume   929.29594263
_cell_formula_units_Z   1
loop_
 _symmetry_equiv_pos_site_id
 _symmetry_equiv_pos_as_xyz
  1  'x, y, z'
loop_
 _atom_site_type_symbol
 _atom_site_label
 _atom_site_symmetry_multiplicity
 _atom_site_fract_x
 _atom_site_fract_y
 _atom_site_fract_z
 _atom_site_occupancy
  La  La0  1  0.987262  0.631719  0.043605  1
  La  La1  1  0.013499  0.372813  0.542775  1
  La  La2  1  0.625915  0.992500  0.954942  1
  La  La3  1  0.133798  0.511342  0.792356  1
  La  La4  1  0.857023  0.485777  0.290153  1
  La  La5  1  0.501552  0.124868  0.204209  1
  La  La6  1  0.497430  0.870294  0.706727  1
  La  La7  1  0.377699  0.011308  0.458092  1
  Yb  Yb8  1  0.367528  0.495662  0.378583  1
  Yb  Yb9  1  0.866263  0.996393  0.372435  1
  Yb  Yb10  1  0.990288  0.131522  0.127297  1
  Yb  Yb11  1  0.014556  0.866948  0.623075  1
  Yb  Yb12  1  0.631008  0.506100  0.875918  1
  Yb  Yb13  1  0.500908  0.373607  0.625477  1
  Yb  Yb14  1  0.498887  0.631886  0.123699  1
  Yb  Yb15  1  0.130732  0.994650  0.873456  1
  Yb  Yb16  1  0.688632  0.684775  0.498673  1
  Yb  Yb17  1  0.818271  0.186566  0.749368  1
  Yb  Yb18  1  0.178090  0.808313  0.253629  1
  Yb  Yb19  1  0.308948  0.314587  0.000031  1
  Si  Si20  1  0.919933  0.291017  0.942881  1
  Si  Si21  1  0.718036  0.079748  0.556553  1
  Si  Si22  1  0.203036  0.421949  0.195411  1
  Si  Si23  1  0.800745  0.578030  0.691851  1
  Si  Si24  1  0.420641  0.212013  0.807020  1
  Si  Si25  1  0.572010  0.790800  0.306618  1
  Si  Si26  1  0.285666  0.921705  0.057827  1
  Si  Si27  1  0.841538  0.791497  0.808879  1
  Si  Si28  1  0.160197  0.208286  0.314437  1
  Si  Si29  1  0.783497  0.839545  0.187897  1
  Si  Si30  1  0.307480  0.668093  0.563963  1
  Si  Si31  1  0.705759  0.339331  0.060132  1
  Si  Si32  1  0.664060  0.290776  0.440581  1
  Si  Si33  1  0.336367  0.708863  0.940463  1
  Si  Si34  1  0.213578  0.162466  0.688108  1
  Pd  Pd35  1  0.079173  0.704255  0.442879  1
