# generated using pymatgen
data_Nd2Ga4NiRh3
_symmetry_space_group_name_H-M   'P 1'
_cell_length_a   4.31465600
_cell_length_b   4.31465600
_cell_length_c   9.91164400
_cell_angle_alpha   90.00000000
_cell_angle_beta   90.00000000
_cell_angle_gamma   90.00000000
_symmetry_Int_Tables_number   1
_chemical_formula_structural   Nd2Ga4NiRh3
_chemical_formula_sum   'Nd2 Ga4 Ni1 Rh3'
_cell_volume   184.51770603
_cell_formula_units_Z   1
loop_
 _symmetry_equiv_pos_site_id
 _symmetry_equiv_pos_as_xyz
  1  'x, y, z'
loop_
 _atom_site_type_symbol
 _atom_site_label
 _atom_site_symmetry_multiplicity
 _atom_site_fract_x
 _atom_site_fract_y
 _atom_site_fract_z
 _atom_site_occupancy
  Nd  Nd0  1  0.000000  0.500000  0.754134  1
  Nd  Nd1  1  0.500000  0.000000  0.243971  1
  Ga  Ga2  1  0.000000  0.500000  0.133307  1
  Ga  Ga3  1  0.500000  0.500000  0.491478  1
  Ga  Ga4  1  0.000000  0.000000  0.491478  1
  Ga  Ga5  1  0.500000  0.000000  0.876079  1
  Ni  Ni6  1  0.000000  0.500000  0.375686  1
  Rh  Rh7  1  0.500000  0.000000  0.624937  1
  Rh  Rh8  1  0.500000  0.500000  0.004464  1
  Rh  Rh9  1  0.000000  0.000000  0.004464  1
