# generated using pymatgen
data_PrTh2In3Ir2Rh
_symmetry_space_group_name_H-M   'P 1'
_cell_length_a   7.67998300
_cell_length_b   7.78703872
_cell_length_c   3.99069000
_cell_angle_alpha   90.00000000
_cell_angle_beta   90.00000000
_cell_angle_gamma   119.54625023
_symmetry_Int_Tables_number   1
_chemical_formula_structural   PrTh2In3Ir2Rh
_chemical_formula_sum   'Pr1 Th2 In3 Ir2 Rh1'
_cell_volume   207.62461080
_cell_formula_units_Z   1
loop_
 _symmetry_equiv_pos_site_id
 _symmetry_equiv_pos_as_xyz
  1  'x, y, z'
loop_
 _atom_site_type_symbol
 _atom_site_label
 _atom_site_symmetry_multiplicity
 _atom_site_fract_x
 _atom_site_fract_y
 _atom_site_fract_z
 _atom_site_occupancy
  Pr  Pr0  1  0.587192  0.000000  0.500000  1
  Th  Th1  1  0.997288  0.583583  0.500000  1
  Th  Th2  1  0.413705  0.416417  0.500000  1
  In  In3  1  0.751568  0.762976  0.000000  1
  In  In4  1  0.988591  0.237024  0.000000  1
  In  In5  1  0.261722  0.000000  0.000000  1
  Ir  Ir6  1  0.310054  0.638849  0.000000  1
  Ir  Ir7  1  0.671207  0.361151  0.000000  1
  Rh  Rh8  1  0.018673  0.000000  0.500000  1
