# generated using pymatgen
data_Li7Nd8CdSn5Pb3
_symmetry_space_group_name_H-M   'P 1'
_cell_length_a   9.66350400
_cell_length_b   9.64983174
_cell_length_c   7.65733884
_cell_angle_alpha   90.04762945
_cell_angle_beta   90.00000000
_cell_angle_gamma   120.04687974
_symmetry_Int_Tables_number   1
_chemical_formula_structural   Li7Nd8CdSn5Pb3
_chemical_formula_sum   'Li7 Nd8 Cd1 Sn5 Pb3'
_cell_volume   618.09797020
_cell_formula_units_Z   1
loop_
 _symmetry_equiv_pos_site_id
 _symmetry_equiv_pos_as_xyz
  1  'x, y, z'
loop_
 _atom_site_type_symbol
 _atom_site_label
 _atom_site_symmetry_multiplicity
 _atom_site_fract_x
 _atom_site_fract_y
 _atom_site_fract_z
 _atom_site_occupancy
  Li  Li0  1  0.165068  0.831999  0.286891  1
  Li  Li1  1  0.666930  0.831999  0.286891  1
  Li  Li2  1  0.832267  0.664534  0.791650  1
  Li  Li3  1  0.831380  0.167226  0.789711  1
  Li  Li4  1  0.335845  0.167226  0.789711  1
  Li  Li5  1  0.333508  0.667017  0.671264  1
  Li  Li6  1  0.668297  0.336592  0.170698  1
  Nd  Nd7  1  0.512733  0.025467  0.496937  1
  Nd  Nd8  1  0.516684  0.488734  0.494823  1
  Nd  Nd9  1  0.972049  0.488734  0.494823  1
  Nd  Nd10  1  0.489425  0.978849  0.991674  1
  Nd  Nd11  1  0.489957  0.511529  0.995256  1
  Nd  Nd12  1  0.021574  0.511529  0.995256  1
  Nd  Nd13  1  0.996825  0.993651  0.500624  1
  Nd  Nd14  1  0.000270  0.000541  0.000987  1
  Cd  Cd15  1  0.167019  0.334039  0.292446  1
  Sn  Sn16  1  0.833581  0.667162  0.229097  1
  Sn  Sn17  1  0.824949  0.162329  0.224451  1
  Sn  Sn18  1  0.337380  0.162329  0.224451  1
  Sn  Sn19  1  0.338332  0.676664  0.261265  1
  Sn  Sn20  1  0.666909  0.333818  0.765066  1
  Pb  Pb21  1  0.166367  0.332734  0.730801  1
  Pb  Pb22  1  0.166208  0.832651  0.728601  1
  Pb  Pb23  1  0.666442  0.832651  0.728601  1
