# generated using pymatgen
data_CaPrYGa8Ag3
_symmetry_space_group_name_H-M   'P 1'
_cell_length_a   4.37776390
_cell_length_b   8.44092435
_cell_length_c   8.44092496
_cell_angle_alpha   69.96149440
_cell_angle_beta   74.97041732
_cell_angle_gamma   74.97042019
_symmetry_Int_Tables_number   1
_chemical_formula_structural   CaPrYGa8Ag3
_chemical_formula_sum   'Ca1 Pr1 Y1 Ga8 Ag3'
_cell_volume   277.96650201
_cell_formula_units_Z   1
loop_
 _symmetry_equiv_pos_site_id
 _symmetry_equiv_pos_as_xyz
  1  'x, y, z'
loop_
 _atom_site_type_symbol
 _atom_site_label
 _atom_site_symmetry_multiplicity
 _atom_site_fract_x
 _atom_site_fract_y
 _atom_site_fract_z
 _atom_site_occupancy
  Ca  Ca0  1  0.302375  0.697625  0.697625  1
  Pr  Pr1  1  0.999644  0.000356  0.000356  1
  Y  Y2  1  0.700044  0.299956  0.299956  1
  Ga  Ga3  1  0.339407  0.291009  0.030176  1
  Ga  Ga4  1  0.661941  0.705106  0.971013  1
  Ga  Ga5  1  0.339407  0.030176  0.291009  1
  Ga  Ga6  1  0.661941  0.971013  0.705106  1
  Ga  Ga7  1  0.142257  0.574796  0.140690  1
  Ga  Ga8  1  0.855579  0.425292  0.863550  1
  Ga  Ga9  1  0.142257  0.140690  0.574796  1
  Ga  Ga10  1  0.855579  0.863550  0.425292  1
  Ag  Ag11  1  0.499544  0.303397  0.697516  1
  Ag  Ag12  1  0.499544  0.697516  0.303397  1
  Ag  Ag13  1  0.000480  0.499520  0.499520  1
