# generated using pymatgen
data_PrNd5(HfBi5)2
_symmetry_space_group_name_H-M   'P 1'
_cell_length_a   9.73158212
_cell_length_b   9.73427127
_cell_length_c   6.53557300
_cell_angle_alpha   90.00000000
_cell_angle_beta   90.00000000
_cell_angle_gamma   120.00914004
_symmetry_Int_Tables_number   1
_chemical_formula_structural   PrNd5(HfBi5)2
_chemical_formula_sum   'Pr1 Nd5 Hf2 Bi10'
_cell_volume   536.11899170
_cell_formula_units_Z   1
loop_
 _symmetry_equiv_pos_site_id
 _symmetry_equiv_pos_as_xyz
  1  'x, y, z'
loop_
 _atom_site_type_symbol
 _atom_site_label
 _atom_site_symmetry_multiplicity
 _atom_site_fract_x
 _atom_site_fract_y
 _atom_site_fract_z
 _atom_site_occupancy
  Pr  Pr0  1  0.000000  0.381358  0.750000  1
  Nd  Nd1  1  0.618811  0.000058  0.250000  1
  Nd  Nd2  1  0.618870  0.618844  0.750000  1
  Nd  Nd3  1  0.000000  0.618984  0.250000  1
  Nd  Nd4  1  0.381189  0.381247  0.250000  1
  Nd  Nd5  1  0.381130  0.999975  0.750000  1
  Hf  Hf6  1  0.000000  0.999933  0.000407  1
  Hf  Hf7  1  0.000000  0.999933  0.499593  1
  Bi  Bi8  1  0.666258  0.333258  0.000625  1
  Bi  Bi9  1  0.264216  0.999961  0.250000  1
  Bi  Bi10  1  0.333742  0.667001  0.499375  1
  Bi  Bi11  1  0.264391  0.263828  0.750000  1
  Bi  Bi12  1  0.735609  0.999437  0.750000  1
  Bi  Bi13  1  0.000000  0.736150  0.750000  1
  Bi  Bi14  1  0.735784  0.735744  0.250000  1
  Bi  Bi15  1  0.000000  0.264030  0.250000  1
  Bi  Bi16  1  0.333742  0.667001  0.000625  1
  Bi  Bi17  1  0.666258  0.333258  0.499375  1
