# generated using pymatgen
data_Yb3TmNi13C4
_symmetry_space_group_name_H-M   'P 1'
_cell_length_a   8.27824700
_cell_length_b   8.27824772
_cell_length_c   3.84856600
_cell_angle_alpha   90.00000000
_cell_angle_beta   90.00000000
_cell_angle_gamma   90.71230442
_symmetry_Int_Tables_number   1
_chemical_formula_structural   Yb3TmNi13C4
_chemical_formula_sum   'Yb3 Tm1 Ni13 C4'
_cell_volume   263.71945830
_cell_formula_units_Z   1
loop_
 _symmetry_equiv_pos_site_id
 _symmetry_equiv_pos_as_xyz
  1  'x, y, z'
loop_
 _atom_site_type_symbol
 _atom_site_label
 _atom_site_symmetry_multiplicity
 _atom_site_fract_x
 _atom_site_fract_y
 _atom_site_fract_z
 _atom_site_occupancy
  Yb  Yb0  1  0.191902  0.808098  0.500000  1
  Yb  Yb1  1  0.347302  0.350049  0.500000  1
  Yb  Yb2  1  0.649951  0.652698  0.500000  1
  Tm  Tm3  1  0.812783  0.187217  0.500000  1
  Ni  Ni4  1  0.000012  0.999988  0.000000  1
  Ni  Ni5  1  0.215777  0.572994  0.000000  1
  Ni  Ni6  1  0.784373  0.428108  0.000000  1
  Ni  Ni7  1  0.427006  0.784223  0.000000  1
  Ni  Ni8  1  0.571892  0.215627  0.000000  1
  Ni  Ni9  1  0.998315  0.499071  0.500000  1
  Ni  Ni10  1  0.500929  0.001685  0.500000  1
  Ni  Ni11  1  0.071730  0.289490  0.000000  1
  Ni  Ni12  1  0.925352  0.711155  0.000000  1
  Ni  Ni13  1  0.710510  0.928270  0.000000  1
  Ni  Ni14  1  0.288845  0.074648  0.000000  1
  Ni  Ni15  1  0.125130  0.119797  0.500000  1
  Ni  Ni16  1  0.880203  0.874870  0.500000  1
  C  C17  1  0.000514  0.501986  0.000000  1
  C  C18  1  0.498014  0.999486  0.000000  1
  C  C19  1  0.443093  0.556907  0.000000  1
  C  C20  1  0.556371  0.443629  0.000000  1
