# generated using pymatgen
data_Ho3Si6Pd19Pt
_symmetry_space_group_name_H-M   'P 1'
_cell_length_a   8.72259639
_cell_length_b   8.72259710
_cell_length_c   8.72259630
_cell_angle_alpha   59.82472175
_cell_angle_beta   59.82471844
_cell_angle_gamma   59.82472092
_symmetry_Int_Tables_number   1
_chemical_formula_structural   Ho3Si6Pd19Pt
_chemical_formula_sum   'Ho3 Si6 Pd19 Pt1'
_cell_volume   467.40260416
_cell_formula_units_Z   1
loop_
 _symmetry_equiv_pos_site_id
 _symmetry_equiv_pos_as_xyz
  1  'x, y, z'
loop_
 _atom_site_type_symbol
 _atom_site_label
 _atom_site_symmetry_multiplicity
 _atom_site_fract_x
 _atom_site_fract_y
 _atom_site_fract_z
 _atom_site_occupancy
  Ho  Ho0  1  0.250562  0.250562  0.250562  1
  Ho  Ho1  1  0.749685  0.749685  0.749685  1
  Ho  Ho2  1  0.000000  0.000000  0.000000  1
  Si  Si3  1  0.731024  0.268150  0.268150  1
  Si  Si4  1  0.267932  0.732581  0.732581  1
  Si  Si5  1  0.268150  0.731024  0.268150  1
  Si  Si6  1  0.732581  0.267932  0.732581  1
  Si  Si7  1  0.268150  0.268150  0.731024  1
  Si  Si8  1  0.732581  0.732581  0.267932  1
  Pd  Pd9  1  0.616502  0.616502  0.616502  1
  Pd  Pd10  1  0.383084  0.383084  0.850254  1
  Pd  Pd11  1  0.383084  0.850254  0.383084  1
  Pd  Pd12  1  0.617870  0.617870  0.148984  1
  Pd  Pd13  1  0.617870  0.148984  0.617870  1
  Pd  Pd14  1  0.850254  0.383084  0.383084  1
  Pd  Pd15  1  0.148984  0.617870  0.617870  1
  Pd  Pd16  1  0.345029  0.999741  0.999741  1
  Pd  Pd17  1  0.654837  0.999720  0.999720  1
  Pd  Pd18  1  0.999623  0.344882  0.654946  1
  Pd  Pd19  1  0.999623  0.654946  0.344882  1
  Pd  Pd20  1  0.999741  0.345029  0.999741  1
  Pd  Pd21  1  0.654946  0.999623  0.344882  1
  Pd  Pd22  1  0.999720  0.654837  0.999720  1
  Pd  Pd23  1  0.344882  0.999623  0.654946  1
  Pd  Pd24  1  0.999741  0.999741  0.345029  1
  Pd  Pd25  1  0.999720  0.999720  0.654837  1
  Pd  Pd26  1  0.654946  0.344882  0.999623  1
  Pd  Pd27  1  0.344882  0.654946  0.999623  1
  Pt  Pt28  1  0.383997  0.383997  0.383997  1
