# generated using pymatgen
data_Ho2Th2GaNi13
_symmetry_space_group_name_H-M   'P 1'
_cell_length_a   4.94726860
_cell_length_b   4.94726990
_cell_length_c   12.55397153
_cell_angle_alpha   78.64100443
_cell_angle_beta   78.64100112
_cell_angle_gamma   60.97438438
_symmetry_Int_Tables_number   1
_chemical_formula_structural   Ho2Th2GaNi13
_chemical_formula_sum   'Ho2 Th2 Ga1 Ni13'
_cell_volume   261.56135096
_cell_formula_units_Z   1
loop_
 _symmetry_equiv_pos_site_id
 _symmetry_equiv_pos_as_xyz
  1  'x, y, z'
loop_
 _atom_site_type_symbol
 _atom_site_label
 _atom_site_symmetry_multiplicity
 _atom_site_fract_x
 _atom_site_fract_y
 _atom_site_fract_z
 _atom_site_occupancy
  Ho  Ho0  1  0.850644  0.850644  0.446331  1
  Ho  Ho1  1  0.149356  0.149356  0.553669  1
  Th  Th2  1  0.945450  0.945450  0.164673  1
  Th  Th3  1  0.054550  0.054550  0.835327  1
  Ga  Ga4  1  0.500000  0.500000  0.000000  1
  Ni  Ni5  1  0.500000  0.500000  0.500000  1
  Ni  Ni6  1  0.723683  0.723683  0.831103  1
  Ni  Ni7  1  0.276317  0.276317  0.168897  1
  Ni  Ni8  1  0.611715  0.611715  0.168351  1
  Ni  Ni9  1  0.388285  0.388285  0.831649  1
  Ni  Ni10  1  0.000000  0.500000  0.000000  1
  Ni  Ni11  1  0.500000  0.000000  0.000000  1
  Ni  Ni12  1  0.387228  0.387228  0.333566  1
  Ni  Ni13  1  0.889832  0.387305  0.333522  1
  Ni  Ni14  1  0.387305  0.889832  0.333522  1
  Ni  Ni15  1  0.612772  0.612772  0.666434  1
  Ni  Ni16  1  0.110168  0.612695  0.666478  1
  Ni  Ni17  1  0.612695  0.110168  0.666478  1
