# generated using pymatgen
data_GdMgIr4
_symmetry_space_group_name_H-M   'P 1'
_cell_length_a   5.25878200
_cell_length_b   5.25878130
_cell_length_c   8.55999500
_cell_angle_alpha   90.00000000
_cell_angle_beta   90.00000000
_cell_angle_gamma   120.00000439
_symmetry_Int_Tables_number   1
_chemical_formula_structural   GdMgIr4
_chemical_formula_sum   'Gd2 Mg2 Ir8'
_cell_volume   205.00969589
_cell_formula_units_Z   2
loop_
 _symmetry_equiv_pos_site_id
 _symmetry_equiv_pos_as_xyz
  1  'x, y, z'
loop_
 _atom_site_type_symbol
 _atom_site_label
 _atom_site_symmetry_multiplicity
 _atom_site_fract_x
 _atom_site_fract_y
 _atom_site_fract_z
 _atom_site_occupancy
  Gd  Gd0  1  0.333333  0.666667  0.069238  1
  Gd  Gd1  1  0.666667  0.333333  0.569238  1
  Mg  Mg2  1  0.666667  0.333333  0.935818  1
  Mg  Mg3  1  0.333333  0.666667  0.435818  1
  Ir  Ir4  1  0.000000  0.000000  0.995735  1
  Ir  Ir5  1  0.000000  0.000000  0.495735  1
  Ir  Ir6  1  0.829204  0.658409  0.249736  1
  Ir  Ir7  1  0.170796  0.829204  0.749736  1
  Ir  Ir8  1  0.658409  0.829204  0.749736  1
  Ir  Ir9  1  0.341591  0.170796  0.249736  1
  Ir  Ir10  1  0.829204  0.170796  0.249736  1
  Ir  Ir11  1  0.170796  0.341591  0.749736  1
