# generated using pymatgen
data_YCo(BRu)2
_symmetry_space_group_name_H-M   'P 1'
_cell_length_a   5.50107600
_cell_length_b   5.27845969
_cell_length_c   3.02797400
_cell_angle_alpha   90.00000000
_cell_angle_beta   90.00000000
_cell_angle_gamma   121.40519712
_symmetry_Int_Tables_number   1
_chemical_formula_structural   YCo(BRu)2
_chemical_formula_sum   'Y1 Co1 B2 Ru2'
_cell_volume   75.04336843
_cell_formula_units_Z   1
loop_
 _symmetry_equiv_pos_site_id
 _symmetry_equiv_pos_as_xyz
  1  'x, y, z'
loop_
 _atom_site_type_symbol
 _atom_site_label
 _atom_site_symmetry_multiplicity
 _atom_site_fract_x
 _atom_site_fract_y
 _atom_site_fract_z
 _atom_site_occupancy
  Y  Y0  1  0.000000  0.000000  0.000000  1
  Co  Co1  1  0.500000  0.000000  0.500000  1
  B  B2  1  0.341140  0.682283  0.000000  1
  B  B3  1  0.658860  0.317717  0.000000  1
  Ru  Ru4  1  0.500000  0.500000  0.500000  1
  Ru  Ru5  1  0.000000  0.500000  0.500000  1
