# generated using pymatgen
data_DyY3(InPd2)2
_symmetry_space_group_name_H-M   'P 1'
_cell_length_a   7.74002868
_cell_length_b   7.73999168
_cell_length_c   3.75542300
_cell_angle_alpha   90.00000000
_cell_angle_beta   90.00000000
_cell_angle_gamma   90.25842309
_symmetry_Int_Tables_number   1
_chemical_formula_structural   DyY3(InPd2)2
_chemical_formula_sum   'Dy1 Y3 In2 Pd4'
_cell_volume   224.97668245
_cell_formula_units_Z   1
loop_
 _symmetry_equiv_pos_site_id
 _symmetry_equiv_pos_as_xyz
  1  'x, y, z'
loop_
 _atom_site_type_symbol
 _atom_site_label
 _atom_site_symmetry_multiplicity
 _atom_site_fract_x
 _atom_site_fract_y
 _atom_site_fract_z
 _atom_site_occupancy
  Dy  Dy0  1  0.672464  0.172462  0.500000  1
  Y  Y1  1  0.327269  0.827268  0.500000  1
  Y  Y2  1  0.172887  0.327196  0.500000  1
  Y  Y3  1  0.827195  0.672888  0.500000  1
  In  In4  1  0.499946  0.500097  0.000000  1
  In  In5  1  0.000097  0.999945  0.000000  1
  Pd  Pd6  1  0.127046  0.627046  0.000000  1
  Pd  Pd7  1  0.871344  0.371344  0.000000  1
  Pd  Pd8  1  0.627774  0.873980  0.000000  1
  Pd  Pd9  1  0.373979  0.127773  0.000000  1
