# generated using pymatgen
data_TmMg(Ga2Ni)2
_symmetry_space_group_name_H-M   'P 1'
_cell_length_a   5.22388319
_cell_length_b   5.22388446
_cell_length_c   6.72370600
_cell_angle_alpha   90.00000000
_cell_angle_beta   90.00000000
_cell_angle_gamma   134.49007287
_symmetry_Int_Tables_number   1
_chemical_formula_structural   TmMg(Ga2Ni)2
_chemical_formula_sum   'Tm1 Mg1 Ga4 Ni2'
_cell_volume   130.89158322
_cell_formula_units_Z   1
loop_
 _symmetry_equiv_pos_site_id
 _symmetry_equiv_pos_as_xyz
  1  'x, y, z'
loop_
 _atom_site_type_symbol
 _atom_site_label
 _atom_site_symmetry_multiplicity
 _atom_site_fract_x
 _atom_site_fract_y
 _atom_site_fract_z
 _atom_site_occupancy
  Tm  Tm0  1  0.430975  0.569025  0.750000  1
  Mg  Mg1  1  0.571028  0.428972  0.250000  1
  Ga  Ga2  1  0.855974  0.144026  0.056210  1
  Ga  Ga3  1  0.141350  0.858650  0.953579  1
  Ga  Ga4  1  0.141350  0.858650  0.546421  1
  Ga  Ga5  1  0.855974  0.144026  0.443790  1
  Ni  Ni6  1  0.291478  0.708522  0.250000  1
  Ni  Ni7  1  0.711873  0.288127  0.750000  1
