# generated using pymatgen
data_SmCo2MoP3Rh2
_symmetry_space_group_name_H-M   'P 1'
_cell_length_a   3.83388200
_cell_length_b   10.69095600
_cell_length_c   12.31283900
_cell_angle_alpha   90.00000000
_cell_angle_beta   90.00000000
_cell_angle_gamma   90.00000000
_symmetry_Int_Tables_number   1
_chemical_formula_structural   SmCo2MoP3Rh2
_chemical_formula_sum   'Sm4 Co8 Mo4 P12 Rh8'
_cell_volume   504.67696757
_cell_formula_units_Z   4
loop_
 _symmetry_equiv_pos_site_id
 _symmetry_equiv_pos_as_xyz
  1  'x, y, z'
loop_
 _atom_site_type_symbol
 _atom_site_label
 _atom_site_symmetry_multiplicity
 _atom_site_fract_x
 _atom_site_fract_y
 _atom_site_fract_z
 _atom_site_occupancy
  Sm  Sm0  1  0.250000  0.581648  0.708431  1
  Sm  Sm1  1  0.250000  0.918352  0.208431  1
  Sm  Sm2  1  0.750000  0.418352  0.291569  1
  Sm  Sm3  1  0.750000  0.081648  0.791569  1
  Co  Co4  1  0.250000  0.885530  0.694408  1
  Co  Co5  1  0.250000  0.614470  0.194408  1
  Co  Co6  1  0.750000  0.114470  0.305592  1
  Co  Co7  1  0.750000  0.385530  0.805592  1
  Co  Co8  1  0.250000  0.465003  0.935186  1
  Co  Co9  1  0.250000  0.034997  0.435186  1
  Co  Co10  1  0.750000  0.534997  0.064814  1
  Co  Co11  1  0.750000  0.965003  0.564814  1
  Mo  Mo12  1  0.250000  0.705025  0.986506  1
  Mo  Mo13  1  0.250000  0.794975  0.486506  1
  Mo  Mo14  1  0.750000  0.294975  0.013494  1
  Mo  Mo15  1  0.750000  0.205025  0.513494  1
  P  P16  1  0.250000  0.428509  0.110811  1
  P  P17  1  0.250000  0.071491  0.610811  1
  P  P18  1  0.750000  0.571491  0.889189  1
  P  P19  1  0.750000  0.928509  0.389189  1
  P  P20  1  0.250000  0.274718  0.870046  1
  P  P21  1  0.250000  0.225282  0.370046  1
  P  P22  1  0.750000  0.725282  0.129954  1
  P  P23  1  0.750000  0.774718  0.629954  1
  P  P24  1  0.250000  0.602182  0.386114  1
  P  P25  1  0.250000  0.897818  0.886114  1
  P  P26  1  0.750000  0.397818  0.613886  1
  P  P27  1  0.750000  0.102182  0.113886  1
  Rh  Rh28  1  0.250000  0.404546  0.484362  1
  Rh  Rh29  1  0.250000  0.095454  0.984362  1
  Rh  Rh30  1  0.750000  0.595454  0.515638  1
  Rh  Rh31  1  0.750000  0.904546  0.015638  1
  Rh  Rh32  1  0.250000  0.225083  0.180905  1
  Rh  Rh33  1  0.250000  0.274917  0.680905  1
  Rh  Rh34  1  0.750000  0.774917  0.819095  1
  Rh  Rh35  1  0.750000  0.725083  0.319095  1
