# generated using pymatgen
data_Er10In8RhAu3
_symmetry_space_group_name_H-M   'P 1'
_cell_length_a   3.63732700
_cell_length_b   8.14084571
_cell_length_c   18.25939356
_cell_angle_alpha   89.94162769
_cell_angle_beta   90.00000000
_cell_angle_gamma   90.00000000
_symmetry_Int_Tables_number   1
_chemical_formula_structural   Er10In8RhAu3
_chemical_formula_sum   'Er10 In8 Rh1 Au3'
_cell_volume   540.67712333
_cell_formula_units_Z   1
loop_
 _symmetry_equiv_pos_site_id
 _symmetry_equiv_pos_as_xyz
  1  'x, y, z'
loop_
 _atom_site_type_symbol
 _atom_site_label
 _atom_site_symmetry_multiplicity
 _atom_site_fract_x
 _atom_site_fract_y
 _atom_site_fract_z
 _atom_site_occupancy
  Er  Er0  1  0.000000  0.500763  0.499164  1
  Er  Er1  1  0.000000  0.000569  0.000892  1
  Er  Er2  1  0.000000  0.758788  0.283417  1
  Er  Er3  1  0.000000  0.263242  0.716836  1
  Er  Er4  1  0.000000  0.762092  0.782254  1
  Er  Er5  1  0.000000  0.224271  0.222410  1
  Er  Er6  1  0.000000  0.619197  0.081014  1
  Er  Er7  1  0.000000  0.380863  0.920327  1
  Er  Er8  1  0.000000  0.879776  0.579287  1
  Er  Er9  1  0.000000  0.112618  0.413319  1
  In  In10  1  0.500000  0.711004  0.934213  1
  In  In11  1  0.500000  0.289466  0.067464  1
  In  In12  1  0.500000  0.791268  0.432038  1
  In  In13  1  0.500000  0.209975  0.564437  1
  In  In14  1  0.500000  0.580300  0.646407  1
  In  In15  1  0.500000  0.416504  0.352053  1
  In  In16  1  0.500000  0.922041  0.149379  1
  In  In17  1  0.500000  0.081378  0.853026  1
  Rh  Rh18  1  0.500000  0.024988  0.304540  1
  Au  Au19  1  0.500000  0.526119  0.197946  1
  Au  Au20  1  0.500000  0.472263  0.803464  1
  Au  Au21  1  0.500000  0.972515  0.696112  1
