# generated using pymatgen
data_Er4Al18RuPt2Rh3
_symmetry_space_group_name_H-M   'P 1'
_cell_length_a   7.55898144
_cell_length_b   7.55898142
_cell_length_c   9.43887459
_cell_angle_alpha   89.93751026
_cell_angle_beta   89.93750973
_cell_angle_gamma   119.54438561
_symmetry_Int_Tables_number   1
_chemical_formula_structural   Er4Al18RuPt2Rh3
_chemical_formula_sum   'Er4 Al18 Ru1 Pt2 Rh3'
_cell_volume   469.19352506
_cell_formula_units_Z   1
loop_
 _symmetry_equiv_pos_site_id
 _symmetry_equiv_pos_as_xyz
  1  'x, y, z'
loop_
 _atom_site_type_symbol
 _atom_site_label
 _atom_site_symmetry_multiplicity
 _atom_site_fract_x
 _atom_site_fract_y
 _atom_site_fract_z
 _atom_site_occupancy
  Er  Er0  1  0.994773  0.670318  0.749580  1
  Er  Er1  1  0.005227  0.329682  0.250420  1
  Er  Er2  1  0.670318  0.994773  0.749580  1
  Er  Er3  1  0.329682  0.005227  0.250420  1
  Al  Al4  1  0.125178  0.125178  0.749819  1
  Al  Al5  1  0.874822  0.874822  0.250181  1
  Al  Al6  1  0.000737  0.329802  0.576903  1
  Al  Al7  1  0.999263  0.670198  0.423097  1
  Al  Al8  1  0.000469  0.665146  0.075107  1
  Al  Al9  1  0.334854  0.999531  0.924893  1
  Al  Al10  1  0.999531  0.334854  0.924893  1
  Al  Al11  1  0.665146  0.000469  0.075107  1
  Al  Al12  1  0.670198  0.999263  0.423097  1
  Al  Al13  1  0.329802  0.000737  0.576903  1
  Al  Al14  1  0.332176  0.332176  0.051885  1
  Al  Al15  1  0.667824  0.667824  0.948115  1
  Al  Al16  1  0.671302  0.671302  0.556023  1
  Al  Al17  1  0.328698  0.328698  0.443977  1
  Al  Al18  1  0.340442  0.547762  0.753454  1
  Al  Al19  1  0.659558  0.452238  0.246546  1
  Al  Al20  1  0.547762  0.340442  0.753454  1
  Al  Al21  1  0.452238  0.659558  0.246546  1
  Ru  Ru22  1  0.000000  0.000000  0.500000  1
  Pt  Pt23  1  0.672244  0.327756  0.500000  1
  Pt  Pt24  1  0.327756  0.672244  0.500000  1
  Rh  Rh25  1  0.327909  0.672091  0.000000  1
  Rh  Rh26  1  0.672091  0.327909  0.000000  1
  Rh  Rh27  1  0.000000  0.000000  0.000000  1
