# generated using pymatgen
data_Sb9Au
_symmetry_space_group_name_H-M   'P 1'
_cell_length_a   17.20560238
_cell_length_b   17.20560224
_cell_length_c   17.20560300
_cell_angle_alpha   14.64772170
_cell_angle_beta   14.64772356
_cell_angle_gamma   14.64772491
_symmetry_Int_Tables_number   1
_chemical_formula_structural   Sb9Au
_chemical_formula_sum   'Sb9 Au1'
_cell_volume   283.60369922
_cell_formula_units_Z   1
loop_
 _symmetry_equiv_pos_site_id
 _symmetry_equiv_pos_as_xyz
  1  'x, y, z'
loop_
 _atom_site_type_symbol
 _atom_site_label
 _atom_site_symmetry_multiplicity
 _atom_site_fract_x
 _atom_site_fract_y
 _atom_site_fract_z
 _atom_site_occupancy
  Sb  Sb0  1  0.693472  0.693472  0.693472  1
  Sb  Sb1  1  0.500000  0.500000  0.500000  1
  Sb  Sb2  1  0.096987  0.096987  0.096987  1
  Sb  Sb3  1  0.306528  0.306528  0.306528  1
  Sb  Sb4  1  0.903013  0.903013  0.903013  1
  Sb  Sb5  1  0.603217  0.603217  0.603217  1
  Sb  Sb6  1  0.201402  0.201402  0.201402  1
  Sb  Sb7  1  0.798598  0.798598  0.798598  1
  Sb  Sb8  1  0.396783  0.396783  0.396783  1
  Au  Au9  1  0.000000  0.000000  0.000000  1
