# generated using pymatgen
data_Y3ThReOs7
_symmetry_space_group_name_H-M   'P 1'
_cell_length_a   5.39359000
_cell_length_b   5.31007935
_cell_length_c   9.07156949
_cell_angle_alpha   89.66547719
_cell_angle_beta   90.00000000
_cell_angle_gamma   120.52161702
_symmetry_Int_Tables_number   1
_chemical_formula_structural   Y3ThReOs7
_chemical_formula_sum   'Y3 Th1 Re1 Os7'
_cell_volume   223.80780428
_cell_formula_units_Z   1
loop_
 _symmetry_equiv_pos_site_id
 _symmetry_equiv_pos_as_xyz
  1  'x, y, z'
loop_
 _atom_site_type_symbol
 _atom_site_label
 _atom_site_symmetry_multiplicity
 _atom_site_fract_x
 _atom_site_fract_y
 _atom_site_fract_z
 _atom_site_occupancy
  Y  Y0  1  0.335184  0.670369  0.062261  1
  Y  Y1  1  0.671558  0.343115  0.567934  1
  Y  Y2  1  0.669525  0.339049  0.936709  1
  Th  Th3  1  0.337073  0.674145  0.434180  1
  Re  Re4  1  0.158462  0.316924  0.753430  1
  Os  Os5  1  0.009762  0.019525  0.000257  1
  Os  Os6  1  0.014870  0.029741  0.500199  1
  Os  Os7  1  0.820938  0.641877  0.247306  1
  Os  Os8  1  0.171068  0.819658  0.752129  1
  Os  Os9  1  0.648591  0.819658  0.752129  1
  Os  Os10  1  0.331468  0.162969  0.246733  1
  Os  Os11  1  0.831500  0.162969  0.246733  1
