# generated using pymatgen
data_Pu6Hf2BiSb9
_symmetry_space_group_name_H-M   'P 1'
_cell_length_a   9.31232900
_cell_length_b   9.31232883
_cell_length_c   6.28175400
_cell_angle_alpha   90.00000000
_cell_angle_beta   90.00000000
_cell_angle_gamma   120.00000415
_symmetry_Int_Tables_number   1
_chemical_formula_structural   Pu6Hf2BiSb9
_chemical_formula_sum   'Pu6 Hf2 Bi1 Sb9'
_cell_volume   471.76764510
_cell_formula_units_Z   1
loop_
 _symmetry_equiv_pos_site_id
 _symmetry_equiv_pos_as_xyz
  1  'x, y, z'
loop_
 _atom_site_type_symbol
 _atom_site_label
 _atom_site_symmetry_multiplicity
 _atom_site_fract_x
 _atom_site_fract_y
 _atom_site_fract_z
 _atom_site_occupancy
  Pu  Pu0  1  0.618923  0.003738  0.252532  1
  Pu  Pu1  1  0.384815  0.003738  0.747468  1
  Pu  Pu2  1  0.996262  0.615185  0.252532  1
  Pu  Pu3  1  0.996262  0.381077  0.747468  1
  Pu  Pu4  1  0.384815  0.381077  0.252532  1
  Pu  Pu5  1  0.618923  0.615185  0.747468  1
  Hf  Hf6  1  0.000000  0.000000  0.000000  1
  Hf  Hf7  1  0.000000  0.000000  0.500000  1
  Bi  Bi8  1  0.333333  0.666667  0.000000  1
  Sb  Sb9  1  0.267246  0.999119  0.249363  1
  Sb  Sb10  1  0.731873  0.999119  0.750637  1
  Sb  Sb11  1  0.000881  0.268127  0.249363  1
  Sb  Sb12  1  0.000881  0.732754  0.750637  1
  Sb  Sb13  1  0.731873  0.732754  0.249363  1
  Sb  Sb14  1  0.267246  0.268127  0.750637  1
  Sb  Sb15  1  0.666667  0.333333  0.000000  1
  Sb  Sb16  1  0.666667  0.333333  0.500000  1
  Sb  Sb17  1  0.333333  0.666667  0.500000  1
