# generated using pymatgen
data_NdTh3(SiTc2)8
_symmetry_space_group_name_H-M   'P 1'
_cell_length_a   4.17525600
_cell_length_b   7.17524572
_cell_length_c   15.70081831
_cell_angle_alpha   89.90296140
_cell_angle_beta   90.00000000
_cell_angle_gamma   90.00000000
_symmetry_Int_Tables_number   1
_chemical_formula_structural   NdTh3(SiTc2)8
_chemical_formula_sum   'Nd1 Th3 Si8 Tc16'
_cell_volume   470.37209850
_cell_formula_units_Z   1
loop_
 _symmetry_equiv_pos_site_id
 _symmetry_equiv_pos_as_xyz
  1  'x, y, z'
loop_
 _atom_site_type_symbol
 _atom_site_label
 _atom_site_symmetry_multiplicity
 _atom_site_fract_x
 _atom_site_fract_y
 _atom_site_fract_z
 _atom_site_occupancy
  Nd  Nd0  1  0.500000  0.911157  0.617575  1
  Th  Th1  1  0.000000  0.591859  0.116781  1
  Th  Th2  1  0.000000  0.409427  0.882238  1
  Th  Th3  1  0.500000  0.091181  0.384186  1
  Si  Si4  1  0.000000  0.825713  0.474077  1
  Si  Si5  1  0.000000  0.172667  0.527753  1
  Si  Si6  1  0.500000  0.326588  0.026670  1
  Si  Si7  1  0.500000  0.673435  0.972700  1
  Si  Si8  1  0.000000  0.310520  0.273401  1
  Si  Si9  1  0.000000  0.693254  0.724628  1
  Si  Si10  1  0.500000  0.811325  0.226758  1
  Si  Si11  1  0.500000  0.188419  0.772930  1
  Tc  Tc12  1  0.000000  0.141331  0.051227  1
  Tc  Tc13  1  0.000000  0.859091  0.948886  1
  Tc  Tc14  1  0.500000  0.639311  0.447980  1
  Tc  Tc15  1  0.500000  0.359127  0.551420  1
  Tc  Tc16  1  0.000000  0.736191  0.320464  1
  Tc  Tc17  1  0.000000  0.265432  0.680572  1
  Tc  Tc18  1  0.500000  0.235801  0.179777  1
  Tc  Tc19  1  0.500000  0.762716  0.819791  1
  Tc  Tc20  1  0.000000  0.430537  0.420724  1
  Tc  Tc21  1  0.000000  0.563980  0.578868  1
  Tc  Tc22  1  0.500000  0.930628  0.079185  1
  Tc  Tc23  1  0.500000  0.068746  0.920849  1
  Tc  Tc24  1  0.000000  0.003882  0.205864  1
  Tc  Tc25  1  0.000000  0.997054  0.794421  1
  Tc  Tc26  1  0.500000  0.503546  0.294144  1
  Tc  Tc27  1  0.500000  0.497082  0.706132  1
