# generated using pymatgen
data_Np4Al12Ag
_symmetry_space_group_name_H-M   'P 1'
_cell_length_a   7.50391253
_cell_length_b   7.50391206
_cell_length_c   7.50391200
_cell_angle_alpha   109.47121237
_cell_angle_beta   109.47121110
_cell_angle_gamma   109.47122763
_symmetry_Int_Tables_number   1
_chemical_formula_structural   Np4Al12Ag
_chemical_formula_sum   'Np4 Al12 Ag1'
_cell_volume   325.26804449
_cell_formula_units_Z   1
loop_
 _symmetry_equiv_pos_site_id
 _symmetry_equiv_pos_as_xyz
  1  'x, y, z'
loop_
 _atom_site_type_symbol
 _atom_site_label
 _atom_site_symmetry_multiplicity
 _atom_site_fract_x
 _atom_site_fract_y
 _atom_site_fract_z
 _atom_site_occupancy
  Np  Np0  1  0.500000  0.500000  0.500000  1
  Np  Np1  1  0.000000  0.000000  0.500000  1
  Np  Np2  1  0.000000  0.500000  0.000000  1
  Np  Np3  1  0.500000  0.000000  0.000000  1
  Al  Al4  1  0.500000  0.750000  0.250000  1
  Al  Al5  1  0.500000  0.250000  0.750000  1
  Al  Al6  1  0.250000  0.500000  0.750000  1
  Al  Al7  1  0.750000  0.500000  0.250000  1
  Al  Al8  1  0.750000  0.250000  0.500000  1
  Al  Al9  1  0.250000  0.750000  0.500000  1
  Al  Al10  1  0.000000  0.299684  0.299684  1
  Al  Al11  1  0.000000  0.700316  0.700316  1
  Al  Al12  1  0.299684  0.000000  0.299684  1
  Al  Al13  1  0.700316  0.000000  0.700316  1
  Al  Al14  1  0.299684  0.299684  0.000000  1
  Al  Al15  1  0.700316  0.700316  0.000000  1
  Ag  Ag16  1  0.000000  0.000000  0.000000  1
