# generated using pymatgen
data_Dy4Bi5PRh7
_symmetry_space_group_name_H-M   'P 1'
_cell_length_a   7.70654883
_cell_length_b   7.70670494
_cell_length_c   7.70670557
_cell_angle_alpha   106.11421974
_cell_angle_beta   111.17434826
_cell_angle_gamma   111.17434983
_symmetry_Int_Tables_number   1
_chemical_formula_structural   Dy4Bi5PRh7
_chemical_formula_sum   'Dy4 Bi5 P1 Rh7'
_cell_volume   351.45963498
_cell_formula_units_Z   1
loop_
 _symmetry_equiv_pos_site_id
 _symmetry_equiv_pos_as_xyz
  1  'x, y, z'
loop_
 _atom_site_type_symbol
 _atom_site_label
 _atom_site_symmetry_multiplicity
 _atom_site_fract_x
 _atom_site_fract_y
 _atom_site_fract_z
 _atom_site_occupancy
  Dy  Dy0  1  0.000002  0.981657  0.533905  1
  Dy  Dy1  1  0.000002  0.533905  0.981657  1
  Dy  Dy2  1  0.447749  0.981651  0.981651  1
  Dy  Dy3  1  0.552248  0.533906  0.533906  1
  Bi  Bi4  1  0.689385  0.707182  0.017803  1
  Bi  Bi5  1  0.310619  0.017803  0.328415  1
  Bi  Bi6  1  0.999998  0.298784  0.298784  1
  Bi  Bi7  1  0.310619  0.328415  0.017803  1
  Bi  Bi8  1  0.689385  0.017803  0.707182  1
  P  P9  1  0.999999  0.636118  0.636118  1
  Rh  Rh10  1  0.759965  0.270397  0.510440  1
  Rh  Rh11  1  0.759965  0.510440  0.270397  1
  Rh  Rh12  1  0.499998  0.264490  0.764474  1
  Rh  Rh13  1  0.240035  0.510434  0.750472  1
  Rh  Rh14  1  0.240035  0.750472  0.510434  1
  Rh  Rh15  1  0.499998  0.764474  0.264490  1
  Rh  Rh16  1  0.999999  0.892073  0.892073  1
