# generated using pymatgen
data_Pr19Ho(Ga2Sn)4
_symmetry_space_group_name_H-M   'P 1'
_cell_length_a   8.09728600
_cell_length_b   8.09728600
_cell_length_c   14.73511100
_cell_angle_alpha   90.00000000
_cell_angle_beta   90.00000000
_cell_angle_gamma   90.00000000
_symmetry_Int_Tables_number   1
_chemical_formula_structural   Pr19Ho(Ga2Sn)4
_chemical_formula_sum   'Pr19 Ho1 Ga8 Sn4'
_cell_volume   966.12288557
_cell_formula_units_Z   1
loop_
 _symmetry_equiv_pos_site_id
 _symmetry_equiv_pos_as_xyz
  1  'x, y, z'
loop_
 _atom_site_type_symbol
 _atom_site_label
 _atom_site_symmetry_multiplicity
 _atom_site_fract_x
 _atom_site_fract_y
 _atom_site_fract_z
 _atom_site_occupancy
  Pr  Pr0  1  0.824050  0.837908  0.607416  1
  Pr  Pr1  1  0.177702  0.839772  0.106397  1
  Pr  Pr2  1  0.159793  0.821700  0.393661  1
  Pr  Pr3  1  0.840207  0.178300  0.393661  1
  Pr  Pr4  1  0.678300  0.659793  0.393661  1
  Pr  Pr5  1  0.662092  0.324050  0.607416  1
  Pr  Pr6  1  0.337908  0.675950  0.607416  1
  Pr  Pr7  1  0.000000  0.500000  0.224231  1
  Pr  Pr8  1  0.660228  0.677702  0.106397  1
  Pr  Pr9  1  0.676204  0.339600  0.891950  1
  Pr  Pr10  1  0.839600  0.823796  0.891950  1
  Pr  Pr11  1  0.321700  0.340207  0.393661  1
  Pr  Pr12  1  0.175950  0.162092  0.607416  1
  Pr  Pr13  1  0.822298  0.160228  0.106397  1
  Pr  Pr14  1  0.323796  0.660400  0.891950  1
  Pr  Pr15  1  0.339772  0.322298  0.106397  1
  Pr  Pr16  1  0.500000  0.000000  0.274557  1
  Pr  Pr17  1  0.160400  0.176204  0.891950  1
  Pr  Pr18  1  0.500000  0.000000  0.773879  1
  Ho  Ho19  1  0.000000  0.500000  0.732590  1
  Ga  Ga20  1  0.622142  0.377915  0.250237  1
  Ga  Ga21  1  0.120175  0.870611  0.748067  1
  Ga  Ga22  1  0.370611  0.379825  0.748067  1
  Ga  Ga23  1  0.377858  0.622085  0.250237  1
  Ga  Ga24  1  0.877915  0.877858  0.250237  1
  Ga  Ga25  1  0.629389  0.620175  0.748067  1
  Ga  Ga26  1  0.879825  0.129389  0.748067  1
  Ga  Ga27  1  0.122085  0.122142  0.250237  1
  Sn  Sn28  1  0.000000  0.500000  0.509662  1
  Sn  Sn29  1  0.500000  0.000000  0.497147  1
  Sn  Sn30  1  0.500000  0.000000  0.995935  1
  Sn  Sn31  1  0.000000  0.500000  0.001084  1
