# generated using pymatgen
data_Ba2Pu2O7
_symmetry_space_group_name_H-M   'P 1'
_cell_length_a   8.09930803
_cell_length_b   8.09930839
_cell_length_c   8.09930806
_cell_angle_alpha   119.60498073
_cell_angle_beta   118.80586751
_cell_angle_gamma   91.38320464
_symmetry_Int_Tables_number   1
_chemical_formula_structural   Ba2Pu2O7
_chemical_formula_sum   'Ba4 Pu4 O14'
_cell_volume   380.05898292
_cell_formula_units_Z   2
loop_
 _symmetry_equiv_pos_site_id
 _symmetry_equiv_pos_as_xyz
  1  'x, y, z'
loop_
 _atom_site_type_symbol
 _atom_site_label
 _atom_site_symmetry_multiplicity
 _atom_site_fract_x
 _atom_site_fract_y
 _atom_site_fract_z
 _atom_site_occupancy
  Ba  Ba0  1  0.000000  0.000000  0.000000  1
  Ba  Ba1  1  0.500000  0.500000  0.000000  1
  Ba  Ba2  1  0.500000  0.000000  0.000000  1
  Ba  Ba3  1  0.500000  0.500000  0.500000  1
  Pu  Pu4  1  0.000000  0.000000  0.500000  1
  Pu  Pu5  1  0.000000  0.500000  0.500000  1
  Pu  Pu6  1  0.000000  0.500000  0.000000  1
  Pu  Pu7  1  0.500000  0.000000  0.500000  1
  O  O8  1  0.909338  0.750000  0.159338  1
  O  O9  1  0.685604  0.915352  0.363565  1
  O  O10  1  0.620208  0.907722  0.712486  1
  O  O11  1  0.685604  0.322039  0.770252  1
  O  O12  1  0.314396  0.677961  0.229748  1
  O  O13  1  0.314396  0.084648  0.636435  1
  O  O14  1  0.695237  0.407722  0.287514  1
  O  O15  1  0.051787  0.822039  0.636435  1
  O  O16  1  0.051787  0.415352  0.229748  1
  O  O17  1  0.090662  0.250000  0.840662  1
  O  O18  1  0.379792  0.092278  0.287514  1
  O  O19  1  0.948213  0.177961  0.363565  1
  O  O20  1  0.948213  0.584648  0.770252  1
  O  O21  1  0.304763  0.592278  0.712486  1
