# generated using pymatgen
data_TmTiFeB6
_symmetry_space_group_name_H-M   'P 1'
_cell_length_a   3.30998700
_cell_length_b   8.79173700
_cell_length_c   11.11762300
_cell_angle_alpha   90.00000000
_cell_angle_beta   90.00000000
_cell_angle_gamma   90.00000000
_symmetry_Int_Tables_number   1
_chemical_formula_structural   TmTiFeB6
_chemical_formula_sum   'Tm4 Ti4 Fe4 B24'
_cell_volume   323.52877920
_cell_formula_units_Z   4
loop_
 _symmetry_equiv_pos_site_id
 _symmetry_equiv_pos_as_xyz
  1  'x, y, z'
loop_
 _atom_site_type_symbol
 _atom_site_label
 _atom_site_symmetry_multiplicity
 _atom_site_fract_x
 _atom_site_fract_y
 _atom_site_fract_z
 _atom_site_occupancy
  Tm  Tm0  1  0.000000  0.821593  0.085842  1
  Tm  Tm1  1  0.000000  0.178407  0.914158  1
  Tm  Tm2  1  0.000000  0.321593  0.414158  1
  Tm  Tm3  1  0.000000  0.678407  0.585842  1
  Ti  Ti4  1  0.000000  0.444710  0.126529  1
  Ti  Ti5  1  0.000000  0.555290  0.873471  1
  Ti  Ti6  1  0.000000  0.944710  0.373471  1
  Ti  Ti7  1  0.000000  0.055290  0.626529  1
  Fe  Fe8  1  0.000000  0.143961  0.183404  1
  Fe  Fe9  1  0.000000  0.856039  0.816596  1
  Fe  Fe10  1  0.000000  0.643961  0.316596  1
  Fe  Fe11  1  0.000000  0.356039  0.683404  1
  B  B12  1  0.500000  0.055607  0.067658  1
  B  B13  1  0.500000  0.944393  0.932342  1
  B  B14  1  0.500000  0.555607  0.432342  1
  B  B15  1  0.500000  0.444393  0.567658  1
  B  B16  1  0.500000  0.254239  0.082796  1
  B  B17  1  0.500000  0.745761  0.917204  1
  B  B18  1  0.500000  0.754239  0.417204  1
  B  B19  1  0.500000  0.245761  0.582796  1
  B  B20  1  0.500000  0.295889  0.235365  1
  B  B21  1  0.500000  0.704111  0.764635  1
  B  B22  1  0.500000  0.795889  0.264635  1
  B  B23  1  0.500000  0.204111  0.735365  1
  B  B24  1  0.500000  0.128969  0.317625  1
  B  B25  1  0.500000  0.871031  0.682375  1
  B  B26  1  0.500000  0.628969  0.182375  1
  B  B27  1  0.500000  0.371031  0.817625  1
  B  B28  1  0.500000  0.483347  0.286016  1
  B  B29  1  0.500000  0.516653  0.713984  1
  B  B30  1  0.500000  0.983347  0.213984  1
  B  B31  1  0.500000  0.016653  0.786016  1
  B  B32  1  0.500000  0.097713  0.474012  1
  B  B33  1  0.500000  0.902287  0.525988  1
  B  B34  1  0.500000  0.597713  0.025988  1
  B  B35  1  0.500000  0.402287  0.974012  1
