# generated using pymatgen
data_Tm16MgHg3Rh4
_symmetry_space_group_name_H-M   'P 1'
_cell_length_a   9.50971975
_cell_length_b   9.45818553
_cell_length_c   9.45818500
_cell_angle_alpha   59.99999837
_cell_angle_beta   60.17909978
_cell_angle_gamma   60.17910373
_symmetry_Int_Tables_number   1
_chemical_formula_structural   Tm16MgHg3Rh4
_chemical_formula_sum   'Tm16 Mg1 Hg3 Rh4'
_cell_volume   603.16863184
_cell_formula_units_Z   1
loop_
 _symmetry_equiv_pos_site_id
 _symmetry_equiv_pos_as_xyz
  1  'x, y, z'
loop_
 _atom_site_type_symbol
 _atom_site_label
 _atom_site_symmetry_multiplicity
 _atom_site_fract_x
 _atom_site_fract_y
 _atom_site_fract_z
 _atom_site_occupancy
  Tm  Tm0  1  0.601668  0.598897  0.598897  1
  Tm  Tm1  1  0.601668  0.598897  0.200539  1
  Tm  Tm2  1  0.601668  0.200539  0.598897  1
  Tm  Tm3  1  0.188893  0.603702  0.603702  1
  Tm  Tm4  1  0.061565  0.438839  0.438839  1
  Tm  Tm5  1  0.435767  0.063688  0.063688  1
  Tm  Tm6  1  0.435767  0.063688  0.436858  1
  Tm  Tm7  1  0.061565  0.438839  0.060756  1
  Tm  Tm8  1  0.435767  0.436858  0.063688  1
  Tm  Tm9  1  0.061565  0.060756  0.438839  1
  Tm  Tm10  1  0.183817  0.814218  0.814218  1
  Tm  Tm11  1  0.812505  0.186423  0.186423  1
  Tm  Tm12  1  0.812505  0.186423  0.814648  1
  Tm  Tm13  1  0.183817  0.814218  0.187746  1
  Tm  Tm14  1  0.812505  0.814648  0.186423  1
  Tm  Tm15  1  0.183817  0.187746  0.814218  1
  Mg  Mg16  1  0.532026  0.822658  0.822658  1
  Hg  Hg17  1  0.832180  0.836340  0.836340  1
  Hg  Hg18  1  0.832180  0.836340  0.495140  1
  Hg  Hg19  1  0.832180  0.495140  0.836340  1
  Rh  Rh20  1  0.391466  0.394612  0.394612  1
  Rh  Rh21  1  0.391466  0.394612  0.819309  1
  Rh  Rh22  1  0.391466  0.819309  0.394612  1
  Rh  Rh23  1  0.822173  0.392609  0.392609  1
