# generated using pymatgen
data_Dy10Y6CdIn3Ir4
_symmetry_space_group_name_H-M   'P 1'
_cell_length_a   9.65963308
_cell_length_b   9.67723186
_cell_length_c   9.67723200
_cell_angle_alpha   59.99999952
_cell_angle_beta   59.93971361
_cell_angle_gamma   59.93971178
_symmetry_Int_Tables_number   1
_chemical_formula_structural   Dy10Y6CdIn3Ir4
_chemical_formula_sum   'Dy10 Y6 Cd1 In3 Ir4'
_cell_volume   639.07463583
_cell_formula_units_Z   1
loop_
 _symmetry_equiv_pos_site_id
 _symmetry_equiv_pos_as_xyz
  1  'x, y, z'
loop_
 _atom_site_type_symbol
 _atom_site_label
 _atom_site_symmetry_multiplicity
 _atom_site_fract_x
 _atom_site_fract_y
 _atom_site_fract_z
 _atom_site_occupancy
  Dy  Dy0  1  0.349563  0.349475  0.349475  1
  Dy  Dy1  1  0.349563  0.349475  0.951487  1
  Dy  Dy2  1  0.349563  0.951487  0.349475  1
  Dy  Dy3  1  0.951193  0.349603  0.349603  1
  Dy  Dy4  1  0.809127  0.190740  0.190740  1
  Dy  Dy5  1  0.189940  0.810167  0.810167  1
  Dy  Dy6  1  0.189940  0.810167  0.189726  1
  Dy  Dy7  1  0.809127  0.190740  0.809394  1
  Dy  Dy8  1  0.189940  0.189726  0.810167  1
  Dy  Dy9  1  0.809127  0.809394  0.190740  1
  Y  Y10  1  0.939442  0.561733  0.561733  1
  Y  Y11  1  0.561782  0.938777  0.938777  1
  Y  Y12  1  0.561782  0.938777  0.560665  1
  Y  Y13  1  0.939442  0.561733  0.937092  1
  Y  Y14  1  0.561782  0.560665  0.938777  1
  Y  Y15  1  0.939442  0.937092  0.561733  1
  Cd  Cd16  1  0.252889  0.582371  0.582371  1
  In  In17  1  0.582308  0.583597  0.583597  1
  In  In18  1  0.582308  0.583597  0.250500  1
  In  In19  1  0.582308  0.250500  0.583597  1
  Ir  Ir20  1  0.141668  0.141341  0.141341  1
  Ir  Ir21  1  0.141668  0.141341  0.575651  1
  Ir  Ir22  1  0.141668  0.575651  0.141341  1
  Ir  Ir23  1  0.574431  0.141857  0.141857  1
