# generated using pymatgen
data_Eu2B4IrRh4
_symmetry_space_group_name_H-M   'P 1'
_cell_length_a   7.58869449
_cell_length_b   6.31970613
_cell_length_c   5.74592784
_cell_angle_alpha   77.78499299
_cell_angle_beta   54.48125125
_cell_angle_gamma   47.73375723
_symmetry_Int_Tables_number   1
_chemical_formula_structural   Eu2B4IrRh4
_chemical_formula_sum   'Eu2 B4 Ir1 Rh4'
_cell_volume   158.46733153
_cell_formula_units_Z   1
loop_
 _symmetry_equiv_pos_site_id
 _symmetry_equiv_pos_as_xyz
  1  'x, y, z'
loop_
 _atom_site_type_symbol
 _atom_site_label
 _atom_site_symmetry_multiplicity
 _atom_site_fract_x
 _atom_site_fract_y
 _atom_site_fract_z
 _atom_site_occupancy
  Eu  Eu0  1  0.857122  0.857122  0.142878  1
  Eu  Eu1  1  0.142878  0.142878  0.857122  1
  B  B2  1  0.205272  0.534182  0.472858  1
  B  B3  1  0.787688  0.472858  0.534182  1
  B  B4  1  0.534182  0.205272  0.787688  1
  B  B5  1  0.472858  0.787688  0.205272  1
  Ir  Ir6  1  0.750000  0.750000  0.750000  1
  Rh  Rh7  1  0.499315  0.499315  0.000685  1
  Rh  Rh8  1  0.250000  0.250000  0.250000  1
  Rh  Rh9  1  0.000685  0.000685  0.499315  1
  Rh  Rh10  1  0.500000  0.500000  0.500000  1
