# generated using pymatgen
data_La2Tb3Nd(SbO7)2
_symmetry_space_group_name_H-M   'P 1'
_cell_length_a   6.60879494
_cell_length_b   6.59465828
_cell_length_c   7.70987100
_cell_angle_alpha   90.00000000
_cell_angle_beta   90.00000000
_cell_angle_gamma   108.93775542
_symmetry_Int_Tables_number   1
_chemical_formula_structural   La2Tb3Nd(SbO7)2
_chemical_formula_sum   'La2 Tb3 Nd1 Sb2 O14'
_cell_volume   317.82929132
_cell_formula_units_Z   1
loop_
 _symmetry_equiv_pos_site_id
 _symmetry_equiv_pos_as_xyz
  1  'x, y, z'
loop_
 _atom_site_type_symbol
 _atom_site_label
 _atom_site_symmetry_multiplicity
 _atom_site_fract_x
 _atom_site_fract_y
 _atom_site_fract_z
 _atom_site_occupancy
  La  La0  1  0.499989  0.500099  0.498579  1
  La  La1  1  0.499989  0.500099  0.001421  1
  Tb  Tb2  1  0.000983  0.531098  0.250000  1
  Tb  Tb3  1  0.469020  0.999909  0.250000  1
  Tb  Tb4  1  0.998479  0.467460  0.750000  1
  Nd  Nd5  1  0.530830  0.999108  0.750000  1
  Sb  Sb6  1  0.000102  0.999772  0.498087  1
  Sb  Sb7  1  0.000102  0.999772  0.001913  1
  O  O8  1  0.683747  0.931907  0.467751  1
  O  O9  1  0.938747  0.683908  0.530590  1
  O  O10  1  0.683747  0.931907  0.032249  1
  O  O11  1  0.938747  0.683908  0.969410  1
  O  O12  1  0.318313  0.071226  0.521007  1
  O  O13  1  0.060345  0.315953  0.469243  1
  O  O14  1  0.318313  0.071226  0.978993  1
  O  O15  1  0.060345  0.315953  0.030757  1
  O  O16  1  0.941061  0.068930  0.750000  1
  O  O17  1  0.062627  0.927483  0.250000  1
  O  O18  1  0.357581  0.625723  0.750000  1
  O  O19  1  0.637448  0.364972  0.250000  1
  O  O20  1  0.642484  0.366149  0.750000  1
  O  O21  1  0.356998  0.643437  0.250000  1
