# generated using pymatgen
data_Dy4Si4IrRh
_symmetry_space_group_name_H-M   'P 1'
_cell_length_a   5.70887266
_cell_length_b   5.70887285
_cell_length_c   10.05738487
_cell_angle_alpha   63.37032311
_cell_angle_beta   63.37032202
_cell_angle_gamma   43.23119275
_symmetry_Int_Tables_number   1
_chemical_formula_structural   Dy4Si4IrRh
_chemical_formula_sum   'Dy4 Si4 Ir1 Rh1'
_cell_volume   196.69579554
_cell_formula_units_Z   1
loop_
 _symmetry_equiv_pos_site_id
 _symmetry_equiv_pos_as_xyz
  1  'x, y, z'
loop_
 _atom_site_type_symbol
 _atom_site_label
 _atom_site_symmetry_multiplicity
 _atom_site_fract_x
 _atom_site_fract_y
 _atom_site_fract_z
 _atom_site_occupancy
  Dy  Dy0  1  0.004484  0.004484  0.323225  1
  Dy  Dy1  1  0.996229  0.996229  0.675736  1
  Dy  Dy2  1  0.815063  0.815063  0.108600  1
  Dy  Dy3  1  0.184087  0.184087  0.890984  1
  Si  Si4  1  0.641161  0.641161  0.435156  1
  Si  Si5  1  0.358632  0.358632  0.566357  1
  Si  Si6  1  0.509668  0.509668  0.121210  1
  Si  Si7  1  0.489538  0.489538  0.877165  1
  Ir  Ir8  1  0.726162  0.726162  0.627600  1
  Rh  Rh9  1  0.274975  0.274975  0.373969  1
