# generated using pymatgen
data_K3Al4TlI16
_symmetry_space_group_name_H-M   'P 1'
_cell_length_a   8.46000000
_cell_length_b   8.72415177
_cell_length_c   15.86661600
_cell_angle_alpha   89.90586812
_cell_angle_beta   90.00000000
_cell_angle_gamma   90.00000000
_symmetry_Int_Tables_number   1
_chemical_formula_structural   K3Al4TlI16
_chemical_formula_sum   'K3 Al4 Tl1 I16'
_cell_volume   1171.05502096
_cell_formula_units_Z   1
loop_
 _symmetry_equiv_pos_site_id
 _symmetry_equiv_pos_as_xyz
  1  'x, y, z'
loop_
 _atom_site_type_symbol
 _atom_site_label
 _atom_site_symmetry_multiplicity
 _atom_site_fract_x
 _atom_site_fract_y
 _atom_site_fract_z
 _atom_site_occupancy
  K  K0  1  0.250000  0.443747  0.149901  1
  K  K1  1  0.750000  0.945663  0.349611  1
  K  K2  1  0.750000  0.552365  0.847560  1
  Al  Al3  1  0.250000  0.294735  0.892820  1
  Al  Al4  1  0.750000  0.801055  0.604358  1
  Al  Al5  1  0.750000  0.703109  0.103971  1
  Al  Al6  1  0.250000  0.201995  0.399151  1
  Tl  Tl7  1  0.250000  0.054751  0.650636  1
  I  I8  1  0.250000  0.120153  0.021845  1
  I  I9  1  0.750000  0.623019  0.476938  1
  I  I10  1  0.750000  0.877424  0.974874  1
  I  I11  1  0.250000  0.376824  0.527955  1
  I  I12  1  0.250000  0.916892  0.440040  1
  I  I13  1  0.750000  0.418176  0.062841  1
  I  I14  1  0.750000  0.085059  0.561892  1
  I  I15  1  0.250000  0.579023  0.934483  1
  I  I16  1  0.994767  0.762351  0.195169  1
  I  I17  1  0.006046  0.263244  0.307815  1
  I  I18  1  0.494866  0.235820  0.801570  1
  I  I19  1  0.505918  0.741588  0.696010  1
  I  I20  1  0.005134  0.235820  0.801570  1
  I  I21  1  0.994082  0.741588  0.696010  1
  I  I22  1  0.505233  0.762351  0.195169  1
  I  I23  1  0.493954  0.263244  0.307815  1
