# generated using pymatgen
data_Pr3SnPd(RhPb)2
_symmetry_space_group_name_H-M   'P 1'
_cell_length_a   7.87227531
_cell_length_b   7.83891987
_cell_length_c   4.04327000
_cell_angle_alpha   90.00000000
_cell_angle_beta   90.00000000
_cell_angle_gamma   119.80121420
_symmetry_Int_Tables_number   1
_chemical_formula_structural   Pr3SnPd(RhPb)2
_chemical_formula_sum   'Pr3 Sn1 Pd1 Rh2 Pb2'
_cell_volume   216.51417179
_cell_formula_units_Z   1
loop_
 _symmetry_equiv_pos_site_id
 _symmetry_equiv_pos_as_xyz
  1  'x, y, z'
loop_
 _atom_site_type_symbol
 _atom_site_label
 _atom_site_symmetry_multiplicity
 _atom_site_fract_x
 _atom_site_fract_y
 _atom_site_fract_z
 _atom_site_occupancy
  Pr  Pr0  1  0.599973  0.012909  0.500000  1
  Pr  Pr1  1  0.409995  0.403951  0.500000  1
  Pr  Pr2  1  0.990731  0.583363  0.500000  1
  Sn  Sn3  1  0.999575  0.254592  0.000000  1
  Pd  Pd4  1  0.325167  0.656060  0.000000  1
  Rh  Rh5  1  0.000346  0.014078  0.500000  1
  Rh  Rh6  1  0.674718  0.330893  0.000000  1
  Pb  Pb7  1  0.256904  0.000097  0.000000  1
  Pb  Pb8  1  0.742592  0.744058  0.000000  1
