# generated using pymatgen
data_CaHo2(SiPd)3
_symmetry_space_group_name_H-M   'P 1'
_cell_length_a   4.33807000
_cell_length_b   7.43870200
_cell_length_c   21.11349700
_cell_angle_alpha   90.00000000
_cell_angle_beta   90.00000000
_cell_angle_gamma   90.00000000
_symmetry_Int_Tables_number   1
_chemical_formula_structural   CaHo2(SiPd)3
_chemical_formula_sum   'Ca4 Ho8 Si12 Pd12'
_cell_volume   681.32431361
_cell_formula_units_Z   4
loop_
 _symmetry_equiv_pos_site_id
 _symmetry_equiv_pos_as_xyz
  1  'x, y, z'
loop_
 _atom_site_type_symbol
 _atom_site_label
 _atom_site_symmetry_multiplicity
 _atom_site_fract_x
 _atom_site_fract_y
 _atom_site_fract_z
 _atom_site_occupancy
  Ca  Ca0  1  0.250000  0.703776  0.332813  1
  Ca  Ca1  1  0.750000  0.296224  0.667187  1
  Ca  Ca2  1  0.750000  0.203776  0.167187  1
  Ca  Ca3  1  0.250000  0.796224  0.832813  1
  Ho  Ho4  1  0.250000  0.795224  0.166152  1
  Ho  Ho5  1  0.750000  0.204776  0.833848  1
  Ho  Ho6  1  0.750000  0.295224  0.333848  1
  Ho  Ho7  1  0.250000  0.704776  0.666152  1
  Ho  Ho8  1  0.250000  0.706315  0.000652  1
  Ho  Ho9  1  0.750000  0.293685  0.999348  1
  Ho  Ho10  1  0.750000  0.206315  0.499348  1
  Ho  Ho11  1  0.250000  0.793685  0.500652  1
  Si  Si12  1  0.250000  0.087175  0.065407  1
  Si  Si13  1  0.750000  0.912825  0.934593  1
  Si  Si14  1  0.750000  0.587175  0.434593  1
  Si  Si15  1  0.250000  0.412825  0.565407  1
  Si  Si16  1  0.250000  0.087450  0.273984  1
  Si  Si17  1  0.750000  0.912550  0.726016  1
  Si  Si18  1  0.750000  0.587450  0.226016  1
  Si  Si19  1  0.250000  0.412550  0.773984  1
  Si  Si20  1  0.250000  0.090419  0.395446  1
  Si  Si21  1  0.750000  0.909581  0.604554  1
  Si  Si22  1  0.750000  0.590419  0.104554  1
  Si  Si23  1  0.250000  0.409581  0.895446  1
  Pd  Pd24  1  0.250000  0.416099  0.236763  1
  Pd  Pd25  1  0.750000  0.583901  0.763237  1
  Pd  Pd26  1  0.750000  0.916099  0.263237  1
  Pd  Pd27  1  0.250000  0.083901  0.736763  1
  Pd  Pd28  1  0.250000  0.416126  0.437419  1
  Pd  Pd29  1  0.750000  0.583874  0.562581  1
  Pd  Pd30  1  0.750000  0.916126  0.062581  1
  Pd  Pd31  1  0.250000  0.083874  0.937419  1
  Pd  Pd32  1  0.250000  0.419828  0.092097  1
  Pd  Pd33  1  0.750000  0.580172  0.907903  1
  Pd  Pd34  1  0.750000  0.919828  0.407903  1
  Pd  Pd35  1  0.250000  0.080172  0.592097  1
