# generated using pymatgen
data_Ta8Re3RuW4
_symmetry_space_group_name_H-M   'P 1'
_cell_length_a   6.44775500
_cell_length_b   6.44838000
_cell_length_c   6.43772400
_cell_angle_alpha   90.00000000
_cell_angle_beta   90.00099603
_cell_angle_gamma   90.00000000
_symmetry_Int_Tables_number   1
_chemical_formula_structural   Ta8Re3RuW4
_chemical_formula_sum   'Ta8 Re3 Ru1 W4'
_cell_volume   267.66494847
_cell_formula_units_Z   1
loop_
 _symmetry_equiv_pos_site_id
 _symmetry_equiv_pos_as_xyz
  1  'x, y, z'
loop_
 _atom_site_type_symbol
 _atom_site_label
 _atom_site_symmetry_multiplicity
 _atom_site_fract_x
 _atom_site_fract_y
 _atom_site_fract_z
 _atom_site_occupancy
  Ta  Ta0  1  0.500242  0.000448  0.250317  1
  Ta  Ta1  1  0.500242  0.499545  0.250317  1
  Ta  Ta2  1  0.999314  0.000479  0.250378  1
  Ta  Ta3  1  0.999314  0.499527  0.250378  1
  Ta  Ta4  1  0.999761  0.000445  0.749644  1
  Ta  Ta5  1  0.999761  0.499548  0.749644  1
  Ta  Ta6  1  0.500674  0.000470  0.749696  1
  Ta  Ta7  1  0.500674  0.499536  0.749696  1
  Re  Re8  1  0.749985  0.250000  0.000183  1
  Re  Re9  1  0.249978  0.750001  0.499806  1
  Re  Re10  1  0.750020  0.250000  0.500187  1
  Ru  Ru11  1  0.250030  0.750001  0.999754  1
  W  W12  1  0.249953  0.250000  0.000050  1
  W  W13  1  0.749947  0.750001  0.499947  1
  W  W14  1  0.250052  0.250000  0.500064  1
  W  W15  1  0.750057  0.750001  0.999944  1
