# generated using pymatgen
data_Tb8In2RuRh
_symmetry_space_group_name_H-M   'P 1'
_cell_length_a   9.68230678
_cell_length_b   9.70874862
_cell_length_c   9.68230558
_cell_angle_alpha   59.90962016
_cell_angle_beta   59.81424798
_cell_angle_gamma   59.90961684
_symmetry_Int_Tables_number   1
_chemical_formula_structural   Tb8In2RuRh
_chemical_formula_sum   'Tb16 In4 Ru2 Rh2'
_cell_volume   641.79971023
_cell_formula_units_Z   2
loop_
 _symmetry_equiv_pos_site_id
 _symmetry_equiv_pos_as_xyz
  1  'x, y, z'
loop_
 _atom_site_type_symbol
 _atom_site_label
 _atom_site_symmetry_multiplicity
 _atom_site_fract_x
 _atom_site_fract_y
 _atom_site_fract_z
 _atom_site_occupancy
  Tb  Tb0  1  0.810444  0.808097  0.189096  1
  Tb  Tb1  1  0.809637  0.190363  0.809637  1
  Tb  Tb2  1  0.189096  0.192363  0.810444  1
  Tb  Tb3  1  0.651688  0.045823  0.651688  1
  Tb  Tb4  1  0.061046  0.059943  0.441243  1
  Tb  Tb5  1  0.441243  0.437768  0.061046  1
  Tb  Tb6  1  0.651688  0.650801  0.651688  1
  Tb  Tb7  1  0.810444  0.192363  0.189096  1
  Tb  Tb8  1  0.189096  0.808097  0.810444  1
  Tb  Tb9  1  0.045857  0.651129  0.651884  1
  Tb  Tb10  1  0.441243  0.059943  0.061046  1
  Tb  Tb11  1  0.437252  0.062748  0.437252  1
  Tb  Tb12  1  0.058048  0.441952  0.058048  1
  Tb  Tb13  1  0.651884  0.651129  0.045857  1
  Tb  Tb14  1  0.191676  0.808324  0.191676  1
  Tb  Tb15  1  0.061046  0.437768  0.441243  1
  In  In16  1  0.418342  0.417319  0.418342  1
  In  In17  1  0.418004  0.417458  0.747078  1
  In  In18  1  0.418342  0.745997  0.418342  1
  In  In19  1  0.747078  0.417458  0.418004  1
  Ru  Ru20  1  0.858252  0.421762  0.858252  1
  Ru  Ru21  1  0.858252  0.861735  0.858252  1
  Rh  Rh22  1  0.858048  0.859830  0.422292  1
  Rh  Rh23  1  0.422292  0.859830  0.858048  1
