# generated using pymatgen
data_RbSbAsPt2
_symmetry_space_group_name_H-M   'P 1'
_cell_length_a   4.58748421
_cell_length_b   4.58748407
_cell_length_c   6.99601834
_cell_angle_alpha   102.59109395
_cell_angle_beta   102.59109217
_cell_angle_gamma   100.82187273
_symmetry_Int_Tables_number   1
_chemical_formula_structural   RbSbAsPt2
_chemical_formula_sum   'Rb1 Sb1 As1 Pt2'
_cell_volume   135.88916766
_cell_formula_units_Z   1
loop_
 _symmetry_equiv_pos_site_id
 _symmetry_equiv_pos_as_xyz
  1  'x, y, z'
loop_
 _atom_site_type_symbol
 _atom_site_label
 _atom_site_symmetry_multiplicity
 _atom_site_fract_x
 _atom_site_fract_y
 _atom_site_fract_z
 _atom_site_occupancy
  Rb  Rb0  1  0.988922  0.988922  0.989513  1
  Sb  Sb1  1  0.614650  0.614650  0.321083  1
  As  As2  1  0.379535  0.379535  0.659168  1
  Pt  Pt3  1  0.805209  0.211683  0.515118  1
  Pt  Pt4  1  0.211683  0.805209  0.515118  1
