# generated using pymatgen
data_TbSm5YFeI12
_symmetry_space_group_name_H-M   'P 1'
_cell_length_a   9.80502116
_cell_length_b   9.91844434
_cell_length_c   9.89762927
_cell_angle_alpha   107.06627627
_cell_angle_beta   107.08772412
_cell_angle_gamma   106.76450853
_symmetry_Int_Tables_number   1
_chemical_formula_structural   TbSm5YFeI12
_chemical_formula_sum   'Tb1 Sm5 Y1 Fe1 I12'
_cell_volume   802.20789901
_cell_formula_units_Z   1
loop_
 _symmetry_equiv_pos_site_id
 _symmetry_equiv_pos_as_xyz
  1  'x, y, z'
loop_
 _atom_site_type_symbol
 _atom_site_label
 _atom_site_symmetry_multiplicity
 _atom_site_fract_x
 _atom_site_fract_y
 _atom_site_fract_z
 _atom_site_occupancy
  Tb  Tb0  1  0.022621  0.093896  0.292753  1
  Sm  Sm1  1  0.716288  0.978680  0.910378  1
  Sm  Sm2  1  0.977241  0.904617  0.701965  1
  Sm  Sm3  1  0.093973  0.295273  0.022569  1
  Sm  Sm4  1  0.284003  0.021776  0.091267  1
  Sm  Sm5  1  0.906126  0.704802  0.977413  1
  Y  Y6  1  0.499630  0.500052  0.500454  1
  Fe  Fe7  1  0.000238  0.000161  0.999905  1
  I  I8  1  0.071791  0.226656  0.677545  1
  I  I9  1  0.384665  0.163724  0.463635  1
  I  I10  1  0.611215  0.835848  0.536292  1
  I  I11  1  0.229118  0.681232  0.073347  1
  I  I12  1  0.771107  0.318935  0.927316  1
  I  I13  1  0.684272  0.072896  0.229211  1
  I  I14  1  0.535057  0.613629  0.835939  1
  I  I15  1  0.836603  0.534675  0.612352  1
  I  I16  1  0.928816  0.776870  0.320844  1
  I  I17  1  0.320869  0.928471  0.774471  1
  I  I18  1  0.465070  0.386484  0.164908  1
  I  I19  1  0.161297  0.461323  0.387436  1
