# generated using pymatgen
data_Ho16MgHg3Ir4
_symmetry_space_group_name_H-M   'P 1'
_cell_length_a   9.58614730
_cell_length_b   9.57910662
_cell_length_c   9.57910700
_cell_angle_alpha   59.99999524
_cell_angle_beta   60.02428813
_cell_angle_gamma   60.02429385
_symmetry_Int_Tables_number   1
_chemical_formula_structural   Ho16MgHg3Ir4
_chemical_formula_sum   'Ho16 Mg1 Hg3 Ir4'
_cell_volume   622.21212978
_cell_formula_units_Z   1
loop_
 _symmetry_equiv_pos_site_id
 _symmetry_equiv_pos_as_xyz
  1  'x, y, z'
loop_
 _atom_site_type_symbol
 _atom_site_label
 _atom_site_symmetry_multiplicity
 _atom_site_fract_x
 _atom_site_fract_y
 _atom_site_fract_z
 _atom_site_occupancy
  Ho  Ho0  1  0.810572  0.189529  0.189529  1
  Ho  Ho1  1  0.186410  0.812888  0.812888  1
  Ho  Ho2  1  0.186410  0.812888  0.187812  1
  Ho  Ho3  1  0.810572  0.189529  0.810371  1
  Ho  Ho4  1  0.186410  0.187812  0.812888  1
  Ho  Ho5  1  0.810572  0.810371  0.189529  1
  Ho  Ho6  1  0.934543  0.563792  0.563792  1
  Ho  Ho7  1  0.562837  0.936629  0.936629  1
  Ho  Ho8  1  0.562837  0.936629  0.563904  1
  Ho  Ho9  1  0.934543  0.563792  0.937873  1
  Ho  Ho10  1  0.562837  0.563904  0.936629  1
  Ho  Ho11  1  0.934543  0.937873  0.563792  1
  Ho  Ho12  1  0.351004  0.348840  0.348840  1
  Ho  Ho13  1  0.351004  0.348840  0.951315  1
  Ho  Ho14  1  0.351004  0.951315  0.348840  1
  Ho  Ho15  1  0.942926  0.352358  0.352358  1
  Mg  Mg16  1  0.281328  0.572891  0.572891  1
  Hg  Hg17  1  0.581169  0.585911  0.585911  1
  Hg  Hg18  1  0.581169  0.585911  0.247010  1
  Hg  Hg19  1  0.581169  0.247010  0.585911  1
  Ir  Ir20  1  0.140927  0.143439  0.143439  1
  Ir  Ir21  1  0.140927  0.143439  0.572195  1
  Ir  Ir22  1  0.140927  0.572195  0.143439  1
  Ir  Ir23  1  0.573361  0.142213  0.142213  1
