# generated using pymatgen
data_ReAsOF10
_symmetry_space_group_name_H-M   'P 1'
_cell_length_a   6.69879300
_cell_length_b   7.97774271
_cell_length_c   7.97660619
_cell_angle_alpha   87.63411158
_cell_angle_beta   90.00000000
_cell_angle_gamma   90.00000000
_symmetry_Int_Tables_number   1
_chemical_formula_structural   ReAsOF10
_chemical_formula_sum   'Re2 As2 O2 F20'
_cell_volume   425.91641429
_cell_formula_units_Z   2
loop_
 _symmetry_equiv_pos_site_id
 _symmetry_equiv_pos_as_xyz
  1  'x, y, z'
loop_
 _atom_site_type_symbol
 _atom_site_label
 _atom_site_symmetry_multiplicity
 _atom_site_fract_x
 _atom_site_fract_y
 _atom_site_fract_z
 _atom_site_occupancy
  Re  Re0  1  0.010160  0.806810  0.192638  1
  Re  Re1  1  0.010160  0.193190  0.807362  1
  As  As2  1  0.514469  0.328880  0.326030  1
  As  As3  1  0.514469  0.671120  0.673970  1
  O  O4  1  0.020617  0.345707  0.655310  1
  O  O5  1  0.020617  0.654293  0.344690  1
  F  F6  1  0.306931  0.760663  0.570418  1
  F  F7  1  0.998471  0.009619  0.674139  1
  F  F8  1  0.996684  0.000000  0.000000  1
  F  F9  1  0.355429  0.464935  0.210943  1
  F  F10  1  0.019466  0.325035  0.991951  1
  F  F11  1  0.280498  0.155700  0.832286  1
  F  F12  1  0.505266  0.500000  0.500000  1
  F  F13  1  0.736621  0.818484  0.168839  1
  F  F14  1  0.998471  0.990381  0.325861  1
  F  F15  1  0.520838  0.179185  0.173517  1
  F  F16  1  0.721404  0.560528  0.755665  1
  F  F17  1  0.280498  0.844300  0.167714  1
  F  F18  1  0.672919  0.216349  0.464616  1
  F  F19  1  0.019466  0.674965  0.008049  1
  F  F20  1  0.736621  0.181516  0.831161  1
  F  F21  1  0.520838  0.820815  0.826483  1
  F  F22  1  0.672919  0.783651  0.535384  1
  F  F23  1  0.355429  0.535065  0.789057  1
  F  F24  1  0.721404  0.439472  0.244335  1
  F  F25  1  0.306931  0.239337  0.429582  1
