# generated using pymatgen
data_Yb3Te(BrO2)2
_symmetry_space_group_name_H-M   'P 1'
_cell_length_a   6.86804659
_cell_length_b   6.86804682
_cell_length_c   5.46715600
_cell_angle_alpha   90.00000000
_cell_angle_beta   90.00000000
_cell_angle_gamma   133.03539874
_symmetry_Int_Tables_number   1
_chemical_formula_structural   Yb3Te(BrO2)2
_chemical_formula_sum   'Yb3 Te1 Br2 O4'
_cell_volume   188.49726125
_cell_formula_units_Z   1
loop_
 _symmetry_equiv_pos_site_id
 _symmetry_equiv_pos_as_xyz
  1  'x, y, z'
loop_
 _atom_site_type_symbol
 _atom_site_label
 _atom_site_symmetry_multiplicity
 _atom_site_fract_x
 _atom_site_fract_y
 _atom_site_fract_z
 _atom_site_occupancy
  Yb  Yb0  1  0.151685  0.848315  0.000000  1
  Yb  Yb1  1  0.654424  0.345576  0.500000  1
  Yb  Yb2  1  0.331189  0.668811  0.500000  1
  Te  Te3  1  0.810416  0.189584  0.000000  1
  Br  Br4  1  0.506011  0.493989  0.000000  1
  Br  Br5  1  0.014389  0.985611  0.500000  1
  O  O6  1  0.986292  0.490484  0.761701  1
  O  O7  1  0.509516  0.013708  0.238299  1
  O  O8  1  0.509516  0.013708  0.761701  1
  O  O9  1  0.986292  0.490484  0.238299  1
