# generated using pymatgen
data_Li2HfSc3Os2
_symmetry_space_group_name_H-M   'P 1'
_cell_length_a   4.63340601
_cell_length_b   6.52903191
_cell_length_c   13.89227196
_cell_angle_alpha   90.18924673
_cell_angle_beta   89.99335838
_cell_angle_gamma   89.99912512
_symmetry_Int_Tables_number   1
_chemical_formula_structural   Li2HfSc3Os2
_chemical_formula_sum   'Li6 Hf3 Sc9 Os6'
_cell_volume   420.26193243
_cell_formula_units_Z   3
loop_
 _symmetry_equiv_pos_site_id
 _symmetry_equiv_pos_as_xyz
  1  'x, y, z'
loop_
 _atom_site_type_symbol
 _atom_site_label
 _atom_site_symmetry_multiplicity
 _atom_site_fract_x
 _atom_site_fract_y
 _atom_site_fract_z
 _atom_site_occupancy
  Li  Li0  1  0.999998  0.999326  0.999698  1
  Li  Li1  1  0.499501  0.501370  0.167157  1
  Li  Li2  1  0.999470  0.999391  0.333824  1
  Li  Li3  1  0.499995  0.500034  0.499988  1
  Li  Li4  1  0.000535  0.999977  0.666534  1
  Li  Li5  1  0.500505  0.500114  0.832808  1
  Hf  Hf6  1  0.499981  0.248532  0.999423  1
  Hf  Hf7  1  0.500006  0.752183  0.999735  1
  Hf  Hf8  1  0.999565  0.252223  0.167541  1
  Sc  Sc9  1  0.999565  0.748858  0.167639  1
  Sc  Sc10  1  0.499565  0.249483  0.334468  1
  Sc  Sc11  1  0.499559  0.750105  0.334574  1
  Sc  Sc12  1  0.000016  0.249567  0.500333  1
  Sc  Sc13  1  0.000004  0.749872  0.500377  1
  Sc  Sc14  1  0.500444  0.250323  0.665775  1
  Sc  Sc15  1  0.500446  0.750025  0.665921  1
  Sc  Sc16  1  0.000417  0.250262  0.832166  1
  Sc  Sc17  1  0.000429  0.749025  0.832154  1
  Os  Os18  1  0.999976  0.496817  0.003381  1
  Os  Os19  1  0.499593  0.009380  0.159895  1
  Os  Os20  1  0.999563  0.495903  0.329536  1
  Os  Os21  1  0.500006  0.998623  0.500049  1
  Os  Os22  1  0.000460  0.500123  0.666409  1
  Os  Os23  1  0.500399  0.998482  0.840612  1
