# generated using pymatgen
data_Nd3ZnCdIn3Ir
_symmetry_space_group_name_H-M   'P 1'
_cell_length_a   7.96310700
_cell_length_b   7.96310765
_cell_length_c   4.00619800
_cell_angle_alpha   90.00000000
_cell_angle_beta   90.00000000
_cell_angle_gamma   119.99999313
_symmetry_Int_Tables_number   1
_chemical_formula_structural   Nd3ZnCdIn3Ir
_chemical_formula_sum   'Nd3 Zn1 Cd1 In3 Ir1'
_cell_volume   220.00280095
_cell_formula_units_Z   1
loop_
 _symmetry_equiv_pos_site_id
 _symmetry_equiv_pos_as_xyz
  1  'x, y, z'
loop_
 _atom_site_type_symbol
 _atom_site_label
 _atom_site_symmetry_multiplicity
 _atom_site_fract_x
 _atom_site_fract_y
 _atom_site_fract_z
 _atom_site_occupancy
  Nd  Nd0  1  0.389951  0.969471  0.500000  1
  Nd  Nd1  1  0.030529  0.420480  0.500000  1
  Nd  Nd2  1  0.579520  0.610049  0.500000  1
  Zn  Zn3  1  0.000000  0.000000  0.500000  1
  Cd  Cd4  1  0.666667  0.333333  0.000000  1
  In  In5  1  0.745748  0.999749  0.000000  1
  In  In6  1  0.000251  0.745998  0.000000  1
  In  In7  1  0.254002  0.254252  0.000000  1
  Ir  Ir8  1  0.333333  0.666667  0.000000  1
