# generated using pymatgen
data_Ta12Re5Mo6W
_symmetry_space_group_name_H-M   'P 1'
_cell_length_a   4.52773200
_cell_length_b   6.45280000
_cell_length_c   13.75475100
_cell_angle_alpha   90.00000000
_cell_angle_beta   89.99985326
_cell_angle_gamma   90.00000000
_symmetry_Int_Tables_number   1
_chemical_formula_structural   Ta12Re5Mo6W
_chemical_formula_sum   'Ta12 Re5 Mo6 W1'
_cell_volume   401.86635726
_cell_formula_units_Z   1
loop_
 _symmetry_equiv_pos_site_id
 _symmetry_equiv_pos_as_xyz
  1  'x, y, z'
loop_
 _atom_site_type_symbol
 _atom_site_label
 _atom_site_symmetry_multiplicity
 _atom_site_fract_x
 _atom_site_fract_y
 _atom_site_fract_z
 _atom_site_occupancy
  Ta  Ta0  1  0.499997  0.251944  0.000005  1
  Ta  Ta1  1  0.499997  0.748057  0.000005  1
  Ta  Ta2  1  0.000029  0.251184  0.167625  1
  Ta  Ta3  1  0.000029  0.748817  0.167625  1
  Ta  Ta4  1  0.500028  0.250471  0.333798  1
  Ta  Ta5  1  0.500028  0.749528  0.333798  1
  Ta  Ta6  1  0.000002  0.249807  0.499999  1
  Ta  Ta7  1  0.000002  0.750194  0.499999  1
  Ta  Ta8  1  0.500001  0.250482  0.666196  1
  Ta  Ta9  1  0.500001  0.749517  0.666196  1
  Ta  Ta10  1  0.999981  0.251193  0.832371  1
  Ta  Ta11  1  0.999981  0.748808  0.832371  1
  Re  Re12  1  0.499977  0.500001  0.167188  1
  Re  Re13  1  0.999983  0.000000  0.334167  1
  Re  Re14  1  0.500009  0.500001  0.500018  1
  Re  Re15  1  0.999998  0.000000  0.665863  1
  Re  Re16  1  0.500028  0.500001  0.832790  1
  Mo  Mo17  1  0.000000  0.500001  0.000000  1
  Mo  Mo18  1  0.500020  0.000000  0.166691  1
  Mo  Mo19  1  0.000012  0.500001  0.333425  1
  Mo  Mo20  1  0.500010  0.000000  0.500001  1
  Mo  Mo21  1  0.999998  0.500001  0.666571  1
  Mo  Mo22  1  0.499990  0.000000  0.833325  1
  W  W23  1  0.000005  0.000000  0.999973  1
