# generated using pymatgen
data_Lu4Re4MoOs3
_symmetry_space_group_name_H-M   'P 1'
_cell_length_a   5.34040813
_cell_length_b   5.34204232
_cell_length_c   8.89695100
_cell_angle_alpha   90.00000000
_cell_angle_beta   90.00000000
_cell_angle_gamma   121.02362121
_symmetry_Int_Tables_number   1
_chemical_formula_structural   Lu4Re4MoOs3
_chemical_formula_sum   'Lu4 Re4 Mo1 Os3'
_cell_volume   217.51085455
_cell_formula_units_Z   1
loop_
 _symmetry_equiv_pos_site_id
 _symmetry_equiv_pos_as_xyz
  1  'x, y, z'
loop_
 _atom_site_type_symbol
 _atom_site_label
 _atom_site_symmetry_multiplicity
 _atom_site_fract_x
 _atom_site_fract_y
 _atom_site_fract_z
 _atom_site_occupancy
  Lu  Lu0  1  0.335583  0.665803  0.438372  1
  Lu  Lu1  1  0.666219  0.334207  0.562716  1
  Lu  Lu2  1  0.666219  0.334207  0.937284  1
  Lu  Lu3  1  0.335583  0.665803  0.061628  1
  Re  Re4  1  0.169537  0.342104  0.750000  1
  Re  Re5  1  0.173010  0.826555  0.750000  1
  Re  Re6  1  0.829438  0.661117  0.250000  1
  Re  Re7  1  0.657660  0.830270  0.750000  1
  Mo  Mo8  1  0.336944  0.171118  0.250000  1
  Os  Os9  1  0.002103  0.995056  0.999433  1
  Os  Os10  1  0.825599  0.178705  0.250000  1
  Os  Os11  1  0.002103  0.995056  0.500567  1
