# generated using pymatgen
data_Dy19YCd6TcRu
_symmetry_space_group_name_H-M   'P 1'
_cell_length_a   9.57369801
_cell_length_b   9.57424937
_cell_length_c   9.91064900
_cell_angle_alpha   90.00000000
_cell_angle_beta   90.00000000
_cell_angle_gamma   120.00190530
_symmetry_Int_Tables_number   1
_chemical_formula_structural   Dy19YCd6TcRu
_chemical_formula_sum   'Dy19 Y1 Cd6 Tc1 Ru1'
_cell_volume   786.69945184
_cell_formula_units_Z   1
loop_
 _symmetry_equiv_pos_site_id
 _symmetry_equiv_pos_as_xyz
  1  'x, y, z'
loop_
 _atom_site_type_symbol
 _atom_site_label
 _atom_site_symmetry_multiplicity
 _atom_site_fract_x
 _atom_site_fract_y
 _atom_site_fract_z
 _atom_site_occupancy
  Dy  Dy0  1  0.000017  0.000008  0.500202  1
  Dy  Dy1  1  0.000017  0.000008  0.999798  1
  Dy  Dy2  1  0.210016  0.790073  0.441073  1
  Dy  Dy3  1  0.210016  0.419942  0.441073  1
  Dy  Dy4  1  0.580061  0.790031  0.441054  1
  Dy  Dy5  1  0.789791  0.210149  0.559396  1
  Dy  Dy6  1  0.789791  0.579640  0.559396  1
  Dy  Dy7  1  0.420389  0.210193  0.559346  1
  Dy  Dy8  1  0.789791  0.210149  0.940604  1
  Dy  Dy9  1  0.789791  0.579640  0.940604  1
  Dy  Dy10  1  0.420389  0.210193  0.940654  1
  Dy  Dy11  1  0.210016  0.790073  0.058927  1
  Dy  Dy12  1  0.210016  0.419942  0.058927  1
  Dy  Dy13  1  0.580061  0.790031  0.058946  1
  Dy  Dy14  1  0.540149  0.459824  0.250000  1
  Dy  Dy15  1  0.540149  0.080325  0.250000  1
  Dy  Dy16  1  0.458676  0.541332  0.750000  1
  Dy  Dy17  1  0.458676  0.917345  0.750000  1
  Dy  Dy18  1  0.082662  0.541331  0.750000  1
  Y  Y19  1  0.919528  0.459764  0.250000  1
  Cd  Cd20  1  0.885326  0.114605  0.250000  1
  Cd  Cd21  1  0.885326  0.770722  0.250000  1
  Cd  Cd22  1  0.229306  0.114653  0.250000  1
  Cd  Cd23  1  0.114467  0.885523  0.750000  1
  Cd  Cd24  1  0.114467  0.228944  0.750000  1
  Cd  Cd25  1  0.771057  0.885528  0.750000  1
  Tc  Tc26  1  0.333402  0.666702  0.250000  1
  Ru  Ru27  1  0.666652  0.333326  0.750000  1
