# generated using pymatgen
data_Nd10Pb6Cl
_symmetry_space_group_name_H-M   'P 1'
_cell_length_a   6.80680101
_cell_length_b   9.38859799
_cell_length_c   9.38931600
_cell_angle_alpha   119.99747730
_cell_angle_beta   89.99638892
_cell_angle_gamma   90.00721849
_symmetry_Int_Tables_number   1
_chemical_formula_structural   Nd10Pb6Cl
_chemical_formula_sum   'Nd10 Pb6 Cl1'
_cell_volume   519.66015881
_cell_formula_units_Z   1
loop_
 _symmetry_equiv_pos_site_id
 _symmetry_equiv_pos_as_xyz
  1  'x, y, z'
loop_
 _atom_site_type_symbol
 _atom_site_label
 _atom_site_symmetry_multiplicity
 _atom_site_fract_x
 _atom_site_fract_y
 _atom_site_fract_z
 _atom_site_occupancy
  Nd  Nd0  1  0.499950  0.333558  0.666582  1
  Nd  Nd1  1  0.499958  0.666787  0.333307  1
  Nd  Nd2  1  0.999838  0.666665  0.333410  1
  Nd  Nd3  1  0.999868  0.333361  0.666879  1
  Nd  Nd4  1  0.759074  0.247890  0.999965  1
  Nd  Nd5  1  0.758891  0.751819  0.751921  1
  Nd  Nd6  1  0.758343  0.000064  0.248158  1
  Nd  Nd7  1  0.240788  0.752132  0.000044  1
  Nd  Nd8  1  0.241215  0.247782  0.247750  1
  Nd  Nd9  1  0.241780  0.000094  0.752004  1
  Pb  Pb10  1  0.751373  0.607767  0.000279  1
  Pb  Pb11  1  0.750846  0.392279  0.392106  1
  Pb  Pb12  1  0.751014  0.000104  0.607895  1
  Pb  Pb13  1  0.249554  0.392289  0.000046  1
  Pb  Pb14  1  0.248464  0.607641  0.607597  1
  Pb  Pb15  1  0.248679  0.000325  0.392513  1
  Cl  Cl16  1  0.500367  0.999446  0.999545  1
