# generated using pymatgen
data_La13ThIr5Pt
_symmetry_space_group_name_H-M   'P 1'
_cell_length_a   6.54075484
_cell_length_b   10.24874024
_cell_length_c   10.24874033
_cell_angle_alpha   119.90713636
_cell_angle_beta   90.05167423
_cell_angle_gamma   89.94833606
_symmetry_Int_Tables_number   1
_chemical_formula_structural   La13ThIr5Pt
_chemical_formula_sum   'La13 Th1 Ir5 Pt1'
_cell_volume   595.53168935
_cell_formula_units_Z   1
loop_
 _symmetry_equiv_pos_site_id
 _symmetry_equiv_pos_as_xyz
  1  'x, y, z'
loop_
 _atom_site_type_symbol
 _atom_site_label
 _atom_site_symmetry_multiplicity
 _atom_site_fract_x
 _atom_site_fract_y
 _atom_site_fract_z
 _atom_site_occupancy
  La  La0  1  0.973697  0.664573  0.335427  1
  La  La1  1  0.248778  0.126640  0.873360  1
  La  La2  1  0.250109  0.744470  0.867085  1
  La  La3  1  0.250109  0.132915  0.255530  1
  La  La4  1  0.740867  0.874129  0.125871  1
  La  La5  1  0.747544  0.251986  0.126432  1
  La  La6  1  0.747544  0.873568  0.748014  1
  La  La7  1  0.436168  0.537913  0.462087  1
  La  La8  1  0.438634  0.927720  0.468117  1
  La  La9  1  0.438634  0.531883  0.072280  1
  La  La10  1  0.939361  0.460115  0.539885  1
  La  La11  1  0.940556  0.079794  0.540813  1
  La  La12  1  0.940556  0.459187  0.920206  1
  Th  Th13  1  0.480940  0.333525  0.666475  1
  Ir  Ir14  1  0.190944  0.377477  0.188016  1
  Ir  Ir15  1  0.190944  0.811984  0.622523  1
  Ir  Ir16  1  0.684661  0.191860  0.808140  1
  Ir  Ir17  1  0.685563  0.617049  0.809000  1
  Ir  Ir18  1  0.685563  0.191000  0.382951  1
  Pt  Pt19  1  0.190823  0.812211  0.187789  1
