# generated using pymatgen
data_TbCr2BiF14
_symmetry_space_group_name_H-M   'P 1'
_cell_length_a   5.55890668
_cell_length_b   8.94462462
_cell_length_c   11.83862980
_cell_angle_alpha   62.51404674
_cell_angle_beta   89.92977947
_cell_angle_gamma   89.67126887
_symmetry_Int_Tables_number   1
_chemical_formula_structural   TbCr2BiF14
_chemical_formula_sum   'Tb2 Cr4 Bi2 F28'
_cell_volume   522.19122464
_cell_formula_units_Z   2
loop_
 _symmetry_equiv_pos_site_id
 _symmetry_equiv_pos_as_xyz
  1  'x, y, z'
loop_
 _atom_site_type_symbol
 _atom_site_label
 _atom_site_symmetry_multiplicity
 _atom_site_fract_x
 _atom_site_fract_y
 _atom_site_fract_z
 _atom_site_occupancy
  Tb  Tb0  1  0.767347  0.195315  0.235309  1
  Tb  Tb1  1  0.232653  0.804685  0.764691  1
  Cr  Cr2  1  0.757492  0.723028  0.042066  1
  Cr  Cr3  1  0.242508  0.276972  0.957934  1
  Cr  Cr4  1  0.257796  0.271655  0.455624  1
  Cr  Cr5  1  0.742204  0.728345  0.544376  1
  Bi  Bi6  1  0.274643  0.817740  0.263137  1
  Bi  Bi7  1  0.725357  0.182260  0.736863  1
  F  F8  1  0.927392  0.708874  0.424502  1
  F  F9  1  0.072608  0.291126  0.575498  1
  F  F10  1  0.432341  0.290851  0.080238  1
  F  F11  1  0.567659  0.709149  0.919762  1
  F  F12  1  0.478138  0.727682  0.131436  1
  F  F13  1  0.521862  0.272318  0.868564  1
  F  F14  1  0.979381  0.268931  0.363390  1
  F  F15  1  0.020619  0.731069  0.636610  1
  F  F16  1  0.939500  0.738759  0.165609  1
  F  F17  1  0.060500  0.261241  0.834391  1
  F  F18  1  0.448820  0.252458  0.332059  1
  F  F19  1  0.551180  0.747542  0.667941  1
  F  F20  1  0.766087  0.490732  0.134669  1
  F  F21  1  0.233913  0.509268  0.865331  1
  F  F22  1  0.268736  0.500562  0.362351  1
  F  F23  1  0.731264  0.499438  0.637649  1
  F  F24  1  0.957347  0.281716  0.046579  1
  F  F25  1  0.042653  0.718284  0.953421  1
  F  F26  1  0.454449  0.720399  0.458716  1
  F  F27  1  0.545551  0.279601  0.541284  1
  F  F28  1  0.741244  0.959714  0.452423  1
  F  F29  1  0.258756  0.040286  0.547577  1
  F  F30  1  0.243443  0.044318  0.046326  1
  F  F31  1  0.756557  0.955682  0.953674  1
  F  F32  1  0.598384  0.976961  0.225715  1
  F  F33  1  0.401616  0.023039  0.774285  1
  F  F34  1  0.094565  0.032466  0.274891  1
  F  F35  1  0.905435  0.967534  0.725109  1
