# generated using pymatgen
data_Ho4ReCl4
_symmetry_space_group_name_H-M   'P 1'
_cell_length_a   8.57136215
_cell_length_b   8.57136248
_cell_length_c   6.50387600
_cell_angle_alpha   89.77287870
_cell_angle_beta   89.77288560
_cell_angle_gamma   89.45685694
_symmetry_Int_Tables_number   1
_chemical_formula_structural   Ho4ReCl4
_chemical_formula_sum   'Ho8 Re2 Cl8'
_cell_volume   477.79949373
_cell_formula_units_Z   2
loop_
 _symmetry_equiv_pos_site_id
 _symmetry_equiv_pos_as_xyz
  1  'x, y, z'
loop_
 _atom_site_type_symbol
 _atom_site_label
 _atom_site_symmetry_multiplicity
 _atom_site_fract_x
 _atom_site_fract_y
 _atom_site_fract_z
 _atom_site_occupancy
  Ho  Ho0  1  0.105206  0.741564  0.985398  1
  Ho  Ho1  1  0.258436  0.894794  0.514602  1
  Ho  Ho2  1  0.894794  0.258436  0.014602  1
  Ho  Ho3  1  0.741564  0.105206  0.485398  1
  Ho  Ho4  1  0.743331  0.896284  0.006908  1
  Ho  Ho5  1  0.103716  0.256669  0.493092  1
  Ho  Ho6  1  0.256669  0.103716  0.993092  1
  Ho  Ho7  1  0.896284  0.743331  0.506908  1
  Re  Re8  1  0.007324  0.992676  0.250000  1
  Re  Re9  1  0.992676  0.007324  0.750000  1
  Cl  Cl10  1  0.421459  0.819526  0.903264  1
  Cl  Cl11  1  0.180474  0.578541  0.596736  1
  Cl  Cl12  1  0.578541  0.180474  0.096736  1
  Cl  Cl13  1  0.819526  0.421459  0.403264  1
  Cl  Cl14  1  0.812004  0.581332  0.902914  1
  Cl  Cl15  1  0.418668  0.187996  0.597086  1
  Cl  Cl16  1  0.187996  0.418668  0.097086  1
  Cl  Cl17  1  0.581332  0.812004  0.402914  1
