# generated using pymatgen
data_LaZnPRh3
_symmetry_space_group_name_H-M   'P 1'
_cell_length_a   5.65628008
_cell_length_b   6.79595406
_cell_length_c   6.79595308
_cell_angle_alpha   66.04546334
_cell_angle_beta   65.14186553
_cell_angle_gamma   65.14186137
_symmetry_Int_Tables_number   1
_chemical_formula_structural   LaZnPRh3
_chemical_formula_sum   'La2 Zn2 P2 Rh6'
_cell_volume   206.56142668
_cell_formula_units_Z   2
loop_
 _symmetry_equiv_pos_site_id
 _symmetry_equiv_pos_as_xyz
  1  'x, y, z'
loop_
 _atom_site_type_symbol
 _atom_site_label
 _atom_site_symmetry_multiplicity
 _atom_site_fract_x
 _atom_site_fract_y
 _atom_site_fract_z
 _atom_site_occupancy
  La  La0  1  0.522517  0.745439  0.745439  1
  La  La1  1  0.477483  0.254561  0.254561  1
  Zn  Zn2  1  0.204441  0.565652  0.565652  1
  Zn  Zn3  1  0.795559  0.434348  0.434348  1
  P  P4  1  0.135684  0.104500  0.104500  1
  P  P5  1  0.864316  0.895500  0.895500  1
  Rh  Rh6  1  0.500000  0.202513  0.797487  1
  Rh  Rh7  1  0.000000  0.784275  0.215725  1
  Rh  Rh8  1  0.500000  0.797487  0.202513  1
  Rh  Rh9  1  0.000000  0.215725  0.784275  1
  Rh  Rh10  1  0.000000  0.500000  0.000000  1
  Rh  Rh11  1  0.000000  0.000000  0.500000  1
