# generated using pymatgen
data_Tb7Ho3Si5Bi
_symmetry_space_group_name_H-M   'P 1'
_cell_length_a   8.56987207
_cell_length_b   8.61427188
_cell_length_c   6.38711301
_cell_angle_alpha   89.99581076
_cell_angle_beta   89.99734229
_cell_angle_gamma   119.84372428
_symmetry_Int_Tables_number   1
_chemical_formula_structural   Tb7Ho3Si5Bi
_chemical_formula_sum   'Tb7 Ho3 Si5 Bi1'
_cell_volume   408.98736427
_cell_formula_units_Z   1
loop_
 _symmetry_equiv_pos_site_id
 _symmetry_equiv_pos_as_xyz
  1  'x, y, z'
loop_
 _atom_site_type_symbol
 _atom_site_label
 _atom_site_symmetry_multiplicity
 _atom_site_fract_x
 _atom_site_fract_y
 _atom_site_fract_z
 _atom_site_occupancy
  Tb  Tb0  1  0.984790  0.744636  0.750097  1
  Tb  Tb1  1  0.998187  0.243556  0.249877  1
  Tb  Tb2  1  0.754737  0.756318  0.249842  1
  Tb  Tb3  1  0.767432  0.000105  0.750097  1
  Tb  Tb4  1  0.240219  0.255268  0.750136  1
  Tb  Tb5  1  0.240639  0.000094  0.249926  1
  Tb  Tb6  1  0.330713  0.654008  0.495028  1
  Ho  Ho7  1  0.676796  0.346061  0.004925  1
  Ho  Ho8  1  0.676850  0.346197  0.495079  1
  Ho  Ho9  1  0.330706  0.653901  0.004990  1
  Si  Si10  1  0.393691  0.390708  0.249502  1
  Si  Si11  1  0.002058  0.608833  0.249606  1
  Si  Si12  1  0.998232  0.394473  0.750415  1
  Si  Si13  1  0.604192  0.605065  0.750448  1
  Si  Si14  1  0.606864  0.000355  0.249712  1
  Bi  Bi15  1  0.393895  0.000422  0.750319  1
