# generated using pymatgen
data_TbU2Sn3Ir2Ru
_symmetry_space_group_name_H-M   'P 1'
_cell_length_a   7.46661046
_cell_length_b   7.46661012
_cell_length_c   4.00895300
_cell_angle_alpha   90.00000000
_cell_angle_beta   90.00000000
_cell_angle_gamma   121.04713336
_symmetry_Int_Tables_number   1
_chemical_formula_structural   TbU2Sn3Ir2Ru
_chemical_formula_sum   'Tb1 U2 Sn3 Ir2 Ru1'
_cell_volume   191.48231192
_cell_formula_units_Z   1
loop_
 _symmetry_equiv_pos_site_id
 _symmetry_equiv_pos_as_xyz
  1  'x, y, z'
loop_
 _atom_site_type_symbol
 _atom_site_label
 _atom_site_symmetry_multiplicity
 _atom_site_fract_x
 _atom_site_fract_y
 _atom_site_fract_z
 _atom_site_occupancy
  Tb  Tb0  1  0.409116  0.409116  0.000000  1
  U  U1  1  0.588023  0.001312  0.000000  1
  U  U2  1  0.001312  0.588023  0.000000  1
  Sn  Sn3  1  0.253407  0.008663  0.500000  1
  Sn  Sn4  1  0.008663  0.253407  0.500000  1
  Sn  Sn5  1  0.736932  0.736932  0.500000  1
  Ir  Ir6  1  0.331135  0.685819  0.500000  1
  Ir  Ir7  1  0.685819  0.331135  0.500000  1
  Ru  Ru8  1  0.985593  0.985593  0.000000  1
