# generated using pymatgen
data_Ho4Lu5Zn4
_symmetry_space_group_name_H-M   'P 1'
_cell_length_a   8.44527480
_cell_length_b   8.44527669
_cell_length_c   8.44449790
_cell_angle_alpha   95.02757731
_cell_angle_beta   95.01912691
_cell_angle_gamma   145.57656487
_symmetry_Int_Tables_number   1
_chemical_formula_structural   Ho4Lu5Zn4
_chemical_formula_sum   'Ho4 Lu5 Zn4'
_cell_volume   325.22576333
_cell_formula_units_Z   1
loop_
 _symmetry_equiv_pos_site_id
 _symmetry_equiv_pos_as_xyz
  1  'x, y, z'
loop_
 _atom_site_type_symbol
 _atom_site_label
 _atom_site_symmetry_multiplicity
 _atom_site_fract_x
 _atom_site_fract_y
 _atom_site_fract_z
 _atom_site_occupancy
  Ho  Ho0  1  0.181888  0.888111  0.070007  1
  Ho  Ho1  1  0.112149  0.181469  0.293618  1
  Ho  Ho2  1  0.882484  0.402539  0.285056  1
  Ho  Ho3  1  0.598565  0.883210  0.481790  1
  Lu  Lu4  1  0.499053  0.499565  0.998620  1
  Lu  Lu5  1  0.402351  0.118186  0.520530  1
  Lu  Lu6  1  0.117445  0.598797  0.716232  1
  Lu  Lu7  1  0.888847  0.817970  0.706820  1
  Lu  Lu8  1  0.818167  0.111115  0.929280  1
  Zn  Zn9  1  0.391686  0.733805  0.125528  1
  Zn  Zn10  1  0.735410  0.608345  0.343764  1
  Zn  Zn11  1  0.265117  0.393086  0.658204  1
  Zn  Zn12  1  0.606828  0.263794  0.870549  1
