# generated using pymatgen
data_Sr13Pr7(Si7Ge)2
_symmetry_space_group_name_H-M   'P 1'
_cell_length_a   8.22623637
_cell_length_b   8.22549819
_cell_length_c   15.51459373
_cell_angle_alpha   90.08518925
_cell_angle_beta   89.95331274
_cell_angle_gamma   90.02480950
_symmetry_Int_Tables_number   1
_chemical_formula_structural   Sr13Pr7(Si7Ge)2
_chemical_formula_sum   'Sr13 Pr7 Si14 Ge2'
_cell_volume   1049.79170852
_cell_formula_units_Z   1
loop_
 _symmetry_equiv_pos_site_id
 _symmetry_equiv_pos_as_xyz
  1  'x, y, z'
loop_
 _atom_site_type_symbol
 _atom_site_label
 _atom_site_symmetry_multiplicity
 _atom_site_fract_x
 _atom_site_fract_y
 _atom_site_fract_z
 _atom_site_occupancy
  Sr  Sr0  1  0.307686  0.304703  0.999326  1
  Sr  Sr1  1  0.190233  0.810397  0.251558  1
  Sr  Sr2  1  0.810778  0.187304  0.751262  1
  Sr  Sr3  1  0.690350  0.691012  0.499277  1
  Sr  Sr4  1  0.369006  0.013387  0.455311  1
  Sr  Sr5  1  0.487135  0.871107  0.703004  1
  Sr  Sr6  1  0.511927  0.129330  0.205034  1
  Sr  Sr7  1  0.868579  0.487115  0.295240  1
  Sr  Sr8  1  0.129007  0.513021  0.794800  1
  Sr  Sr9  1  0.631490  0.986709  0.954716  1
  Sr  Sr10  1  0.011069  0.372123  0.544415  1
  Sr  Sr11  1  0.988264  0.631399  0.048267  1
  Sr  Sr12  1  0.131572  0.983350  0.874070  1
  Pr  Pr13  1  0.510527  0.627306  0.126727  1
  Pr  Pr14  1  0.490660  0.371677  0.623119  1
  Pr  Pr15  1  0.632236  0.509246  0.875247  1
  Pr  Pr16  1  0.370740  0.488489  0.375849  1
  Pr  Pr17  1  0.871766  0.011274  0.374462  1
  Pr  Pr18  1  0.987559  0.129989  0.126388  1
  Pr  Pr19  1  0.008696  0.871469  0.624385  1
  Si  Si20  1  0.653543  0.288393  0.444141  1
  Si  Si21  1  0.709734  0.349513  0.057187  1
  Si  Si22  1  0.289780  0.654724  0.553585  1
  Si  Si23  1  0.790201  0.847783  0.196920  1
  Si  Si24  1  0.152169  0.210985  0.304699  1
  Si  Si25  1  0.835916  0.788659  0.799003  1
  Si  Si26  1  0.281324  0.913292  0.059992  1
  Si  Si27  1  0.588062  0.776945  0.305613  1
  Si  Si28  1  0.420604  0.229206  0.802544  1
  Si  Si29  1  0.774013  0.583518  0.692886  1
  Si  Si30  1  0.222471  0.413019  0.196370  1
  Si  Si31  1  0.724245  0.087595  0.553438  1
  Si  Si32  1  0.911166  0.284589  0.947995  1
  Si  Si33  1  0.086259  0.723464  0.445602  1
  Ge  Ge34  1  0.209569  0.156063  0.689459  1
  Ge  Ge35  1  0.351662  0.701844  0.948108  1
