# generated using pymatgen
data_U4FeB14
_symmetry_space_group_name_H-M   'P 1'
_cell_length_a   7.14126500
_cell_length_b   7.14126500
_cell_length_c   7.49035700
_cell_angle_alpha   90.00000000
_cell_angle_beta   90.00000000
_cell_angle_gamma   90.00000000
_symmetry_Int_Tables_number   1
_chemical_formula_structural   U4FeB14
_chemical_formula_sum   'U8 Fe2 B28'
_cell_volume   381.99072301
_cell_formula_units_Z   2
loop_
 _symmetry_equiv_pos_site_id
 _symmetry_equiv_pos_as_xyz
  1  'x, y, z'
loop_
 _atom_site_type_symbol
 _atom_site_label
 _atom_site_symmetry_multiplicity
 _atom_site_fract_x
 _atom_site_fract_y
 _atom_site_fract_z
 _atom_site_occupancy
  U  U0  1  0.196375  0.326218  0.000000  1
  U  U1  1  0.673782  0.196375  0.000000  1
  U  U2  1  0.326218  0.803625  0.000000  1
  U  U3  1  0.696375  0.173782  0.500000  1
  U  U4  1  0.303625  0.826218  0.500000  1
  U  U5  1  0.803625  0.673782  0.000000  1
  U  U6  1  0.826218  0.696375  0.500000  1
  U  U7  1  0.173782  0.303625  0.500000  1
  Fe  Fe8  1  0.000000  0.000000  0.000000  1
  Fe  Fe9  1  0.500000  0.500000  0.500000  1
  B  B10  1  0.175949  0.039658  0.231478  1
  B  B11  1  0.960342  0.175949  0.231478  1
  B  B12  1  0.039658  0.824051  0.231478  1
  B  B13  1  0.675949  0.460342  0.268522  1
  B  B14  1  0.324051  0.539658  0.268522  1
  B  B15  1  0.824051  0.960342  0.231478  1
  B  B16  1  0.539658  0.675949  0.268522  1
  B  B17  1  0.460342  0.324051  0.268522  1
  B  B18  1  0.824051  0.960342  0.768522  1
  B  B19  1  0.039658  0.824051  0.768522  1
  B  B20  1  0.960342  0.175949  0.768522  1
  B  B21  1  0.324051  0.539658  0.731478  1
  B  B22  1  0.675949  0.460342  0.731478  1
  B  B23  1  0.175949  0.039658  0.768522  1
  B  B24  1  0.460342  0.324051  0.731478  1
  B  B25  1  0.539658  0.675949  0.731478  1
  B  B26  1  0.088595  0.588595  0.250000  1
  B  B27  1  0.411405  0.088595  0.250000  1
  B  B28  1  0.588595  0.911405  0.250000  1
  B  B29  1  0.911405  0.411405  0.250000  1
  B  B30  1  0.911405  0.411405  0.750000  1
  B  B31  1  0.588595  0.911405  0.750000  1
  B  B32  1  0.411405  0.088595  0.750000  1
  B  B33  1  0.088595  0.588595  0.750000  1
  B  B34  1  0.000000  0.000000  0.391870  1
  B  B35  1  0.500000  0.500000  0.108130  1
  B  B36  1  0.000000  0.000000  0.608130  1
  B  B37  1  0.500000  0.500000  0.891870  1
