# generated using pymatgen
data_CaTb2Ga8Ag3
_symmetry_space_group_name_H-M   'P 1'
_cell_length_a   4.37074755
_cell_length_b   8.42732202
_cell_length_c   8.42732186
_cell_angle_alpha   69.24833315
_cell_angle_beta   74.97027321
_cell_angle_gamma   74.97026808
_symmetry_Int_Tables_number   1
_chemical_formula_structural   CaTb2Ga8Ag3
_chemical_formula_sum   'Ca1 Tb2 Ga8 Ag3'
_cell_volume   275.48172418
_cell_formula_units_Z   1
loop_
 _symmetry_equiv_pos_site_id
 _symmetry_equiv_pos_as_xyz
  1  'x, y, z'
loop_
 _atom_site_type_symbol
 _atom_site_label
 _atom_site_symmetry_multiplicity
 _atom_site_fract_x
 _atom_site_fract_y
 _atom_site_fract_z
 _atom_site_occupancy
  Ca  Ca0  1  0.500000  0.500000  0.500000  1
  Tb  Tb1  1  0.201489  0.798511  0.798511  1
  Tb  Tb2  1  0.798511  0.201489  0.201489  1
  Ga  Ga3  1  0.355152  0.362560  0.927136  1
  Ga  Ga4  1  0.644848  0.637440  0.072864  1
  Ga  Ga5  1  0.355152  0.927136  0.362560  1
  Ga  Ga6  1  0.644848  0.072864  0.637440  1
  Ga  Ga7  1  0.160060  0.472409  0.207471  1
  Ga  Ga8  1  0.839940  0.527591  0.792529  1
  Ga  Ga9  1  0.160060  0.207471  0.472409  1
  Ga  Ga10  1  0.839940  0.792529  0.527591  1
  Ag  Ag11  1  0.500000  0.000000  0.000000  1
  Ag  Ag12  1  0.000000  0.807835  0.192165  1
  Ag  Ag13  1  0.000000  0.192165  0.807835  1
