# generated using pymatgen
data_SrBi3Ru2(RhO7)2
_symmetry_space_group_name_H-M   'P 1'
_cell_length_a   7.39610044
_cell_length_b   7.33797147
_cell_length_c   7.38267774
_cell_angle_alpha   59.55999218
_cell_angle_beta   59.93983463
_cell_angle_gamma   59.73760479
_symmetry_Int_Tables_number   1
_chemical_formula_structural   SrBi3Ru2(RhO7)2
_chemical_formula_sum   'Sr1 Bi3 Ru2 Rh2 O14'
_cell_volume   281.67868063
_cell_formula_units_Z   1
loop_
 _symmetry_equiv_pos_site_id
 _symmetry_equiv_pos_as_xyz
  1  'x, y, z'
loop_
 _atom_site_type_symbol
 _atom_site_label
 _atom_site_symmetry_multiplicity
 _atom_site_fract_x
 _atom_site_fract_y
 _atom_site_fract_z
 _atom_site_occupancy
  Sr  Sr0  1  0.125000  0.625000  0.125000  1
  Bi  Bi1  1  0.125000  0.125000  0.125000  1
  Bi  Bi2  1  0.625000  0.125000  0.125000  1
  Bi  Bi3  1  0.125000  0.125000  0.625000  1
  Ru  Ru4  1  0.625000  0.625000  0.625000  1
  Ru  Ru5  1  0.125000  0.625000  0.625000  1
  Rh  Rh6  1  0.625000  0.625000  0.125000  1
  Rh  Rh7  1  0.625000  0.125000  0.625000  1
  O  O8  1  0.255104  0.234248  0.255545  1
  O  O9  1  0.294378  0.707752  0.301828  1
  O  O10  1  0.954268  0.952912  0.549513  1
  O  O11  1  0.543308  0.952912  0.549513  1
  O  O12  1  0.696043  0.707752  0.301828  1
  O  O13  1  0.945040  0.544033  0.565885  1
  O  O14  1  0.706692  0.297088  0.700487  1
  O  O15  1  0.295732  0.297088  0.700487  1
  O  O16  1  0.707640  0.290820  0.293899  1
  O  O17  1  0.304960  0.705967  0.684115  1
  O  O18  1  0.955622  0.542248  0.948172  1
  O  O19  1  0.553957  0.542248  0.948172  1
  O  O20  1  0.994896  0.015752  0.994455  1
  O  O21  1  0.542360  0.959180  0.956101  1
