# generated using pymatgen
data_LaTbPrSi2
_symmetry_space_group_name_H-M   'P 1'
_cell_length_a   7.69517923
_cell_length_b   7.69517923
_cell_length_c   4.46946700
_cell_angle_alpha   90.00000000
_cell_angle_beta   90.00000000
_cell_angle_gamma   89.62034450
_symmetry_Int_Tables_number   1
_chemical_formula_structural   LaTbPrSi2
_chemical_formula_sum   'La2 Tb2 Pr2 Si4'
_cell_volume   264.65717972
_cell_formula_units_Z   2
loop_
 _symmetry_equiv_pos_site_id
 _symmetry_equiv_pos_as_xyz
  1  'x, y, z'
loop_
 _atom_site_type_symbol
 _atom_site_label
 _atom_site_symmetry_multiplicity
 _atom_site_fract_x
 _atom_site_fract_y
 _atom_site_fract_z
 _atom_site_occupancy
  La  La0  1  0.677370  0.177370  0.500000  1
  La  La1  1  0.322630  0.822630  0.500000  1
  Tb  Tb2  1  0.500000  0.500000  0.000000  1
  Tb  Tb3  1  0.000000  0.000000  0.000000  1
  Pr  Pr4  1  0.176634  0.323366  0.500000  1
  Pr  Pr5  1  0.823366  0.676634  0.500000  1
  Si  Si6  1  0.112301  0.612301  0.000000  1
  Si  Si7  1  0.887699  0.387699  0.000000  1
  Si  Si8  1  0.613151  0.886849  0.000000  1
  Si  Si9  1  0.386849  0.113151  0.000000  1
