# generated using pymatgen
data_TaSi4Mo3Ir4
_symmetry_space_group_name_H-M   'P 1'
_cell_length_a   3.85345100
_cell_length_b   6.31028918
_cell_length_c   7.19136247
_cell_angle_alpha   90.31076738
_cell_angle_beta   90.00000000
_cell_angle_gamma   90.00000000
_symmetry_Int_Tables_number   1
_chemical_formula_structural   TaSi4Mo3Ir4
_chemical_formula_sum   'Ta1 Si4 Mo3 Ir4'
_cell_volume   174.86540343
_cell_formula_units_Z   1
loop_
 _symmetry_equiv_pos_site_id
 _symmetry_equiv_pos_as_xyz
  1  'x, y, z'
loop_
 _atom_site_type_symbol
 _atom_site_label
 _atom_site_symmetry_multiplicity
 _atom_site_fract_x
 _atom_site_fract_y
 _atom_site_fract_z
 _atom_site_occupancy
  Ta  Ta0  1  0.250000  0.474939  0.169911  1
  Si  Si1  1  0.250000  0.230470  0.868787  1
  Si  Si2  1  0.250000  0.738204  0.623896  1
  Si  Si3  1  0.750000  0.772734  0.124273  1
  Si  Si4  1  0.750000  0.255301  0.382015  1
  Mo  Mo5  1  0.750000  0.528049  0.830833  1
  Mo  Mo6  1  0.250000  0.973073  0.334406  1
  Mo  Mo7  1  0.750000  0.025559  0.669047  1
  Ir  Ir8  1  0.250000  0.851419  0.939011  1
  Ir  Ir9  1  0.250000  0.354785  0.560953  1
  Ir  Ir10  1  0.750000  0.644097  0.434373  1
  Ir  Ir11  1  0.750000  0.151369  0.062494  1
