# generated using pymatgen
data_Sm2Cu2SiPd12
_symmetry_space_group_name_H-M   'P 1'
_cell_length_a   8.86134700
_cell_length_b   8.86134700
_cell_length_c   7.08848800
_cell_angle_alpha   90.00000000
_cell_angle_beta   90.00000000
_cell_angle_gamma   90.00000000
_symmetry_Int_Tables_number   1
_chemical_formula_structural   Sm2Cu2SiPd12
_chemical_formula_sum   'Sm4 Cu4 Si2 Pd24'
_cell_volume   556.61267945
_cell_formula_units_Z   2
loop_
 _symmetry_equiv_pos_site_id
 _symmetry_equiv_pos_as_xyz
  1  'x, y, z'
loop_
 _atom_site_type_symbol
 _atom_site_label
 _atom_site_symmetry_multiplicity
 _atom_site_fract_x
 _atom_site_fract_y
 _atom_site_fract_z
 _atom_site_occupancy
  Sm  Sm0  1  0.500000  0.000000  0.930062  1
  Sm  Sm1  1  0.000000  0.500000  0.069938  1
  Sm  Sm2  1  0.000000  0.000000  0.500000  1
  Sm  Sm3  1  0.500000  0.500000  0.500000  1
  Cu  Cu4  1  0.250000  0.750000  0.000000  1
  Cu  Cu5  1  0.250000  0.250000  0.000000  1
  Cu  Cu6  1  0.750000  0.750000  0.000000  1
  Cu  Cu7  1  0.750000  0.250000  0.000000  1
  Si  Si8  1  0.500000  0.000000  0.441705  1
  Si  Si9  1  0.000000  0.500000  0.558295  1
  Pd  Pd10  1  0.333801  0.833801  0.617556  1
  Pd  Pd11  1  0.333801  0.166199  0.617556  1
  Pd  Pd12  1  0.666199  0.833801  0.617556  1
  Pd  Pd13  1  0.666199  0.166199  0.617556  1
  Pd  Pd14  1  0.166199  0.666199  0.382444  1
  Pd  Pd15  1  0.166199  0.333801  0.382444  1
  Pd  Pd16  1  0.833801  0.666199  0.382444  1
  Pd  Pd17  1  0.833801  0.333801  0.382444  1
  Pd  Pd18  1  0.500000  0.767779  0.251561  1
  Pd  Pd19  1  0.500000  0.232221  0.251561  1
  Pd  Pd20  1  0.267779  0.000000  0.251561  1
  Pd  Pd21  1  0.732221  0.000000  0.251561  1
  Pd  Pd22  1  0.000000  0.732221  0.748439  1
  Pd  Pd23  1  0.000000  0.267779  0.748439  1
  Pd  Pd24  1  0.232221  0.500000  0.748439  1
  Pd  Pd25  1  0.767779  0.500000  0.748439  1
  Pd  Pd26  1  0.500000  0.341785  0.864505  1
  Pd  Pd27  1  0.500000  0.658215  0.864505  1
  Pd  Pd28  1  0.841785  0.000000  0.864505  1
  Pd  Pd29  1  0.158215  0.000000  0.864505  1
  Pd  Pd30  1  0.000000  0.158215  0.135495  1
  Pd  Pd31  1  0.000000  0.841785  0.135495  1
  Pd  Pd32  1  0.658215  0.500000  0.135495  1
  Pd  Pd33  1  0.341785  0.500000  0.135495  1
