# generated using pymatgen
data_Y3TmCdIr
_symmetry_space_group_name_H-M   'P 1'
_cell_length_a   9.63942704
_cell_length_b   9.63942663
_cell_length_c   9.63942700
_cell_angle_alpha   60.00000216
_cell_angle_beta   60.00000358
_cell_angle_gamma   60.00000097
_symmetry_Int_Tables_number   1
_chemical_formula_structural   Y3TmCdIr
_chemical_formula_sum   'Y12 Tm4 Cd4 Ir4'
_cell_volume   633.34254916
_cell_formula_units_Z   4
loop_
 _symmetry_equiv_pos_site_id
 _symmetry_equiv_pos_as_xyz
  1  'x, y, z'
loop_
 _atom_site_type_symbol
 _atom_site_label
 _atom_site_symmetry_multiplicity
 _atom_site_fract_x
 _atom_site_fract_y
 _atom_site_fract_z
 _atom_site_occupancy
  Y  Y0  1  0.809456  0.190544  0.190544  1
  Y  Y1  1  0.190544  0.809456  0.809456  1
  Y  Y2  1  0.190544  0.809456  0.190544  1
  Y  Y3  1  0.809456  0.190544  0.809456  1
  Y  Y4  1  0.190544  0.190544  0.809456  1
  Y  Y5  1  0.809456  0.809456  0.190544  1
  Y  Y6  1  0.939203  0.560797  0.560797  1
  Y  Y7  1  0.560797  0.939203  0.939203  1
  Y  Y8  1  0.560797  0.939203  0.560797  1
  Y  Y9  1  0.939203  0.560797  0.939203  1
  Y  Y10  1  0.560797  0.560797  0.939203  1
  Y  Y11  1  0.939203  0.939203  0.560797  1
  Tm  Tm12  1  0.347929  0.347929  0.347929  1
  Tm  Tm13  1  0.347929  0.347929  0.956213  1
  Tm  Tm14  1  0.347929  0.956213  0.347929  1
  Tm  Tm15  1  0.956213  0.347929  0.347929  1
  Cd  Cd16  1  0.580865  0.580865  0.580865  1
  Cd  Cd17  1  0.580865  0.580865  0.257405  1
  Cd  Cd18  1  0.580865  0.257405  0.580865  1
  Cd  Cd19  1  0.257405  0.580865  0.580865  1
  Ir  Ir20  1  0.143013  0.143013  0.143013  1
  Ir  Ir21  1  0.143013  0.143013  0.570960  1
  Ir  Ir22  1  0.143013  0.570960  0.143013  1
  Ir  Ir23  1  0.570960  0.143013  0.143013  1
