# generated using pymatgen
data_Ac4Cu5As8
_symmetry_space_group_name_H-M   'P 1'
_cell_length_a   10.74320067
_cell_length_b   10.74320021
_cell_length_c   5.92172800
_cell_angle_alpha   90.00000000
_cell_angle_beta   90.00000000
_cell_angle_gamma   147.39270547
_symmetry_Int_Tables_number   1
_chemical_formula_structural   Ac4Cu5As8
_chemical_formula_sum   'Ac4 Cu5 As8'
_cell_volume   368.30388129
_cell_formula_units_Z   1
loop_
 _symmetry_equiv_pos_site_id
 _symmetry_equiv_pos_as_xyz
  1  'x, y, z'
loop_
 _atom_site_type_symbol
 _atom_site_label
 _atom_site_symmetry_multiplicity
 _atom_site_fract_x
 _atom_site_fract_y
 _atom_site_fract_z
 _atom_site_occupancy
  Ac  Ac0  1  0.621437  0.378563  0.000000  1
  Ac  Ac1  1  0.121285  0.878715  0.500000  1
  Ac  Ac2  1  0.877468  0.122532  0.500000  1
  Ac  Ac3  1  0.377203  0.622797  0.000000  1
  Cu  Cu4  1  0.994220  0.494334  0.245914  1
  Cu  Cu5  1  0.505666  0.005780  0.754086  1
  Cu  Cu6  1  0.505666  0.005780  0.245914  1
  Cu  Cu7  1  0.994220  0.494334  0.754086  1
  Cu  Cu8  1  0.442954  0.557046  0.500000  1
  As  As9  1  0.820691  0.179309  0.000000  1
  As  As10  1  0.317875  0.682125  0.500000  1
  As  As11  1  0.680150  0.319850  0.500000  1
  As  As12  1  0.181302  0.818698  0.000000  1
  As  As13  1  0.777506  0.777476  0.778857  1
  As  As14  1  0.222524  0.222494  0.221143  1
  As  As15  1  0.777506  0.777476  0.221143  1
  As  As16  1  0.222524  0.222494  0.778857  1
