# generated using pymatgen
data_Ho2CoSi2Ru
_symmetry_space_group_name_H-M   'P 1'
_cell_length_a   4.25864900
_cell_length_b   6.98703772
_cell_length_c   6.89873176
_cell_angle_alpha   90.14732751
_cell_angle_beta   90.00000000
_cell_angle_gamma   90.00000000
_symmetry_Int_Tables_number   1
_chemical_formula_structural   Ho2CoSi2Ru
_chemical_formula_sum   'Ho4 Co2 Si4 Ru2'
_cell_volume   205.27343862
_cell_formula_units_Z   2
loop_
 _symmetry_equiv_pos_site_id
 _symmetry_equiv_pos_as_xyz
  1  'x, y, z'
loop_
 _atom_site_type_symbol
 _atom_site_label
 _atom_site_symmetry_multiplicity
 _atom_site_fract_x
 _atom_site_fract_y
 _atom_site_fract_z
 _atom_site_occupancy
  Ho  Ho0  1  0.250000  0.180651  0.983382  1
  Ho  Ho1  1  0.750000  0.819349  0.016618  1
  Ho  Ho2  1  0.250000  0.305109  0.485470  1
  Ho  Ho3  1  0.750000  0.694891  0.514530  1
  Co  Co4  1  0.250000  0.934771  0.649334  1
  Co  Co5  1  0.750000  0.065229  0.350666  1
  Si  Si6  1  0.250000  0.608609  0.800478  1
  Si  Si7  1  0.750000  0.391391  0.199522  1
  Si  Si8  1  0.250000  0.895609  0.308074  1
  Si  Si9  1  0.750000  0.104391  0.691926  1
  Ru  Ru10  1  0.250000  0.568812  0.153997  1
  Ru  Ru11  1  0.750000  0.431188  0.846003  1
