# generated using pymatgen
data_Lu2Co5RuC5
_symmetry_space_group_name_H-M   'P 1'
_cell_length_a   8.35120000
_cell_length_b   8.35120000
_cell_length_c   4.05473800
_cell_angle_alpha   90.00000000
_cell_angle_beta   90.00000000
_cell_angle_gamma   90.00000000
_symmetry_Int_Tables_number   1
_chemical_formula_structural   Lu2Co5RuC5
_chemical_formula_sum   'Lu4 Co10 Ru2 C10'
_cell_volume   282.78773299
_cell_formula_units_Z   2
loop_
 _symmetry_equiv_pos_site_id
 _symmetry_equiv_pos_as_xyz
  1  'x, y, z'
loop_
 _atom_site_type_symbol
 _atom_site_label
 _atom_site_symmetry_multiplicity
 _atom_site_fract_x
 _atom_site_fract_y
 _atom_site_fract_z
 _atom_site_occupancy
  Lu  Lu0  1  0.328005  0.828005  0.500000  1
  Lu  Lu1  1  0.828005  0.671995  0.500000  1
  Lu  Lu2  1  0.171995  0.328005  0.500000  1
  Lu  Lu3  1  0.671995  0.171995  0.500000  1
  Co  Co4  1  0.714364  0.428670  0.000000  1
  Co  Co5  1  0.428670  0.285636  0.000000  1
  Co  Co6  1  0.500000  0.000000  0.000000  1
  Co  Co7  1  0.000000  0.500000  0.000000  1
  Co  Co8  1  0.785636  0.928670  0.000000  1
  Co  Co9  1  0.928670  0.214364  0.000000  1
  Co  Co10  1  0.071330  0.785636  0.000000  1
  Co  Co11  1  0.214364  0.071330  0.000000  1
  Co  Co12  1  0.571330  0.714364  0.000000  1
  Co  Co13  1  0.285636  0.571330  0.000000  1
  Ru  Ru14  1  0.000000  0.000000  0.500000  1
  Ru  Ru15  1  0.500000  0.500000  0.500000  1
  C  C16  1  0.500000  0.500000  0.000000  1
  C  C17  1  0.000000  0.000000  0.000000  1
  C  C18  1  0.876411  0.376411  0.674841  1
  C  C19  1  0.123589  0.623589  0.674841  1
  C  C20  1  0.876411  0.376411  0.325159  1
  C  C21  1  0.376411  0.123589  0.325159  1
  C  C22  1  0.623589  0.876411  0.325159  1
  C  C23  1  0.123589  0.623589  0.325159  1
  C  C24  1  0.623589  0.876411  0.674841  1
  C  C25  1  0.376411  0.123589  0.674841  1
