# generated using pymatgen
data_YbPr7(Sc3Pb4)4
_symmetry_space_group_name_H-M   'P 1'
_cell_length_a   8.06285393
_cell_length_b   15.35026769
_cell_length_c   8.12489700
_cell_angle_alpha   89.81857867
_cell_angle_beta   90.13363111
_cell_angle_gamma   90.32462659
_symmetry_Int_Tables_number   1
_chemical_formula_structural   YbPr7(Sc3Pb4)4
_chemical_formula_sum   'Yb1 Pr7 Sc12 Pb16'
_cell_volume   1005.56997773
_cell_formula_units_Z   1
loop_
 _symmetry_equiv_pos_site_id
 _symmetry_equiv_pos_as_xyz
  1  'x, y, z'
loop_
 _atom_site_type_symbol
 _atom_site_label
 _atom_site_symmetry_multiplicity
 _atom_site_fract_x
 _atom_site_fract_y
 _atom_site_fract_z
 _atom_site_occupancy
  Yb  Yb0  1  0.973684  0.594648  0.824144  1
  Pr  Pr1  1  0.478926  0.595290  0.676860  1
  Pr  Pr2  1  0.981203  0.906139  0.823954  1
  Pr  Pr3  1  0.521027  0.095407  0.324805  1
  Pr  Pr4  1  0.022791  0.405766  0.174668  1
  Pr  Pr5  1  0.522051  0.405196  0.323393  1
  Pr  Pr6  1  0.021041  0.095618  0.175459  1
  Pr  Pr7  1  0.478639  0.903873  0.676465  1
  Sc  Sc8  1  0.639356  0.624297  0.154314  1
  Sc  Sc9  1  0.139282  0.873791  0.344929  1
  Sc  Sc10  1  0.359493  0.125469  0.843346  1
  Sc  Sc11  1  0.860452  0.374779  0.658435  1
  Sc  Sc12  1  0.362393  0.375226  0.843983  1
  Sc  Sc13  1  0.860048  0.125737  0.657045  1
  Sc  Sc14  1  0.641508  0.874507  0.156073  1
  Sc  Sc15  1  0.139351  0.625726  0.343523  1
  Sc  Sc16  1  0.806468  0.749423  0.491607  1
  Sc  Sc17  1  0.304469  0.748825  0.005950  1
  Sc  Sc18  1  0.194020  0.250509  0.507310  1
  Sc  Sc19  1  0.693978  0.250953  0.992383  1
  Pb  Pb20  1  0.695692  0.455679  0.951986  1
  Pb  Pb21  1  0.193501  0.044970  0.547137  1
  Pb  Pb22  1  0.307645  0.954372  0.048582  1
  Pb  Pb23  1  0.808123  0.545411  0.454410  1
  Pb  Pb24  1  0.301130  0.545940  0.044021  1
  Pb  Pb25  1  0.806243  0.954848  0.452885  1
  Pb  Pb26  1  0.693147  0.045299  0.952356  1
  Pb  Pb27  1  0.193492  0.454212  0.546333  1
  Pb  Pb28  1  0.446286  0.749727  0.364116  1
  Pb  Pb29  1  0.945963  0.750726  0.135558  1
  Pb  Pb30  1  0.553750  0.250232  0.636496  1
  Pb  Pb31  1  0.054562  0.250020  0.863408  1
  Pb  Pb32  1  0.668971  0.749569  0.853806  1
  Pb  Pb33  1  0.163940  0.747486  0.650492  1
  Pb  Pb34  1  0.333860  0.250072  0.146972  1
  Pb  Pb35  1  0.833516  0.250260  0.352800  1
