# generated using pymatgen
data_Ho3Tm2Nb3(Co4P3)4
_symmetry_space_group_name_H-M   'P 1'
_cell_length_a   12.15536500
_cell_length_b   12.15536488
_cell_length_c   3.68773300
_cell_angle_alpha   90.00000000
_cell_angle_beta   90.00000000
_cell_angle_gamma   119.99979050
_symmetry_Int_Tables_number   1
_chemical_formula_structural   Ho3Tm2Nb3(Co4P3)4
_chemical_formula_sum   'Ho3 Tm2 Nb3 Co16 P12'
_cell_volume   471.87505812
_cell_formula_units_Z   1
loop_
 _symmetry_equiv_pos_site_id
 _symmetry_equiv_pos_as_xyz
  1  'x, y, z'
loop_
 _atom_site_type_symbol
 _atom_site_label
 _atom_site_symmetry_multiplicity
 _atom_site_fract_x
 _atom_site_fract_y
 _atom_site_fract_z
 _atom_site_occupancy
  Ho  Ho0  1  0.183140  0.183140  0.500000  1
  Ho  Ho1  1  0.333332  0.666724  0.000000  1
  Ho  Ho2  1  0.666724  0.333332  0.000000  1
  Tm  Tm3  1  0.816605  0.999923  0.500000  1
  Tm  Tm4  1  0.999923  0.816605  0.500000  1
  Nb  Nb5  1  0.444915  0.999899  0.000000  1
  Nb  Nb6  1  0.999899  0.444915  0.000000  1
  Nb  Nb7  1  0.555515  0.555515  0.000000  1
  Co  Co8  1  0.278498  0.999603  0.500000  1
  Co  Co9  1  0.999603  0.278498  0.500000  1
  Co  Co10  1  0.721599  0.721599  0.500000  1
  Co  Co11  1  0.627130  0.803978  0.000000  1
  Co  Co12  1  0.196054  0.823008  0.000000  1
  Co  Co13  1  0.176767  0.373395  0.000000  1
  Co  Co14  1  0.373395  0.176767  0.000000  1
  Co  Co15  1  0.803978  0.627130  0.000000  1
  Co  Co16  1  0.823008  0.196054  0.000000  1
  Co  Co17  1  0.519897  0.873057  0.500000  1
  Co  Co18  1  0.126985  0.646792  0.500000  1
  Co  Co19  1  0.353392  0.480444  0.500000  1
  Co  Co20  1  0.480444  0.353392  0.500000  1
  Co  Co21  1  0.873057  0.519897  0.500000  1
  Co  Co22  1  0.646792  0.126985  0.500000  1
  Co  Co23  1  0.999548  0.999548  0.000000  1
  P  P24  1  0.177328  0.999308  0.000000  1
  P  P25  1  0.999308  0.177328  0.000000  1
  P  P26  1  0.822473  0.822473  0.000000  1
  P  P27  1  0.520396  0.688397  0.500000  1
  P  P28  1  0.311765  0.831920  0.500000  1
  P  P29  1  0.167927  0.479634  0.500000  1
  P  P30  1  0.479634  0.167927  0.500000  1
  P  P31  1  0.688397  0.520396  0.500000  1
  P  P32  1  0.831920  0.311765  0.500000  1
  P  P33  1  0.645098  0.999981  0.000000  1
  P  P34  1  0.999981  0.645098  0.000000  1
  P  P35  1  0.355575  0.355575  0.000000  1
