# generated using pymatgen
data_Hf12Zr8Co(NiAs4)3
_symmetry_space_group_name_H-M   'P 1'
_cell_length_a   3.70881300
_cell_length_b   10.49495702
_cell_length_c   17.54988756
_cell_angle_alpha   89.86794205
_cell_angle_beta   90.00000000
_cell_angle_gamma   90.00000000
_symmetry_Int_Tables_number   1
_chemical_formula_structural   Hf12Zr8Co(NiAs4)3
_chemical_formula_sum   'Hf12 Zr8 Co1 Ni3 As12'
_cell_volume   683.10707899
_cell_formula_units_Z   1
loop_
 _symmetry_equiv_pos_site_id
 _symmetry_equiv_pos_as_xyz
  1  'x, y, z'
loop_
 _atom_site_type_symbol
 _atom_site_label
 _atom_site_symmetry_multiplicity
 _atom_site_fract_x
 _atom_site_fract_y
 _atom_site_fract_z
 _atom_site_occupancy
  Hf  Hf0  1  0.250000  0.940056  0.078131  1
  Hf  Hf1  1  0.750000  0.057848  0.922104  1
  Hf  Hf2  1  0.750000  0.439394  0.420776  1
  Hf  Hf3  1  0.250000  0.560514  0.579215  1
  Hf  Hf4  1  0.250000  0.241326  0.168207  1
  Hf  Hf5  1  0.750000  0.759782  0.833287  1
  Hf  Hf6  1  0.750000  0.741252  0.331995  1
  Hf  Hf7  1  0.250000  0.259278  0.668152  1
  Hf  Hf8  1  0.250000  0.513242  0.275085  1
  Hf  Hf9  1  0.750000  0.487050  0.724614  1
  Hf  Hf10  1  0.750000  0.011754  0.224598  1
  Hf  Hf11  1  0.250000  0.985715  0.777016  1
  Zr  Zr12  1  0.250000  0.185130  0.367425  1
  Zr  Zr13  1  0.750000  0.814798  0.633351  1
  Zr  Zr14  1  0.750000  0.685518  0.131916  1
  Zr  Zr15  1  0.250000  0.315269  0.867344  1
  Zr  Zr16  1  0.250000  0.879160  0.478116  1
  Zr  Zr17  1  0.750000  0.120337  0.522330  1
  Zr  Zr18  1  0.750000  0.380452  0.021906  1
  Zr  Zr19  1  0.250000  0.622186  0.977144  1
  Co  Co20  1  0.250000  0.871296  0.907250  1
  Ni  Ni21  1  0.250000  0.628308  0.410539  1
  Ni  Ni22  1  0.750000  0.371408  0.589603  1
  Ni  Ni23  1  0.750000  0.129759  0.089774  1
  As  As24  1  0.250000  0.489868  0.119189  1
  As  As25  1  0.750000  0.509381  0.880429  1
  As  As26  1  0.750000  0.989724  0.380697  1
  As  As27  1  0.250000  0.010423  0.619794  1
  As  As28  1  0.250000  0.813392  0.220546  1
  As  As29  1  0.750000  0.185786  0.779747  1
  As  As30  1  0.750000  0.314245  0.279085  1
  As  As31  1  0.250000  0.684750  0.720909  1
  As  As32  1  0.250000  0.187235  0.008122  1
  As  As33  1  0.750000  0.814521  0.991402  1
  As  As34  1  0.750000  0.686256  0.492037  1
  As  As35  1  0.250000  0.313588  0.508166  1
