# generated using pymatgen
data_SmScMnB6
_symmetry_space_group_name_H-M   'P 1'
_cell_length_a   3.49398900
_cell_length_b   8.98777800
_cell_length_c   11.40862300
_cell_angle_alpha   90.00000000
_cell_angle_beta   90.00000000
_cell_angle_gamma   90.00000000
_symmetry_Int_Tables_number   1
_chemical_formula_structural   SmScMnB6
_chemical_formula_sum   'Sm4 Sc4 Mn4 B24'
_cell_volume   358.26724089
_cell_formula_units_Z   4
loop_
 _symmetry_equiv_pos_site_id
 _symmetry_equiv_pos_as_xyz
  1  'x, y, z'
loop_
 _atom_site_type_symbol
 _atom_site_label
 _atom_site_symmetry_multiplicity
 _atom_site_fract_x
 _atom_site_fract_y
 _atom_site_fract_z
 _atom_site_occupancy
  Sm  Sm0  1  0.000000  0.323023  0.415164  1
  Sm  Sm1  1  0.000000  0.676977  0.584836  1
  Sm  Sm2  1  0.000000  0.823023  0.084836  1
  Sm  Sm3  1  0.000000  0.176977  0.915164  1
  Sc  Sc4  1  0.000000  0.943347  0.368434  1
  Sc  Sc5  1  0.000000  0.056653  0.631566  1
  Sc  Sc6  1  0.000000  0.443347  0.131566  1
  Sc  Sc7  1  0.000000  0.556653  0.868434  1
  Mn  Mn8  1  0.000000  0.641893  0.316793  1
  Mn  Mn9  1  0.000000  0.358107  0.683207  1
  Mn  Mn10  1  0.000000  0.141893  0.183207  1
  Mn  Mn11  1  0.000000  0.858107  0.816793  1
  B  B12  1  0.500000  0.556908  0.429002  1
  B  B13  1  0.500000  0.443092  0.570998  1
  B  B14  1  0.500000  0.056908  0.070998  1
  B  B15  1  0.500000  0.943092  0.929002  1
  B  B16  1  0.500000  0.752635  0.414911  1
  B  B17  1  0.500000  0.247365  0.585089  1
  B  B18  1  0.500000  0.252635  0.085089  1
  B  B19  1  0.500000  0.747365  0.914911  1
  B  B20  1  0.500000  0.793129  0.265366  1
  B  B21  1  0.500000  0.206871  0.734634  1
  B  B22  1  0.500000  0.293129  0.234634  1
  B  B23  1  0.500000  0.706871  0.765366  1
  B  B24  1  0.500000  0.629072  0.184447  1
  B  B25  1  0.500000  0.370928  0.815553  1
  B  B26  1  0.500000  0.129072  0.315553  1
  B  B27  1  0.500000  0.870928  0.684447  1
  B  B28  1  0.500000  0.984855  0.214311  1
  B  B29  1  0.500000  0.015145  0.785689  1
  B  B30  1  0.500000  0.484855  0.285689  1
  B  B31  1  0.500000  0.515145  0.714311  1
  B  B32  1  0.500000  0.595027  0.025429  1
  B  B33  1  0.500000  0.404973  0.974571  1
  B  B34  1  0.500000  0.095027  0.474571  1
  B  B35  1  0.500000  0.904973  0.525429  1
