# generated using pymatgen
data_Tb2Lu2Sc2CoTe2
_symmetry_space_group_name_H-M   'P 1'
_cell_length_a   3.91331600
_cell_length_b   8.12898411
_cell_length_c   8.12898545
_cell_angle_alpha   121.00586307
_cell_angle_beta   90.00000000
_cell_angle_gamma   90.00000000
_symmetry_Int_Tables_number   1
_chemical_formula_structural   Tb2Lu2Sc2CoTe2
_chemical_formula_sum   'Tb2 Lu2 Sc2 Co1 Te2'
_cell_volume   221.64422911
_cell_formula_units_Z   1
loop_
 _symmetry_equiv_pos_site_id
 _symmetry_equiv_pos_as_xyz
  1  'x, y, z'
loop_
 _atom_site_type_symbol
 _atom_site_label
 _atom_site_symmetry_multiplicity
 _atom_site_fract_x
 _atom_site_fract_y
 _atom_site_fract_z
 _atom_site_occupancy
  Tb  Tb0  1  0.000000  0.999592  0.600785  1
  Tb  Tb1  1  0.000000  0.600785  0.999592  1
  Lu  Lu2  1  0.500000  0.770577  0.770577  1
  Lu  Lu3  1  0.000000  0.379372  0.379372  1
  Sc  Sc4  1  0.500000  0.995679  0.225797  1
  Sc  Sc5  1  0.500000  0.225797  0.995679  1
  Co  Co6  1  0.000000  0.037625  0.037625  1
  Te  Te7  1  0.500000  0.661322  0.329250  1
  Te  Te8  1  0.500000  0.329250  0.661322  1
