# generated using pymatgen
data_NaSrPd4
_symmetry_space_group_name_H-M   'P 1'
_cell_length_a   5.51212947
_cell_length_b   5.51212951
_cell_length_c   5.51212900
_cell_angle_alpha   59.99999703
_cell_angle_beta   59.99999684
_cell_angle_gamma   60.00000501
_symmetry_Int_Tables_number   1
_chemical_formula_structural   NaSrPd4
_chemical_formula_sum   'Na1 Sr1 Pd4'
_cell_volume   118.42494559
_cell_formula_units_Z   1
loop_
 _symmetry_equiv_pos_site_id
 _symmetry_equiv_pos_as_xyz
  1  'x, y, z'
loop_
 _atom_site_type_symbol
 _atom_site_label
 _atom_site_symmetry_multiplicity
 _atom_site_fract_x
 _atom_site_fract_y
 _atom_site_fract_z
 _atom_site_occupancy
  Na  Na0  1  0.250000  0.250000  0.250000  1
  Sr  Sr1  1  0.000000  0.000000  0.000000  1
  Pd  Pd2  1  0.624795  0.624795  0.125615  1
  Pd  Pd3  1  0.624795  0.125615  0.624795  1
  Pd  Pd4  1  0.125615  0.624795  0.624795  1
  Pd  Pd5  1  0.624795  0.624795  0.624795  1
