# generated using pymatgen
data_V2Pb(SeO3)4
_symmetry_space_group_name_H-M   'P 1'
_cell_length_a   7.03021060
_cell_length_b   9.39645951
_cell_length_c   9.40190105
_cell_angle_alpha   68.82081164
_cell_angle_beta   95.93841518
_cell_angle_gamma   89.69861353
_symmetry_Int_Tables_number   1
_chemical_formula_structural   V2Pb(SeO3)4
_chemical_formula_sum   'V4 Pb2 Se8 O24'
_cell_volume   575.41329587
_cell_formula_units_Z   2
loop_
 _symmetry_equiv_pos_site_id
 _symmetry_equiv_pos_as_xyz
  1  'x, y, z'
loop_
 _atom_site_type_symbol
 _atom_site_label
 _atom_site_symmetry_multiplicity
 _atom_site_fract_x
 _atom_site_fract_y
 _atom_site_fract_z
 _atom_site_occupancy
  V  V0  1  0.999941  0.750185  0.751482  1
  V  V1  1  0.499976  0.749668  0.249386  1
  V  V2  1  0.999964  0.250171  0.251472  1
  V  V3  1  0.499985  0.249675  0.749381  1
  Pb  Pb4  1  0.008718  0.535704  0.479156  1
  Pb  Pb5  1  0.008736  0.035688  0.979161  1
  Se  Se6  1  0.554765  0.130140  0.130606  1
  Se  Se7  1  0.554745  0.630145  0.630602  1
  Se  Se8  1  0.445518  0.869693  0.870433  1
  Se  Se9  1  0.445502  0.369701  0.370427  1
  Se  Se10  1  0.801377  0.098051  0.578541  1
  Se  Se11  1  0.801376  0.598058  0.078561  1
  Se  Se12  1  0.196946  0.903311  0.419899  1
  Se  Se13  1  0.196938  0.403320  0.919891  1
  O  O14  1  0.716819  0.719773  0.714250  1
  O  O15  1  0.716842  0.219763  0.214273  1
  O  O16  1  0.283757  0.279160  0.286609  1
  O  O17  1  0.283766  0.779135  0.786652  1
  O  O18  1  0.989487  0.181062  0.482430  1
  O  O19  1  0.989486  0.681069  0.982430  1
  O  O20  1  0.010635  0.813002  0.517027  1
  O  O21  1  0.010639  0.312990  0.017024  1
  O  O22  1  0.655955  0.622920  0.468938  1
  O  O23  1  0.655984  0.122918  0.968944  1
  O  O24  1  0.345071  0.378447  0.530947  1
  O  O25  1  0.345097  0.878441  0.030963  1
  O  O26  1  0.930535  0.962777  0.742385  1
  O  O27  1  0.930522  0.462785  0.242395  1
  O  O28  1  0.070060  0.036208  0.255960  1
  O  O29  1  0.070048  0.536219  0.755965  1
  O  O30  1  0.582563  0.946177  0.266589  1
  O  O31  1  0.582565  0.446173  0.766574  1
  O  O32  1  0.412530  0.053753  0.734701  1
  O  O33  1  0.412542  0.553753  0.234692  1
  O  O34  1  0.751278  0.232447  0.658141  1
  O  O35  1  0.751288  0.732469  0.158148  1
  O  O36  1  0.249926  0.762117  0.348390  1
  O  O37  1  0.249919  0.262129  0.848375  1
