# generated using pymatgen
data_CrIrPt2F24
_symmetry_space_group_name_H-M   'P 1'
_cell_length_a   5.14586329
_cell_length_b   8.90166600
_cell_length_c   9.73610059
_cell_angle_alpha   90.00000000
_cell_angle_beta   90.08466651
_cell_angle_gamma   90.00000000
_symmetry_Int_Tables_number   1
_chemical_formula_structural   CrIrPt2F24
_chemical_formula_sum   'Cr1 Ir1 Pt2 F24'
_cell_volume   445.97869955
_cell_formula_units_Z   1
loop_
 _symmetry_equiv_pos_site_id
 _symmetry_equiv_pos_as_xyz
  1  'x, y, z'
loop_
 _atom_site_type_symbol
 _atom_site_label
 _atom_site_symmetry_multiplicity
 _atom_site_fract_x
 _atom_site_fract_y
 _atom_site_fract_z
 _atom_site_occupancy
  Cr  Cr0  1  0.592741  0.250000  0.873061  1
  Ir  Ir1  1  0.906116  0.250000  0.373096  1
  Pt  Pt2  1  0.406213  0.750000  0.126310  1
  Pt  Pt3  1  0.094941  0.750000  0.627235  1
  F  F4  1  0.250777  0.598951  0.516712  1
  F  F5  1  0.249205  0.900918  0.016171  1
  F  F6  1  0.939151  0.900668  0.737750  1
  F  F7  1  0.197488  0.250000  0.488949  1
  F  F8  1  0.738335  0.110250  0.975300  1
  F  F9  1  0.562532  0.900667  0.237051  1
  F  F10  1  0.319537  0.250000  0.981664  1
  F  F11  1  0.250777  0.901049  0.516712  1
  F  F12  1  0.751677  0.399012  0.481765  1
  F  F13  1  0.447969  0.389647  0.770778  1
  F  F14  1  0.738335  0.389750  0.975300  1
  F  F15  1  0.798968  0.750000  0.510188  1
  F  F16  1  0.702030  0.750000  0.009696  1
  F  F17  1  0.249205  0.599082  0.016171  1
  F  F18  1  0.447969  0.110353  0.770778  1
  F  F19  1  0.060267  0.398915  0.264389  1
  F  F20  1  0.613879  0.250000  0.257723  1
  F  F21  1  0.562532  0.599333  0.237051  1
  F  F22  1  0.866811  0.250000  0.764809  1
  F  F23  1  0.110318  0.750000  0.243225  1
  F  F24  1  0.060267  0.101085  0.264389  1
  F  F25  1  0.939151  0.599332  0.737750  1
  F  F26  1  0.391130  0.750000  0.744210  1
  F  F27  1  0.751677  0.100988  0.481765  1
