# generated using pymatgen
data_Mn3Nb12Al8NiC4
_symmetry_space_group_name_H-M   'P 1'
_cell_length_a   8.28514781
_cell_length_b   8.25562404
_cell_length_c   8.28514900
_cell_angle_alpha   59.88163681
_cell_angle_beta   60.00000723
_cell_angle_gamma   59.88163670
_symmetry_Int_Tables_number   1
_chemical_formula_structural   Mn3Nb12Al8NiC4
_chemical_formula_sum   'Mn3 Nb12 Al8 Ni1 C4'
_cell_volume   399.99652346
_cell_formula_units_Z   1
loop_
 _symmetry_equiv_pos_site_id
 _symmetry_equiv_pos_as_xyz
  1  'x, y, z'
loop_
 _atom_site_type_symbol
 _atom_site_label
 _atom_site_symmetry_multiplicity
 _atom_site_fract_x
 _atom_site_fract_y
 _atom_site_fract_z
 _atom_site_occupancy
  Mn  Mn0  1  0.125000  0.625000  0.625000  1
  Mn  Mn1  1  0.625000  0.625000  0.125000  1
  Mn  Mn2  1  0.625000  0.625000  0.625000  1
  Nb  Nb3  1  0.804340  0.802733  0.196464  1
  Nb  Nb4  1  0.184951  0.199037  0.808006  1
  Nb  Nb5  1  0.808006  0.199037  0.808006  1
  Nb  Nb6  1  0.196464  0.802733  0.196464  1
  Nb  Nb7  1  0.196464  0.802733  0.804340  1
  Nb  Nb8  1  0.808006  0.199037  0.184951  1
  Nb  Nb9  1  0.445660  0.447267  0.053536  1
  Nb  Nb10  1  0.065049  0.050963  0.441994  1
  Nb  Nb11  1  0.441994  0.050963  0.441994  1
  Nb  Nb12  1  0.053536  0.447267  0.053536  1
  Nb  Nb13  1  0.053536  0.447267  0.445660  1
  Nb  Nb14  1  0.441994  0.050963  0.065049  1
  Al  Al15  1  0.750306  0.412375  0.418660  1
  Al  Al16  1  0.419236  0.742293  0.419236  1
  Al  Al17  1  0.418660  0.412375  0.750306  1
  Al  Al18  1  0.418660  0.412375  0.418660  1
  Al  Al19  1  0.499694  0.837625  0.831340  1
  Al  Al20  1  0.830764  0.507707  0.830764  1
  Al  Al21  1  0.831340  0.837625  0.499694  1
  Al  Al22  1  0.831340  0.837625  0.831340  1
  Ni  Ni23  1  0.625000  0.125000  0.625000  1
  C  C24  1  0.625000  0.125000  0.125000  1
  C  C25  1  0.125000  0.625000  0.125000  1
  C  C26  1  0.125000  0.125000  0.625000  1
  C  C27  1  0.125000  0.125000  0.125000  1
