# generated using pymatgen
data_Ho3BrO4
_symmetry_space_group_name_H-M   'P 1'
_cell_length_a   6.20250162
_cell_length_b   6.20250142
_cell_length_c   11.61108700
_cell_angle_alpha   90.00000000
_cell_angle_beta   90.00000000
_cell_angle_gamma   141.74745183
_symmetry_Int_Tables_number   1
_chemical_formula_structural   Ho3BrO4
_chemical_formula_sum   'Ho6 Br2 O8'
_cell_volume   276.55893675
_cell_formula_units_Z   2
loop_
 _symmetry_equiv_pos_site_id
 _symmetry_equiv_pos_as_xyz
  1  'x, y, z'
loop_
 _atom_site_type_symbol
 _atom_site_label
 _atom_site_symmetry_multiplicity
 _atom_site_fract_x
 _atom_site_fract_y
 _atom_site_fract_z
 _atom_site_occupancy
  Ho  Ho0  1  0.816791  0.183209  0.396989  1
  Ho  Ho1  1  0.183209  0.816791  0.603011  1
  Ho  Ho2  1  0.183209  0.816791  0.896989  1
  Ho  Ho3  1  0.816791  0.183209  0.103011  1
  Ho  Ho4  1  0.878125  0.121875  0.750000  1
  Ho  Ho5  1  0.121875  0.878125  0.250000  1
  Br  Br6  1  0.500000  0.500000  0.000000  1
  Br  Br7  1  0.500000  0.500000  0.500000  1
  O  O8  1  0.304782  0.695218  0.750000  1
  O  O9  1  0.695218  0.304782  0.250000  1
  O  O10  1  0.062946  0.937054  0.750000  1
  O  O11  1  0.937054  0.062946  0.250000  1
  O  O12  1  0.767899  0.232101  0.910169  1
  O  O13  1  0.232101  0.767899  0.089831  1
  O  O14  1  0.232101  0.767899  0.410169  1
  O  O15  1  0.767899  0.232101  0.589831  1
