# generated using pymatgen
data_Ho12Er7TmBi12
_symmetry_space_group_name_H-M   'P 1'
_cell_length_a   8.21937101
_cell_length_b   9.47556900
_cell_length_c   11.98996201
_cell_angle_alpha   89.99883051
_cell_angle_beta   89.99567433
_cell_angle_gamma   90.00171602
_symmetry_Int_Tables_number   1
_chemical_formula_structural   Ho12Er7TmBi12
_chemical_formula_sum   'Ho12 Er7 Tm1 Bi12'
_cell_volume   933.81681120
_cell_formula_units_Z   1
loop_
 _symmetry_equiv_pos_site_id
 _symmetry_equiv_pos_as_xyz
  1  'x, y, z'
loop_
 _atom_site_type_symbol
 _atom_site_label
 _atom_site_symmetry_multiplicity
 _atom_site_fract_x
 _atom_site_fract_y
 _atom_site_fract_z
 _atom_site_occupancy
  Ho  Ho0  1  0.353451  0.749971  0.216458  1
  Ho  Ho1  1  0.853497  0.749980  0.283574  1
  Ho  Ho2  1  0.646525  0.250000  0.783564  1
  Ho  Ho3  1  0.146513  0.249990  0.716444  1
  Ho  Ho4  1  0.476758  0.250009  0.488944  1
  Ho  Ho5  1  0.976776  0.249992  0.011058  1
  Ho  Ho6  1  0.523172  0.749974  0.511047  1
  Ho  Ho7  1  0.023221  0.750003  0.988945  1
  Ho  Ho8  1  0.314363  0.250002  0.218054  1
  Ho  Ho9  1  0.814349  0.250004  0.281942  1
  Ho  Ho10  1  0.685644  0.749999  0.781944  1
  Ho  Ho11  1  0.185632  0.749987  0.718043  1
  Er  Er12  1  0.691910  0.564765  0.058993  1
  Er  Er13  1  0.191929  0.935198  0.441020  1
  Er  Er14  1  0.308082  0.064762  0.941009  1
  Er  Er15  1  0.808091  0.435251  0.558989  1
  Er  Er16  1  0.308083  0.435244  0.941003  1
  Er  Er17  1  0.808093  0.064757  0.558981  1
  Er  Er18  1  0.691914  0.935239  0.058991  1
  Tm  Tm19  1  0.191935  0.564831  0.441008  1
  Bi  Bi20  1  0.405437  0.750000  0.957483  1
  Bi  Bi21  1  0.905476  0.749965  0.542506  1
  Bi  Bi22  1  0.594556  0.250000  0.042519  1
  Bi  Bi23  1  0.094587  0.250106  0.457472  1
  Bi  Bi24  1  0.566162  0.996120  0.325676  1
  Bi  Bi25  1  0.066175  0.503874  0.174343  1
  Bi  Bi26  1  0.433839  0.496121  0.674317  1
  Bi  Bi27  1  0.933839  0.003873  0.825667  1
  Bi  Bi28  1  0.433829  0.003872  0.674325  1
  Bi  Bi29  1  0.933846  0.496123  0.825666  1
  Bi  Bi30  1  0.566149  0.503870  0.325680  1
  Bi  Bi31  1  0.066168  0.996119  0.174334  1
