# generated using pymatgen
data_Nd3Dy17Rh12
_symmetry_space_group_name_H-M   'P 1'
_cell_length_a   10.95311507
_cell_length_b   10.95764174
_cell_length_c   6.39260727
_cell_angle_alpha   90.01273220
_cell_angle_beta   90.03065553
_cell_angle_gamma   90.04012226
_symmetry_Int_Tables_number   1
_chemical_formula_structural   Nd3Dy17Rh12
_chemical_formula_sum   'Nd3 Dy17 Rh12'
_cell_volume   767.24239419
_cell_formula_units_Z   1
loop_
 _symmetry_equiv_pos_site_id
 _symmetry_equiv_pos_as_xyz
  1  'x, y, z'
loop_
 _atom_site_type_symbol
 _atom_site_label
 _atom_site_symmetry_multiplicity
 _atom_site_fract_x
 _atom_site_fract_y
 _atom_site_fract_z
 _atom_site_occupancy
  Nd  Nd0  1  0.907713  0.286955  0.621086  1
  Nd  Nd1  1  0.212591  0.409308  0.621124  1
  Nd  Nd2  1  0.788348  0.593129  0.621347  1
  Dy  Dy3  1  0.090581  0.291461  0.118288  1
  Dy  Dy4  1  0.791383  0.410339  0.118287  1
  Dy  Dy5  1  0.208526  0.591931  0.118469  1
  Dy  Dy6  1  0.911427  0.709752  0.118830  1
  Dy  Dy7  1  0.411312  0.791514  0.382825  1
  Dy  Dy8  1  0.588062  0.208573  0.381602  1
  Dy  Dy9  1  0.291522  0.087886  0.381731  1
  Dy  Dy10  1  0.708497  0.912022  0.382674  1
  Dy  Dy11  1  0.413235  0.206869  0.884163  1
  Dy  Dy12  1  0.707240  0.086221  0.883987  1
  Dy  Dy13  1  0.290798  0.911788  0.882834  1
  Dy  Dy14  1  0.585929  0.792906  0.883682  1
  Dy  Dy15  1  0.091564  0.709763  0.618463  1
  Dy  Dy16  1  0.000159  0.999818  0.999089  1
  Dy  Dy17  1  0.499394  0.500414  0.997994  1
  Dy  Dy18  1  0.500210  0.500619  0.495717  1
  Dy  Dy19  1  0.001075  0.997920  0.497072  1
  Rh  Rh20  1  0.154510  0.845973  0.250063  1
  Rh  Rh21  1  0.347654  0.344714  0.244473  1
  Rh  Rh22  1  0.652057  0.655357  0.243702  1
  Rh  Rh23  1  0.844732  0.152126  0.244224  1
  Rh  Rh24  1  0.348538  0.657407  0.751512  1
  Rh  Rh25  1  0.157063  0.147621  0.753808  1
  Rh  Rh26  1  0.846830  0.850157  0.750874  1
  Rh  Rh27  1  0.647578  0.343093  0.753428  1
  Rh  Rh28  1  0.001088  0.502653  0.366657  1
  Rh  Rh29  1  0.499717  0.999518  0.128931  1
  Rh  Rh30  1  0.499395  0.999625  0.626790  1
  Rh  Rh31  1  0.001272  0.502567  0.876277  1
