# generated using pymatgen
data_Li3Zn(Si2Ni3)4
_symmetry_space_group_name_H-M   'P 1'
_cell_length_a   4.46897347
_cell_length_b   4.46009857
_cell_length_c   13.49912329
_cell_angle_alpha   88.32911164
_cell_angle_beta   89.25741201
_cell_angle_gamma   89.18523507
_symmetry_Int_Tables_number   1
_chemical_formula_structural   Li3Zn(Si2Ni3)4
_chemical_formula_sum   'Li3 Zn1 Si8 Ni12'
_cell_volume   268.90258019
_cell_formula_units_Z   1
loop_
 _symmetry_equiv_pos_site_id
 _symmetry_equiv_pos_as_xyz
  1  'x, y, z'
loop_
 _atom_site_type_symbol
 _atom_site_label
 _atom_site_symmetry_multiplicity
 _atom_site_fract_x
 _atom_site_fract_y
 _atom_site_fract_z
 _atom_site_occupancy
  Li  Li0  1  0.349532  0.825777  0.118037  1
  Li  Li1  1  0.347113  0.852686  0.449804  1
  Li  Li2  1  0.347850  0.844269  0.781607  1
  Zn  Zn3  1  0.847242  0.670117  0.213854  1
  Si  Si4  1  0.848360  0.673693  0.547646  1
  Si  Si5  1  0.850963  0.664528  0.879338  1
  Si  Si6  1  0.651551  0.342565  0.058117  1
  Si  Si7  1  0.648319  0.354976  0.387307  1
  Si  Si8  1  0.646227  0.347133  0.721432  1
  Si  Si9  1  0.158007  0.146861  0.281501  1
  Si  Si10  1  0.166940  0.148216  0.615938  1
  Si  Si11  1  0.175236  0.142250  0.949380  1
  Ni  Ni12  1  0.636272  0.162349  0.219557  1
  Ni  Ni13  1  0.651692  0.160404  0.551784  1
  Ni  Ni14  1  0.654242  0.153552  0.881386  1
  Ni  Ni15  1  0.141294  0.326827  0.113811  1
  Ni  Ni16  1  0.131082  0.354250  0.455240  1
  Ni  Ni17  1  0.135499  0.347582  0.784589  1
  Ni  Ni18  1  0.344247  0.637260  0.292684  1
  Ni  Ni19  1  0.357222  0.638626  0.617445  1
  Ni  Ni20  1  0.361488  0.630134  0.949181  1
  Ni  Ni21  1  0.849449  0.852226  0.035703  1
  Ni  Ni22  1  0.848903  0.868133  0.384308  1
  Ni  Ni23  1  0.851273  0.855584  0.710349  1
