# generated using pymatgen
data_Pr4Sm6B2Br15
_symmetry_space_group_name_H-M   'P 1'
_cell_length_a   9.41850194
_cell_length_b   10.14583539
_cell_length_c   10.99299082
_cell_angle_alpha   91.30822282
_cell_angle_beta   114.26777914
_cell_angle_gamma   110.88207862
_symmetry_Int_Tables_number   1
_chemical_formula_structural   Pr4Sm6B2Br15
_chemical_formula_sum   'Pr4 Sm6 B2 Br15'
_cell_volume   876.88718665
_cell_formula_units_Z   1
loop_
 _symmetry_equiv_pos_site_id
 _symmetry_equiv_pos_as_xyz
  1  'x, y, z'
loop_
 _atom_site_type_symbol
 _atom_site_label
 _atom_site_symmetry_multiplicity
 _atom_site_fract_x
 _atom_site_fract_y
 _atom_site_fract_z
 _atom_site_occupancy
  Pr  Pr0  1  0.802785  0.411613  0.278510  1
  Pr  Pr1  1  0.197215  0.588387  0.721490  1
  Pr  Pr2  1  0.673935  0.746155  0.817447  1
  Pr  Pr3  1  0.326065  0.253845  0.182553  1
  Sm  Sm4  1  0.524540  0.705959  0.094041  1
  Sm  Sm5  1  0.475460  0.294041  0.905959  1
  Sm  Sm6  1  0.585309  0.038563  0.322437  1
  Sm  Sm7  1  0.414691  0.961437  0.677563  1
  Sm  Sm8  1  0.721555  0.074351  0.047360  1
  Sm  Sm9  1  0.278445  0.925649  0.952640  1
  B  B10  1  0.466927  0.820820  0.877357  1
  B  B11  1  0.533073  0.179180  0.122643  1
  Br  Br12  1  0.000000  0.000000  0.000000  1
  Br  Br13  1  0.633012  0.887082  0.580304  1
  Br  Br14  1  0.366988  0.112918  0.419696  1
  Br  Br15  1  0.879261  0.292432  0.528267  1
  Br  Br16  1  0.120739  0.707568  0.471733  1
  Br  Br17  1  0.291890  0.763565  0.177854  1
  Br  Br18  1  0.708110  0.236435  0.822146  1
  Br  Br19  1  0.050277  0.338869  0.223084  1
  Br  Br20  1  0.168941  0.057288  0.706673  1
  Br  Br21  1  0.831059  0.942712  0.293327  1
  Br  Br22  1  0.238460  0.411601  0.946098  1
  Br  Br23  1  0.761540  0.588399  0.053902  1
  Br  Br24  1  0.407675  0.456679  0.660554  1
  Br  Br25  1  0.592325  0.543321  0.339446  1
  Br  Br26  1  0.949723  0.661131  0.776916  1
