# generated using pymatgen
data_K7NbP4
_symmetry_space_group_name_H-M   'P 1'
_cell_length_a   8.22736700
_cell_length_b   9.05385900
_cell_length_c   10.13251100
_cell_angle_alpha   90.00000000
_cell_angle_beta   90.00000000
_cell_angle_gamma   90.00000000
_symmetry_Int_Tables_number   1
_chemical_formula_structural   K7NbP4
_chemical_formula_sum   'K14 Nb2 P8'
_cell_volume   754.76487523
_cell_formula_units_Z   2
loop_
 _symmetry_equiv_pos_site_id
 _symmetry_equiv_pos_as_xyz
  1  'x, y, z'
loop_
 _atom_site_type_symbol
 _atom_site_label
 _atom_site_symmetry_multiplicity
 _atom_site_fract_x
 _atom_site_fract_y
 _atom_site_fract_z
 _atom_site_occupancy
  K  K0  1  0.877275  0.030036  0.000000  1
  K  K1  1  0.708402  0.833127  0.715392  1
  K  K2  1  0.391030  0.888082  0.000000  1
  K  K3  1  0.377275  0.969964  0.500000  1
  K  K4  1  0.873048  0.467794  0.288555  1
  K  K5  1  0.891030  0.111918  0.500000  1
  K  K6  1  0.664606  0.338961  0.000000  1
  K  K7  1  0.164606  0.661039  0.500000  1
  K  K8  1  0.208402  0.166873  0.215392  1
  K  K9  1  0.373048  0.532206  0.211445  1
  K  K10  1  0.373048  0.532206  0.788555  1
  K  K11  1  0.873048  0.467794  0.711445  1
  K  K12  1  0.708402  0.833127  0.284608  1
  K  K13  1  0.208402  0.166873  0.784608  1
  Nb  Nb14  1  0.998894  0.672486  0.000000  1
  Nb  Nb15  1  0.498894  0.327514  0.500000  1
  P  P16  1  0.704464  0.682789  0.000000  1
  P  P17  1  0.204464  0.317211  0.500000  1
  P  P18  1  0.076827  0.412562  0.000000  1
  P  P19  1  0.576827  0.587438  0.500000  1
  P  P20  1  0.092554  0.803676  0.199625  1
  P  P21  1  0.592554  0.196324  0.300375  1
  P  P22  1  0.592554  0.196324  0.699625  1
  P  P23  1  0.092554  0.803676  0.800375  1
