# generated using pymatgen
data_SmPa3CuTe12
_symmetry_space_group_name_H-M   'P 1'
_cell_length_a   7.48007583
_cell_length_b   7.48358419
_cell_length_c   11.21243753
_cell_angle_alpha   70.90055971
_cell_angle_beta   70.89844576
_cell_angle_gamma   69.51541028
_symmetry_Int_Tables_number   1
_chemical_formula_structural   SmPa3CuTe12
_chemical_formula_sum   'Sm1 Pa3 Cu1 Te12'
_cell_volume   539.31001778
_cell_formula_units_Z   1
loop_
 _symmetry_equiv_pos_site_id
 _symmetry_equiv_pos_as_xyz
  1  'x, y, z'
loop_
 _atom_site_type_symbol
 _atom_site_label
 _atom_site_symmetry_multiplicity
 _atom_site_fract_x
 _atom_site_fract_y
 _atom_site_fract_z
 _atom_site_occupancy
  Sm  Sm0  1  0.191972  0.687325  0.167116  1
  Pa  Pa1  1  0.811316  0.811494  0.831792  1
  Pa  Pa2  1  0.312804  0.312748  0.832495  1
  Pa  Pa3  1  0.689261  0.193416  0.162264  1
  Cu  Cu4  1  0.811777  0.814483  0.535401  1
  Te  Te5  1  0.004277  0.016809  0.327696  1
  Te  Te6  1  0.508567  0.492779  0.334613  1
  Te  Te7  1  0.485864  0.990160  0.675526  1
  Te  Te8  1  0.992202  0.487929  0.671313  1
  Te  Te9  1  0.264304  0.249486  0.337195  1
  Te  Te10  1  0.746276  0.759854  0.332740  1
  Te  Te11  1  0.243104  0.741621  0.674302  1
  Te  Te12  1  0.742134  0.243969  0.670502  1
  Te  Te13  1  0.016484  0.029868  0.938739  1
  Te  Te14  1  0.528080  0.516278  0.938872  1
  Te  Te15  1  0.484763  0.984877  0.051998  1
  Te  Te16  1  0.978113  0.478201  0.051834  1
