# generated using pymatgen
data_Dy15Ho5(IrPt5)2
_symmetry_space_group_name_H-M   'P 1'
_cell_length_a   11.03187101
_cell_length_b   11.03229803
_cell_length_c   6.41052901
_cell_angle_alpha   90.00710064
_cell_angle_beta   90.00180652
_cell_angle_gamma   89.99660336
_symmetry_Int_Tables_number   1
_chemical_formula_structural   Dy15Ho5(IrPt5)2
_chemical_formula_sum   'Dy15 Ho5 Ir2 Pt10'
_cell_volume   780.20553352
_cell_formula_units_Z   1
loop_
 _symmetry_equiv_pos_site_id
 _symmetry_equiv_pos_as_xyz
  1  'x, y, z'
loop_
 _atom_site_type_symbol
 _atom_site_label
 _atom_site_symmetry_multiplicity
 _atom_site_fract_x
 _atom_site_fract_y
 _atom_site_fract_z
 _atom_site_occupancy
  Dy  Dy0  1  0.292404  0.911511  0.877346  1
  Dy  Dy1  1  0.707616  0.088553  0.877266  1
  Dy  Dy2  1  0.707608  0.911438  0.377291  1
  Dy  Dy3  1  0.588584  0.792406  0.877311  1
  Dy  Dy4  1  0.588469  0.207579  0.377295  1
  Dy  Dy5  1  0.411401  0.792492  0.377308  1
  Dy  Dy6  1  0.411361  0.207539  0.877313  1
  Dy  Dy7  1  0.205199  0.412128  0.623277  1
  Dy  Dy8  1  0.205189  0.587857  0.123292  1
  Dy  Dy9  1  0.794793  0.412138  0.123311  1
  Dy  Dy10  1  0.794809  0.587837  0.623301  1
  Dy  Dy11  1  0.912148  0.705198  0.123305  1
  Dy  Dy12  1  0.912151  0.294794  0.623310  1
  Dy  Dy13  1  0.087861  0.705203  0.623272  1
  Dy  Dy14  1  0.087906  0.294773  0.123356  1
  Ho  Ho15  1  0.292546  0.088563  0.377461  1
  Ho  Ho16  1  0.000095  0.000034  0.500456  1
  Ho  Ho17  1  0.000035  0.000012  0.000534  1
  Ho  Ho18  1  0.500001  0.499985  0.000495  1
  Ho  Ho19  1  0.499996  0.499999  0.500479  1
  Ir  Ir20  1  0.000005  0.499997  0.877840  1
  Ir  Ir21  1  0.000008  0.499984  0.377880  1
  Pt  Pt22  1  0.846167  0.152671  0.249865  1
  Pt  Pt23  1  0.846187  0.847325  0.749870  1
  Pt  Pt24  1  0.153931  0.152607  0.749534  1
  Pt  Pt25  1  0.153864  0.847440  0.249922  1
  Pt  Pt26  1  0.652672  0.346181  0.749862  1
  Pt  Pt27  1  0.652684  0.653816  0.249857  1
  Pt  Pt28  1  0.347270  0.346016  0.249942  1
  Pt  Pt29  1  0.347328  0.653815  0.749868  1
  Pt  Pt30  1  0.499877  0.000045  0.119425  1
  Pt  Pt31  1  0.499836  0.000065  0.619158  1
