# generated using pymatgen
data_Dy4Y3Sn23Ir6
_symmetry_space_group_name_H-M   'P 1'
_cell_length_a   9.85597380
_cell_length_b   9.85597394
_cell_length_c   10.09694300
_cell_angle_alpha   89.94345979
_cell_angle_beta   90.05654021
_cell_angle_gamma   119.92248084
_symmetry_Int_Tables_number   1
_chemical_formula_structural   Dy4Y3Sn23Ir6
_chemical_formula_sum   'Dy4 Y3 Sn23 Ir6'
_cell_volume   850.07658458
_cell_formula_units_Z   1
loop_
 _symmetry_equiv_pos_site_id
 _symmetry_equiv_pos_as_xyz
  1  'x, y, z'
loop_
 _atom_site_type_symbol
 _atom_site_label
 _atom_site_symmetry_multiplicity
 _atom_site_fract_x
 _atom_site_fract_y
 _atom_site_fract_z
 _atom_site_occupancy
  Dy  Dy0  1  0.480958  0.961609  0.306711  1
  Dy  Dy1  1  0.519042  0.038391  0.693289  1
  Dy  Dy2  1  0.038391  0.519042  0.306711  1
  Dy  Dy3  1  0.961609  0.480958  0.693289  1
  Y  Y4  1  0.000000  0.000000  0.000000  1
  Y  Y5  1  0.480474  0.519526  0.307184  1
  Y  Y6  1  0.519526  0.480474  0.692816  1
  Sn  Sn7  1  0.352528  0.999968  0.999775  1
  Sn  Sn8  1  0.647472  0.000032  0.000225  1
  Sn  Sn9  1  0.999968  0.352528  0.000225  1
  Sn  Sn10  1  0.000032  0.647472  0.999775  1
  Sn  Sn11  1  0.647532  0.647532  0.000000  1
  Sn  Sn12  1  0.352468  0.352468  0.000000  1
  Sn  Sn13  1  0.333363  0.666637  0.826686  1
  Sn  Sn14  1  0.666637  0.333363  0.173314  1
  Sn  Sn15  1  0.000000  0.000000  0.500000  1
  Sn  Sn16  1  0.777991  0.222009  0.457693  1
  Sn  Sn17  1  0.222009  0.777991  0.542307  1
  Sn  Sn18  1  0.778476  0.556060  0.457457  1
  Sn  Sn19  1  0.221524  0.443940  0.542543  1
  Sn  Sn20  1  0.443940  0.221524  0.457457  1
  Sn  Sn21  1  0.556060  0.778476  0.542543  1
  Sn  Sn22  1  0.333021  0.666979  0.123040  1
  Sn  Sn23  1  0.666979  0.333021  0.876960  1
  Sn  Sn24  1  0.119105  0.880895  0.283487  1
  Sn  Sn25  1  0.880895  0.119105  0.716513  1
  Sn  Sn26  1  0.119058  0.237808  0.283339  1
  Sn  Sn27  1  0.880942  0.762192  0.716661  1
  Sn  Sn28  1  0.762192  0.880942  0.283339  1
  Sn  Sn29  1  0.237808  0.119058  0.716661  1
  Ir  Ir30  1  0.830846  0.169154  0.198810  1
  Ir  Ir31  1  0.169154  0.830846  0.801190  1
  Ir  Ir32  1  0.831408  0.661789  0.198612  1
  Ir  Ir33  1  0.168592  0.338211  0.801388  1
  Ir  Ir34  1  0.338211  0.168592  0.198612  1
  Ir  Ir35  1  0.661789  0.831408  0.801388  1
