# generated using pymatgen
data_Sc2CrReOs2
_symmetry_space_group_name_H-M   'P 1'
_cell_length_a   5.08054994
_cell_length_b   5.26078458
_cell_length_c   8.61189500
_cell_angle_alpha   90.00000000
_cell_angle_beta   90.00000000
_cell_angle_gamma   121.18061797
_symmetry_Int_Tables_number   1
_chemical_formula_structural   Sc2CrReOs2
_chemical_formula_sum   'Sc4 Cr2 Re2 Os4'
_cell_volume   196.92461665
_cell_formula_units_Z   2
loop_
 _symmetry_equiv_pos_site_id
 _symmetry_equiv_pos_as_xyz
  1  'x, y, z'
loop_
 _atom_site_type_symbol
 _atom_site_label
 _atom_site_symmetry_multiplicity
 _atom_site_fract_x
 _atom_site_fract_y
 _atom_site_fract_z
 _atom_site_occupancy
  Sc  Sc0  1  0.336488  0.667700  0.436092  1
  Sc  Sc1  1  0.663512  0.331211  0.936092  1
  Sc  Sc2  1  0.663512  0.331211  0.563908  1
  Sc  Sc3  1  0.336488  0.667700  0.063908  1
  Cr  Cr4  1  0.662413  0.832631  0.750000  1
  Cr  Cr5  1  0.337587  0.170219  0.250000  1
  Re  Re6  1  0.176909  0.831051  0.750000  1
  Re  Re7  1  0.823091  0.654141  0.250000  1
  Os  Os8  1  0.821957  0.175020  0.250000  1
  Os  Os9  1  0.178043  0.353063  0.750000  1
  Os  Os10  1  0.000000  0.993027  0.500000  1
  Os  Os11  1  0.000000  0.993027  0.000000  1
