# generated using pymatgen
data_Tb9CeRu4
_symmetry_space_group_name_H-M   'P 1'
_cell_length_a   8.65602075
_cell_length_b   8.63270095
_cell_length_c   7.23737781
_cell_angle_alpha   83.02907624
_cell_angle_beta   84.18200845
_cell_angle_gamma   43.39492765
_symmetry_Int_Tables_number   1
_chemical_formula_structural   Tb9CeRu4
_chemical_formula_sum   'Tb9 Ce1 Ru4'
_cell_volume   368.73486914
_cell_formula_units_Z   1
loop_
 _symmetry_equiv_pos_site_id
 _symmetry_equiv_pos_as_xyz
  1  'x, y, z'
loop_
 _atom_site_type_symbol
 _atom_site_label
 _atom_site_symmetry_multiplicity
 _atom_site_fract_x
 _atom_site_fract_y
 _atom_site_fract_z
 _atom_site_occupancy
  Tb  Tb0  1  0.018338  0.792243  0.916690  1
  Tb  Tb1  1  0.212316  0.355914  0.312546  1
  Tb  Tb2  1  0.643186  0.791896  0.186386  1
  Tb  Tb3  1  0.797175  0.639936  0.683716  1
  Tb  Tb4  1  0.359653  0.208807  0.813941  1
  Tb  Tb5  1  0.975044  0.208841  0.085162  1
  Tb  Tb6  1  0.793468  0.021699  0.415651  1
  Tb  Tb7  1  0.572972  0.424655  0.751276  1
  Tb  Tb8  1  0.421683  0.579978  0.252205  1
  Ce  Ce9  1  0.197736  0.992065  0.599501  1
  Ru  Ru10  1  0.174478  0.602956  0.573637  1
  Ru  Ru11  1  0.380930  0.838034  0.900047  1
  Ru  Ru12  1  0.852191  0.366792  0.434044  1
  Ru  Ru13  1  0.600830  0.176186  0.075197  1
