# generated using pymatgen
data_Hf11Ti5(Mn2N)4
_symmetry_space_group_name_H-M   'P 1'
_cell_length_a   8.31873612
_cell_length_b   8.36875375
_cell_length_c   8.36875434
_cell_angle_alpha   60.09982190
_cell_angle_beta   60.19751161
_cell_angle_gamma   60.19751040
_symmetry_Int_Tables_number   1
_chemical_formula_structural   Hf11Ti5(Mn2N)4
_chemical_formula_sum   'Hf11 Ti5 Mn8 N4'
_cell_volume   413.50671726
_cell_formula_units_Z   1
loop_
 _symmetry_equiv_pos_site_id
 _symmetry_equiv_pos_as_xyz
  1  'x, y, z'
loop_
 _atom_site_type_symbol
 _atom_site_label
 _atom_site_symmetry_multiplicity
 _atom_site_fract_x
 _atom_site_fract_y
 _atom_site_fract_z
 _atom_site_occupancy
  Hf  Hf0  1  0.808009  0.812126  0.188131  1
  Hf  Hf1  1  0.191733  0.188131  0.812126  1
  Hf  Hf2  1  0.808009  0.188131  0.812126  1
  Hf  Hf3  1  0.191733  0.812126  0.188131  1
  Hf  Hf4  1  0.188670  0.811330  0.811330  1
  Hf  Hf5  1  0.811276  0.188724  0.188724  1
  Hf  Hf6  1  0.438867  0.437442  0.060876  1
  Hf  Hf7  1  0.062815  0.060876  0.437442  1
  Hf  Hf8  1  0.438867  0.060876  0.437442  1
  Hf  Hf9  1  0.062815  0.437442  0.060876  1
  Hf  Hf10  1  0.060659  0.439341  0.439341  1
  Ti  Ti11  1  0.125330  0.624705  0.624705  1
  Ti  Ti12  1  0.624290  0.124505  0.626913  1
  Ti  Ti13  1  0.624290  0.626913  0.124505  1
  Ti  Ti14  1  0.625260  0.624705  0.624705  1
  Ti  Ti15  1  0.436797  0.063203  0.063203  1
  Mn  Mn16  1  0.736791  0.420441  0.420441  1
  Mn  Mn17  1  0.420947  0.739083  0.419023  1
  Mn  Mn18  1  0.420947  0.419023  0.739083  1
  Mn  Mn19  1  0.422328  0.420441  0.420441  1
  Mn  Mn20  1  0.512605  0.829530  0.829530  1
  Mn  Mn21  1  0.828992  0.511620  0.830396  1
  Mn  Mn22  1  0.828992  0.830396  0.511620  1
  Mn  Mn23  1  0.828335  0.829530  0.829530  1
  N  N24  1  0.620758  0.124044  0.124044  1
  N  N25  1  0.124363  0.625836  0.125437  1
  N  N26  1  0.124363  0.125437  0.625836  1
  N  N27  1  0.131153  0.124044  0.124044  1
