# generated using pymatgen
data_Rb3U2InI12
_symmetry_space_group_name_H-M   'P 1'
_cell_length_a   8.60208105
_cell_length_b   8.41070586
_cell_length_c   14.69980900
_cell_angle_alpha   54.94562459
_cell_angle_beta   90.06206430
_cell_angle_gamma   89.57887556
_symmetry_Int_Tables_number   1
_chemical_formula_structural   Rb3U2InI12
_chemical_formula_sum   'Rb3 U2 In1 I12'
_cell_volume   870.56749573
_cell_formula_units_Z   1
loop_
 _symmetry_equiv_pos_site_id
 _symmetry_equiv_pos_as_xyz
  1  'x, y, z'
loop_
 _atom_site_type_symbol
 _atom_site_label
 _atom_site_symmetry_multiplicity
 _atom_site_fract_x
 _atom_site_fract_y
 _atom_site_fract_z
 _atom_site_occupancy
  Rb  Rb0  1  0.439678  0.735745  0.250061  1
  Rb  Rb1  1  0.934501  0.266703  0.248728  1
  Rb  Rb2  1  0.063361  0.734187  0.751285  1
  U  U3  1  0.998812  0.002997  0.997866  1
  U  U4  1  0.500106  0.997889  0.503593  1
  In  In5  1  0.583490  0.251819  0.748786  1
  I  I6  1  0.798625  0.331877  0.960997  1
  I  I7  1  0.503465  0.176122  0.256887  1
  I  I8  1  0.495908  0.843146  0.747339  1
  I  I9  1  0.294613  0.225395  0.955078  1
  I  I10  1  0.315455  0.656096  0.548825  1
  I  I11  1  0.202789  0.221313  0.467742  1
  I  I12  1  0.193294  0.670143  0.033788  1
  I  I13  1  0.792558  0.769477  0.536942  1
  I  I14  1  0.703555  0.784222  0.028688  1
  I  I15  1  0.008237  0.823417  0.244263  1
  I  I16  1  0.977593  0.181690  0.750930  1
  I  I17  1  0.693962  0.327763  0.468203  1
