# generated using pymatgen
data_Tb4HoTm3(ReB6)4
_symmetry_space_group_name_H-M   'P 1'
_cell_length_a   3.67061400
_cell_length_b   9.14971102
_cell_length_c   11.54474902
_cell_angle_alpha   90.00692077
_cell_angle_beta   90.00000000
_cell_angle_gamma   90.00000000
_symmetry_Int_Tables_number   1
_chemical_formula_structural   Tb4HoTm3(ReB6)4
_chemical_formula_sum   'Tb4 Ho1 Tm3 Re4 B24'
_cell_volume   387.73105518
_cell_formula_units_Z   1
loop_
 _symmetry_equiv_pos_site_id
 _symmetry_equiv_pos_as_xyz
  1  'x, y, z'
loop_
 _atom_site_type_symbol
 _atom_site_label
 _atom_site_symmetry_multiplicity
 _atom_site_fract_x
 _atom_site_fract_y
 _atom_site_fract_z
 _atom_site_occupancy
  Tb  Tb0  1  0.000000  0.323337  0.413996  1
  Tb  Tb1  1  0.000000  0.676635  0.586132  1
  Tb  Tb2  1  0.000000  0.823186  0.085883  1
  Tb  Tb3  1  0.000000  0.176799  0.913929  1
  Ho  Ho4  1  0.000000  0.943381  0.370281  1
  Tm  Tm5  1  0.000000  0.056868  0.630321  1
  Tm  Tm6  1  0.000000  0.443272  0.129817  1
  Tm  Tm7  1  0.000000  0.556737  0.870057  1
  Re  Re8  1  0.000000  0.638549  0.319985  1
  Re  Re9  1  0.000000  0.360874  0.680034  1
  Re  Re10  1  0.000000  0.139622  0.179519  1
  Re  Re11  1  0.000000  0.860765  0.820136  1
  B  B12  1  0.500000  0.553487  0.432424  1
  B  B13  1  0.500000  0.446234  0.567659  1
  B  B14  1  0.500000  0.053775  0.067443  1
  B  B15  1  0.500000  0.946268  0.932348  1
  B  B16  1  0.500000  0.749496  0.418090  1
  B  B17  1  0.500000  0.249816  0.581968  1
  B  B18  1  0.500000  0.250341  0.081841  1
  B  B19  1  0.500000  0.749746  0.918065  1
  B  B20  1  0.500000  0.792055  0.265400  1
  B  B21  1  0.500000  0.207417  0.734452  1
  B  B22  1  0.500000  0.292865  0.234327  1
  B  B23  1  0.500000  0.707361  0.765596  1
  B  B24  1  0.500000  0.630104  0.185141  1
  B  B25  1  0.500000  0.369721  0.814742  1
  B  B26  1  0.500000  0.130858  0.314403  1
  B  B27  1  0.500000  0.869671  0.685351  1
  B  B28  1  0.500000  0.982587  0.212176  1
  B  B29  1  0.500000  0.017709  0.787431  1
  B  B30  1  0.500000  0.482136  0.287333  1
  B  B31  1  0.500000  0.517749  0.712613  1
  B  B32  1  0.500000  0.598263  0.027314  1
  B  B33  1  0.500000  0.401733  0.972619  1
  B  B34  1  0.500000  0.099061  0.473120  1
  B  B35  1  0.500000  0.901521  0.528051  1
