# generated using pymatgen
data_K2LiSbO4
_symmetry_space_group_name_H-M   'P 1'
_cell_length_a   5.84828488
_cell_length_b   5.84828420
_cell_length_c   8.34557227
_cell_angle_alpha   89.07344641
_cell_angle_beta   89.07344951
_cell_angle_gamma   86.94826867
_symmetry_Int_Tables_number   1
_chemical_formula_structural   K2LiSbO4
_chemical_formula_sum   'K4 Li2 Sb2 O8'
_cell_volume   284.96330538
_cell_formula_units_Z   2
loop_
 _symmetry_equiv_pos_site_id
 _symmetry_equiv_pos_as_xyz
  1  'x, y, z'
loop_
 _atom_site_type_symbol
 _atom_site_label
 _atom_site_symmetry_multiplicity
 _atom_site_fract_x
 _atom_site_fract_y
 _atom_site_fract_z
 _atom_site_occupancy
  K  K0  1  0.739617  0.739617  0.213181  1
  K  K1  1  0.773485  0.226516  0.500000  1
  K  K2  1  0.226516  0.773485  0.500000  1
  K  K3  1  0.260383  0.260383  0.786819  1
  Li  Li4  1  0.816661  0.183339  0.000000  1
  Li  Li5  1  0.183339  0.816661  0.000000  1
  Sb  Sb6  1  0.304560  0.304560  0.228353  1
  Sb  Sb7  1  0.695441  0.695441  0.771646  1
  O  O8  1  0.132954  0.132954  0.085755  1
  O  O9  1  0.625268  0.237103  0.194288  1
  O  O10  1  0.237103  0.625268  0.194288  1
  O  O11  1  0.242168  0.242168  0.451251  1
  O  O12  1  0.757831  0.757831  0.548748  1
  O  O13  1  0.762896  0.374732  0.805711  1
  O  O14  1  0.374732  0.762896  0.805711  1
  O  O15  1  0.867045  0.867045  0.914245  1
