# generated using pymatgen
data_Tb9Nd8Dy3Pb16
_symmetry_space_group_name_H-M   'P 1'
_cell_length_a   8.30140007
_cell_length_b   15.89531246
_cell_length_c   8.39634200
_cell_angle_alpha   90.00244390
_cell_angle_beta   90.00728155
_cell_angle_gamma   90.02440263
_symmetry_Int_Tables_number   1
_chemical_formula_structural   Tb9Nd8Dy3Pb16
_chemical_formula_sum   'Tb9 Nd8 Dy3 Pb16'
_cell_volume   1107.92532648
_cell_formula_units_Z   1
loop_
 _symmetry_equiv_pos_site_id
 _symmetry_equiv_pos_as_xyz
  1  'x, y, z'
loop_
 _atom_site_type_symbol
 _atom_site_label
 _atom_site_symmetry_multiplicity
 _atom_site_fract_x
 _atom_site_fract_y
 _atom_site_fract_z
 _atom_site_occupancy
  Tb  Tb0  1  0.631571  0.621763  0.159012  1
  Tb  Tb1  1  0.131883  0.877902  0.341191  1
  Tb  Tb2  1  0.367903  0.121862  0.841033  1
  Tb  Tb3  1  0.868210  0.377876  0.658835  1
  Tb  Tb4  1  0.368001  0.378038  0.841151  1
  Tb  Tb5  1  0.868453  0.122358  0.658636  1
  Tb  Tb6  1  0.631957  0.878370  0.158715  1
  Tb  Tb7  1  0.132108  0.622002  0.341238  1
  Tb  Tb8  1  0.798391  0.749933  0.496077  1
  Nd  Nd9  1  0.473248  0.597964  0.677450  1
  Nd  Nd10  1  0.973544  0.901656  0.823062  1
  Nd  Nd11  1  0.527175  0.098218  0.322705  1
  Nd  Nd12  1  0.026532  0.401670  0.177124  1
  Nd  Nd13  1  0.526639  0.401572  0.322362  1
  Nd  Nd14  1  0.026487  0.098404  0.177174  1
  Nd  Nd15  1  0.473245  0.902045  0.677672  1
  Nd  Nd16  1  0.973457  0.598408  0.822930  1
  Dy  Dy17  1  0.298204  0.749919  0.004378  1
  Dy  Dy18  1  0.201777  0.249996  0.504378  1
  Dy  Dy19  1  0.701441  0.250053  0.995634  1
  Pb  Pb20  1  0.708280  0.456725  0.961773  1
  Pb  Pb21  1  0.208244  0.043689  0.537102  1
  Pb  Pb22  1  0.291185  0.956727  0.038474  1
  Pb  Pb23  1  0.792026  0.543128  0.462190  1
  Pb  Pb24  1  0.291128  0.543110  0.038246  1
  Pb  Pb25  1  0.792083  0.956768  0.462444  1
  Pb  Pb26  1  0.708589  0.043520  0.961434  1
  Pb  Pb27  1  0.208160  0.456271  0.537244  1
  Pb  Pb28  1  0.436349  0.750134  0.371799  1
  Pb  Pb29  1  0.936541  0.749874  0.127134  1
  Pb  Pb30  1  0.563385  0.250061  0.628095  1
  Pb  Pb31  1  0.063306  0.250187  0.872683  1
  Pb  Pb32  1  0.661146  0.749997  0.850057  1
  Pb  Pb33  1  0.162820  0.750061  0.650803  1
  Pb  Pb34  1  0.338439  0.249681  0.150696  1
  Pb  Pb35  1  0.838093  0.250055  0.349069  1
