# generated using pymatgen
data_AgSeF5
_symmetry_space_group_name_H-M   'P 1'
_cell_length_a   5.50502600
_cell_length_b   7.89122100
_cell_length_c   10.82438400
_cell_angle_alpha   90.00000000
_cell_angle_beta   90.00000000
_cell_angle_gamma   90.00000000
_symmetry_Int_Tables_number   1
_chemical_formula_structural   AgSeF5
_chemical_formula_sum   'Ag4 Se4 F20'
_cell_volume   470.22614372
_cell_formula_units_Z   4
loop_
 _symmetry_equiv_pos_site_id
 _symmetry_equiv_pos_as_xyz
  1  'x, y, z'
loop_
 _atom_site_type_symbol
 _atom_site_label
 _atom_site_symmetry_multiplicity
 _atom_site_fract_x
 _atom_site_fract_y
 _atom_site_fract_z
 _atom_site_occupancy
  Ag  Ag0  1  0.568024  0.250000  0.000000  1
  Ag  Ag1  1  0.431976  0.750000  0.500000  1
  Ag  Ag2  1  0.431976  0.750000  0.000000  1
  Ag  Ag3  1  0.568024  0.250000  0.500000  1
  Se  Se4  1  0.135848  0.076862  0.250000  1
  Se  Se5  1  0.135848  0.423138  0.750000  1
  Se  Se6  1  0.864152  0.576862  0.250000  1
  Se  Se7  1  0.864152  0.923138  0.750000  1
  F  F8  1  0.716383  0.724641  0.750000  1
  F  F9  1  0.716383  0.775359  0.250000  1
  F  F10  1  0.283617  0.224641  0.750000  1
  F  F11  1  0.283617  0.275359  0.250000  1
  F  F12  1  0.935006  0.169418  0.369641  1
  F  F13  1  0.935006  0.330582  0.630359  1
  F  F14  1  0.064994  0.669418  0.130359  1
  F  F15  1  0.064994  0.830582  0.869641  1
  F  F16  1  0.369816  0.024304  0.120496  1
  F  F17  1  0.369816  0.475696  0.879504  1
  F  F18  1  0.630184  0.524304  0.379504  1
  F  F19  1  0.630184  0.975696  0.620496  1
  F  F20  1  0.630184  0.975696  0.879504  1
  F  F21  1  0.630184  0.524304  0.120496  1
  F  F22  1  0.369816  0.475696  0.620496  1
  F  F23  1  0.369816  0.024304  0.379504  1
  F  F24  1  0.935006  0.169418  0.130359  1
  F  F25  1  0.935006  0.330582  0.869641  1
  F  F26  1  0.064994  0.669418  0.369641  1
  F  F27  1  0.064994  0.830582  0.630359  1
