# generated using pymatgen
data_TbYbGa9CoPd2
_symmetry_space_group_name_H-M   'P 1'
_cell_length_a   7.58480956
_cell_length_b   7.58480871
_cell_length_c   9.46110600
_cell_angle_alpha   90.00000000
_cell_angle_beta   90.00000000
_cell_angle_gamma   119.57961371
_symmetry_Int_Tables_number   1
_chemical_formula_structural   TbYbGa9CoPd2
_chemical_formula_sum   'Tb2 Yb2 Ga18 Co2 Pd4'
_cell_volume   473.35396746
_cell_formula_units_Z   2
loop_
 _symmetry_equiv_pos_site_id
 _symmetry_equiv_pos_as_xyz
  1  'x, y, z'
loop_
 _atom_site_type_symbol
 _atom_site_label
 _atom_site_symmetry_multiplicity
 _atom_site_fract_x
 _atom_site_fract_y
 _atom_site_fract_z
 _atom_site_occupancy
  Tb  Tb0  1  0.318116  0.991744  0.250000  1
  Tb  Tb1  1  0.008256  0.681884  0.750000  1
  Yb  Yb2  1  0.667708  0.986880  0.750000  1
  Yb  Yb3  1  0.013120  0.332292  0.250000  1
  Ga  Ga4  1  0.349647  0.015428  0.919925  1
  Ga  Ga5  1  0.984572  0.650353  0.080075  1
  Ga  Ga6  1  0.349647  0.015428  0.580075  1
  Ga  Ga7  1  0.984572  0.650353  0.419925  1
  Ga  Ga8  1  0.666899  0.018590  0.079117  1
  Ga  Ga9  1  0.981410  0.333101  0.920883  1
  Ga  Ga10  1  0.666899  0.018590  0.420883  1
  Ga  Ga11  1  0.981410  0.333101  0.579117  1
  Ga  Ga12  1  0.665797  0.658044  0.935484  1
  Ga  Ga13  1  0.341956  0.334203  0.064516  1
  Ga  Ga14  1  0.665797  0.658044  0.564516  1
  Ga  Ga15  1  0.341956  0.334203  0.435484  1
  Ga  Ga16  1  0.131813  0.136889  0.750000  1
  Ga  Ga17  1  0.863111  0.868187  0.250000  1
  Ga  Ga18  1  0.463019  0.663836  0.250000  1
  Ga  Ga19  1  0.336164  0.536981  0.750000  1
  Ga  Ga20  1  0.570892  0.338818  0.750000  1
  Ga  Ga21  1  0.661182  0.429108  0.250000  1
  Co  Co22  1  0.667647  0.332353  0.000000  1
  Co  Co23  1  0.667647  0.332353  0.500000  1
  Pd  Pd24  1  0.998782  0.001218  0.000000  1
  Pd  Pd25  1  0.998782  0.001218  0.500000  1
  Pd  Pd26  1  0.326600  0.673400  0.000000  1
  Pd  Pd27  1  0.326600  0.673400  0.500000  1
