# generated using pymatgen
data_YbEr(MgIr)2
_symmetry_space_group_name_H-M   'P 1'
_cell_length_a   4.09189000
_cell_length_b   7.04957975
_cell_length_c   8.51892300
_cell_angle_alpha   90.30327265
_cell_angle_beta   90.00000000
_cell_angle_gamma   90.00000000
_symmetry_Int_Tables_number   1
_chemical_formula_structural   YbEr(MgIr)2
_chemical_formula_sum   'Yb2 Er2 Mg4 Ir4'
_cell_volume   245.73430407
_cell_formula_units_Z   2
loop_
 _symmetry_equiv_pos_site_id
 _symmetry_equiv_pos_as_xyz
  1  'x, y, z'
loop_
 _atom_site_type_symbol
 _atom_site_label
 _atom_site_symmetry_multiplicity
 _atom_site_fract_x
 _atom_site_fract_y
 _atom_site_fract_z
 _atom_site_occupancy
  Yb  Yb0  1  0.250000  0.535163  0.173099  1
  Yb  Yb1  1  0.750000  0.464837  0.826901  1
  Er  Er2  1  0.750000  0.962985  0.672209  1
  Er  Er3  1  0.250000  0.037015  0.327791  1
  Mg  Mg4  1  0.250000  0.635018  0.559291  1
  Mg  Mg5  1  0.750000  0.364982  0.440709  1
  Mg  Mg6  1  0.750000  0.862463  0.058077  1
  Mg  Mg7  1  0.250000  0.137537  0.941923  1
  Ir  Ir8  1  0.250000  0.766004  0.862012  1
  Ir  Ir9  1  0.750000  0.233996  0.137988  1
  Ir  Ir10  1  0.750000  0.752527  0.374714  1
  Ir  Ir11  1  0.250000  0.247473  0.625286  1
