# generated using pymatgen
data_CaSmB5Os3
_symmetry_space_group_name_H-M   'P 1'
_cell_length_a   5.67105115
_cell_length_b   5.64823322
_cell_length_c   8.14180774
_cell_angle_alpha   56.88125097
_cell_angle_beta   57.21428966
_cell_angle_gamma   42.05590339
_symmetry_Int_Tables_number   1
_chemical_formula_structural   CaSmB5Os3
_chemical_formula_sum   'Ca1 Sm1 B5 Os3'
_cell_volume   141.96103706
_cell_formula_units_Z   1
loop_
 _symmetry_equiv_pos_site_id
 _symmetry_equiv_pos_as_xyz
  1  'x, y, z'
loop_
 _atom_site_type_symbol
 _atom_site_label
 _atom_site_symmetry_multiplicity
 _atom_site_fract_x
 _atom_site_fract_y
 _atom_site_fract_z
 _atom_site_occupancy
  Ca  Ca0  1  0.068722  0.603075  0.263132  1
  Sm  Sm1  1  0.387430  0.932678  0.747718  1
  B  B2  1  0.734257  0.263435  0.002680  1
  B  B3  1  0.531082  0.516642  0.381073  1
  B  B4  1  0.483612  0.476342  0.616058  1
  B  B5  1  0.082766  0.624955  0.808261  1
  B  B6  1  0.375271  0.917164  0.187541  1
  Os  Os7  1  0.011714  0.985790  0.497433  1
  Os  Os8  1  0.616330  0.125000  0.898811  1
  Os  Os9  1  0.875087  0.388647  0.097294  1
