# generated using pymatgen
data_Dy16Sc4(Ir3Au)3
_symmetry_space_group_name_H-M   'P 1'
_cell_length_a   10.93408214
_cell_length_b   10.93408214
_cell_length_c   6.28501023
_cell_angle_alpha   90.02234734
_cell_angle_beta   90.02234734
_cell_angle_gamma   90.44087009
_symmetry_Int_Tables_number   1
_chemical_formula_structural   Dy16Sc4(Ir3Au)3
_chemical_formula_sum   'Dy16 Sc4 Ir9 Au3'
_cell_volume   751.37671072
_cell_formula_units_Z   1
loop_
 _symmetry_equiv_pos_site_id
 _symmetry_equiv_pos_as_xyz
  1  'x, y, z'
loop_
 _atom_site_type_symbol
 _atom_site_label
 _atom_site_symmetry_multiplicity
 _atom_site_fract_x
 _atom_site_fract_y
 _atom_site_fract_z
 _atom_site_occupancy
  Dy  Dy0  1  0.293945  0.082119  0.363268  1
  Dy  Dy1  1  0.292954  0.906517  0.876726  1
  Dy  Dy2  1  0.702863  0.090542  0.868000  1
  Dy  Dy3  1  0.700420  0.909320  0.367832  1
  Dy  Dy4  1  0.578926  0.784610  0.880107  1
  Dy  Dy5  1  0.579513  0.214461  0.380569  1
  Dy  Dy6  1  0.412567  0.785891  0.380500  1
  Dy  Dy7  1  0.417625  0.215354  0.879392  1
  Dy  Dy8  1  0.215390  0.421074  0.619893  1
  Dy  Dy9  1  0.214109  0.587433  0.119500  1
  Dy  Dy10  1  0.785539  0.420487  0.119431  1
  Dy  Dy11  1  0.784646  0.582375  0.620608  1
  Dy  Dy12  1  0.917881  0.706055  0.136732  1
  Dy  Dy13  1  0.909458  0.297137  0.632000  1
  Dy  Dy14  1  0.093483  0.707046  0.623274  1
  Dy  Dy15  1  0.090680  0.299580  0.132168  1
  Sc  Sc16  1  0.005227  0.992536  0.496350  1
  Sc  Sc17  1  0.007464  0.994773  0.003650  1
  Sc  Sc18  1  0.499259  0.499990  0.001119  1
  Sc  Sc19  1  0.500010  0.500741  0.498881  1
  Ir  Ir20  1  0.145744  0.854256  0.250000  1
  Ir  Ir21  1  0.646689  0.353311  0.750000  1
  Ir  Ir22  1  0.647239  0.647393  0.250048  1
  Ir  Ir23  1  0.352607  0.352761  0.249952  1
  Ir  Ir24  1  0.352826  0.647174  0.750000  1
  Ir  Ir25  1  0.500510  0.999938  0.115648  1
  Ir  Ir26  1  0.499396  0.999593  0.620641  1
  Ir  Ir27  1  0.000407  0.500604  0.879359  1
  Ir  Ir28  1  0.000062  0.499490  0.384352  1
  Au  Au29  1  0.852472  0.147528  0.250000  1
  Au  Au30  1  0.849229  0.849140  0.750970  1
  Au  Au31  1  0.150860  0.150771  0.749030  1
