# generated using pymatgen
data_DyLu9GaSb5
_symmetry_space_group_name_H-M   'P 1'
_cell_length_a   6.25385900
_cell_length_b   8.73920568
_cell_length_c   8.71634200
_cell_angle_alpha   119.92589931
_cell_angle_beta   89.99913880
_cell_angle_gamma   90.00231781
_symmetry_Int_Tables_number   1
_chemical_formula_structural   DyLu9GaSb5
_chemical_formula_sum   'Dy1 Lu9 Ga1 Sb5'
_cell_volume   412.86563695
_cell_formula_units_Z   1
loop_
 _symmetry_equiv_pos_site_id
 _symmetry_equiv_pos_as_xyz
  1  'x, y, z'
loop_
 _atom_site_type_symbol
 _atom_site_label
 _atom_site_symmetry_multiplicity
 _atom_site_fract_x
 _atom_site_fract_y
 _atom_site_fract_z
 _atom_site_occupancy
  Dy  Dy0  1  0.249985  0.000070  0.758074  1
  Lu  Lu1  1  0.502482  0.340351  0.675938  1
  Lu  Lu2  1  0.502775  0.666613  0.325271  1
  Lu  Lu3  1  0.997207  0.666574  0.325227  1
  Lu  Lu4  1  0.997535  0.340360  0.675904  1
  Lu  Lu5  1  0.749987  0.248574  0.000830  1
  Lu  Lu6  1  0.750007  0.752684  0.766066  1
  Lu  Lu7  1  0.750010  0.987663  0.231314  1
  Lu  Lu8  1  0.250000  0.757289  0.999664  1
  Lu  Lu9  1  0.250002  0.242714  0.241563  1
  Ga  Ga10  1  0.750024  0.604496  0.000592  1
  Sb  Sb11  1  0.749984  0.389440  0.391370  1
  Sb  Sb12  1  0.749995  0.997987  0.608933  1
  Sb  Sb13  1  0.249983  0.395826  0.002179  1
  Sb  Sb14  1  0.250009  0.605180  0.603670  1
  Sb  Sb15  1  0.250016  0.004178  0.393406  1
