# generated using pymatgen
data_Nd11In3(Hg3Rh2)2
_symmetry_space_group_name_H-M   'P 1'
_cell_length_a   13.39588251
_cell_length_b   13.37846683
_cell_length_c   3.85385400
_cell_angle_alpha   90.00000000
_cell_angle_beta   90.00000000
_cell_angle_gamma   113.82021609
_symmetry_Int_Tables_number   1
_chemical_formula_structural   Nd11In3(Hg3Rh2)2
_chemical_formula_sum   'Nd11 In3 Hg6 Rh4'
_cell_volume   631.84021937
_cell_formula_units_Z   1
loop_
 _symmetry_equiv_pos_site_id
 _symmetry_equiv_pos_as_xyz
  1  'x, y, z'
loop_
 _atom_site_type_symbol
 _atom_site_label
 _atom_site_symmetry_multiplicity
 _atom_site_fract_x
 _atom_site_fract_y
 _atom_site_fract_z
 _atom_site_occupancy
  Nd  Nd0  1  0.082100  0.416097  0.000000  1
  Nd  Nd1  1  0.917900  0.583903  0.000000  1
  Nd  Nd2  1  0.419799  0.082303  0.000000  1
  Nd  Nd3  1  0.580201  0.917697  0.000000  1
  Nd  Nd4  1  0.625508  0.372102  0.000000  1
  Nd  Nd5  1  0.374492  0.627898  0.000000  1
  Nd  Nd6  1  0.835918  0.162349  0.000000  1
  Nd  Nd7  1  0.164082  0.837651  0.000000  1
  Nd  Nd8  1  0.000000  0.000000  0.000000  1
  Nd  Nd9  1  0.307070  0.309963  0.000000  1
  Nd  Nd10  1  0.692930  0.690037  0.000000  1
  In  In11  1  0.217993  0.074974  0.500000  1
  In  In12  1  0.782007  0.925026  0.500000  1
  In  In13  1  0.500000  0.500000  0.500000  1
  Hg  Hg14  1  0.847182  0.369384  0.500000  1
  Hg  Hg15  1  0.152818  0.630616  0.500000  1
  Hg  Hg16  1  0.365343  0.844699  0.500000  1
  Hg  Hg17  1  0.634657  0.155301  0.500000  1
  Hg  Hg18  1  0.073282  0.214528  0.500000  1
  Hg  Hg19  1  0.926718  0.785472  0.500000  1
  Rh  Rh20  1  0.254251  0.455211  0.500000  1
  Rh  Rh21  1  0.745749  0.544789  0.500000  1
  Rh  Rh22  1  0.445068  0.249716  0.500000  1
  Rh  Rh23  1  0.554932  0.750284  0.500000  1
