# generated using pymatgen
data_Ho4ErMg(P2Ru3)6
_symmetry_space_group_name_H-M   'P 1'
_cell_length_a   12.62777611
_cell_length_b   12.46598755
_cell_length_c   3.97669100
_cell_angle_alpha   90.00000000
_cell_angle_beta   90.00000000
_cell_angle_gamma   119.57707117
_symmetry_Int_Tables_number   1
_chemical_formula_structural   Ho4ErMg(P2Ru3)6
_chemical_formula_sum   'Ho4 Er1 Mg1 P12 Ru18'
_cell_volume   544.42886971
_cell_formula_units_Z   1
loop_
 _symmetry_equiv_pos_site_id
 _symmetry_equiv_pos_as_xyz
  1  'x, y, z'
loop_
 _atom_site_type_symbol
 _atom_site_label
 _atom_site_symmetry_multiplicity
 _atom_site_fract_x
 _atom_site_fract_y
 _atom_site_fract_z
 _atom_site_occupancy
  Ho  Ho0  1  0.816190  0.817999  0.500000  1
  Ho  Ho1  1  0.183810  0.001809  0.500000  1
  Ho  Ho2  1  0.660731  0.328926  0.000000  1
  Ho  Ho3  1  0.339269  0.668196  0.000000  1
  Er  Er4  1  0.000000  0.181086  0.500000  1
  Mg  Mg5  1  0.000000  0.561361  0.000000  1
  P  P6  1  0.000000  0.812601  0.000000  1
  P  P7  1  0.182910  0.183484  0.000000  1
  P  P8  1  0.817090  0.000574  0.000000  1
  P  P9  1  0.691198  0.172145  0.500000  1
  P  P10  1  0.819042  0.518633  0.500000  1
  P  P11  1  0.475269  0.307216  0.500000  1
  P  P12  1  0.180958  0.699591  0.500000  1
  P  P13  1  0.524731  0.831946  0.500000  1
  P  P14  1  0.308802  0.480946  0.500000  1
  P  P15  1  0.000000  0.359553  0.000000  1
  P  P16  1  0.625909  0.625644  0.000000  1
  P  P17  1  0.374091  0.999735  0.000000  1
  Ru  Ru18  1  0.444670  0.444571  0.000000  1
  Ru  Ru19  1  0.555330  0.999901  0.000000  1
  Ru  Ru20  1  0.000000  0.717203  0.500000  1
  Ru  Ru21  1  0.281644  0.283163  0.500000  1
  Ru  Ru22  1  0.718356  0.001519  0.500000  1
  Ru  Ru23  1  0.805405  0.184169  0.000000  1
  Ru  Ru24  1  0.813583  0.620369  0.000000  1
  Ru  Ru25  1  0.373361  0.189052  0.000000  1
  Ru  Ru26  1  0.186417  0.806786  0.000000  1
  Ru  Ru27  1  0.626639  0.815691  0.000000  1
  Ru  Ru28  1  0.194595  0.378765  0.000000  1
  Ru  Ru29  1  0.874870  0.365463  0.500000  1
  Ru  Ru30  1  0.631341  0.509568  0.500000  1
  Ru  Ru31  1  0.492602  0.128759  0.500000  1
  Ru  Ru32  1  0.368659  0.878227  0.500000  1
  Ru  Ru33  1  0.507398  0.636158  0.500000  1
  Ru  Ru34  1  0.125130  0.490592  0.500000  1
  Ru  Ru35  1  0.000000  0.998596  0.000000  1
