# generated using pymatgen
data_TmCo2(AsRu)3
_symmetry_space_group_name_H-M   'P 1'
_cell_length_a   3.87206800
_cell_length_b   11.02431800
_cell_length_c   12.49150000
_cell_angle_alpha   90.00000000
_cell_angle_beta   90.00000000
_cell_angle_gamma   90.00000000
_symmetry_Int_Tables_number   1
_chemical_formula_structural   TmCo2(AsRu)3
_chemical_formula_sum   'Tm4 Co8 As12 Ru12'
_cell_volume   533.22352314
_cell_formula_units_Z   4
loop_
 _symmetry_equiv_pos_site_id
 _symmetry_equiv_pos_as_xyz
  1  'x, y, z'
loop_
 _atom_site_type_symbol
 _atom_site_label
 _atom_site_symmetry_multiplicity
 _atom_site_fract_x
 _atom_site_fract_y
 _atom_site_fract_z
 _atom_site_occupancy
  Tm  Tm0  1  0.250000  0.584758  0.704670  1
  Tm  Tm1  1  0.250000  0.915242  0.204670  1
  Tm  Tm2  1  0.750000  0.415242  0.295330  1
  Tm  Tm3  1  0.750000  0.084758  0.795330  1
  Co  Co4  1  0.250000  0.886538  0.695232  1
  Co  Co5  1  0.250000  0.613462  0.195232  1
  Co  Co6  1  0.750000  0.113462  0.304768  1
  Co  Co7  1  0.750000  0.386538  0.804768  1
  Co  Co8  1  0.250000  0.465097  0.934060  1
  Co  Co9  1  0.250000  0.034903  0.434060  1
  Co  Co10  1  0.750000  0.534903  0.065940  1
  Co  Co11  1  0.750000  0.965097  0.565940  1
  As  As12  1  0.250000  0.424326  0.114691  1
  As  As13  1  0.250000  0.075674  0.614691  1
  As  As14  1  0.750000  0.575674  0.885309  1
  As  As15  1  0.750000  0.924326  0.385309  1
  As  As16  1  0.250000  0.270681  0.872288  1
  As  As17  1  0.250000  0.229319  0.372288  1
  As  As18  1  0.750000  0.729319  0.127712  1
  As  As19  1  0.750000  0.770681  0.627712  1
  As  As20  1  0.250000  0.598684  0.384644  1
  As  As21  1  0.250000  0.901316  0.884644  1
  As  As22  1  0.750000  0.401316  0.615356  1
  As  As23  1  0.750000  0.098684  0.115356  1
  Ru  Ru24  1  0.250000  0.705175  0.986418  1
  Ru  Ru25  1  0.250000  0.794825  0.486418  1
  Ru  Ru26  1  0.750000  0.294825  0.013582  1
  Ru  Ru27  1  0.750000  0.205175  0.513582  1
  Ru  Ru28  1  0.250000  0.406238  0.485929  1
  Ru  Ru29  1  0.250000  0.093762  0.985929  1
  Ru  Ru30  1  0.750000  0.593762  0.514071  1
  Ru  Ru31  1  0.750000  0.906238  0.014071  1
  Ru  Ru32  1  0.250000  0.221814  0.179920  1
  Ru  Ru33  1  0.250000  0.278186  0.679920  1
  Ru  Ru34  1  0.750000  0.778186  0.820080  1
  Ru  Ru35  1  0.750000  0.721814  0.320080  1
