# generated using pymatgen
data_Nd(ThPd4)3
_symmetry_space_group_name_H-M   'P 1'
_cell_length_a   5.94289200
_cell_length_b   5.94286650
_cell_length_c   9.79725100
_cell_angle_alpha   90.00003448
_cell_angle_beta   90.00000000
_cell_angle_gamma   120.00014194
_symmetry_Int_Tables_number   1
_chemical_formula_structural   Nd(ThPd4)3
_chemical_formula_sum   'Nd1 Th3 Pd12'
_cell_volume   299.65950481
_cell_formula_units_Z   1
loop_
 _symmetry_equiv_pos_site_id
 _symmetry_equiv_pos_as_xyz
  1  'x, y, z'
loop_
 _atom_site_type_symbol
 _atom_site_label
 _atom_site_symmetry_multiplicity
 _atom_site_fract_x
 _atom_site_fract_y
 _atom_site_fract_z
 _atom_site_occupancy
  Nd  Nd0  1  0.000000  0.000000  0.000000  1
  Th  Th1  1  0.333329  0.666656  0.246649  1
  Th  Th2  1  0.000000  0.000000  0.500000  1
  Th  Th3  1  0.666671  0.333343  0.753351  1
  Pd  Pd4  1  0.500000  0.000000  0.000000  1
  Pd  Pd5  1  0.999999  0.500001  0.000000  1
  Pd  Pd6  1  0.500001  0.500001  0.000000  1
  Pd  Pd7  1  0.349995  0.174990  0.251694  1
  Pd  Pd8  1  0.824996  0.174990  0.251694  1
  Pd  Pd9  1  0.824999  0.649998  0.251694  1
  Pd  Pd10  1  0.500000  0.000000  0.500000  1
  Pd  Pd11  1  0.999999  0.500001  0.500000  1
  Pd  Pd12  1  0.500001  0.500001  0.500000  1
  Pd  Pd13  1  0.175001  0.350003  0.748306  1
  Pd  Pd14  1  0.175006  0.825011  0.748306  1
  Pd  Pd15  1  0.650005  0.825011  0.748306  1
