# generated using pymatgen
data_Ac2Sm2DySn4
_symmetry_space_group_name_H-M   'P 1'
_cell_length_a   8.43547000
_cell_length_b   8.49635200
_cell_length_c   16.27500800
_cell_angle_alpha   90.00000000
_cell_angle_beta   90.00000000
_cell_angle_gamma   90.00000000
_symmetry_Int_Tables_number   1
_chemical_formula_structural   Ac2Sm2DySn4
_chemical_formula_sum   'Ac8 Sm8 Dy4 Sn16'
_cell_volume   1166.44158051
_cell_formula_units_Z   4
loop_
 _symmetry_equiv_pos_site_id
 _symmetry_equiv_pos_as_xyz
  1  'x, y, z'
loop_
 _atom_site_type_symbol
 _atom_site_label
 _atom_site_symmetry_multiplicity
 _atom_site_fract_x
 _atom_site_fract_y
 _atom_site_fract_z
 _atom_site_occupancy
  Ac  Ac0  1  0.519832  0.320463  0.902971  1
  Ac  Ac1  1  0.019832  0.179537  0.597029  1
  Ac  Ac2  1  0.480168  0.679537  0.402971  1
  Ac  Ac3  1  0.980168  0.820463  0.097029  1
  Ac  Ac4  1  0.480168  0.679537  0.097029  1
  Ac  Ac5  1  0.980168  0.820463  0.402971  1
  Ac  Ac6  1  0.519832  0.320463  0.597029  1
  Ac  Ac7  1  0.019832  0.179537  0.902971  1
  Sm  Sm8  1  0.365812  0.840136  0.878408  1
  Sm  Sm9  1  0.865812  0.659864  0.621592  1
  Sm  Sm10  1  0.634188  0.159864  0.378408  1
  Sm  Sm11  1  0.134188  0.340136  0.121592  1
  Sm  Sm12  1  0.634188  0.159864  0.121592  1
  Sm  Sm13  1  0.134188  0.340136  0.378408  1
  Sm  Sm14  1  0.365812  0.840136  0.621592  1
  Sm  Sm15  1  0.865812  0.659864  0.878408  1
  Dy  Dy16  1  0.200130  0.505622  0.750000  1
  Dy  Dy17  1  0.700130  0.994378  0.750000  1
  Dy  Dy18  1  0.799870  0.494378  0.250000  1
  Dy  Dy19  1  0.299870  0.005622  0.250000  1
  Sn  Sn20  1  0.299356  0.041394  0.045757  1
  Sn  Sn21  1  0.799356  0.458606  0.454243  1
  Sn  Sn22  1  0.700644  0.958606  0.545757  1
  Sn  Sn23  1  0.200644  0.541394  0.954243  1
  Sn  Sn24  1  0.700644  0.958606  0.954243  1
  Sn  Sn25  1  0.200644  0.541394  0.545757  1
  Sn  Sn26  1  0.299356  0.041394  0.454243  1
  Sn  Sn27  1  0.799356  0.458606  0.045757  1
  Sn  Sn28  1  0.564406  0.628794  0.750000  1
  Sn  Sn29  1  0.064406  0.871206  0.750000  1
  Sn  Sn30  1  0.435594  0.371206  0.250000  1
  Sn  Sn31  1  0.935594  0.128794  0.250000  1
  Sn  Sn32  1  0.325354  0.138934  0.750000  1
  Sn  Sn33  1  0.825354  0.361066  0.750000  1
  Sn  Sn34  1  0.674646  0.861066  0.250000  1
  Sn  Sn35  1  0.174646  0.638934  0.250000  1
