# generated using pymatgen
data_DyErCo9CuP6
_symmetry_space_group_name_H-M   'P 1'
_cell_length_a   3.66822400
_cell_length_b   10.25321500
_cell_length_c   11.80459200
_cell_angle_alpha   90.00000000
_cell_angle_beta   90.00000000
_cell_angle_gamma   90.00000000
_symmetry_Int_Tables_number   1
_chemical_formula_structural   DyErCo9CuP6
_chemical_formula_sum   'Dy2 Er2 Co18 Cu2 P12'
_cell_volume   443.98356434
_cell_formula_units_Z   2
loop_
 _symmetry_equiv_pos_site_id
 _symmetry_equiv_pos_as_xyz
  1  'x, y, z'
loop_
 _atom_site_type_symbol
 _atom_site_label
 _atom_site_symmetry_multiplicity
 _atom_site_fract_x
 _atom_site_fract_y
 _atom_site_fract_z
 _atom_site_occupancy
  Dy  Dy0  1  0.750000  0.418894  0.296789  1
  Dy  Dy1  1  0.750000  0.081106  0.796789  1
  Er  Er2  1  0.250000  0.578574  0.701884  1
  Er  Er3  1  0.250000  0.921426  0.201884  1
  Co  Co4  1  0.750000  0.287497  0.008563  1
  Co  Co5  1  0.750000  0.212503  0.508563  1
  Co  Co6  1  0.250000  0.405028  0.487419  1
  Co  Co7  1  0.250000  0.094972  0.987419  1
  Co  Co8  1  0.750000  0.592037  0.515844  1
  Co  Co9  1  0.750000  0.907963  0.015844  1
  Co  Co10  1  0.250000  0.223355  0.175144  1
  Co  Co11  1  0.250000  0.276645  0.675144  1
  Co  Co12  1  0.750000  0.777444  0.826185  1
  Co  Co13  1  0.750000  0.722556  0.326185  1
  Co  Co14  1  0.250000  0.880691  0.698715  1
  Co  Co15  1  0.250000  0.619309  0.198715  1
  Co  Co16  1  0.750000  0.120131  0.299795  1
  Co  Co17  1  0.750000  0.379869  0.799795  1
  Co  Co18  1  0.250000  0.465749  0.931163  1
  Co  Co19  1  0.250000  0.034251  0.431163  1
  Co  Co20  1  0.750000  0.535560  0.066147  1
  Co  Co21  1  0.750000  0.964440  0.566147  1
  Cu  Cu22  1  0.250000  0.712478  0.991194  1
  Cu  Cu23  1  0.250000  0.787522  0.491194  1
  P  P24  1  0.250000  0.421201  0.111545  1
  P  P25  1  0.250000  0.078799  0.611545  1
  P  P26  1  0.750000  0.576248  0.883397  1
  P  P27  1  0.750000  0.923752  0.383397  1
  P  P28  1  0.250000  0.269005  0.867980  1
  P  P29  1  0.250000  0.230995  0.367980  1
  P  P30  1  0.750000  0.731165  0.139008  1
  P  P31  1  0.750000  0.768835  0.639008  1
  P  P32  1  0.250000  0.599078  0.391547  1
  P  P33  1  0.250000  0.900922  0.891547  1
  P  P34  1  0.750000  0.396118  0.607683  1
  P  P35  1  0.750000  0.103882  0.107683  1
