# generated using pymatgen
data_Sm2Tm3Lu3(WO6)4
_symmetry_space_group_name_H-M   'P 1'
_cell_length_a   5.37572608
_cell_length_b   7.67116682
_cell_length_c   11.40075360
_cell_angle_alpha   75.38318719
_cell_angle_beta   90.00737342
_cell_angle_gamma   90.01948632
_symmetry_Int_Tables_number   1
_chemical_formula_structural   Sm2Tm3Lu3(WO6)4
_chemical_formula_sum   'Sm2 Tm3 Lu3 W4 O24'
_cell_volume   454.92911655
_cell_formula_units_Z   1
loop_
 _symmetry_equiv_pos_site_id
 _symmetry_equiv_pos_as_xyz
  1  'x, y, z'
loop_
 _atom_site_type_symbol
 _atom_site_label
 _atom_site_symmetry_multiplicity
 _atom_site_fract_x
 _atom_site_fract_y
 _atom_site_fract_z
 _atom_site_occupancy
  Sm  Sm0  1  0.314501  0.499920  0.749960  1
  Sm  Sm1  1  0.685605  0.499690  0.250263  1
  Tm  Tm2  1  0.256783  0.000175  0.749728  1
  Tm  Tm3  1  0.184196  0.796862  0.077736  1
  Tm  Tm4  1  0.743299  0.000201  0.250331  1
  Lu  Lu5  1  0.184087  0.203553  0.421843  1
  Lu  Lu6  1  0.815700  0.203871  0.921749  1
  Lu  Lu7  1  0.815809  0.796467  0.578083  1
  W  W8  1  0.744787  0.727068  0.884452  1
  W  W9  1  0.255559  0.727202  0.385042  1
  W  W10  1  0.744628  0.272733  0.615204  1
  W  W11  1  0.255366  0.272593  0.115227  1
  O  O12  1  0.540872  0.155084  0.068736  1
  O  O13  1  0.041974  0.057857  0.103737  1
  O  O14  1  0.016492  0.719191  0.768361  1
  O  O15  1  0.458778  0.155468  0.568739  1
  O  O16  1  0.350205  0.489672  0.387145  1
  O  O17  1  0.956560  0.056505  0.603605  1
  O  O18  1  0.543680  0.796590  0.724398  1
  O  O19  1  0.457704  0.796504  0.225524  1
  O  O20  1  0.143601  0.639797  0.547966  1
  O  O21  1  0.043578  0.943568  0.396404  1
  O  O22  1  0.460284  0.845299  0.930214  1
  O  O23  1  0.456324  0.203057  0.275425  1
  O  O24  1  0.856416  0.360081  0.452201  1
  O  O25  1  0.649458  0.489479  0.886906  1
  O  O26  1  0.351303  0.509534  0.112951  1
  O  O27  1  0.956339  0.943737  0.896054  1
  O  O28  1  0.541213  0.844692  0.431600  1
  O  O29  1  0.983952  0.281063  0.231773  1
  O  O30  1  0.543581  0.203277  0.775316  1
  O  O31  1  0.854372  0.638939  0.047716  1
  O  O32  1  0.016163  0.280806  0.731563  1
  O  O33  1  0.143722  0.360242  0.952102  1
  O  O34  1  0.983369  0.719004  0.269084  1
  O  O35  1  0.649741  0.510223  0.612863  1
