# generated using pymatgen
data_Y3HoAl12(GaIr)6
_symmetry_space_group_name_H-M   'P 1'
_cell_length_a   7.52684807
_cell_length_b   7.52765462
_cell_length_c   9.59722000
_cell_angle_alpha   90.00000000
_cell_angle_beta   90.00000000
_cell_angle_gamma   119.64700284
_symmetry_Int_Tables_number   1
_chemical_formula_structural   Y3HoAl12(GaIr)6
_chemical_formula_sum   'Y3 Ho1 Al12 Ga6 Ir6'
_cell_volume   472.58806900
_cell_formula_units_Z   1
loop_
 _symmetry_equiv_pos_site_id
 _symmetry_equiv_pos_as_xyz
  1  'x, y, z'
loop_
 _atom_site_type_symbol
 _atom_site_label
 _atom_site_symmetry_multiplicity
 _atom_site_fract_x
 _atom_site_fract_y
 _atom_site_fract_z
 _atom_site_occupancy
  Y  Y0  1  0.996306  0.669471  0.250000  1
  Y  Y1  1  0.003702  0.330483  0.750000  1
  Y  Y2  1  0.669538  0.996353  0.250000  1
  Ho  Ho3  1  0.330407  0.003666  0.750000  1
  Al  Al4  1  0.001986  0.334371  0.072171  1
  Al  Al5  1  0.998390  0.666000  0.927517  1
  Al  Al6  1  0.998390  0.666000  0.572483  1
  Al  Al7  1  0.334376  0.001997  0.428183  1
  Al  Al8  1  0.001986  0.334371  0.427829  1
  Al  Al9  1  0.665267  0.998036  0.572495  1
  Al  Al10  1  0.665267  0.998036  0.927505  1
  Al  Al11  1  0.334376  0.001997  0.071817  1
  Al  Al12  1  0.334282  0.333923  0.555305  1
  Al  Al13  1  0.665720  0.665715  0.445046  1
  Al  Al14  1  0.665720  0.665715  0.054954  1
  Al  Al15  1  0.334282  0.333923  0.944695  1
  Ga  Ga16  1  0.128274  0.128284  0.250000  1
  Ga  Ga17  1  0.872288  0.871782  0.750000  1
  Ga  Ga18  1  0.338393  0.546326  0.250000  1
  Ga  Ga19  1  0.660991  0.452961  0.750000  1
  Ga  Ga20  1  0.546326  0.338370  0.250000  1
  Ga  Ga21  1  0.453579  0.662072  0.750000  1
  Ir  Ir22  1  0.671346  0.328335  0.999836  1
  Ir  Ir23  1  0.328473  0.671660  0.999805  1
  Ir  Ir24  1  0.328473  0.671660  0.500195  1
  Ir  Ir25  1  0.671346  0.328335  0.500164  1
  Ir  Ir26  1  0.000258  0.000079  0.999798  1
  Ir  Ir27  1  0.000258  0.000079  0.500202  1
