# generated using pymatgen
data_NdYBeCoSi4
_symmetry_space_group_name_H-M   'P 1'
_cell_length_a   8.49910539
_cell_length_b   8.49910385
_cell_length_c   3.96433500
_cell_angle_alpha   90.00000000
_cell_angle_beta   90.00000000
_cell_angle_gamma   152.22283766
_symmetry_Int_Tables_number   1
_chemical_formula_structural   NdYBeCoSi4
_chemical_formula_sum   'Nd1 Y1 Be1 Co1 Si4'
_cell_volume   133.45483554
_cell_formula_units_Z   1
loop_
 _symmetry_equiv_pos_site_id
 _symmetry_equiv_pos_as_xyz
  1  'x, y, z'
loop_
 _atom_site_type_symbol
 _atom_site_label
 _atom_site_symmetry_multiplicity
 _atom_site_fract_x
 _atom_site_fract_y
 _atom_site_fract_z
 _atom_site_occupancy
  Nd  Nd0  1  0.112333  0.887667  0.250000  1
  Y  Y1  1  0.897858  0.102142  0.750000  1
  Be  Be2  1  0.672522  0.327478  0.750000  1
  Co  Co3  1  0.317980  0.682020  0.250000  1
  Si  Si4  1  0.536703  0.463297  0.750000  1
  Si  Si5  1  0.454029  0.545971  0.250000  1
  Si  Si6  1  0.253290  0.746710  0.750000  1
  Si  Si7  1  0.755285  0.244715  0.250000  1
