# generated using pymatgen
data_Dy9Er(GePb3)2
_symmetry_space_group_name_H-M   'P 1'
_cell_length_a   9.34204800
_cell_length_b   9.34204823
_cell_length_c   6.54872300
_cell_angle_alpha   90.00000000
_cell_angle_beta   90.00000000
_cell_angle_gamma   120.00001336
_symmetry_Int_Tables_number   1
_chemical_formula_structural   Dy9Er(GePb3)2
_chemical_formula_sum   'Dy9 Er1 Ge2 Pb6'
_cell_volume   494.96147077
_cell_formula_units_Z   1
loop_
 _symmetry_equiv_pos_site_id
 _symmetry_equiv_pos_as_xyz
  1  'x, y, z'
loop_
 _atom_site_type_symbol
 _atom_site_label
 _atom_site_symmetry_multiplicity
 _atom_site_fract_x
 _atom_site_fract_y
 _atom_site_fract_z
 _atom_site_occupancy
  Dy  Dy0  1  0.251379  0.999883  0.249823  1
  Dy  Dy1  1  0.748504  0.999883  0.750177  1
  Dy  Dy2  1  0.000117  0.251496  0.249823  1
  Dy  Dy3  1  0.000117  0.748621  0.750177  1
  Dy  Dy4  1  0.748504  0.748621  0.249823  1
  Dy  Dy5  1  0.251379  0.251496  0.750177  1
  Dy  Dy6  1  0.333333  0.666667  0.000000  1
  Dy  Dy7  1  0.666667  0.333333  0.000000  1
  Dy  Dy8  1  0.666667  0.333333  0.500000  1
  Er  Er9  1  0.333333  0.666667  0.500000  1
  Ge  Ge10  1  0.000000  0.000000  0.000000  1
  Ge  Ge11  1  0.000000  0.000000  0.500000  1
  Pb  Pb12  1  0.607193  0.999781  0.250065  1
  Pb  Pb13  1  0.392589  0.999781  0.749935  1
  Pb  Pb14  1  0.000219  0.607411  0.250065  1
  Pb  Pb15  1  0.000219  0.392807  0.749935  1
  Pb  Pb16  1  0.392589  0.392807  0.250065  1
  Pb  Pb17  1  0.607193  0.607411  0.749935  1
