# generated using pymatgen
data_Zr5U3Ir8
_symmetry_space_group_name_H-M   'P 1'
_cell_length_a   5.52598683
_cell_length_b   10.32790102
_cell_length_c   5.50304893
_cell_angle_alpha   89.77711612
_cell_angle_beta   100.03613539
_cell_angle_gamma   90.26986159
_symmetry_Int_Tables_number   1
_chemical_formula_structural   Zr5U3Ir8
_chemical_formula_sum   'Zr5 U3 Ir8'
_cell_volume   309.25834914
_cell_formula_units_Z   1
loop_
 _symmetry_equiv_pos_site_id
 _symmetry_equiv_pos_as_xyz
  1  'x, y, z'
loop_
 _atom_site_type_symbol
 _atom_site_label
 _atom_site_symmetry_multiplicity
 _atom_site_fract_x
 _atom_site_fract_y
 _atom_site_fract_z
 _atom_site_occupancy
  Zr  Zr0  1  0.135630  0.012761  0.095752  1
  Zr  Zr1  1  0.608020  0.219499  0.161929  1
  Zr  Zr2  1  0.388363  0.497559  0.345637  1
  Zr  Zr3  1  0.857033  0.711722  0.402089  1
  Zr  Zr4  1  0.144035  0.217143  0.593879  1
  U  U5  1  0.609284  0.996443  0.660941  1
  U  U6  1  0.395020  0.730841  0.835288  1
  U  U7  1  0.860915  0.495813  0.903188  1
  Ir  Ir8  1  0.096284  0.272732  0.084655  1
  Ir  Ir9  1  0.651054  0.956562  0.166083  1
  Ir  Ir10  1  0.347119  0.764254  0.331620  1
  Ir  Ir11  1  0.893153  0.450188  0.405863  1
  Ir  Ir12  1  0.097852  0.952805  0.593449  1
  Ir  Ir13  1  0.655561  0.257704  0.672010  1
  Ir  Ir14  1  0.355703  0.461949  0.837945  1
  Ir  Ir15  1  0.904968  0.760023  0.909673  1
