# generated using pymatgen
data_La12Tc3GeBr12
_symmetry_space_group_name_H-M   'P 1'
_cell_length_a   10.52320148
_cell_length_b   10.72923322
_cell_length_c   10.72845100
_cell_angle_alpha   109.85339375
_cell_angle_beta   109.07817026
_cell_angle_gamma   109.08589548
_symmetry_Int_Tables_number   1
_chemical_formula_structural   La12Tc3GeBr12
_chemical_formula_sum   'La12 Tc3 Ge1 Br12'
_cell_volume   936.95228427
_cell_formula_units_Z   1
loop_
 _symmetry_equiv_pos_site_id
 _symmetry_equiv_pos_as_xyz
  1  'x, y, z'
loop_
 _atom_site_type_symbol
 _atom_site_label
 _atom_site_symmetry_multiplicity
 _atom_site_fract_x
 _atom_site_fract_y
 _atom_site_fract_z
 _atom_site_occupancy
  La  La0  1  0.465487  0.469142  0.240377  1
  La  La1  1  0.750053  0.233593  0.266462  1
  La  La2  1  0.750009  0.011134  0.488888  1
  La  La3  1  0.238889  0.477771  0.488905  1
  La  La4  1  0.274933  0.771243  0.240382  1
  La  La5  1  0.034503  0.259643  0.030845  1
  La  La6  1  0.016392  0.032847  0.266440  1
  La  La7  1  0.496325  0.771233  0.030869  1
  La  La8  1  0.483593  0.233597  0.467178  1
  La  La9  1  0.003697  0.469119  0.728779  1
  La  La10  1  0.261113  0.011113  0.022228  1
  La  La11  1  0.225073  0.259640  0.728781  1
  Tc  Tc12  1  0.250080  0.261767  0.238305  1
  Tc  Tc13  1  0.488215  0.976536  0.238274  1
  Tc  Tc14  1  0.011630  0.261657  0.523276  1
  Ge  Ge15  1  0.249954  0.499936  0.999896  1
  Br  Br16  1  0.250021  0.751717  0.748328  1
  Br  Br17  1  0.506134  0.509738  0.757124  1
  Br  Br18  1  0.993904  0.742926  0.990310  1
  Br  Br19  1  0.750962  0.247360  0.757107  1
  Br  Br20  1  0.998306  0.996616  0.748332  1
  Br  Br21  1  0.250009  0.995898  0.504096  1
  Br  Br22  1  0.754084  0.508184  0.504090  1
  Br  Br23  1  0.496410  0.247374  0.990304  1
  Br  Br24  1  0.749004  0.742895  0.252621  1
  Br  Br25  1  0.745902  0.995903  0.991804  1
  Br  Br26  1  0.003628  0.509737  0.252623  1
  Br  Br27  1  0.501690  0.751680  0.503378  1
