# generated using pymatgen
data_Sc2Be25Ni
_symmetry_space_group_name_H-M   'P 1'
_cell_length_a   7.09967251
_cell_length_b   7.13277032
_cell_length_c   7.11251804
_cell_angle_alpha   60.36397767
_cell_angle_beta   60.24842537
_cell_angle_gamma   59.96502948
_symmetry_Int_Tables_number   1
_chemical_formula_structural   Sc2Be25Ni
_chemical_formula_sum   'Sc2 Be25 Ni1'
_cell_volume   255.78948217
_cell_formula_units_Z   1
loop_
 _symmetry_equiv_pos_site_id
 _symmetry_equiv_pos_as_xyz
  1  'x, y, z'
loop_
 _atom_site_type_symbol
 _atom_site_label
 _atom_site_symmetry_multiplicity
 _atom_site_fract_x
 _atom_site_fract_y
 _atom_site_fract_z
 _atom_site_occupancy
  Sc  Sc0  1  0.749427  0.752734  0.747522  1
  Sc  Sc1  1  0.249683  0.252478  0.247266  1
  Be  Be2  1  0.565467  0.791703  0.208297  1
  Be  Be3  1  0.200479  0.440430  0.559570  1
  Be  Be4  1  0.435264  0.205885  0.794115  1
  Be  Be5  1  0.437452  0.792649  0.564017  1
  Be  Be6  1  0.560429  0.436223  0.797706  1
  Be  Be7  1  0.794118  0.435983  0.207351  1
  Be  Be8  1  0.794359  0.202294  0.563777  1
  Be  Be9  1  0.205502  0.562691  0.792463  1
  Be  Be10  1  0.439335  0.563518  0.202486  1
  Be  Be11  1  0.560657  0.207537  0.437309  1
  Be  Be12  1  0.205339  0.797514  0.436482  1
  Be  Be13  1  0.937409  0.708348  0.062058  1
  Be  Be14  1  0.707815  0.937942  0.291652  1
  Be  Be15  1  0.064621  0.291137  0.936554  1
  Be  Be16  1  0.292312  0.063446  0.708863  1
  Be  Be17  1  0.705912  0.063340  0.936660  1
  Be  Be18  1  0.063811  0.932318  0.712548  1
  Be  Be19  1  0.067278  0.713657  0.286343  1
  Be  Be20  1  0.290087  0.709993  0.935516  1
  Be  Be21  1  0.934760  0.288644  0.711356  1
  Be  Be22  1  0.935596  0.064484  0.290007  1
  Be  Be23  1  0.293564  0.936080  0.063920  1
  Be  Be24  1  0.708678  0.287452  0.067682  1
  Be  Be25  1  0.500598  0.500480  0.499520  1
  Be  Be26  1  0.999502  0.001379  0.998621  1
  Ni  Ni27  1  0.800547  0.559663  0.440337  1
