# generated using pymatgen
data_CaPr6SCl12
_symmetry_space_group_name_H-M   'P 1'
_cell_length_a   9.08796505
_cell_length_b   9.08640849
_cell_length_c   9.08907200
_cell_angle_alpha   106.93776682
_cell_angle_beta   107.07795558
_cell_angle_gamma   106.84279732
_symmetry_Int_Tables_number   1
_chemical_formula_structural   CaPr6SCl12
_chemical_formula_sum   'Ca1 Pr6 S1 Cl12'
_cell_volume   625.86384522
_cell_formula_units_Z   1
loop_
 _symmetry_equiv_pos_site_id
 _symmetry_equiv_pos_as_xyz
  1  'x, y, z'
loop_
 _atom_site_type_symbol
 _atom_site_label
 _atom_site_symmetry_multiplicity
 _atom_site_fract_x
 _atom_site_fract_y
 _atom_site_fract_z
 _atom_site_occupancy
  Ca  Ca0  1  0.500000  0.500000  0.500000  1
  Pr  Pr1  1  0.322601  0.107630  0.027197  1
  Pr  Pr2  1  0.026445  0.322489  0.107700  1
  Pr  Pr3  1  0.108143  0.026903  0.322822  1
  Pr  Pr4  1  0.891857  0.973097  0.677179  1
  Pr  Pr5  1  0.973555  0.677512  0.892301  1
  Pr  Pr6  1  0.677400  0.892370  0.972804  1
  S  S7  1  0.000000  0.000000  0.000000  1
  Cl  Cl8  1  0.682611  0.222310  0.070875  1
  Cl  Cl9  1  0.378295  0.456970  0.167013  1
  Cl  Cl10  1  0.071156  0.682892  0.222387  1
  Cl  Cl11  1  0.778144  0.929295  0.316902  1
  Cl  Cl12  1  0.457723  0.167223  0.379419  1
  Cl  Cl13  1  0.167354  0.378835  0.457468  1
  Cl  Cl14  1  0.832646  0.621166  0.542532  1
  Cl  Cl15  1  0.542277  0.832778  0.620581  1
  Cl  Cl16  1  0.221857  0.070706  0.683098  1
  Cl  Cl17  1  0.928844  0.317108  0.777614  1
  Cl  Cl18  1  0.621706  0.543030  0.832987  1
  Cl  Cl19  1  0.317390  0.777690  0.929125  1
