# generated using pymatgen
data_Ac3Sn2HgPt3
_symmetry_space_group_name_H-M   'P 1'
_cell_length_a   7.95862600
_cell_length_b   8.06969614
_cell_length_c   4.16093500
_cell_angle_alpha   90.00000000
_cell_angle_beta   90.00000000
_cell_angle_gamma   120.46273304
_symmetry_Int_Tables_number   1
_chemical_formula_structural   Ac3Sn2HgPt3
_chemical_formula_sum   'Ac3 Sn2 Hg1 Pt3'
_cell_volume   230.34185894
_cell_formula_units_Z   1
loop_
 _symmetry_equiv_pos_site_id
 _symmetry_equiv_pos_as_xyz
  1  'x, y, z'
loop_
 _atom_site_type_symbol
 _atom_site_label
 _atom_site_symmetry_multiplicity
 _atom_site_fract_x
 _atom_site_fract_y
 _atom_site_fract_z
 _atom_site_occupancy
  Ac  Ac0  1  0.597850  0.589895  0.000000  1
  Ac  Ac1  1  0.402150  0.992045  0.000000  1
  Ac  Ac2  1  0.000000  0.419766  0.000000  1
  Sn  Sn3  1  0.245721  0.247073  0.500000  1
  Sn  Sn4  1  0.754279  0.001352  0.500000  1
  Hg  Hg5  1  0.000000  0.747366  0.500000  1
  Pt  Pt6  1  0.654068  0.317432  0.500000  1
  Pt  Pt7  1  0.000000  0.021706  0.000000  1
  Pt  Pt8  1  0.345932  0.663366  0.500000  1
