# generated using pymatgen
data_Lu4OsCl4
_symmetry_space_group_name_H-M   'P 1'
_cell_length_a   8.39074562
_cell_length_b   8.39074597
_cell_length_c   6.38486324
_cell_angle_alpha   89.60063932
_cell_angle_beta   89.60064298
_cell_angle_gamma   89.35068005
_symmetry_Int_Tables_number   1
_chemical_formula_structural   Lu4OsCl4
_chemical_formula_sum   'Lu8 Os2 Cl8'
_cell_volume   449.47337845
_cell_formula_units_Z   2
loop_
 _symmetry_equiv_pos_site_id
 _symmetry_equiv_pos_as_xyz
  1  'x, y, z'
loop_
 _atom_site_type_symbol
 _atom_site_label
 _atom_site_symmetry_multiplicity
 _atom_site_fract_x
 _atom_site_fract_y
 _atom_site_fract_z
 _atom_site_occupancy
  Lu  Lu0  1  0.104214  0.741566  0.987342  1
  Lu  Lu1  1  0.258434  0.895786  0.512658  1
  Lu  Lu2  1  0.895786  0.258434  0.012658  1
  Lu  Lu3  1  0.741566  0.104214  0.487342  1
  Lu  Lu4  1  0.743176  0.896782  0.010530  1
  Lu  Lu5  1  0.103218  0.256824  0.489470  1
  Lu  Lu6  1  0.256824  0.103218  0.989470  1
  Lu  Lu7  1  0.896782  0.743176  0.510530  1
  Os  Os8  1  0.007737  0.992263  0.250000  1
  Os  Os9  1  0.992263  0.007737  0.750000  1
  Cl  Cl10  1  0.423607  0.818753  0.897485  1
  Cl  Cl11  1  0.181247  0.576393  0.602515  1
  Cl  Cl12  1  0.576393  0.181247  0.102515  1
  Cl  Cl13  1  0.818753  0.423607  0.397485  1
  Cl  Cl14  1  0.807326  0.579700  0.896534  1
  Cl  Cl15  1  0.420300  0.192674  0.603466  1
  Cl  Cl16  1  0.192674  0.420300  0.103466  1
  Cl  Cl17  1  0.579700  0.807326  0.396534  1
