# generated using pymatgen
data_Tb3Dy13Cd2(Ni2Hg)2
_symmetry_space_group_name_H-M   'P 1'
_cell_length_a   9.52403484
_cell_length_b   9.52265197
_cell_length_c   9.49951400
_cell_angle_alpha   60.08034404
_cell_angle_beta   60.08513149
_cell_angle_gamma   60.15209354
_symmetry_Int_Tables_number   1
_chemical_formula_structural   Tb3Dy13Cd2(Ni2Hg)2
_chemical_formula_sum   'Tb3 Dy13 Cd2 Ni4 Hg2'
_cell_volume   610.66808908
_cell_formula_units_Z   1
loop_
 _symmetry_equiv_pos_site_id
 _symmetry_equiv_pos_as_xyz
  1  'x, y, z'
loop_
 _atom_site_type_symbol
 _atom_site_label
 _atom_site_symmetry_multiplicity
 _atom_site_fract_x
 _atom_site_fract_y
 _atom_site_fract_z
 _atom_site_occupancy
  Tb  Tb0  1  0.598867  0.599078  0.598496  1
  Tb  Tb1  1  0.598867  0.599078  0.203560  1
  Tb  Tb2  1  0.600802  0.199103  0.600048  1
  Dy  Dy3  1  0.199081  0.601188  0.599866  1
  Dy  Dy4  1  0.061594  0.438446  0.439345  1
  Dy  Dy5  1  0.438137  0.061752  0.060770  1
  Dy  Dy6  1  0.438137  0.061752  0.439340  1
  Dy  Dy7  1  0.061594  0.438446  0.060615  1
  Dy  Dy8  1  0.438692  0.438018  0.061644  1
  Dy  Dy9  1  0.060939  0.060612  0.439224  1
  Dy  Dy10  1  0.186191  0.812670  0.814440  1
  Dy  Dy11  1  0.812948  0.185920  0.186895  1
  Dy  Dy12  1  0.812948  0.185920  0.814238  1
  Dy  Dy13  1  0.186191  0.812670  0.186700  1
  Dy  Dy14  1  0.812969  0.813370  0.186831  1
  Dy  Dy15  1  0.186019  0.186188  0.813897  1
  Cd  Cd16  1  0.831081  0.507067  0.830926  1
  Cd  Cd17  1  0.507141  0.830744  0.831058  1
  Ni  Ni18  1  0.391792  0.392533  0.393858  1
  Ni  Ni19  1  0.391792  0.392533  0.821817  1
  Ni  Ni20  1  0.391596  0.822900  0.392752  1
  Ni  Ni21  1  0.823034  0.391859  0.392554  1
  Hg  Hg22  1  0.834795  0.834077  0.835977  1
  Hg  Hg23  1  0.834795  0.834077  0.495150  1
