# generated using pymatgen
data_Pr5Ga2Ru3
_symmetry_space_group_name_H-M   'P 1'
_cell_length_a   8.60731240
_cell_length_b   8.60731272
_cell_length_c   8.60731300
_cell_angle_alpha   109.47121894
_cell_angle_beta   109.47121970
_cell_angle_gamma   109.47122748
_symmetry_Int_Tables_number   1
_chemical_formula_structural   Pr5Ga2Ru3
_chemical_formula_sum   'Pr10 Ga4 Ru6'
_cell_volume   490.88620826
_cell_formula_units_Z   2
loop_
 _symmetry_equiv_pos_site_id
 _symmetry_equiv_pos_as_xyz
  1  'x, y, z'
loop_
 _atom_site_type_symbol
 _atom_site_label
 _atom_site_symmetry_multiplicity
 _atom_site_fract_x
 _atom_site_fract_y
 _atom_site_fract_z
 _atom_site_occupancy
  Pr  Pr0  1  0.784347  0.000000  0.000000  1
  Pr  Pr1  1  0.250000  0.312608  0.062608  1
  Pr  Pr2  1  0.715655  0.715655  0.215655  1
  Pr  Pr3  1  0.187392  0.937392  0.250000  1
  Pr  Pr4  1  0.000000  0.500001  0.284346  1
  Pr  Pr5  1  0.750000  0.187392  0.437392  1
  Pr  Pr6  1  0.500001  0.784347  0.500001  1
  Pr  Pr7  1  0.937392  0.750000  0.687392  1
  Pr  Pr8  1  0.312608  0.562608  0.750000  1
  Pr  Pr9  1  0.562608  0.250000  0.812607  1
  Ga  Ga10  1  0.413895  0.000000  0.000000  1
  Ga  Ga11  1  0.500000  0.413895  0.500000  1
  Ga  Ga12  1  0.086105  0.086105  0.586105  1
  Ga  Ga13  1  0.000000  0.500000  0.913895  1
  Ru  Ru14  1  0.370178  0.750000  0.120178  1
  Ru  Ru15  1  0.620178  0.370178  0.250000  1
  Ru  Ru16  1  0.129822  0.250000  0.379822  1
  Ru  Ru17  1  0.250000  0.879822  0.629823  1
  Ru  Ru18  1  0.879821  0.129822  0.750000  1
  Ru  Ru19  1  0.750000  0.620178  0.870178  1
