# generated using pymatgen
data_Zr10Pb6Cl
_symmetry_space_group_name_H-M   'P 1'
_cell_length_a   5.91514003
_cell_length_b   8.71259961
_cell_length_c   8.71297101
_cell_angle_alpha   119.99859350
_cell_angle_beta   90.00060072
_cell_angle_gamma   89.99879770
_symmetry_Int_Tables_number   1
_chemical_formula_structural   Zr10Pb6Cl
_chemical_formula_sum   'Zr10 Pb6 Cl1'
_cell_volume   388.88021016
_cell_formula_units_Z   1
loop_
 _symmetry_equiv_pos_site_id
 _symmetry_equiv_pos_as_xyz
  1  'x, y, z'
loop_
 _atom_site_type_symbol
 _atom_site_label
 _atom_site_symmetry_multiplicity
 _atom_site_fract_x
 _atom_site_fract_y
 _atom_site_fract_z
 _atom_site_occupancy
  Zr  Zr0  1  0.499999  0.333332  0.666664  1
  Zr  Zr1  1  0.499999  0.666667  0.333336  1
  Zr  Zr2  1  0.000000  0.666683  0.333363  1
  Zr  Zr3  1  0.000000  0.333320  0.666637  1
  Zr  Zr4  1  0.763947  0.252189  0.000000  1
  Zr  Zr5  1  0.763883  0.747783  0.747809  1
  Zr  Zr6  1  0.763883  0.999973  0.252191  1
  Zr  Zr7  1  0.236071  0.747812  0.000000  1
  Zr  Zr8  1  0.236105  0.252216  0.252205  1
  Zr  Zr9  1  0.236105  0.000011  0.747795  1
  Pb  Pb10  1  0.747895  0.608697  0.000000  1
  Pb  Pb11  1  0.747906  0.391295  0.391310  1
  Pb  Pb12  1  0.747906  0.999985  0.608690  1
  Pb  Pb13  1  0.252115  0.391312  0.000000  1
  Pb  Pb14  1  0.252094  0.608705  0.608706  1
  Pb  Pb15  1  0.252094  0.999999  0.391294  1
  Cl  Cl16  1  0.499998  0.000024  0.000000  1
