# generated using pymatgen
data_Nd5Ho3(SiCl6)2
_symmetry_space_group_name_H-M   'P 1'
_cell_length_a   4.00586500
_cell_length_b   13.06481848
_cell_length_c   13.83949900
_cell_angle_alpha   89.59556570
_cell_angle_beta   90.00000000
_cell_angle_gamma   90.00000000
_symmetry_Int_Tables_number   1
_chemical_formula_structural   Nd5Ho3(SiCl6)2
_chemical_formula_sum   'Nd5 Ho3 Si2 Cl12'
_cell_volume   724.28457865
_cell_formula_units_Z   1
loop_
 _symmetry_equiv_pos_site_id
 _symmetry_equiv_pos_as_xyz
  1  'x, y, z'
loop_
 _atom_site_type_symbol
 _atom_site_label
 _atom_site_symmetry_multiplicity
 _atom_site_fract_x
 _atom_site_fract_y
 _atom_site_fract_z
 _atom_site_occupancy
  Nd  Nd0  1  0.500000  0.621774  0.163904  1
  Nd  Nd1  1  0.500000  0.377217  0.834693  1
  Nd  Nd2  1  0.000000  0.876869  0.418767  1
  Nd  Nd3  1  0.000000  0.627190  0.914692  1
  Nd  Nd4  1  0.000000  0.372522  0.084401  1
  Ho  Ho5  1  0.500000  0.120360  0.339691  1
  Ho  Ho6  1  0.500000  0.881723  0.661662  1
  Ho  Ho7  1  0.000000  0.121744  0.580153  1
  Si  Si8  1  0.500000  0.003193  0.502081  1
  Si  Si9  1  0.500000  0.499540  0.999087  1
  Cl  Cl10  1  0.500000  0.237489  0.172443  1
  Cl  Cl11  1  0.500000  0.764324  0.828794  1
  Cl  Cl12  1  0.500000  0.743124  0.338586  1
  Cl  Cl13  1  0.500000  0.246775  0.657822  1
  Cl  Cl14  1  0.000000  0.244062  0.409579  1
  Cl  Cl15  1  0.000000  0.755684  0.598383  1
  Cl  Cl16  1  0.000000  0.754759  0.089014  1
  Cl  Cl17  1  0.000000  0.244811  0.910404  1
  Cl  Cl18  1  0.000000  0.013949  0.250145  1
  Cl  Cl19  1  0.000000  0.994007  0.746654  1
  Cl  Cl20  1  0.000000  0.502008  0.256411  1
  Cl  Cl21  1  0.000000  0.496875  0.742631  1
