# generated using pymatgen
data_DyY2(Co3P2)3
_symmetry_space_group_name_H-M   'P 1'
_cell_length_a   3.70457900
_cell_length_b   10.51133500
_cell_length_c   12.18567800
_cell_angle_alpha   90.00000000
_cell_angle_beta   90.00000000
_cell_angle_gamma   90.00000000
_symmetry_Int_Tables_number   1
_chemical_formula_structural   DyY2(Co3P2)3
_chemical_formula_sum   'Dy2 Y4 Co18 P12'
_cell_volume   474.51116532
_cell_formula_units_Z   2
loop_
 _symmetry_equiv_pos_site_id
 _symmetry_equiv_pos_as_xyz
  1  'x, y, z'
loop_
 _atom_site_type_symbol
 _atom_site_label
 _atom_site_symmetry_multiplicity
 _atom_site_fract_x
 _atom_site_fract_y
 _atom_site_fract_z
 _atom_site_occupancy
  Dy  Dy0  1  0.500000  0.817070  0.205711  1
  Dy  Dy1  1  0.500000  0.182930  0.205711  1
  Y  Y2  1  0.000000  0.500000  0.521913  1
  Y  Y3  1  0.500000  0.000000  0.477732  1
  Y  Y4  1  0.000000  0.683138  0.794473  1
  Y  Y5  1  0.000000  0.316862  0.794473  1
  Co  Co6  1  0.500000  0.500000  0.158802  1
  Co  Co7  1  0.000000  0.000000  0.841334  1
  Co  Co8  1  0.500000  0.500000  0.703400  1
  Co  Co9  1  0.000000  0.000000  0.296383  1
  Co  Co10  1  0.000000  0.500000  0.986251  1
  Co  Co11  1  0.500000  0.000000  0.014111  1
  Co  Co12  1  0.500000  0.333520  0.994837  1
  Co  Co13  1  0.500000  0.666480  0.994837  1
  Co  Co14  1  0.000000  0.166510  0.005511  1
  Co  Co15  1  0.000000  0.833490  0.005511  1
  Co  Co16  1  0.500000  0.297367  0.430447  1
  Co  Co17  1  0.500000  0.702633  0.430447  1
  Co  Co18  1  0.000000  0.202521  0.569296  1
  Co  Co19  1  0.000000  0.797479  0.569296  1
  Co  Co20  1  0.500000  0.879750  0.709631  1
  Co  Co21  1  0.500000  0.120250  0.709631  1
  Co  Co22  1  0.000000  0.620462  0.290214  1
  Co  Co23  1  0.000000  0.379538  0.290214  1
  P  P24  1  0.500000  0.500000  0.882689  1
  P  P25  1  0.000000  0.000000  0.117509  1
  P  P26  1  0.500000  0.500000  0.343438  1
  P  P27  1  0.000000  0.000000  0.656484  1
  P  P28  1  0.500000  0.310056  0.615861  1
  P  P29  1  0.500000  0.689944  0.615861  1
  P  P30  1  0.000000  0.189894  0.383854  1
  P  P31  1  0.000000  0.810106  0.383854  1
  P  P32  1  0.500000  0.847852  0.893472  1
  P  P33  1  0.500000  0.152148  0.893472  1
  P  P34  1  0.000000  0.652402  0.106670  1
  P  P35  1  0.000000  0.347598  0.106670  1
