# generated using pymatgen
data_LaY5Co2(P3Rh4)4
_symmetry_space_group_name_H-M   'P 1'
_cell_length_a   3.88811900
_cell_length_b   11.17357500
_cell_length_c   12.84029700
_cell_angle_alpha   90.00000000
_cell_angle_beta   90.00000000
_cell_angle_gamma   90.00000000
_symmetry_Int_Tables_number   1
_chemical_formula_structural   LaY5Co2(P3Rh4)4
_chemical_formula_sum   'La1 Y5 Co2 P12 Rh16'
_cell_volume   557.83629296
_cell_formula_units_Z   1
loop_
 _symmetry_equiv_pos_site_id
 _symmetry_equiv_pos_as_xyz
  1  'x, y, z'
loop_
 _atom_site_type_symbol
 _atom_site_label
 _atom_site_symmetry_multiplicity
 _atom_site_fract_x
 _atom_site_fract_y
 _atom_site_fract_z
 _atom_site_occupancy
  La  La0  1  0.000000  0.500000  0.523871  1
  Y  Y1  1  0.500000  0.000000  0.478432  1
  Y  Y2  1  0.500000  0.815676  0.201859  1
  Y  Y3  1  0.500000  0.184324  0.201859  1
  Y  Y4  1  0.000000  0.685429  0.798732  1
  Y  Y5  1  0.000000  0.314571  0.798732  1
  Co  Co6  1  0.000000  0.500000  0.980374  1
  Co  Co7  1  0.500000  0.000000  0.020045  1
  P  P8  1  0.500000  0.500000  0.883397  1
  P  P9  1  0.000000  0.000000  0.118317  1
  P  P10  1  0.500000  0.500000  0.346191  1
  P  P11  1  0.000000  0.000000  0.648959  1
  P  P12  1  0.500000  0.312047  0.620982  1
  P  P13  1  0.500000  0.687953  0.620982  1
  P  P14  1  0.000000  0.184043  0.380328  1
  P  P15  1  0.000000  0.815957  0.380328  1
  P  P16  1  0.500000  0.853636  0.896438  1
  P  P17  1  0.500000  0.146364  0.896438  1
  P  P18  1  0.000000  0.647106  0.103293  1
  P  P19  1  0.000000  0.352894  0.103293  1
  Rh  Rh20  1  0.500000  0.500000  0.166015  1
  Rh  Rh21  1  0.000000  0.000000  0.831410  1
  Rh  Rh22  1  0.500000  0.500000  0.706513  1
  Rh  Rh23  1  0.000000  0.000000  0.296353  1
  Rh  Rh24  1  0.500000  0.336131  0.993871  1
  Rh  Rh25  1  0.500000  0.663869  0.993871  1
  Rh  Rh26  1  0.000000  0.163127  0.005951  1
  Rh  Rh27  1  0.000000  0.836873  0.005951  1
  Rh  Rh28  1  0.500000  0.290179  0.429094  1
  Rh  Rh29  1  0.500000  0.709821  0.429094  1
  Rh  Rh30  1  0.000000  0.203406  0.570244  1
  Rh  Rh31  1  0.000000  0.796594  0.570244  1
  Rh  Rh32  1  0.500000  0.874223  0.712984  1
  Rh  Rh33  1  0.500000  0.125777  0.712984  1
  Rh  Rh34  1  0.000000  0.626789  0.286286  1
  Rh  Rh35  1  0.000000  0.373211  0.286286  1
