# generated using pymatgen
data_MnNbFe3Si
_symmetry_space_group_name_H-M   'P 1'
_cell_length_a   4.77774291
_cell_length_b   4.77774301
_cell_length_c   4.75239788
_cell_angle_alpha   59.82342888
_cell_angle_beta   59.82342555
_cell_angle_gamma   60.00000087
_symmetry_Int_Tables_number   1
_chemical_formula_structural   MnNbFe3Si
_chemical_formula_sum   'Mn1 Nb1 Fe3 Si1'
_cell_volume   76.50311237
_cell_formula_units_Z   1
loop_
 _symmetry_equiv_pos_site_id
 _symmetry_equiv_pos_as_xyz
  1  'x, y, z'
loop_
 _atom_site_type_symbol
 _atom_site_label
 _atom_site_symmetry_multiplicity
 _atom_site_fract_x
 _atom_site_fract_y
 _atom_site_fract_z
 _atom_site_occupancy
  Mn  Mn0  1  0.000076  0.000076  0.999773  1
  Nb  Nb1  1  0.248106  0.248106  0.255683  1
  Fe  Fe2  1  0.626053  0.123499  0.624395  1
  Fe  Fe3  1  0.123499  0.626053  0.624395  1
  Fe  Fe4  1  0.626053  0.626053  0.624395  1
  Si  Si5  1  0.626214  0.626214  0.121358  1
