# generated using pymatgen
data_Ce(HfH5)3
_symmetry_space_group_name_H-M   'P 1'
_cell_length_a   7.12800975
_cell_length_b   7.17436036
_cell_length_c   7.20038475
_cell_angle_alpha   109.66414600
_cell_angle_beta   109.40455489
_cell_angle_gamma   109.06599112
_symmetry_Int_Tables_number   1
_chemical_formula_structural   Ce(HfH5)3
_chemical_formula_sum   'Ce2 Hf6 H30'
_cell_volume   284.42162126
_cell_formula_units_Z   2
loop_
 _symmetry_equiv_pos_site_id
 _symmetry_equiv_pos_as_xyz
  1  'x, y, z'
loop_
 _atom_site_type_symbol
 _atom_site_label
 _atom_site_symmetry_multiplicity
 _atom_site_fract_x
 _atom_site_fract_y
 _atom_site_fract_z
 _atom_site_occupancy
  Ce  Ce0  1  0.912746  0.910474  0.910849  1
  Ce  Ce1  1  0.501896  0.999625  0.089151  1
  Hf  Hf2  1  0.011207  0.116474  0.511102  1
  Hf  Hf3  1  0.105149  0.492131  0.999597  1
  Hf  Hf4  1  0.000105  0.605371  0.488898  1
  Hf  Hf5  1  0.605552  0.492534  0.000403  1
  Hf  Hf6  1  0.492130  0.002131  0.587887  1
  Hf  Hf7  1  0.404243  0.414243  0.412113  1
  H  H8  1  0.670612  0.982931  0.405611  1
  H  H9  1  0.224459  0.303294  0.847768  1
  H  H10  1  0.195801  0.424341  0.542716  1
  H  H11  1  0.094508  0.293468  0.132557  1
  H  H12  1  0.289392  0.153787  0.118602  1
  H  H13  1  0.131487  0.110707  0.299360  1
  H  H14  1  0.461951  0.160911  0.867443  1
  H  H15  1  0.718781  0.336968  0.808205  1
  H  H16  1  0.627537  0.384900  0.250946  1
  H  H17  1  0.239222  0.621668  0.369058  1
  H  H18  1  0.763377  0.867898  0.147271  1
  H  H19  1  0.116106  0.720628  0.852729  1
  H  H20  1  0.370165  0.252610  0.630942  1
  H  H21  1  0.876590  0.133954  0.749054  1
  H  H22  1  0.765001  0.577321  0.594389  1
  H  H23  1  0.301837  0.828649  0.226813  1
  H  H24  1  0.378439  0.631471  0.972298  1
  H  H25  1  0.979874  0.380899  0.665020  1
  H  H26  1  0.525175  0.197429  0.429846  1
  H  H27  1  0.410577  0.528763  0.191795  1
  H  H28  1  0.868876  0.240991  0.335712  1
  H  H29  1  0.906140  0.659173  0.027702  1
  H  H30  1  0.814854  0.715878  0.334980  1
  H  H31  1  0.153084  0.881624  0.457284  1
  H  H32  1  0.670790  0.035185  0.881398  1
  H  H33  1  0.332127  0.811348  0.700640  1
  H  H34  1  0.876691  0.455526  0.152232  1
  H  H35  1  0.595328  0.767583  0.570154  1
  H  H36  1  0.575024  0.601836  0.773187  1
  H  H37  1  0.033164  0.905279  0.664288  1
