# generated using pymatgen
data_Tm2Co2P6IrRh7
_symmetry_space_group_name_H-M   'P 1'
_cell_length_a   3.84120400
_cell_length_b   10.73996000
_cell_length_c   12.38440500
_cell_angle_alpha   90.00000000
_cell_angle_beta   90.00000000
_cell_angle_gamma   90.00000000
_symmetry_Int_Tables_number   1
_chemical_formula_structural   Tm2Co2P6IrRh7
_chemical_formula_sum   'Tm4 Co4 P12 Ir2 Rh14'
_cell_volume   510.91091665
_cell_formula_units_Z   2
loop_
 _symmetry_equiv_pos_site_id
 _symmetry_equiv_pos_as_xyz
  1  'x, y, z'
loop_
 _atom_site_type_symbol
 _atom_site_label
 _atom_site_symmetry_multiplicity
 _atom_site_fract_x
 _atom_site_fract_y
 _atom_site_fract_z
 _atom_site_occupancy
  Tm  Tm0  1  0.250000  0.584720  0.708741  1
  Tm  Tm1  1  0.250000  0.915280  0.208741  1
  Tm  Tm2  1  0.750000  0.415440  0.291027  1
  Tm  Tm3  1  0.750000  0.084560  0.791027  1
  Co  Co4  1  0.250000  0.462775  0.933917  1
  Co  Co5  1  0.250000  0.037225  0.433917  1
  Co  Co6  1  0.750000  0.536823  0.065923  1
  Co  Co7  1  0.750000  0.963177  0.565923  1
  P  P8  1  0.250000  0.424955  0.106762  1
  P  P9  1  0.250000  0.075045  0.606762  1
  P  P10  1  0.750000  0.576445  0.893906  1
  P  P11  1  0.750000  0.923555  0.393906  1
  P  P12  1  0.250000  0.269892  0.872524  1
  P  P13  1  0.250000  0.230108  0.372524  1
  P  P14  1  0.750000  0.729714  0.126967  1
  P  P15  1  0.750000  0.770286  0.626967  1
  P  P16  1  0.250000  0.598392  0.386785  1
  P  P17  1  0.250000  0.901608  0.886785  1
  P  P18  1  0.750000  0.402425  0.613258  1
  P  P19  1  0.750000  0.097575  0.113258  1
  Ir  Ir20  1  0.750000  0.113647  0.302084  1
  Ir  Ir21  1  0.750000  0.386353  0.802084  1
  Rh  Rh22  1  0.250000  0.715888  0.985117  1
  Rh  Rh23  1  0.250000  0.784112  0.485117  1
  Rh  Rh24  1  0.750000  0.284441  0.016011  1
  Rh  Rh25  1  0.750000  0.215559  0.516011  1
  Rh  Rh26  1  0.250000  0.408055  0.478818  1
  Rh  Rh27  1  0.250000  0.091945  0.978818  1
  Rh  Rh28  1  0.750000  0.591630  0.520514  1
  Rh  Rh29  1  0.750000  0.908370  0.020514  1
  Rh  Rh30  1  0.250000  0.229366  0.179280  1
  Rh  Rh31  1  0.250000  0.270634  0.679280  1
  Rh  Rh32  1  0.750000  0.771270  0.820360  1
  Rh  Rh33  1  0.750000  0.728730  0.320360  1
  Rh  Rh34  1  0.250000  0.885823  0.698005  1
  Rh  Rh35  1  0.250000  0.614177  0.198005  1
