# generated using pymatgen
data_Nd2Zr2(Al8Pt3)3
_symmetry_space_group_name_H-M   'P 1'
_cell_length_a   7.53584716
_cell_length_b   7.53113862
_cell_length_c   13.13364324
_cell_angle_alpha   84.55401467
_cell_angle_beta   101.01320669
_cell_angle_gamma   119.91574357
_symmetry_Int_Tables_number   1
_chemical_formula_structural   Nd2Zr2(Al8Pt3)3
_chemical_formula_sum   'Nd2 Zr2 Al24 Pt9'
_cell_volume   634.16714123
_cell_formula_units_Z   1
loop_
 _symmetry_equiv_pos_site_id
 _symmetry_equiv_pos_as_xyz
  1  'x, y, z'
loop_
 _atom_site_type_symbol
 _atom_site_label
 _atom_site_symmetry_multiplicity
 _atom_site_fract_x
 _atom_site_fract_y
 _atom_site_fract_z
 _atom_site_occupancy
  Nd  Nd0  1  0.768583  0.501853  0.809240  1
  Nd  Nd1  1  0.231417  0.498147  0.190760  1
  Zr  Zr2  1  0.438357  0.832662  0.809659  1
  Zr  Zr3  1  0.561643  0.167338  0.190341  1
  Al  Al4  1  0.481996  0.162736  0.945301  1
  Al  Al5  1  0.518004  0.837264  0.054699  1
  Al  Al6  1  0.020534  0.166683  0.562512  1
  Al  Al7  1  0.979466  0.833317  0.437488  1
  Al  Al8  1  0.353024  0.833159  0.560944  1
  Al  Al9  1  0.646976  0.166841  0.439056  1
  Al  Al10  1  0.617016  0.836791  0.328992  1
  Al  Al11  1  0.382984  0.163209  0.671008  1
  Al  Al12  1  0.058598  0.495751  0.670818  1
  Al  Al13  1  0.941402  0.504249  0.329182  1
  Al  Al14  1  0.727630  0.839992  0.669636  1
  Al  Al15  1  0.272370  0.160008  0.330364  1
  Al  Al16  1  0.151566  0.503050  0.942639  1
  Al  Al17  1  0.848434  0.496950  0.057361  1
  Al  Al18  1  0.814353  0.833690  0.952938  1
  Al  Al19  1  0.185647  0.166310  0.047062  1
  Al  Al20  1  0.313748  0.500309  0.440746  1
  Al  Al21  1  0.686252  0.499691  0.559254  1
  Al  Al22  1  0.108470  0.844516  0.184058  1
  Al  Al23  1  0.891530  0.155484  0.815942  1
  Al  Al24  1  0.305370  0.374106  0.814616  1
  Al  Al25  1  0.694630  0.625894  0.185384  1
  Al  Al26  1  0.111857  0.962278  0.815321  1
  Al  Al27  1  0.888143  0.037722  0.184679  1
  Pt  Pt28  1  0.386772  0.508503  0.638197  1
  Pt  Pt29  1  0.613228  0.491497  0.361803  1
  Pt  Pt30  1  0.170079  0.828029  0.999537  1
  Pt  Pt31  1  0.829921  0.171971  0.000463  1
  Pt  Pt32  1  0.295975  0.834305  0.362239  1
  Pt  Pt33  1  0.704025  0.165695  0.637761  1
  Pt  Pt34  1  0.046343  0.825580  0.637029  1
  Pt  Pt35  1  0.953657  0.174420  0.362971  1
  Pt  Pt36  1  0.500000  0.500000  0.000000  1
