# generated using pymatgen
data_Nd23In4Pt7
_symmetry_space_group_name_H-M   'P 1'
_cell_length_a   10.09837500
_cell_length_b   10.09837537
_cell_length_c   22.84586600
_cell_angle_alpha   90.00000000
_cell_angle_beta   90.00000000
_cell_angle_gamma   119.99999552
_symmetry_Int_Tables_number   1
_chemical_formula_structural   Nd23In4Pt7
_chemical_formula_sum   'Nd46 In8 Pt14'
_cell_volume   2017.62885524
_cell_formula_units_Z   2
loop_
 _symmetry_equiv_pos_site_id
 _symmetry_equiv_pos_as_xyz
  1  'x, y, z'
loop_
 _atom_site_type_symbol
 _atom_site_label
 _atom_site_symmetry_multiplicity
 _atom_site_fract_x
 _atom_site_fract_y
 _atom_site_fract_z
 _atom_site_occupancy
  Nd  Nd0  1  0.203104  0.406208  0.722318  1
  Nd  Nd1  1  0.203104  0.796896  0.722318  1
  Nd  Nd2  1  0.796896  0.593792  0.222318  1
  Nd  Nd3  1  0.593792  0.796896  0.722318  1
  Nd  Nd4  1  0.796896  0.203104  0.222318  1
  Nd  Nd5  1  0.406208  0.203104  0.222318  1
  Nd  Nd6  1  0.796003  0.592006  0.944493  1
  Nd  Nd7  1  0.796003  0.203997  0.944493  1
  Nd  Nd8  1  0.203997  0.407994  0.444493  1
  Nd  Nd9  1  0.407994  0.203997  0.944493  1
  Nd  Nd10  1  0.203997  0.796003  0.444493  1
  Nd  Nd11  1  0.592006  0.796003  0.444493  1
  Nd  Nd12  1  0.212518  0.425036  0.989960  1
  Nd  Nd13  1  0.212518  0.787482  0.989960  1
  Nd  Nd14  1  0.787482  0.574964  0.489960  1
  Nd  Nd15  1  0.574964  0.787482  0.989960  1
  Nd  Nd16  1  0.787482  0.212518  0.489960  1
  Nd  Nd17  1  0.425036  0.212518  0.489960  1
  Nd  Nd18  1  0.871460  0.742921  0.635454  1
  Nd  Nd19  1  0.871460  0.128540  0.635454  1
  Nd  Nd20  1  0.128540  0.257079  0.135454  1
  Nd  Nd21  1  0.257079  0.128540  0.635454  1
  Nd  Nd22  1  0.128540  0.871460  0.135454  1
  Nd  Nd23  1  0.742921  0.871460  0.135454  1
  Nd  Nd24  1  0.456091  0.912182  0.856245  1
  Nd  Nd25  1  0.456091  0.543909  0.856245  1
  Nd  Nd26  1  0.543909  0.087818  0.356245  1
  Nd  Nd27  1  0.087818  0.543909  0.856245  1
  Nd  Nd28  1  0.543909  0.456091  0.356245  1
  Nd  Nd29  1  0.912182  0.456091  0.356245  1
  Nd  Nd30  1  0.000000  0.000000  0.995229  1
  Nd  Nd31  1  0.000000  0.000000  0.495229  1
  Nd  Nd32  1  0.461559  0.923118  0.584968  1
  Nd  Nd33  1  0.461559  0.538441  0.584968  1
  Nd  Nd34  1  0.538441  0.076882  0.084968  1
  Nd  Nd35  1  0.076882  0.538441  0.584968  1
  Nd  Nd36  1  0.538441  0.461559  0.084968  1
  Nd  Nd37  1  0.923118  0.461559  0.084968  1
  Nd  Nd38  1  0.800156  0.600312  0.783979  1
  Nd  Nd39  1  0.800156  0.199844  0.783979  1
  Nd  Nd40  1  0.199844  0.399688  0.283979  1
  Nd  Nd41  1  0.399688  0.199844  0.783979  1
  Nd  Nd42  1  0.199844  0.800156  0.283979  1
  Nd  Nd43  1  0.600312  0.800156  0.283979  1
  Nd  Nd44  1  0.666667  0.333333  0.643761  1
  Nd  Nd45  1  0.333333  0.666667  0.143761  1
  In  In46  1  0.000000  0.000000  0.747228  1
  In  In47  1  0.000000  0.000000  0.247228  1
  In  In48  1  0.109553  0.219108  0.864724  1
  In  In49  1  0.109553  0.890447  0.864724  1
  In  In50  1  0.890447  0.780892  0.364724  1
  In  In51  1  0.780892  0.890447  0.864724  1
  In  In52  1  0.890447  0.109553  0.364724  1
  In  In53  1  0.219108  0.109553  0.364724  1
  Pt  Pt54  1  0.521356  0.042713  0.710647  1
  Pt  Pt55  1  0.521356  0.478644  0.710647  1
  Pt  Pt56  1  0.478644  0.957287  0.210647  1
  Pt  Pt57  1  0.957287  0.478644  0.710647  1
  Pt  Pt58  1  0.478644  0.521356  0.210647  1
  Pt  Pt59  1  0.042713  0.521356  0.210647  1
  Pt  Pt60  1  0.666667  0.333333  0.861428  1
  Pt  Pt61  1  0.333333  0.666667  0.361428  1
  Pt  Pt62  1  0.142823  0.285647  0.563568  1
  Pt  Pt63  1  0.142823  0.857177  0.563568  1
  Pt  Pt64  1  0.857177  0.714353  0.063568  1
  Pt  Pt65  1  0.714353  0.857177  0.563568  1
  Pt  Pt66  1  0.857177  0.142823  0.063568  1
  Pt  Pt67  1  0.285647  0.142823  0.063568  1
