# generated using pymatgen
data_CuMo12Pd2Pt5N4
_symmetry_space_group_name_H-M   'P 1'
_cell_length_a   6.87454452
_cell_length_b   6.87470843
_cell_length_c   6.87380663
_cell_angle_alpha   89.99426884
_cell_angle_beta   89.97609426
_cell_angle_gamma   90.07578013
_symmetry_Int_Tables_number   1
_chemical_formula_structural   CuMo12Pd2Pt5N4
_chemical_formula_sum   'Cu1 Mo12 Pd2 Pt5 N4'
_cell_volume   324.85915005
_cell_formula_units_Z   1
loop_
 _symmetry_equiv_pos_site_id
 _symmetry_equiv_pos_as_xyz
  1  'x, y, z'
loop_
 _atom_site_type_symbol
 _atom_site_label
 _atom_site_symmetry_multiplicity
 _atom_site_fract_x
 _atom_site_fract_y
 _atom_site_fract_z
 _atom_site_occupancy
  Cu  Cu0  1  0.188784  0.189630  0.189143  1
  Mo  Mo1  1  0.800302  0.047000  0.122335  1
  Mo  Mo2  1  0.047992  0.122107  0.799320  1
  Mo  Mo3  1  0.543678  0.373292  0.200290  1
  Mo  Mo4  1  0.875783  0.302996  0.455653  1
  Mo  Mo5  1  0.122165  0.800407  0.046139  1
  Mo  Mo6  1  0.201307  0.545338  0.374180  1
  Mo  Mo7  1  0.302667  0.456527  0.876440  1
  Mo  Mo8  1  0.455670  0.875212  0.303582  1
  Mo  Mo9  1  0.622128  0.702977  0.950442  1
  Mo  Mo10  1  0.952747  0.622515  0.701943  1
  Mo  Mo11  1  0.372841  0.199368  0.544243  1
  Mo  Mo12  1  0.701250  0.951700  0.623069  1
  Pd  Pd13  1  0.690164  0.307506  0.812123  1
  Pd  Pd14  1  0.811292  0.689098  0.307061  1
  Pt  Pt15  1  0.431849  0.064331  0.949710  1
  Pt  Pt16  1  0.947751  0.431031  0.063923  1
  Pt  Pt17  1  0.061631  0.948319  0.430159  1
  Pt  Pt18  1  0.308317  0.812191  0.688895  1
  Pt  Pt19  1  0.560713  0.557572  0.559194  1
  N  N20  1  0.873741  0.874238  0.874218  1
  N  N21  1  0.125223  0.375024  0.626281  1
  N  N22  1  0.626131  0.125120  0.375902  1
  N  N23  1  0.375873  0.626502  0.125754  1
