# generated using pymatgen
data_DyEr5LuRh3
_symmetry_space_group_name_H-M   'P 1'
_cell_length_a   9.70711900
_cell_length_b   9.70699399
_cell_length_c   6.11784146
_cell_angle_alpha   90.06858386
_cell_angle_beta   90.00000000
_cell_angle_gamma   120.00042942
_symmetry_Int_Tables_number   1
_chemical_formula_structural   DyEr5LuRh3
_chemical_formula_sum   'Dy2 Er10 Lu2 Rh6'
_cell_volume   499.23114352
_cell_formula_units_Z   2
loop_
 _symmetry_equiv_pos_site_id
 _symmetry_equiv_pos_as_xyz
  1  'x, y, z'
loop_
 _atom_site_type_symbol
 _atom_site_label
 _atom_site_symmetry_multiplicity
 _atom_site_fract_x
 _atom_site_fract_y
 _atom_site_fract_z
 _atom_site_occupancy
  Dy  Dy0  1  0.918786  0.459213  0.046070  1
  Dy  Dy1  1  0.540429  0.459213  0.046070  1
  Er  Er2  1  0.876382  0.752765  0.740580  1
  Er  Er3  1  0.247310  0.123599  0.740641  1
  Er  Er4  1  0.876289  0.123599  0.740641  1
  Er  Er5  1  0.123703  0.247407  0.240764  1
  Er  Er6  1  0.752534  0.876415  0.240667  1
  Er  Er7  1  0.123881  0.876415  0.240667  1
  Er  Er8  1  0.458907  0.917817  0.546655  1
  Er  Er9  1  0.082505  0.541342  0.546755  1
  Er  Er10  1  0.458835  0.541342  0.546755  1
  Er  Er11  1  0.540541  0.081079  0.046842  1
  Lu  Lu12  1  0.666551  0.333101  0.535665  1
  Lu  Lu13  1  0.333473  0.666946  0.034921  1
  Rh  Rh14  1  0.190363  0.380724  0.814045  1
  Rh  Rh15  1  0.619109  0.809824  0.814158  1
  Rh  Rh16  1  0.190716  0.809824  0.814158  1
  Rh  Rh17  1  0.809954  0.619910  0.315656  1
  Rh  Rh18  1  0.380554  0.189732  0.314863  1
  Rh  Rh19  1  0.809176  0.189732  0.314863  1
