# generated using pymatgen
data_Yb4Pr16(Ga3Si)3
_symmetry_space_group_name_H-M   'P 1'
_cell_length_a   7.86939217
_cell_length_b   7.86964512
_cell_length_c   14.63663309
_cell_angle_alpha   90.00073942
_cell_angle_beta   90.01284846
_cell_angle_gamma   89.93873267
_symmetry_Int_Tables_number   1
_chemical_formula_structural   Yb4Pr16(Ga3Si)3
_chemical_formula_sum   'Yb4 Pr16 Ga9 Si3'
_cell_volume   906.43624845
_cell_formula_units_Z   1
loop_
 _symmetry_equiv_pos_site_id
 _symmetry_equiv_pos_as_xyz
  1  'x, y, z'
loop_
 _atom_site_type_symbol
 _atom_site_label
 _atom_site_symmetry_multiplicity
 _atom_site_fract_x
 _atom_site_fract_y
 _atom_site_fract_z
 _atom_site_occupancy
  Yb  Yb0  1  0.001875  0.502093  0.741653  1
  Yb  Yb1  1  0.998060  0.500225  0.241427  1
  Yb  Yb2  1  0.499847  0.001419  0.258648  1
  Yb  Yb3  1  0.498809  0.001384  0.758276  1
  Pr  Pr4  1  0.823665  0.827578  0.604597  1
  Pr  Pr5  1  0.178573  0.828916  0.102193  1
  Pr  Pr6  1  0.170730  0.820936  0.397566  1
  Pr  Pr7  1  0.825777  0.181260  0.395354  1
  Pr  Pr8  1  0.677626  0.665882  0.396721  1
  Pr  Pr9  1  0.669472  0.319669  0.604924  1
  Pr  Pr10  1  0.324260  0.679423  0.607074  1
  Pr  Pr11  1  0.669950  0.673660  0.103013  1
  Pr  Pr12  1  0.676751  0.326829  0.895318  1
  Pr  Pr13  1  0.831138  0.820023  0.894921  1
  Pr  Pr14  1  0.326405  0.329647  0.396912  1
  Pr  Pr15  1  0.182179  0.171967  0.607557  1
  Pr  Pr16  1  0.818607  0.173829  0.104826  1
  Pr  Pr17  1  0.318045  0.672611  0.892763  1
  Pr  Pr18  1  0.333875  0.321957  0.103605  1
  Pr  Pr19  1  0.175394  0.179460  0.892770  1
  Ga  Ga20  1  0.384127  0.615578  0.250006  1
  Ga  Ga21  1  0.882734  0.882607  0.250032  1
  Ga  Ga22  1  0.616231  0.616345  0.749927  1
  Ga  Ga23  1  0.000521  0.499161  0.503880  1
  Ga  Ga24  1  0.884081  0.116290  0.749986  1
  Ga  Ga25  1  0.499966  0.999325  0.496501  1
  Ga  Ga26  1  0.499798  0.999238  0.996059  1
  Ga  Ga27  1  0.116842  0.116882  0.250009  1
  Ga  Ga28  1  0.000319  0.499184  0.003464  1
  Si  Si29  1  0.614819  0.385150  0.250007  1
  Si  Si30  1  0.114737  0.885791  0.750070  1
  Si  Si31  1  0.384788  0.385683  0.749941  1
