# generated using pymatgen
data_Y8CdIn2Pd
_symmetry_space_group_name_H-M   'P 1'
_cell_length_a   10.54339400
_cell_length_b   10.52112717
_cell_length_c   7.01581461
_cell_angle_alpha   89.95831114
_cell_angle_beta   90.00000000
_cell_angle_gamma   120.07008476
_symmetry_Int_Tables_number   1
_chemical_formula_structural   Y8CdIn2Pd
_chemical_formula_sum   'Y16 Cd2 In4 Pd2'
_cell_volume   673.51015409
_cell_formula_units_Z   2
loop_
 _symmetry_equiv_pos_site_id
 _symmetry_equiv_pos_as_xyz
  1  'x, y, z'
loop_
 _atom_site_type_symbol
 _atom_site_label
 _atom_site_symmetry_multiplicity
 _atom_site_fract_x
 _atom_site_fract_y
 _atom_site_fract_z
 _atom_site_occupancy
  Y  Y0  1  0.471651  0.531155  0.476864  1
  Y  Y1  1  0.059505  0.531155  0.476864  1
  Y  Y2  1  0.469330  0.938660  0.477515  1
  Y  Y3  1  0.529460  0.469038  0.979791  1
  Y  Y4  1  0.939578  0.469038  0.979791  1
  Y  Y5  1  0.530598  0.061197  0.977763  1
  Y  Y6  1  0.824640  0.169483  0.270354  1
  Y  Y7  1  0.344844  0.169483  0.270353  1
  Y  Y8  1  0.828517  0.657034  0.267936  1
  Y  Y9  1  0.174503  0.825005  0.778560  1
  Y  Y10  1  0.650502  0.825005  0.778559  1
  Y  Y11  1  0.174955  0.349910  0.770560  1
  Y  Y12  1  0.334968  0.669938  0.107190  1
  Y  Y13  1  0.666926  0.333850  0.606677  1
  Y  Y14  1  0.999823  0.999646  0.497964  1
  Y  Y15  1  0.000839  0.001677  0.994419  1
  Cd  Cd16  1  0.163719  0.834607  0.232830  1
  Cd  Cd17  1  0.670888  0.834607  0.232830  1
  In  In18  1  0.163990  0.327980  0.236637  1
  In  In19  1  0.836673  0.163336  0.736841  1
  In  In20  1  0.326663  0.163336  0.736841  1
  In  In21  1  0.837037  0.674075  0.737219  1
  Pd  Pd22  1  0.333587  0.667173  0.708775  1
  Pd  Pd23  1  0.666803  0.333607  0.211424  1
