# generated using pymatgen
data_BaNaIn(H6Ir)2
_symmetry_space_group_name_H-M   'P 1'
_cell_length_a   5.00541500
_cell_length_b   5.00541601
_cell_length_c   8.24684700
_cell_angle_alpha   90.00000000
_cell_angle_beta   90.00000000
_cell_angle_gamma   119.99998672
_symmetry_Int_Tables_number   1
_chemical_formula_structural   BaNaIn(H6Ir)2
_chemical_formula_sum   'Ba1 Na1 In1 H12 Ir2'
_cell_volume   178.93648266
_cell_formula_units_Z   1
loop_
 _symmetry_equiv_pos_site_id
 _symmetry_equiv_pos_as_xyz
  1  'x, y, z'
loop_
 _atom_site_type_symbol
 _atom_site_label
 _atom_site_symmetry_multiplicity
 _atom_site_fract_x
 _atom_site_fract_y
 _atom_site_fract_z
 _atom_site_occupancy
  Ba  Ba0  1  0.000000  0.000000  0.020566  1
  Na  Na1  1  0.666667  0.333333  0.366798  1
  In  In2  1  0.333333  0.666667  0.607423  1
  H  H3  1  0.160368  0.839632  0.364504  1
  H  H4  1  0.679265  0.839632  0.364504  1
  H  H5  1  0.160368  0.320735  0.364504  1
  H  H6  1  0.828893  0.171107  0.623118  1
  H  H7  1  0.342214  0.171107  0.623118  1
  H  H8  1  0.828893  0.657786  0.623118  1
  H  H9  1  0.514548  0.029095  0.858199  1
  H  H10  1  0.514548  0.485452  0.858199  1
  H  H11  1  0.970905  0.485452  0.858199  1
  H  H12  1  0.485592  0.971184  0.152698  1
  H  H13  1  0.485592  0.514408  0.152698  1
  H  H14  1  0.028816  0.514408  0.152698  1
  Ir  Ir15  1  0.666667  0.333333  0.732015  1
  Ir  Ir16  1  0.333333  0.666667  0.277645  1
