# generated using pymatgen
data_Er2Pa2Ge6Ir4Rh3
_symmetry_space_group_name_H-M   'P 1'
_cell_length_a   7.28152595
_cell_length_b   7.28148046
_cell_length_c   7.31124419
_cell_angle_alpha   109.41084428
_cell_angle_beta   109.52371635
_cell_angle_gamma   109.30104361
_symmetry_Int_Tables_number   1
_chemical_formula_structural   Er2Pa2Ge6Ir4Rh3
_chemical_formula_sum   'Er2 Pa2 Ge6 Ir4 Rh3'
_cell_volume   299.06180455
_cell_formula_units_Z   1
loop_
 _symmetry_equiv_pos_site_id
 _symmetry_equiv_pos_as_xyz
  1  'x, y, z'
loop_
 _atom_site_type_symbol
 _atom_site_label
 _atom_site_symmetry_multiplicity
 _atom_site_fract_x
 _atom_site_fract_y
 _atom_site_fract_z
 _atom_site_occupancy
  Er  Er0  1  0.999792  0.499850  0.999808  1
  Er  Er1  1  0.500102  0.000102  0.000108  1
  Pa  Pa2  1  0.000099  0.999992  0.500096  1
  Pa  Pa3  1  0.500077  0.500031  0.500115  1
  Ge  Ge4  1  0.683327  0.683502  0.000209  1
  Ge  Ge5  1  0.317707  0.995190  0.313366  1
  Ge  Ge6  1  0.995818  0.317599  0.312918  1
  Ge  Ge7  1  0.316699  0.316871  0.000230  1
  Ge  Ge8  1  0.681970  0.003886  0.686323  1
  Ge  Ge9  1  0.004652  0.682849  0.687028  1
  Ir  Ir10  1  0.749838  0.249783  0.500098  1
  Ir  Ir11  1  0.749423  0.503665  0.253063  1
  Ir  Ir12  1  0.496480  0.250035  0.746522  1
  Ir  Ir13  1  0.250295  0.496453  0.746686  1
  Rh  Rh14  1  0.250327  0.750259  0.500147  1
  Rh  Rh15  1  0.503245  0.749900  0.253133  1
  Rh  Rh16  1  0.000147  0.000034  0.000148  1
