# generated using pymatgen
data_Lu2NbFe9
_symmetry_space_group_name_H-M   'P 1'
_cell_length_a   8.44830486
_cell_length_b   8.44830493
_cell_length_c   8.44830457
_cell_angle_alpha   34.16833122
_cell_angle_beta   34.16833167
_cell_angle_gamma   34.16833172
_symmetry_Int_Tables_number   1
_chemical_formula_structural   Lu2NbFe9
_chemical_formula_sum   'Lu2 Nb1 Fe9'
_cell_volume   169.58455717
_cell_formula_units_Z   1
loop_
 _symmetry_equiv_pos_site_id
 _symmetry_equiv_pos_as_xyz
  1  'x, y, z'
loop_
 _atom_site_type_symbol
 _atom_site_label
 _atom_site_symmetry_multiplicity
 _atom_site_fract_x
 _atom_site_fract_y
 _atom_site_fract_z
 _atom_site_occupancy
  Lu  Lu0  1  0.000464  0.000464  0.000464  1
  Lu  Lu1  1  0.857274  0.857274  0.857274  1
  Nb  Nb2  1  0.141671  0.141671  0.141671  1
  Fe  Fe3  1  0.584859  0.584859  0.081879  1
  Fe  Fe4  1  0.333184  0.333184  0.333184  1
  Fe  Fe5  1  0.918159  0.415307  0.415308  1
  Fe  Fe6  1  0.415307  0.918159  0.415308  1
  Fe  Fe7  1  0.499774  0.499774  0.499774  1
  Fe  Fe8  1  0.584860  0.081878  0.584859  1
  Fe  Fe9  1  0.081878  0.584860  0.584859  1
  Fe  Fe10  1  0.667262  0.667262  0.667262  1
  Fe  Fe11  1  0.415308  0.415308  0.918158  1
