# generated using pymatgen
data_Sr5LaBiWO12
_symmetry_space_group_name_H-M   'P 1'
_cell_length_a   6.98810412
_cell_length_b   7.03956213
_cell_length_c   7.00535495
_cell_angle_alpha   91.86031129
_cell_angle_beta   91.99488689
_cell_angle_gamma   92.14384269
_symmetry_Int_Tables_number   1
_chemical_formula_structural   Sr5LaBiWO12
_chemical_formula_sum   'Sr5 La1 Bi1 W1 O12'
_cell_volume   343.96909870
_cell_formula_units_Z   1
loop_
 _symmetry_equiv_pos_site_id
 _symmetry_equiv_pos_as_xyz
  1  'x, y, z'
loop_
 _atom_site_type_symbol
 _atom_site_label
 _atom_site_symmetry_multiplicity
 _atom_site_fract_x
 _atom_site_fract_y
 _atom_site_fract_z
 _atom_site_occupancy
  Sr  Sr0  1  0.441182  0.933007  0.745132  1
  Sr  Sr1  1  0.741748  0.437820  0.938926  1
  Sr  Sr2  1  0.256131  0.563780  0.064386  1
  Sr  Sr3  1  0.561717  0.065472  0.257753  1
  Sr  Sr4  1  0.935264  0.743505  0.434108  1
  La  La5  1  0.066494  0.254487  0.565148  1
  Bi  Bi6  1  0.000715  0.000131  0.000089  1
  W  W7  1  0.501026  0.499897  0.500271  1
  O  O8  1  0.067830  0.291732  0.916361  1
  O  O9  1  0.071223  0.943815  0.700606  1
  O  O10  1  0.455864  0.571822  0.767249  1
  O  O11  1  0.711387  0.070505  0.936057  1
  O  O12  1  0.226496  0.536490  0.428795  1
  O  O13  1  0.416665  0.230456  0.546116  1
  O  O14  1  0.572543  0.764220  0.454071  1
  O  O15  1  0.770425  0.447834  0.572944  1
  O  O16  1  0.290187  0.931348  0.066640  1
  O  O17  1  0.543976  0.425097  0.234314  1
  O  O18  1  0.937589  0.076914  0.300305  1
  O  O19  1  0.931538  0.711667  0.070729  1
