# generated using pymatgen
data_Gd10Mg4Ir5Ru
_symmetry_space_group_name_H-M   'P 1'
_cell_length_a   8.61969820
_cell_length_b   8.58420820
_cell_length_c   8.58420900
_cell_angle_alpha   109.44487501
_cell_angle_beta   109.24587516
_cell_angle_gamma   109.55616694
_symmetry_Int_Tables_number   1
_chemical_formula_structural   Gd10Mg4Ir5Ru
_chemical_formula_sum   'Gd10 Mg4 Ir5 Ru1'
_cell_volume   489.95788232
_cell_formula_units_Z   1
loop_
 _symmetry_equiv_pos_site_id
 _symmetry_equiv_pos_as_xyz
  1  'x, y, z'
loop_
 _atom_site_type_symbol
 _atom_site_label
 _atom_site_symmetry_multiplicity
 _atom_site_fract_x
 _atom_site_fract_y
 _atom_site_fract_z
 _atom_site_occupancy
  Gd  Gd0  1  0.793416  0.997247  0.999339  1
  Gd  Gd1  1  0.250000  0.327613  0.077613  1
  Gd  Gd2  1  0.706586  0.705926  0.203834  1
  Gd  Gd3  1  0.173636  0.923608  0.250817  1
  Gd  Gd4  1  0.000345  0.500068  0.292626  1
  Gd  Gd5  1  0.750000  0.172487  0.422487  1
  Gd  Gd6  1  0.499656  0.792282  0.499723  1
  Gd  Gd7  1  0.920311  0.748388  0.672798  1
  Gd  Gd8  1  0.326364  0.577181  0.749972  1
  Gd  Gd9  1  0.579689  0.252487  0.828076  1
  Mg  Mg10  1  0.404636  0.001205  0.000062  1
  Mg  Mg11  1  0.499215  0.403754  0.500229  1
  Mg  Mg12  1  0.095364  0.095426  0.596569  1
  Mg  Mg13  1  0.000785  0.501014  0.904540  1
  Ir  Ir14  1  0.383940  0.750583  0.133919  1
  Ir  Ir15  1  0.633271  0.382875  0.250062  1
  Ir  Ir16  1  0.116060  0.249978  0.366643  1
  Ir  Ir17  1  0.250000  0.866536  0.616537  1
  Ir  Ir18  1  0.866728  0.116790  0.749604  1
  Ru  Ru19  1  0.750000  0.634553  0.884553  1
