# generated using pymatgen
data_Y8Zn(Ga4Pd)3
_symmetry_space_group_name_H-M   'P 1'
_cell_length_a   7.09230002
_cell_length_b   8.91831231
_cell_length_c   8.92610888
_cell_angle_alpha   119.95500858
_cell_angle_beta   89.99178648
_cell_angle_gamma   90.00452683
_symmetry_Int_Tables_number   1
_chemical_formula_structural   Y8Zn(Ga4Pd)3
_chemical_formula_sum   'Y8 Zn1 Ga12 Pd3'
_cell_volume   489.16941751
_cell_formula_units_Z   1
loop_
 _symmetry_equiv_pos_site_id
 _symmetry_equiv_pos_as_xyz
  1  'x, y, z'
loop_
 _atom_site_type_symbol
 _atom_site_label
 _atom_site_symmetry_multiplicity
 _atom_site_fract_x
 _atom_site_fract_y
 _atom_site_fract_z
 _atom_site_occupancy
  Y  Y0  1  0.749750  0.999981  0.999973  1
  Y  Y1  1  0.246400  0.000007  0.999994  1
  Y  Y2  1  0.752100  0.481989  0.518015  1
  Y  Y3  1  0.248135  0.514147  0.485867  1
  Y  Y4  1  0.752100  0.036039  0.518019  1
  Y  Y5  1  0.248136  0.971741  0.485894  1
  Y  Y6  1  0.752099  0.481979  0.963954  1
  Y  Y7  1  0.248137  0.514104  0.028242  1
  Zn  Zn8  1  0.558394  0.666660  0.333314  1
  Ga  Ga9  1  0.960457  0.831908  0.168108  1
  Ga  Ga10  1  0.037501  0.167231  0.832759  1
  Ga  Ga11  1  0.960458  0.336200  0.168115  1
  Ga  Ga12  1  0.459233  0.167257  0.832748  1
  Ga  Ga13  1  0.037523  0.665508  0.832743  1
  Ga  Ga14  1  0.535975  0.833391  0.166622  1
  Ga  Ga15  1  0.960500  0.831891  0.663794  1
  Ga  Ga16  1  0.459181  0.665473  0.832722  1
  Ga  Ga17  1  0.037571  0.167247  0.334486  1
  Ga  Ga18  1  0.535912  0.333241  0.166629  1
  Ga  Ga19  1  0.459191  0.167278  0.334525  1
  Ga  Ga20  1  0.535852  0.833394  0.666787  1
  Pd  Pd21  1  0.969096  0.666665  0.333329  1
  Pd  Pd22  1  0.031488  0.333332  0.666664  1
  Pd  Pd23  1  0.464814  0.333341  0.666694  1
