# generated using pymatgen
data_Tb4Ge3Sb3Rh7
_symmetry_space_group_name_H-M   'P 1'
_cell_length_a   7.49372108
_cell_length_b   7.45807538
_cell_length_c   7.45807565
_cell_angle_alpha   109.37420270
_cell_angle_beta   109.56806456
_cell_angle_gamma   109.56806942
_symmetry_Int_Tables_number   1
_chemical_formula_structural   Tb4Ge3Sb3Rh7
_chemical_formula_sum   'Tb4 Ge3 Sb3 Rh7'
_cell_volume   320.48573661
_cell_formula_units_Z   1
loop_
 _symmetry_equiv_pos_site_id
 _symmetry_equiv_pos_as_xyz
  1  'x, y, z'
loop_
 _atom_site_type_symbol
 _atom_site_label
 _atom_site_symmetry_multiplicity
 _atom_site_fract_x
 _atom_site_fract_y
 _atom_site_fract_z
 _atom_site_occupancy
  Tb  Tb0  1  0.541168  0.000000  0.000000  1
  Tb  Tb1  1  0.988538  0.481072  0.000000  1
  Tb  Tb2  1  0.988538  0.000000  0.481072  1
  Tb  Tb3  1  0.507466  0.518928  0.518928  1
  Ge  Ge4  1  0.005220  0.332869  0.332869  1
  Ge  Ge5  1  0.672351  0.000000  0.667131  1
  Ge  Ge6  1  0.672351  0.667131  0.000000  1
  Sb  Sb7  1  0.008015  0.693815  0.693815  1
  Sb  Sb8  1  0.314200  0.000000  0.306185  1
  Sb  Sb9  1  0.314200  0.306185  0.000000  1
  Rh  Rh10  1  0.964954  0.000000  0.000000  1
  Rh  Rh11  1  0.503823  0.750100  0.249869  1
  Rh  Rh12  1  0.753723  0.499769  0.249900  1
  Rh  Rh13  1  0.253954  0.750131  0.500231  1
  Rh  Rh14  1  0.253954  0.500231  0.750131  1
  Rh  Rh15  1  0.503823  0.249869  0.750100  1
  Rh  Rh16  1  0.753723  0.249900  0.499769  1
