# generated using pymatgen
data_Li4AcLa3As8
_symmetry_space_group_name_H-M   'P 1'
_cell_length_a   4.01067300
_cell_length_b   4.06811222
_cell_length_c   21.62500300
_cell_angle_alpha   89.98132446
_cell_angle_beta   90.00000000
_cell_angle_gamma   90.00000000
_symmetry_Int_Tables_number   1
_chemical_formula_structural   Li4AcLa3As8
_chemical_formula_sum   'Li4 Ac1 La3 As8'
_cell_volume   352.83067194
_cell_formula_units_Z   1
loop_
 _symmetry_equiv_pos_site_id
 _symmetry_equiv_pos_as_xyz
  1  'x, y, z'
loop_
 _atom_site_type_symbol
 _atom_site_label
 _atom_site_symmetry_multiplicity
 _atom_site_fract_x
 _atom_site_fract_y
 _atom_site_fract_z
 _atom_site_occupancy
  Li  Li0  1  0.750000  0.725711  0.250271  1
  Li  Li1  1  0.250000  0.225767  0.250377  1
  Li  Li2  1  0.750000  0.774508  0.747330  1
  Li  Li3  1  0.250000  0.275010  0.747606  1
  Ac  Ac4  1  0.750000  0.273616  0.881816  1
  La  La5  1  0.250000  0.727414  0.120412  1
  La  La6  1  0.750000  0.228219  0.381932  1
  La  La7  1  0.250000  0.771769  0.617995  1
  As  As8  1  0.750000  0.225748  0.174058  1
  As  As9  1  0.250000  0.725995  0.327110  1
  As  As10  1  0.750000  0.273817  0.671587  1
  As  As11  1  0.250000  0.775471  0.821409  1
  As  As12  1  0.250000  0.200607  0.005843  1
  As  As13  1  0.750000  0.702085  0.497866  1
  As  As14  1  0.250000  0.298176  0.502327  1
  As  As15  1  0.750000  0.796087  0.002061  1
