# generated using pymatgen
data_Tb12Co4SnRu
_symmetry_space_group_name_H-M   'P 1'
_cell_length_a   8.33914527
_cell_length_b   8.33914541
_cell_length_c   8.33914544
_cell_angle_alpha   111.32208292
_cell_angle_beta   110.39222190
_cell_angle_gamma   106.73496105
_symmetry_Int_Tables_number   1
_chemical_formula_structural   Tb12Co4SnRu
_chemical_formula_sum   'Tb12 Co4 Sn1 Ru1'
_cell_volume   445.62916536
_cell_formula_units_Z   1
loop_
 _symmetry_equiv_pos_site_id
 _symmetry_equiv_pos_as_xyz
  1  'x, y, z'
loop_
 _atom_site_type_symbol
 _atom_site_label
 _atom_site_symmetry_multiplicity
 _atom_site_fract_x
 _atom_site_fract_y
 _atom_site_fract_z
 _atom_site_occupancy
  Tb  Tb0  1  0.407241  0.217899  0.189342  1
  Tb  Tb1  1  0.592759  0.782101  0.810658  1
  Tb  Tb2  1  0.028556  0.217899  0.810658  1
  Tb  Tb3  1  0.971444  0.782101  0.189342  1
  Tb  Tb4  1  0.180844  0.284818  0.465662  1
  Tb  Tb5  1  0.819156  0.715182  0.534338  1
  Tb  Tb6  1  0.180844  0.715182  0.896026  1
  Tb  Tb7  1  0.819156  0.284818  0.103974  1
  Tb  Tb8  1  0.321482  0.633560  0.312078  1
  Tb  Tb9  1  0.678518  0.366440  0.687922  1
  Tb  Tb10  1  0.321482  0.009404  0.687922  1
  Tb  Tb11  1  0.678518  0.990596  0.312078  1
  Co  Co12  1  0.355444  0.000000  0.355444  1
  Co  Co13  1  0.644556  0.000000  0.644556  1
  Co  Co14  1  0.112140  0.612140  0.500000  1
  Co  Co15  1  0.887860  0.387860  0.500000  1
  Sn  Sn16  1  0.500000  0.500000  0.000000  1
  Ru  Ru17  1  0.000000  0.000000  0.000000  1
