# generated using pymatgen
data_Tb3Th5(CdPt2)4
_symmetry_space_group_name_H-M   'P 1'
_cell_length_a   7.89315100
_cell_length_b   7.89315188
_cell_length_c   7.54501700
_cell_angle_alpha   90.00000000
_cell_angle_beta   90.00000000
_cell_angle_gamma   90.59309361
_symmetry_Int_Tables_number   1
_chemical_formula_structural   Tb3Th5(CdPt2)4
_chemical_formula_sum   'Tb3 Th5 Cd4 Pt8'
_cell_volume   470.04325515
_cell_formula_units_Z   1
loop_
 _symmetry_equiv_pos_site_id
 _symmetry_equiv_pos_as_xyz
  1  'x, y, z'
loop_
 _atom_site_type_symbol
 _atom_site_label
 _atom_site_symmetry_multiplicity
 _atom_site_fract_x
 _atom_site_fract_y
 _atom_site_fract_z
 _atom_site_occupancy
  Tb  Tb0  1  0.670361  0.670361  0.500000  1
  Tb  Tb1  1  0.830160  0.166312  0.000000  1
  Tb  Tb2  1  0.166312  0.830160  0.000000  1
  Th  Th3  1  0.674313  0.674313  0.000000  1
  Th  Th4  1  0.333031  0.333031  0.500000  1
  Th  Th5  1  0.826797  0.171356  0.500000  1
  Th  Th6  1  0.327593  0.327593  0.000000  1
  Th  Th7  1  0.171356  0.826797  0.500000  1
  Cd  Cd8  1  0.500766  0.998575  0.753259  1
  Cd  Cd9  1  0.500766  0.998575  0.246741  1
  Cd  Cd10  1  0.998575  0.500766  0.753259  1
  Cd  Cd11  1  0.998575  0.500766  0.246741  1
  Pt  Pt12  1  0.871032  0.871032  0.745784  1
  Pt  Pt13  1  0.130745  0.130745  0.747634  1
  Pt  Pt14  1  0.629323  0.369597  0.754025  1
  Pt  Pt15  1  0.629323  0.369597  0.245975  1
  Pt  Pt16  1  0.369597  0.629323  0.245975  1
  Pt  Pt17  1  0.130745  0.130745  0.252366  1
  Pt  Pt18  1  0.871032  0.871032  0.254216  1
  Pt  Pt19  1  0.369597  0.629323  0.754025  1
