# generated using pymatgen
data_Tb8GaBCl12
_symmetry_space_group_name_H-M   'P 1'
_cell_length_a   3.89965900
_cell_length_b   13.03868509
_cell_length_c   13.48750185
_cell_angle_alpha   89.70495110
_cell_angle_beta   90.00000000
_cell_angle_gamma   90.00000000
_symmetry_Int_Tables_number   1
_chemical_formula_structural   Tb8GaBCl12
_chemical_formula_sum   'Tb8 Ga1 B1 Cl12'
_cell_volume   685.78216685
_cell_formula_units_Z   1
loop_
 _symmetry_equiv_pos_site_id
 _symmetry_equiv_pos_as_xyz
  1  'x, y, z'
loop_
 _atom_site_type_symbol
 _atom_site_label
 _atom_site_symmetry_multiplicity
 _atom_site_fract_x
 _atom_site_fract_y
 _atom_site_fract_z
 _atom_site_occupancy
  Tb  Tb0  1  0.000000  0.121212  0.095938  1
  Tb  Tb1  1  0.000000  0.878788  0.904062  1
  Tb  Tb2  1  0.000000  0.603581  0.417901  1
  Tb  Tb3  1  0.000000  0.396419  0.582099  1
  Tb  Tb4  1  0.500000  0.135361  0.840483  1
  Tb  Tb5  1  0.500000  0.864639  0.159517  1
  Tb  Tb6  1  0.500000  0.622200  0.644256  1
  Tb  Tb7  1  0.500000  0.377800  0.355744  1
  Ga  Ga8  1  0.500000  0.000000  0.000000  1
  B  B9  1  0.500000  0.500000  0.500000  1
  Cl  Cl10  1  0.500000  0.271699  0.680369  1
  Cl  Cl11  1  0.500000  0.728301  0.319631  1
  Cl  Cl12  1  0.500000  0.762090  0.811656  1
  Cl  Cl13  1  0.500000  0.237910  0.188344  1
  Cl  Cl14  1  0.000000  0.255576  0.926568  1
  Cl  Cl15  1  0.000000  0.744424  0.073432  1
  Cl  Cl16  1  0.000000  0.478063  0.249257  1
  Cl  Cl17  1  0.000000  0.521937  0.750743  1
  Cl  Cl18  1  0.000000  0.975364  0.256309  1
  Cl  Cl19  1  0.000000  0.024636  0.743691  1
  Cl  Cl20  1  0.000000  0.249686  0.429840  1
  Cl  Cl21  1  0.000000  0.750314  0.570160  1
