# generated using pymatgen
data_ZrU4(AsRu)6
_symmetry_space_group_name_H-M   'P 1'
_cell_length_a   7.29541187
_cell_length_b   7.29940766
_cell_length_c   7.30276327
_cell_angle_alpha   109.83818796
_cell_angle_beta   108.66619135
_cell_angle_gamma   109.91052308
_symmetry_Int_Tables_number   1
_chemical_formula_structural   ZrU4(AsRu)6
_chemical_formula_sum   'Zr1 U4 As6 Ru6'
_cell_volume   299.32836107
_cell_formula_units_Z   1
loop_
 _symmetry_equiv_pos_site_id
 _symmetry_equiv_pos_as_xyz
  1  'x, y, z'
loop_
 _atom_site_type_symbol
 _atom_site_label
 _atom_site_symmetry_multiplicity
 _atom_site_fract_x
 _atom_site_fract_y
 _atom_site_fract_z
 _atom_site_occupancy
  Zr  Zr0  1  0.750039  0.500257  0.250090  1
  U  U1  1  0.003160  0.005943  0.502918  1
  U  U2  1  0.497026  0.994163  0.997263  1
  U  U3  1  0.003127  0.500227  0.997233  1
  U  U4  1  0.497007  0.499762  0.502875  1
  As  As5  1  0.309763  0.000003  0.309863  1
  As  As6  1  0.002700  0.303417  0.306156  1
  As  As7  1  0.002527  0.696510  0.699060  1
  As  As8  1  0.300534  0.303107  0.997382  1
  As  As9  1  0.694340  0.696808  0.997480  1
  As  As10  1  0.690277  0.000009  0.690221  1
  Ru  Ru11  1  0.498820  0.750153  0.248982  1
  Ru  Ru12  1  0.498704  0.249849  0.748512  1
  Ru  Ru13  1  0.749840  0.249055  0.500778  1
  Ru  Ru14  1  0.251639  0.750865  0.500701  1
  Ru  Ru15  1  0.250664  0.499919  0.750635  1
  Ru  Ru16  1  0.999833  0.999952  0.999851  1
