# generated using pymatgen
data_Tb2PrGa8Ag3
_symmetry_space_group_name_H-M   'P 1'
_cell_length_a   4.39149655
_cell_length_b   8.40683215
_cell_length_c   8.40683138
_cell_angle_alpha   69.23786733
_cell_angle_beta   74.85953870
_cell_angle_gamma   74.85953075
_symmetry_Int_Tables_number   1
_chemical_formula_structural   Tb2PrGa8Ag3
_chemical_formula_sum   'Tb2 Pr1 Ga8 Ag3'
_cell_volume   275.20864044
_cell_formula_units_Z   1
loop_
 _symmetry_equiv_pos_site_id
 _symmetry_equiv_pos_as_xyz
  1  'x, y, z'
loop_
 _atom_site_type_symbol
 _atom_site_label
 _atom_site_symmetry_multiplicity
 _atom_site_fract_x
 _atom_site_fract_y
 _atom_site_fract_z
 _atom_site_occupancy
  Tb  Tb0  1  0.199247  0.800753  0.800753  1
  Tb  Tb1  1  0.800753  0.199247  0.199247  1
  Pr  Pr2  1  0.500000  0.500000  0.500000  1
  Ga  Ga3  1  0.355399  0.361814  0.927387  1
  Ga  Ga4  1  0.644601  0.638186  0.072613  1
  Ga  Ga5  1  0.355399  0.927387  0.361814  1
  Ga  Ga6  1  0.644601  0.072613  0.638186  1
  Ga  Ga7  1  0.161096  0.471028  0.206779  1
  Ga  Ga8  1  0.838904  0.528972  0.793221  1
  Ga  Ga9  1  0.161096  0.206779  0.471028  1
  Ga  Ga10  1  0.838904  0.793221  0.528972  1
  Ag  Ag11  1  0.500000  0.000000  0.000000  1
  Ag  Ag12  1  0.000000  0.804239  0.195761  1
  Ag  Ag13  1  0.000000  0.195761  0.804239  1
