# generated using pymatgen
data_YbCd2Cu(Ni3B)2
_symmetry_space_group_name_H-M   'P 1'
_cell_length_a   5.04545900
_cell_length_b   5.04545731
_cell_length_c   13.73677100
_cell_angle_alpha   90.00000000
_cell_angle_beta   90.00000000
_cell_angle_gamma   120.00000455
_symmetry_Int_Tables_number   1
_chemical_formula_structural   YbCd2Cu(Ni3B)2
_chemical_formula_sum   'Yb2 Cd4 Cu2 Ni12 B4'
_cell_volume   302.84226599
_cell_formula_units_Z   2
loop_
 _symmetry_equiv_pos_site_id
 _symmetry_equiv_pos_as_xyz
  1  'x, y, z'
loop_
 _atom_site_type_symbol
 _atom_site_label
 _atom_site_symmetry_multiplicity
 _atom_site_fract_x
 _atom_site_fract_y
 _atom_site_fract_z
 _atom_site_occupancy
  Yb  Yb0  1  0.666667  0.333333  0.750000  1
  Yb  Yb1  1  0.333333  0.666667  0.250000  1
  Cd  Cd2  1  0.666667  0.333333  0.529157  1
  Cd  Cd3  1  0.333333  0.666667  0.470843  1
  Cd  Cd4  1  0.333333  0.666667  0.029157  1
  Cd  Cd5  1  0.666667  0.333333  0.970843  1
  Cu  Cu6  1  0.000000  0.000000  0.000000  1
  Cu  Cu7  1  0.000000  0.000000  0.500000  1
  Ni  Ni8  1  0.166972  0.333943  0.649841  1
  Ni  Ni9  1  0.333943  0.166972  0.350159  1
  Ni  Ni10  1  0.333943  0.166972  0.149841  1
  Ni  Ni11  1  0.166972  0.833028  0.850159  1
  Ni  Ni12  1  0.833028  0.666057  0.350159  1
  Ni  Ni13  1  0.833028  0.166972  0.149841  1
  Ni  Ni14  1  0.666057  0.833028  0.649841  1
  Ni  Ni15  1  0.666057  0.833028  0.850159  1
  Ni  Ni16  1  0.166972  0.833028  0.649841  1
  Ni  Ni17  1  0.833028  0.666057  0.149841  1
  Ni  Ni18  1  0.166972  0.333943  0.850159  1
  Ni  Ni19  1  0.833028  0.166972  0.350159  1
  B  B20  1  0.666667  0.333333  0.250000  1
  B  B21  1  0.000000  0.000000  0.750000  1
  B  B22  1  0.333333  0.666667  0.750000  1
  B  B23  1  0.000000  0.000000  0.250000  1
