# generated using pymatgen
data_Y2In(Ga2Ni3)3
_symmetry_space_group_name_H-M   'P 1'
_cell_length_a   8.92132100
_cell_length_b   8.92132158
_cell_length_c   3.87287100
_cell_angle_alpha   90.00000000
_cell_angle_beta   90.00000000
_cell_angle_gamma   120.00000156
_symmetry_Int_Tables_number   1
_chemical_formula_structural   Y2In(Ga2Ni3)3
_chemical_formula_sum   'Y2 In1 Ga6 Ni9'
_cell_volume   266.94513886
_cell_formula_units_Z   1
loop_
 _symmetry_equiv_pos_site_id
 _symmetry_equiv_pos_as_xyz
  1  'x, y, z'
loop_
 _atom_site_type_symbol
 _atom_site_label
 _atom_site_symmetry_multiplicity
 _atom_site_fract_x
 _atom_site_fract_y
 _atom_site_fract_z
 _atom_site_occupancy
  Y  Y0  1  0.333333  0.666667  0.500000  1
  Y  Y1  1  0.666667  0.333333  0.500000  1
  In  In2  1  0.000000  0.000000  0.000000  1
  Ga  Ga3  1  0.322393  0.322393  0.500000  1
  Ga  Ga4  1  0.677607  0.000000  0.500000  1
  Ga  Ga5  1  0.677607  0.677607  0.500000  1
  Ga  Ga6  1  0.000000  0.322393  0.500000  1
  Ga  Ga7  1  0.000000  0.677607  0.500000  1
  Ga  Ga8  1  0.322393  0.000000  0.500000  1
  Ni  Ni9  1  0.173135  0.346269  0.000000  1
  Ni  Ni10  1  0.826865  0.653731  0.000000  1
  Ni  Ni11  1  0.173135  0.826865  0.000000  1
  Ni  Ni12  1  0.653731  0.826865  0.000000  1
  Ni  Ni13  1  0.346269  0.173135  0.000000  1
  Ni  Ni14  1  0.826865  0.173135  0.000000  1
  Ni  Ni15  1  0.500000  0.000000  0.000000  1
  Ni  Ni16  1  0.000000  0.500000  0.000000  1
  Ni  Ni17  1  0.500000  0.500000  0.000000  1
