# generated using pymatgen
data_RbLi4TaO5
_symmetry_space_group_name_H-M   'P 1'
_cell_length_a   5.88402064
_cell_length_b   5.97180087
_cell_length_c   8.41017620
_cell_angle_alpha   88.27711958
_cell_angle_beta   100.87761767
_cell_angle_gamma   119.28333423
_symmetry_Int_Tables_number   1
_chemical_formula_structural   RbLi4TaO5
_chemical_formula_sum   'Rb2 Li8 Ta2 O10'
_cell_volume   252.45428731
_cell_formula_units_Z   2
loop_
 _symmetry_equiv_pos_site_id
 _symmetry_equiv_pos_as_xyz
  1  'x, y, z'
loop_
 _atom_site_type_symbol
 _atom_site_label
 _atom_site_symmetry_multiplicity
 _atom_site_fract_x
 _atom_site_fract_y
 _atom_site_fract_z
 _atom_site_occupancy
  Rb  Rb0  1  0.608852  0.756758  0.410504  1
  Rb  Rb1  1  0.391148  0.243242  0.589496  1
  Li  Li2  1  0.339183  0.997179  0.881102  1
  Li  Li3  1  0.660817  0.002821  0.118898  1
  Li  Li4  1  0.596121  0.388975  0.083622  1
  Li  Li5  1  0.883748  0.334986  0.382967  1
  Li  Li6  1  0.090799  0.396737  0.102439  1
  Li  Li7  1  0.403879  0.611025  0.916378  1
  Li  Li8  1  0.116252  0.665014  0.617033  1
  Li  Li9  1  0.909201  0.603263  0.897561  1
  Ta  Ta10  1  0.143880  0.941809  0.194024  1
  Ta  Ta11  1  0.856120  0.058191  0.805976  1
  O  O12  1  0.781412  0.766514  0.031259  1
  O  O13  1  0.519793  0.182752  0.270436  1
  O  O14  1  0.218588  0.233486  0.968741  1
  O  O15  1  0.257405  0.756530  0.051906  1
  O  O16  1  0.480207  0.817248  0.729564  1
  O  O17  1  0.927216  0.287963  0.638621  1
  O  O18  1  0.024215  0.163778  0.274032  1
  O  O19  1  0.742595  0.243470  0.948094  1
  O  O20  1  0.072784  0.712037  0.361379  1
  O  O21  1  0.975785  0.836222  0.725968  1
