# generated using pymatgen
data_MnV12Ga6CuN4
_symmetry_space_group_name_H-M   'P 1'
_cell_length_a   6.57586191
_cell_length_b   6.57557497
_cell_length_c   6.57583384
_cell_angle_alpha   89.76608509
_cell_angle_beta   90.24417904
_cell_angle_gamma   90.24197512
_symmetry_Int_Tables_number   1
_chemical_formula_structural   MnV12Ga6CuN4
_chemical_formula_sum   'Mn1 V12 Ga6 Cu1 N4'
_cell_volume   284.33206880
_cell_formula_units_Z   1
loop_
 _symmetry_equiv_pos_site_id
 _symmetry_equiv_pos_as_xyz
  1  'x, y, z'
loop_
 _atom_site_type_symbol
 _atom_site_label
 _atom_site_symmetry_multiplicity
 _atom_site_fract_x
 _atom_site_fract_y
 _atom_site_fract_z
 _atom_site_occupancy
  Mn  Mn0  1  0.572510  0.427468  0.927480  1
  V  V1  1  0.788649  0.957607  0.377877  1
  V  V2  1  0.709287  0.046906  0.874874  1
  V  V3  1  0.216123  0.460651  0.118033  1
  V  V4  1  0.294363  0.535982  0.634599  1
  V  V5  1  0.953085  0.374864  0.790697  1
  V  V6  1  0.042405  0.877855  0.711390  1
  V  V7  1  0.463937  0.134639  0.205681  1
  V  V8  1  0.539321  0.618058  0.283976  1
  V  V9  1  0.381984  0.783932  0.960693  1
  V  V10  1  0.865342  0.705651  0.035997  1
  V  V11  1  0.122147  0.211398  0.457590  1
  V  V12  1  0.625125  0.290741  0.546889  1
  Ga  Ga13  1  0.322823  0.181657  0.822290  1
  Ga  Ga14  1  0.818363  0.322356  0.177196  1
  Ga  Ga15  1  0.677688  0.677133  0.681691  1
  Ga  Ga16  1  0.421138  0.926983  0.561225  1
  Ga  Ga17  1  0.938750  0.578772  0.426940  1
  Ga  Ga18  1  0.073028  0.061227  0.078826  1
  Cu  Cu19  1  0.182243  0.817678  0.317717  1
  N  N20  1  0.874255  0.125786  0.625774  1
  N  N21  1  0.623186  0.878202  0.127522  1
  N  N22  1  0.121772  0.627619  0.876836  1
  N  N23  1  0.372472  0.376837  0.378207  1
