# generated using pymatgen
data_LaPr3Nd8(GaRh)8
_symmetry_space_group_name_H-M   'P 1'
_cell_length_a   5.71090403
_cell_length_b   8.24032183
_cell_length_c   13.66122907
_cell_angle_alpha   90.02911346
_cell_angle_beta   89.96634092
_cell_angle_gamma   89.93600481
_symmetry_Int_Tables_number   1
_chemical_formula_structural   LaPr3Nd8(GaRh)8
_chemical_formula_sum   'La1 Pr3 Nd8 Ga8 Rh8'
_cell_volume   642.89257112
_cell_formula_units_Z   1
loop_
 _symmetry_equiv_pos_site_id
 _symmetry_equiv_pos_as_xyz
  1  'x, y, z'
loop_
 _atom_site_type_symbol
 _atom_site_label
 _atom_site_symmetry_multiplicity
 _atom_site_fract_x
 _atom_site_fract_y
 _atom_site_fract_z
 _atom_site_occupancy
  La  La0  1  0.849861  0.900841  0.094237  1
  Pr  Pr1  1  0.635307  0.259034  0.251290  1
  Pr  Pr2  1  0.366131  0.742770  0.749706  1
  Pr  Pr3  1  0.365374  0.756145  0.250861  1
  Nd  Nd4  1  0.633624  0.241115  0.749464  1
  Nd  Nd5  1  0.146189  0.397883  0.097765  1
  Nd  Nd6  1  0.852794  0.599206  0.901155  1
  Nd  Nd7  1  0.854587  0.601948  0.598227  1
  Nd  Nd8  1  0.854310  0.898140  0.403136  1
  Nd  Nd9  1  0.146255  0.398090  0.403096  1
  Nd  Nd10  1  0.146382  0.101845  0.598104  1
  Nd  Nd11  1  0.146873  0.104891  0.900928  1
  Ga  Ga12  1  0.138175  0.109321  0.251424  1
  Ga  Ga13  1  0.866106  0.891230  0.750185  1
  Ga  Ga14  1  0.865296  0.608823  0.250959  1
  Ga  Ga15  1  0.135261  0.389781  0.749282  1
  Ga  Ga16  1  0.629077  0.251831  0.998726  1
  Ga  Ga17  1  0.366603  0.748405  0.998611  1
  Ga  Ga18  1  0.370708  0.749880  0.500495  1
  Ga  Ga19  1  0.630067  0.249771  0.500965  1
  Rh  Rh20  1  0.358823  0.031032  0.090793  1
  Rh  Rh21  1  0.641998  0.969324  0.909081  1
  Rh  Rh22  1  0.642884  0.969100  0.591448  1
  Rh  Rh23  1  0.643111  0.531175  0.410027  1
  Rh  Rh24  1  0.358575  0.031449  0.409616  1
  Rh  Rh25  1  0.358035  0.468047  0.590702  1
  Rh  Rh26  1  0.357489  0.467297  0.908405  1
  Rh  Rh27  1  0.640108  0.531622  0.091313  1
