# generated using pymatgen
data_Y12Si8Ir5Rh7
_symmetry_space_group_name_H-M   'P 1'
_cell_length_a   5.55682359
_cell_length_b   7.56070814
_cell_length_c   14.85029583
_cell_angle_alpha   89.97832748
_cell_angle_beta   89.94751608
_cell_angle_gamma   89.99512913
_symmetry_Int_Tables_number   1
_chemical_formula_structural   Y12Si8Ir5Rh7
_chemical_formula_sum   'Y12 Si8 Ir5 Rh7'
_cell_volume   623.91291191
_cell_formula_units_Z   1
loop_
 _symmetry_equiv_pos_site_id
 _symmetry_equiv_pos_as_xyz
  1  'x, y, z'
loop_
 _atom_site_type_symbol
 _atom_site_label
 _atom_site_symmetry_multiplicity
 _atom_site_fract_x
 _atom_site_fract_y
 _atom_site_fract_z
 _atom_site_occupancy
  Y  Y0  1  0.895918  0.830053  0.750009  1
  Y  Y1  1  0.867824  0.526188  0.390955  1
  Y  Y2  1  0.367939  0.974268  0.609302  1
  Y  Y3  1  0.132131  0.473017  0.890763  1
  Y  Y4  1  0.632490  0.026237  0.108937  1
  Y  Y5  1  0.103863  0.169987  0.249969  1
  Y  Y6  1  0.132279  0.473720  0.609454  1
  Y  Y7  1  0.632053  0.025761  0.390831  1
  Y  Y8  1  0.395888  0.669592  0.249794  1
  Y  Y9  1  0.368711  0.975409  0.891100  1
  Y  Y10  1  0.603721  0.330242  0.750498  1
  Y  Y11  1  0.868203  0.525514  0.109039  1
  Si  Si12  1  0.622911  0.625461  0.896536  1
  Si  Si13  1  0.876358  0.125194  0.603119  1
  Si  Si14  1  0.122491  0.875202  0.103335  1
  Si  Si15  1  0.123233  0.874959  0.396684  1
  Si  Si16  1  0.623189  0.625015  0.603359  1
  Si  Si17  1  0.876350  0.124220  0.896737  1
  Si  Si18  1  0.378553  0.374228  0.103299  1
  Si  Si19  1  0.376413  0.375109  0.396746  1
  Ir  Ir20  1  0.600426  0.332753  0.961026  1
  Ir  Ir21  1  0.409362  0.681239  0.750003  1
  Ir  Ir22  1  0.591342  0.318984  0.250433  1
  Ir  Ir23  1  0.909554  0.818893  0.250118  1
  Ir  Ir24  1  0.089000  0.180720  0.749649  1
  Rh  Rh25  1  0.100692  0.167291  0.461818  1
  Rh  Rh26  1  0.100802  0.167492  0.038283  1
  Rh  Rh27  1  0.899812  0.832261  0.961520  1
  Rh  Rh28  1  0.899865  0.832588  0.538319  1
  Rh  Rh29  1  0.600330  0.332779  0.538061  1
  Rh  Rh30  1  0.399551  0.667457  0.461930  1
  Rh  Rh31  1  0.398745  0.668169  0.038376  1
