# generated using pymatgen
data_NiSnHgO4
_symmetry_space_group_name_H-M   'P 1'
_cell_length_a   6.40446603
_cell_length_b   6.52364916
_cell_length_c   6.40441804
_cell_angle_alpha   59.74149706
_cell_angle_beta   89.67603498
_cell_angle_gamma   120.25899910
_symmetry_Int_Tables_number   1
_chemical_formula_structural   NiSnHgO4
_chemical_formula_sum   'Ni2 Sn2 Hg2 O8'
_cell_volume   187.16321497
_cell_formula_units_Z   2
loop_
 _symmetry_equiv_pos_site_id
 _symmetry_equiv_pos_as_xyz
  1  'x, y, z'
loop_
 _atom_site_type_symbol
 _atom_site_label
 _atom_site_symmetry_multiplicity
 _atom_site_fract_x
 _atom_site_fract_y
 _atom_site_fract_z
 _atom_site_occupancy
  Ni  Ni0  1  0.875096  0.250104  0.374921  1
  Ni  Ni1  1  0.375002  0.749960  0.875067  1
  Sn  Sn2  1  0.374930  0.249941  0.375032  1
  Sn  Sn3  1  0.375008  0.749991  0.374997  1
  Hg  Hg4  1  0.020592  0.999992  0.020614  1
  Hg  Hg5  1  0.729389  0.499996  0.729409  1
  O  O6  1  0.150822  0.292218  0.146129  1
  O  O7  1  0.604757  0.215529  0.169363  1
  O  O8  1  0.580639  0.715496  0.145238  1
  O  O9  1  0.146185  0.707836  0.150796  1
  O  O10  1  0.599158  0.207807  0.603844  1
  O  O11  1  0.145181  0.284456  0.580644  1
  O  O12  1  0.169352  0.784424  0.604818  1
  O  O13  1  0.603894  0.792251  0.599129  1
