# generated using pymatgen
data_ThAl2GaNi
_symmetry_space_group_name_H-M   'P 1'
_cell_length_a   4.18553161
_cell_length_b   4.18553142
_cell_length_c   6.02177427
_cell_angle_alpha   69.66350129
_cell_angle_beta   69.66350125
_cell_angle_gamma   90.00000621
_symmetry_Int_Tables_number   1
_chemical_formula_structural   ThAl2GaNi
_chemical_formula_sum   'Th1 Al2 Ga1 Ni1'
_cell_volume   91.87275985
_cell_formula_units_Z   1
loop_
 _symmetry_equiv_pos_site_id
 _symmetry_equiv_pos_as_xyz
  1  'x, y, z'
loop_
 _atom_site_type_symbol
 _atom_site_label
 _atom_site_symmetry_multiplicity
 _atom_site_fract_x
 _atom_site_fract_y
 _atom_site_fract_z
 _atom_site_occupancy
  Th  Th0  1  0.004074  0.004074  0.991851  1
  Al  Al1  1  0.754460  0.254460  0.491078  1
  Al  Al2  1  0.254460  0.754460  0.491078  1
  Ga  Ga3  1  0.590893  0.590893  0.818212  1
  Ni  Ni4  1  0.365111  0.365111  0.269778  1
