# generated using pymatgen
data_LiPr(ZnRu)2
_symmetry_space_group_name_H-M   'P 1'
_cell_length_a   5.40252000
_cell_length_b   5.28612819
_cell_length_c   4.30826000
_cell_angle_alpha   90.00000000
_cell_angle_beta   90.00000000
_cell_angle_gamma   120.73107373
_symmetry_Int_Tables_number   1
_chemical_formula_structural   LiPr(ZnRu)2
_chemical_formula_sum   'Li1 Pr1 Zn2 Ru2'
_cell_volume   105.75962074
_cell_formula_units_Z   1
loop_
 _symmetry_equiv_pos_site_id
 _symmetry_equiv_pos_as_xyz
  1  'x, y, z'
loop_
 _atom_site_type_symbol
 _atom_site_label
 _atom_site_symmetry_multiplicity
 _atom_site_fract_x
 _atom_site_fract_y
 _atom_site_fract_z
 _atom_site_occupancy
  Li  Li0  1  0.332356  0.664713  0.000000  1
  Pr  Pr1  1  0.993638  0.987276  0.000000  1
  Zn  Zn2  1  0.008775  0.522496  0.500000  1
  Zn  Zn3  1  0.513720  0.522496  0.500000  1
  Ru  Ru4  1  0.642829  0.285656  0.000000  1
  Ru  Ru5  1  0.508681  0.017362  0.500000  1
