# generated using pymatgen
data_Fe3NiAgAu3O8
_symmetry_space_group_name_H-M   'P 1'
_cell_length_a   5.33568326
_cell_length_b   6.14606205
_cell_length_c   7.14847072
_cell_angle_alpha   64.54423711
_cell_angle_beta   75.57060771
_cell_angle_gamma   90.01932196
_symmetry_Int_Tables_number   1
_chemical_formula_structural   Fe3NiAgAu3O8
_chemical_formula_sum   'Fe3 Ni1 Ag1 Au3 O8'
_cell_volume   203.43447991
_cell_formula_units_Z   1
loop_
 _symmetry_equiv_pos_site_id
 _symmetry_equiv_pos_as_xyz
  1  'x, y, z'
loop_
 _atom_site_type_symbol
 _atom_site_label
 _atom_site_symmetry_multiplicity
 _atom_site_fract_x
 _atom_site_fract_y
 _atom_site_fract_z
 _atom_site_occupancy
  Fe  Fe0  1  0.000077  0.503174  0.999764  1
  Fe  Fe1  1  0.497851  0.249999  0.999927  1
  Fe  Fe2  1  0.000066  0.997146  0.999798  1
  Ni  Ni3  1  0.501141  0.749454  0.001023  1
  Ag  Ag4  1  0.000616  0.999828  0.500467  1
  Au  Au5  1  0.998574  0.500163  0.499786  1
  Au  Au6  1  0.500072  0.750752  0.499875  1
  Au  Au7  1  0.500082  0.249239  0.499886  1
  O  O8  1  0.895527  0.831076  0.837886  1
  O  O9  1  0.887184  0.334359  0.831419  1
  O  O10  1  0.387657  0.580585  0.830406  1
  O  O11  1  0.387686  0.088876  0.830398  1
  O  O12  1  0.112618  0.169760  0.160637  1
  O  O13  1  0.105573  0.664990  0.170121  1
  O  O14  1  0.612623  0.921972  0.169284  1
  O  O15  1  0.612654  0.408627  0.169321  1
