# generated using pymatgen
data_Cs2Np(Cl2O)2
_symmetry_space_group_name_H-M   'P 1'
_cell_length_a   7.48561292
_cell_length_b   7.48561266
_cell_length_c   7.48561260
_cell_angle_alpha   116.87326373
_cell_angle_beta   116.87326363
_cell_angle_gamma   95.50675222
_symmetry_Int_Tables_number   1
_chemical_formula_structural   Cs2Np(Cl2O)2
_chemical_formula_sum   'Cs2 Np1 Cl4 O2'
_cell_volume   309.06941969
_cell_formula_units_Z   1
loop_
 _symmetry_equiv_pos_site_id
 _symmetry_equiv_pos_as_xyz
  1  'x, y, z'
loop_
 _atom_site_type_symbol
 _atom_site_label
 _atom_site_symmetry_multiplicity
 _atom_site_fract_x
 _atom_site_fract_y
 _atom_site_fract_z
 _atom_site_occupancy
  Cs  Cs0  1  0.750000  0.250000  0.500000  1
  Cs  Cs1  1  0.250000  0.750000  0.500000  1
  Np  Np2  1  0.000000  0.000000  0.000000  1
  Cl  Cl3  1  0.760523  0.239477  0.000000  1
  Cl  Cl4  1  0.239477  0.760523  0.000000  1
  Cl  Cl5  1  0.239477  0.239477  0.478954  1
  Cl  Cl6  1  0.760523  0.760523  0.521046  1
  O  O7  1  0.178179  0.178179  0.000000  1
  O  O8  1  0.821821  0.821821  0.000000  1
