# generated using pymatgen
data_LaPr4(PtO6)2
_symmetry_space_group_name_H-M   'P 1'
_cell_length_a   7.19289058
_cell_length_b   7.19289055
_cell_length_c   7.63492903
_cell_angle_alpha   74.59258903
_cell_angle_beta   74.59258593
_cell_angle_gamma   50.86868537
_symmetry_Int_Tables_number   1
_chemical_formula_structural   LaPr4(PtO6)2
_chemical_formula_sum   'La1 Pr4 Pt2 O12'
_cell_volume   292.85244336
_cell_formula_units_Z   1
loop_
 _symmetry_equiv_pos_site_id
 _symmetry_equiv_pos_as_xyz
  1  'x, y, z'
loop_
 _atom_site_type_symbol
 _atom_site_label
 _atom_site_symmetry_multiplicity
 _atom_site_fract_x
 _atom_site_fract_y
 _atom_site_fract_z
 _atom_site_occupancy
  La  La0  1  0.000000  0.000000  0.500000  1
  Pr  Pr1  1  0.302622  0.302622  0.358239  1
  Pr  Pr2  1  0.697378  0.697378  0.641761  1
  Pr  Pr3  1  0.696547  0.696547  0.162702  1
  Pr  Pr4  1  0.303453  0.303453  0.837298  1
  Pt  Pt5  1  0.752982  0.247018  0.000000  1
  Pt  Pt6  1  0.247018  0.752982  0.000000  1
  O  O7  1  0.094556  0.598387  0.576381  1
  O  O8  1  0.999468  0.999468  0.171144  1
  O  O9  1  0.401613  0.905444  0.423619  1
  O  O10  1  0.500379  0.500379  0.174701  1
  O  O11  1  0.100356  0.574577  0.080706  1
  O  O12  1  0.905444  0.401613  0.423619  1
  O  O13  1  0.000532  0.000532  0.828856  1
  O  O14  1  0.598387  0.094555  0.576381  1
  O  O15  1  0.499621  0.499621  0.825299  1
  O  O16  1  0.574577  0.100356  0.080706  1
  O  O17  1  0.425423  0.899644  0.919294  1
  O  O18  1  0.899644  0.425423  0.919294  1
