# generated using pymatgen
data_KPr6RuI12
_symmetry_space_group_name_H-M   'P 1'
_cell_length_a   10.16187208
_cell_length_b   10.16187240
_cell_length_c   10.16187165
_cell_angle_alpha   106.03202926
_cell_angle_beta   106.03202268
_cell_angle_gamma   106.03201589
_symmetry_Int_Tables_number   1
_chemical_formula_structural   KPr6RuI12
_chemical_formula_sum   'K1 Pr6 Ru1 I12'
_cell_volume   895.98547466
_cell_formula_units_Z   1
loop_
 _symmetry_equiv_pos_site_id
 _symmetry_equiv_pos_as_xyz
  1  'x, y, z'
loop_
 _atom_site_type_symbol
 _atom_site_label
 _atom_site_symmetry_multiplicity
 _atom_site_fract_x
 _atom_site_fract_y
 _atom_site_fract_z
 _atom_site_occupancy
  K  K0  1  0.500000  0.500000  0.500000  1
  Pr  Pr1  1  0.097591  0.301276  0.023785  1
  Pr  Pr2  1  0.301276  0.023786  0.097590  1
  Pr  Pr3  1  0.023786  0.097590  0.301277  1
  Pr  Pr4  1  0.976215  0.902410  0.698724  1
  Pr  Pr5  1  0.698724  0.976215  0.902410  1
  Pr  Pr6  1  0.902409  0.698724  0.976215  1
  Ru  Ru7  1  0.000000  0.000000  0.000000  1
  I  I8  1  0.223604  0.682382  0.075697  1
  I  I9  1  0.441527  0.359323  0.124264  1
  I  I10  1  0.682383  0.075697  0.223604  1
  I  I11  1  0.924304  0.776396  0.317618  1
  I  I12  1  0.124264  0.441527  0.359323  1
  I  I13  1  0.359323  0.124264  0.441527  1
  I  I14  1  0.640677  0.875736  0.558474  1
  I  I15  1  0.875737  0.558473  0.640677  1
  I  I16  1  0.075697  0.223604  0.682383  1
  I  I17  1  0.317618  0.924304  0.776396  1
  I  I18  1  0.558473  0.640677  0.875737  1
  I  I19  1  0.776396  0.317618  0.924303  1
