# generated using pymatgen
data_Dy5Ga5P7Ir19
_symmetry_space_group_name_H-M   'P 1'
_cell_length_a   12.94337031
_cell_length_b   12.92663914
_cell_length_c   3.96868100
_cell_angle_alpha   90.00000000
_cell_angle_beta   90.00000000
_cell_angle_gamma   119.96003200
_symmetry_Int_Tables_number   1
_chemical_formula_structural   Dy5Ga5P7Ir19
_chemical_formula_sum   'Dy5 Ga5 P7 Ir19'
_cell_volume   575.28704492
_cell_formula_units_Z   1
loop_
 _symmetry_equiv_pos_site_id
 _symmetry_equiv_pos_as_xyz
  1  'x, y, z'
loop_
 _atom_site_type_symbol
 _atom_site_label
 _atom_site_symmetry_multiplicity
 _atom_site_fract_x
 _atom_site_fract_y
 _atom_site_fract_z
 _atom_site_occupancy
  Dy  Dy0  1  0.334829  0.665900  0.500000  1
  Dy  Dy1  1  0.665286  0.333424  0.500000  1
  Dy  Dy2  1  0.003408  0.815868  0.000000  1
  Dy  Dy3  1  0.182280  0.183284  0.000000  1
  Dy  Dy4  1  0.813962  0.997478  0.000000  1
  Ga  Ga5  1  0.998539  0.637949  0.500000  1
  Ga  Ga6  1  0.360219  0.361038  0.500000  1
  Ga  Ga7  1  0.639147  0.003870  0.500000  1
  Ga  Ga8  1  0.519053  0.679288  0.000000  1
  Ga  Ga9  1  0.322052  0.836238  0.000000  1
  P  P10  1  0.167106  0.479595  0.000000  1
  P  P11  1  0.481099  0.177738  0.000000  1
  P  P12  1  0.693448  0.516399  0.000000  1
  P  P13  1  0.820096  0.304724  0.000000  1
  P  P14  1  0.996544  0.178336  0.500000  1
  P  P15  1  0.824568  0.820338  0.500000  1
  P  P16  1  0.179339  0.000756  0.500000  1
  Ir  Ir17  1  0.525868  0.875725  0.000000  1
  Ir  Ir18  1  0.131276  0.634872  0.000000  1
  Ir  Ir19  1  0.346634  0.478129  0.000000  1
  Ir  Ir20  1  0.498354  0.368658  0.000000  1
  Ir  Ir21  1  0.867948  0.499774  0.000000  1
  Ir  Ir22  1  0.630709  0.132716  0.000000  1
  Ir  Ir23  1  0.999673  0.447649  0.500000  1
  Ir  Ir24  1  0.549976  0.557522  0.500000  1
  Ir  Ir25  1  0.441617  0.995723  0.500000  1
  Ir  Ir26  1  0.995611  0.280677  0.000000  1
  Ir  Ir27  1  0.730879  0.719008  0.000000  1
  Ir  Ir28  1  0.280478  0.008288  0.000000  1
  Ir  Ir29  1  0.639226  0.809574  0.500000  1
  Ir  Ir30  1  0.192613  0.825039  0.500000  1
  Ir  Ir31  1  0.168715  0.374783  0.500000  1
  Ir  Ir32  1  0.383683  0.178783  0.500000  1
  Ir  Ir33  1  0.791433  0.610927  0.500000  1
  Ir  Ir34  1  0.823219  0.207636  0.500000  1
  Ir  Ir35  1  0.001113  0.002294  0.500000  1
