# generated using pymatgen
data_DyEr2Tm5(ReB6)4
_symmetry_space_group_name_H-M   'P 1'
_cell_length_a   3.65001500
_cell_length_b   9.11544100
_cell_length_c   11.48900100
_cell_angle_alpha   89.99858787
_cell_angle_beta   89.99971229
_cell_angle_gamma   89.99988020
_symmetry_Int_Tables_number   1
_chemical_formula_structural   DyEr2Tm5(ReB6)4
_chemical_formula_sum   'Dy1 Er2 Tm5 Re4 B24'
_cell_volume   382.25625521
_cell_formula_units_Z   1
loop_
 _symmetry_equiv_pos_site_id
 _symmetry_equiv_pos_as_xyz
  1  'x, y, z'
loop_
 _atom_site_type_symbol
 _atom_site_label
 _atom_site_symmetry_multiplicity
 _atom_site_fract_x
 _atom_site_fract_y
 _atom_site_fract_z
 _atom_site_occupancy
  Dy  Dy0  1  0.000001  0.323185  0.413896  1
  Er  Er1  1  0.999991  0.676650  0.586124  1
  Er  Er2  1  0.000006  0.823354  0.086034  1
  Tm  Tm3  1  0.000000  0.176575  0.913937  1
  Tm  Tm4  1  0.000004  0.943196  0.370156  1
  Tm  Tm5  1  0.000000  0.056714  0.629914  1
  Tm  Tm6  1  0.999996  0.443245  0.129561  1
  Tm  Tm7  1  0.999993  0.556733  0.870349  1
  Re  Re8  1  0.999979  0.639177  0.320479  1
  Re  Re9  1  0.000011  0.360995  0.679860  1
  Re  Re10  1  0.999988  0.138752  0.179028  1
  Re  Re11  1  0.000018  0.861278  0.820658  1
  B  B12  1  0.499999  0.553576  0.433103  1
  B  B13  1  0.500007  0.446764  0.567216  1
  B  B14  1  0.499991  0.053335  0.066617  1
  B  B15  1  0.500014  0.946941  0.933166  1
  B  B16  1  0.499999  0.750129  0.418961  1
  B  B17  1  0.500000  0.249870  0.581551  1
  B  B18  1  0.499996  0.250001  0.080696  1
  B  B19  1  0.499999  0.750050  0.918943  1
  B  B20  1  0.499992  0.792789  0.265184  1
  B  B21  1  0.500001  0.207101  0.735049  1
  B  B22  1  0.499989  0.292609  0.234332  1
  B  B23  1  0.499991  0.707258  0.765298  1
  B  B24  1  0.499992  0.630685  0.184901  1
  B  B25  1  0.500000  0.369177  0.815241  1
  B  B26  1  0.500005  0.130425  0.314713  1
  B  B27  1  0.500002  0.869433  0.685080  1
  B  B28  1  0.499998  0.981672  0.212007  1
  B  B29  1  0.500001  0.018591  0.788037  1
  B  B30  1  0.500006  0.481983  0.287598  1
  B  B31  1  0.500016  0.518345  0.712297  1
  B  B32  1  0.500007  0.599391  0.027705  1
  B  B33  1  0.500000  0.400335  0.972166  1
  B  B34  1  0.500002  0.098939  0.472412  1
  B  B35  1  0.500006  0.900747  0.527731  1
