# generated using pymatgen
data_Li2Pr2Si2Sb
_symmetry_space_group_name_H-M   'P 1'
_cell_length_a   9.81104131
_cell_length_b   9.81104233
_cell_length_c   6.95598300
_cell_angle_alpha   90.00000000
_cell_angle_beta   90.00000000
_cell_angle_gamma   153.09501728
_symmetry_Int_Tables_number   1
_chemical_formula_structural   Li2Pr2Si2Sb
_chemical_formula_sum   'Li4 Pr4 Si4 Sb2'
_cell_volume   302.98359780
_cell_formula_units_Z   2
loop_
 _symmetry_equiv_pos_site_id
 _symmetry_equiv_pos_as_xyz
  1  'x, y, z'
loop_
 _atom_site_type_symbol
 _atom_site_label
 _atom_site_symmetry_multiplicity
 _atom_site_fract_x
 _atom_site_fract_y
 _atom_site_fract_z
 _atom_site_occupancy
  Li  Li0  1  0.813961  0.186039  0.558522  1
  Li  Li1  1  0.186039  0.813961  0.441478  1
  Li  Li2  1  0.186039  0.813961  0.058522  1
  Li  Li3  1  0.813961  0.186039  0.941478  1
  Pr  Pr4  1  0.546521  0.453479  0.250000  1
  Pr  Pr5  1  0.453479  0.546521  0.750000  1
  Pr  Pr6  1  0.351468  0.648532  0.250000  1
  Pr  Pr7  1  0.648532  0.351468  0.750000  1
  Si  Si8  1  0.942742  0.057258  0.074269  1
  Si  Si9  1  0.057258  0.942742  0.925731  1
  Si  Si10  1  0.057258  0.942742  0.574269  1
  Si  Si11  1  0.942742  0.057258  0.425731  1
  Sb  Sb12  1  0.719370  0.280630  0.250000  1
  Sb  Sb13  1  0.280630  0.719370  0.750000  1
