# generated using pymatgen
data_Y4FeCo4
_symmetry_space_group_name_H-M   'P 1'
_cell_length_a   5.58389201
_cell_length_b   5.58389153
_cell_length_c   8.82343336
_cell_angle_alpha   71.94175648
_cell_angle_beta   71.94175792
_cell_angle_gamma   41.78073913
_symmetry_Int_Tables_number   1
_chemical_formula_structural   Y4FeCo4
_chemical_formula_sum   'Y4 Fe1 Co4'
_cell_volume   172.91920379
_cell_formula_units_Z   1
loop_
 _symmetry_equiv_pos_site_id
 _symmetry_equiv_pos_as_xyz
  1  'x, y, z'
loop_
 _atom_site_type_symbol
 _atom_site_label
 _atom_site_symmetry_multiplicity
 _atom_site_fract_x
 _atom_site_fract_y
 _atom_site_fract_z
 _atom_site_occupancy
  Y  Y0  1  0.740806  0.740806  0.661217  1
  Y  Y1  1  0.259194  0.259194  0.338783  1
  Y  Y2  1  0.391420  0.391420  0.881879  1
  Y  Y3  1  0.608580  0.608580  0.118121  1
  Fe  Fe4  1  0.500000  0.500000  0.500000  1
  Co  Co5  1  0.032849  0.032849  0.636890  1
  Co  Co6  1  0.967151  0.967151  0.363110  1
  Co  Co7  1  0.085880  0.085880  0.876484  1
  Co  Co8  1  0.914120  0.914120  0.123516  1
