# generated using pymatgen
data_Nd16Ag4OsRh3
_symmetry_space_group_name_H-M   'P 1'
_cell_length_a   9.90926689
_cell_length_b   9.90926580
_cell_length_c   9.90926727
_cell_angle_alpha   59.46089275
_cell_angle_beta   59.46089651
_cell_angle_gamma   59.46089311
_symmetry_Int_Tables_number   1
_chemical_formula_structural   Nd16Ag4OsRh3
_chemical_formula_sum   'Nd16 Ag4 Os1 Rh3'
_cell_volume   679.59566205
_cell_formula_units_Z   1
loop_
 _symmetry_equiv_pos_site_id
 _symmetry_equiv_pos_as_xyz
  1  'x, y, z'
loop_
 _atom_site_type_symbol
 _atom_site_label
 _atom_site_symmetry_multiplicity
 _atom_site_fract_x
 _atom_site_fract_y
 _atom_site_fract_z
 _atom_site_occupancy
  Nd  Nd0  1  0.601022  0.601022  0.601022  1
  Nd  Nd1  1  0.600757  0.600757  0.196088  1
  Nd  Nd2  1  0.600757  0.196088  0.600757  1
  Nd  Nd3  1  0.196088  0.600757  0.600757  1
  Nd  Nd4  1  0.062334  0.438548  0.438548  1
  Nd  Nd5  1  0.438640  0.060589  0.060589  1
  Nd  Nd6  1  0.438548  0.062334  0.438548  1
  Nd  Nd7  1  0.060589  0.438640  0.060589  1
  Nd  Nd8  1  0.438548  0.438548  0.062334  1
  Nd  Nd9  1  0.060589  0.060589  0.438640  1
  Nd  Nd10  1  0.187799  0.812919  0.812919  1
  Nd  Nd11  1  0.809281  0.188915  0.188915  1
  Nd  Nd12  1  0.812919  0.187799  0.812919  1
  Nd  Nd13  1  0.188915  0.809281  0.188915  1
  Nd  Nd14  1  0.812919  0.812919  0.187799  1
  Nd  Nd15  1  0.188915  0.188915  0.809281  1
  Ag  Ag16  1  0.831539  0.831539  0.831539  1
  Ag  Ag17  1  0.830809  0.830809  0.507148  1
  Ag  Ag18  1  0.830809  0.507148  0.830809  1
  Ag  Ag19  1  0.507148  0.830809  0.830809  1
  Os  Os20  1  0.391726  0.391726  0.391726  1
  Rh  Rh21  1  0.393260  0.393260  0.822828  1
  Rh  Rh22  1  0.393260  0.822828  0.393260  1
  Rh  Rh23  1  0.822828  0.393260  0.393260  1
