# generated using pymatgen
data_Zn2Hg8AsP3I8
_symmetry_space_group_name_H-M   'P 1'
_cell_length_a   13.31947007
_cell_length_b   7.97426777
_cell_length_c   8.05289432
_cell_angle_alpha   62.01593407
_cell_angle_beta   89.69304724
_cell_angle_gamma   89.72738696
_symmetry_Int_Tables_number   1
_chemical_formula_structural   Zn2Hg8AsP3I8
_chemical_formula_sum   'Zn2 Hg8 As1 P3 I8'
_cell_volume   755.30307079
_cell_formula_units_Z   1
loop_
 _symmetry_equiv_pos_site_id
 _symmetry_equiv_pos_as_xyz
  1  'x, y, z'
loop_
 _atom_site_type_symbol
 _atom_site_label
 _atom_site_symmetry_multiplicity
 _atom_site_fract_x
 _atom_site_fract_y
 _atom_site_fract_z
 _atom_site_occupancy
  Zn  Zn0  1  0.842252  0.990231  0.005821  1
  Zn  Zn1  1  0.342022  0.009229  0.994292  1
  Hg  Hg2  1  0.795254  0.672000  0.665555  1
  Hg  Hg3  1  0.550432  0.018956  0.562142  1
  Hg  Hg4  1  0.045459  0.975818  0.442996  1
  Hg  Hg5  1  0.552105  0.522212  0.036165  1
  Hg  Hg6  1  0.283468  0.326172  0.330299  1
  Hg  Hg7  1  0.026439  0.478378  0.456107  1
  Hg  Hg8  1  0.529523  0.527175  0.547253  1
  Hg  Hg9  1  0.046658  0.480554  0.957960  1
  As  As10  1  0.474518  0.351130  0.366697  1
  P  P11  1  0.611072  0.688526  0.707335  1
  P  P12  1  0.979346  0.649622  0.633406  1
  P  P13  1  0.099776  0.311159  0.291666  1
  I  I14  1  0.244660  0.320402  0.761834  1
  I  I15  1  0.313195  0.735515  0.906114  1
  I  I16  1  0.034864  0.892815  0.056202  1
  I  I17  1  0.746492  0.679377  0.239701  1
  I  I18  1  0.534472  0.105124  0.945065  1
  I  I19  1  0.812441  0.264619  0.093068  1
  I  I20  1  0.807361  0.113606  0.647448  1
  I  I21  1  0.305649  0.887380  0.352876  1
