# generated using pymatgen
data_LaPr3(Nd3Ru2)2
_symmetry_space_group_name_H-M   'P 1'
_cell_length_a   8.93172274
_cell_length_b   8.94780660
_cell_length_c   7.40439474
_cell_angle_alpha   83.79721947
_cell_angle_beta   84.28111148
_cell_angle_gamma   43.84494016
_symmetry_Int_Tables_number   1
_chemical_formula_structural   LaPr3(Nd3Ru2)2
_chemical_formula_sum   'La1 Pr3 Nd6 Ru4'
_cell_volume   407.31101484
_cell_formula_units_Z   1
loop_
 _symmetry_equiv_pos_site_id
 _symmetry_equiv_pos_as_xyz
  1  'x, y, z'
loop_
 _atom_site_type_symbol
 _atom_site_label
 _atom_site_symmetry_multiplicity
 _atom_site_fract_x
 _atom_site_fract_y
 _atom_site_fract_z
 _atom_site_occupancy
  La  La0  1  0.797223  0.014523  0.406078  1
  Pr  Pr1  1  0.018677  0.795900  0.913307  1
  Pr  Pr2  1  0.201806  0.983874  0.586079  1
  Pr  Pr3  1  0.983595  0.203404  0.084386  1
  Nd  Nd4  1  0.359916  0.208560  0.817072  1
  Nd  Nd5  1  0.791098  0.639708  0.685253  1
  Nd  Nd6  1  0.638508  0.791213  0.183537  1
  Nd  Nd7  1  0.205461  0.361996  0.316730  1
  Nd  Nd8  1  0.573976  0.425447  0.749702  1
  Nd  Nd9  1  0.427393  0.573820  0.249668  1
  Ru  Ru10  1  0.170440  0.606969  0.574188  1
  Ru  Ru11  1  0.399318  0.823422  0.923845  1
  Ru  Ru12  1  0.823651  0.401460  0.424169  1
  Ru  Ru13  1  0.608939  0.169704  0.085986  1
