# generated using pymatgen
data_Tb2LuPa(ReB6)2
_symmetry_space_group_name_H-M   'P 1'
_cell_length_a   3.69519100
_cell_length_b   9.17023615
_cell_length_c   11.53329564
_cell_angle_alpha   90.43797939
_cell_angle_beta   90.00000000
_cell_angle_gamma   90.00000000
_symmetry_Int_Tables_number   1
_chemical_formula_structural   Tb2LuPa(ReB6)2
_chemical_formula_sum   'Tb4 Lu2 Pa2 Re4 B24'
_cell_volume   390.80323247
_cell_formula_units_Z   2
loop_
 _symmetry_equiv_pos_site_id
 _symmetry_equiv_pos_as_xyz
  1  'x, y, z'
loop_
 _atom_site_type_symbol
 _atom_site_label
 _atom_site_symmetry_multiplicity
 _atom_site_fract_x
 _atom_site_fract_y
 _atom_site_fract_z
 _atom_site_occupancy
  Tb  Tb0  1  0.000000  0.822876  0.085802  1
  Tb  Tb1  1  0.000000  0.177124  0.914198  1
  Tb  Tb2  1  0.000000  0.945044  0.372828  1
  Tb  Tb3  1  0.000000  0.054956  0.627172  1
  Lu  Lu4  1  0.000000  0.444051  0.126009  1
  Lu  Lu5  1  0.000000  0.555949  0.873991  1
  Pa  Pa6  1  0.000000  0.323056  0.412522  1
  Pa  Pa7  1  0.000000  0.676944  0.587478  1
  Re  Re8  1  0.000000  0.633719  0.323733  1
  Re  Re9  1  0.000000  0.366281  0.676267  1
  Re  Re10  1  0.000000  0.143183  0.181305  1
  Re  Re11  1  0.000000  0.856817  0.818695  1
  B  B12  1  0.500000  0.552534  0.432585  1
  B  B13  1  0.500000  0.447466  0.567415  1
  B  B14  1  0.500000  0.054617  0.067217  1
  B  B15  1  0.500000  0.945383  0.932783  1
  B  B16  1  0.500000  0.746425  0.419287  1
  B  B17  1  0.500000  0.253575  0.580713  1
  B  B18  1  0.500000  0.250354  0.080154  1
  B  B19  1  0.500000  0.749646  0.919846  1
  B  B20  1  0.500000  0.790233  0.265083  1
  B  B21  1  0.500000  0.209767  0.734917  1
  B  B22  1  0.500000  0.294205  0.232843  1
  B  B23  1  0.500000  0.705795  0.767157  1
  B  B24  1  0.500000  0.629551  0.184549  1
  B  B25  1  0.500000  0.370449  0.815451  1
  B  B26  1  0.500000  0.134225  0.313306  1
  B  B27  1  0.500000  0.865775  0.686694  1
  B  B28  1  0.500000  0.983519  0.211835  1
  B  B29  1  0.500000  0.016481  0.788165  1
  B  B30  1  0.500000  0.482123  0.285414  1
  B  B31  1  0.500000  0.517877  0.714586  1
  B  B32  1  0.500000  0.600584  0.028418  1
  B  B33  1  0.500000  0.399416  0.971582  1
  B  B34  1  0.500000  0.116469  0.468134  1
  B  B35  1  0.500000  0.883531  0.531866  1
