# generated using pymatgen
data_Tb2LuAl9Si3Os4
_symmetry_space_group_name_H-M   'P 1'
_cell_length_a   8.70354100
_cell_length_b   8.67744352
_cell_length_c   9.52630200
_cell_angle_alpha   90.00000000
_cell_angle_beta   90.00000000
_cell_angle_gamma   120.09953373
_symmetry_Int_Tables_number   1
_chemical_formula_structural   Tb2LuAl9Si3Os4
_chemical_formula_sum   'Tb4 Lu2 Al18 Si6 Os8'
_cell_volume   622.45261263
_cell_formula_units_Z   2
loop_
 _symmetry_equiv_pos_site_id
 _symmetry_equiv_pos_as_xyz
  1  'x, y, z'
loop_
 _atom_site_type_symbol
 _atom_site_label
 _atom_site_symmetry_multiplicity
 _atom_site_fract_x
 _atom_site_fract_y
 _atom_site_fract_z
 _atom_site_occupancy
  Tb  Tb0  1  0.610939  0.807819  0.250000  1
  Tb  Tb1  1  0.389061  0.192181  0.750000  1
  Tb  Tb2  1  0.196881  0.807819  0.250000  1
  Tb  Tb3  1  0.803119  0.192181  0.750000  1
  Lu  Lu4  1  0.195287  0.390574  0.250000  1
  Lu  Lu5  1  0.804713  0.609426  0.750000  1
  Al  Al6  1  0.165217  0.330432  0.577369  1
  Al  Al7  1  0.834783  0.669568  0.422631  1
  Al  Al8  1  0.670721  0.834350  0.577074  1
  Al  Al9  1  0.834783  0.669568  0.077369  1
  Al  Al10  1  0.329279  0.165650  0.422926  1
  Al  Al11  1  0.165217  0.330432  0.922631  1
  Al  Al12  1  0.163631  0.834350  0.577074  1
  Al  Al13  1  0.329279  0.165650  0.077074  1
  Al  Al14  1  0.836369  0.165650  0.422926  1
  Al  Al15  1  0.670721  0.834350  0.922926  1
  Al  Al16  1  0.836369  0.165650  0.077074  1
  Al  Al17  1  0.163631  0.834350  0.922926  1
  Al  Al18  1  0.872963  0.432379  0.250000  1
  Al  Al19  1  0.127037  0.567621  0.750000  1
  Al  Al20  1  0.559416  0.432379  0.250000  1
  Al  Al21  1  0.440584  0.567621  0.750000  1
  Al  Al22  1  0.001055  0.002110  0.250000  1
  Al  Al23  1  0.998945  0.997890  0.750000  1
  Si  Si24  1  0.331520  0.663042  0.039520  1
  Si  Si25  1  0.668480  0.336958  0.960480  1
  Si  Si26  1  0.668480  0.336958  0.539520  1
  Si  Si27  1  0.331520  0.663042  0.460480  1
  Si  Si28  1  0.563808  0.127618  0.250000  1
  Si  Si29  1  0.436192  0.872382  0.750000  1
  Os  Os30  1  0.500000  0.000000  0.000000  1
  Os  Os31  1  0.000000  0.500000  0.000000  1
  Os  Os32  1  0.500000  0.000000  0.500000  1
  Os  Os33  1  0.500000  0.500000  0.000000  1
  Os  Os34  1  0.000000  0.500000  0.500000  1
  Os  Os35  1  0.500000  0.500000  0.500000  1
  Os  Os36  1  0.000000  0.000000  0.000000  1
  Os  Os37  1  0.000000  0.000000  0.500000  1
