# generated using pymatgen
data_YEr(MgSn)2
_symmetry_space_group_name_H-M   'P 1'
_cell_length_a   4.40728020
_cell_length_b   4.40728041
_cell_length_c   8.47422641
_cell_angle_alpha   105.07245670
_cell_angle_beta   105.07245593
_cell_angle_gamma   90.00000367
_symmetry_Int_Tables_number   1
_chemical_formula_structural   YEr(MgSn)2
_chemical_formula_sum   'Y1 Er1 Mg2 Sn2'
_cell_volume   153.06951607
_cell_formula_units_Z   1
loop_
 _symmetry_equiv_pos_site_id
 _symmetry_equiv_pos_as_xyz
  1  'x, y, z'
loop_
 _atom_site_type_symbol
 _atom_site_label
 _atom_site_symmetry_multiplicity
 _atom_site_fract_x
 _atom_site_fract_y
 _atom_site_fract_z
 _atom_site_occupancy
  Y  Y0  1  0.665866  0.665866  0.331733  1
  Er  Er1  1  0.334416  0.334416  0.668832  1
  Mg  Mg2  1  0.499558  0.999559  0.999119  1
  Mg  Mg3  1  0.999559  0.499558  0.999119  1
  Sn  Sn4  1  0.137088  0.137088  0.274177  1
  Sn  Sn5  1  0.863510  0.863510  0.727021  1
