# generated using pymatgen
data_TbHo5Al19Si5Os8
_symmetry_space_group_name_H-M   'P 1'
_cell_length_a   8.69918300
_cell_length_b   8.68510890
_cell_length_c   9.58613000
_cell_angle_alpha   90.00049901
_cell_angle_beta   90.00000000
_cell_angle_gamma   120.05361593
_symmetry_Int_Tables_number   1
_chemical_formula_structural   TbHo5Al19Si5Os8
_chemical_formula_sum   'Tb1 Ho5 Al19 Si5 Os8'
_cell_volume   626.89209226
_cell_formula_units_Z   1
loop_
 _symmetry_equiv_pos_site_id
 _symmetry_equiv_pos_as_xyz
  1  'x, y, z'
loop_
 _atom_site_type_symbol
 _atom_site_label
 _atom_site_symmetry_multiplicity
 _atom_site_fract_x
 _atom_site_fract_y
 _atom_site_fract_z
 _atom_site_occupancy
  Tb  Tb0  1  0.806156  0.612313  0.750000  1
  Ho  Ho1  1  0.194939  0.389877  0.249997  1
  Ho  Ho2  1  0.607996  0.806338  0.249999  1
  Ho  Ho3  1  0.389766  0.195028  0.750003  1
  Ho  Ho4  1  0.198342  0.806338  0.249999  1
  Ho  Ho5  1  0.805262  0.195028  0.750003  1
  Al  Al6  1  0.164634  0.329268  0.578280  1
  Al  Al7  1  0.834770  0.669539  0.421719  1
  Al  Al8  1  0.669862  0.835425  0.576907  1
  Al  Al9  1  0.834769  0.669539  0.078279  1
  Al  Al10  1  0.329025  0.165468  0.422010  1
  Al  Al11  1  0.164634  0.329268  0.921721  1
  Al  Al12  1  0.165563  0.835425  0.576907  1
  Al  Al13  1  0.329024  0.165467  0.077988  1
  Al  Al14  1  0.836443  0.165468  0.422010  1
  Al  Al15  1  0.669862  0.835423  0.923093  1
  Al  Al16  1  0.836443  0.165467  0.077988  1
  Al  Al17  1  0.165561  0.835423  0.923093  1
  Al  Al18  1  0.437120  0.874239  0.750001  1
  Al  Al19  1  0.872872  0.433549  0.249999  1
  Al  Al20  1  0.127872  0.564335  0.750001  1
  Al  Al21  1  0.560676  0.433549  0.249999  1
  Al  Al22  1  0.436464  0.564335  0.750001  1
  Al  Al23  1  0.999909  0.999820  0.249998  1
  Al  Al24  1  0.000625  0.001250  0.749999  1
  Si  Si25  1  0.332567  0.665134  0.037963  1
  Si  Si26  1  0.667037  0.334072  0.960981  1
  Si  Si27  1  0.667037  0.334073  0.539020  1
  Si  Si28  1  0.332567  0.665134  0.462033  1
  Si  Si29  1  0.563791  0.127584  0.250000  1
  Os  Os30  1  0.500674  0.001346  0.006292  1
  Os  Os31  1  0.999178  0.498914  0.000681  1
  Os  Os32  1  0.500675  0.001350  0.493713  1
  Os  Os33  1  0.499736  0.498914  0.000681  1
  Os  Os34  1  0.999178  0.498911  0.499322  1
  Os  Os35  1  0.499734  0.498911  0.499322  1
  Os  Os36  1  0.999620  0.999241  0.000073  1
  Os  Os37  1  0.999617  0.999235  0.499926  1
