# generated using pymatgen
data_ErTm7(InRu)2
_symmetry_space_group_name_H-M   'P 1'
_cell_length_a   9.57989504
_cell_length_b   9.57645288
_cell_length_c   9.57999855
_cell_angle_alpha   59.28121498
_cell_angle_beta   59.27238646
_cell_angle_gamma   59.25286533
_symmetry_Int_Tables_number   1
_chemical_formula_structural   ErTm7(InRu)2
_chemical_formula_sum   'Er2 Tm14 In4 Ru4'
_cell_volume   611.11510703
_cell_formula_units_Z   2
loop_
 _symmetry_equiv_pos_site_id
 _symmetry_equiv_pos_as_xyz
  1  'x, y, z'
loop_
 _atom_site_type_symbol
 _atom_site_label
 _atom_site_symmetry_multiplicity
 _atom_site_fract_x
 _atom_site_fract_y
 _atom_site_fract_z
 _atom_site_occupancy
  Er  Er0  1  0.059943  0.060373  0.441007  1
  Er  Er1  1  0.441948  0.059867  0.441433  1
  Tm  Tm2  1  0.059782  0.441415  0.059711  1
  Tm  Tm3  1  0.043148  0.651772  0.652041  1
  Tm  Tm4  1  0.441931  0.442383  0.059609  1
  Tm  Tm5  1  0.651853  0.043068  0.651871  1
  Tm  Tm6  1  0.190744  0.812813  0.190716  1
  Tm  Tm7  1  0.190857  0.190897  0.812921  1
  Tm  Tm8  1  0.809653  0.809448  0.190744  1
  Tm  Tm9  1  0.441544  0.059648  0.059261  1
  Tm  Tm10  1  0.813117  0.190603  0.190600  1
  Tm  Tm11  1  0.059604  0.442838  0.441967  1
  Tm  Tm12  1  0.809542  0.191019  0.809536  1
  Tm  Tm13  1  0.190870  0.809642  0.809711  1
  Tm  Tm14  1  0.651677  0.651329  0.042863  1
  Tm  Tm15  1  0.649999  0.650046  0.650272  1
  In  In16  1  0.417268  0.416975  0.416015  1
  In  In17  1  0.747776  0.418013  0.417641  1
  In  In18  1  0.417691  0.747760  0.417603  1
  In  In19  1  0.417116  0.417386  0.749393  1
  Ru  Ru20  1  0.856388  0.855389  0.421639  1
  Ru  Ru21  1  0.859598  0.859504  0.860573  1
  Ru  Ru22  1  0.421463  0.856138  0.856814  1
  Ru  Ru23  1  0.856487  0.421673  0.856056  1
