# generated using pymatgen
data_Zr6Nb4Al4Ga8Os7
_symmetry_space_group_name_H-M   'P 1'
_cell_length_a   8.86660956
_cell_length_b   8.86660944
_cell_length_c   8.86660900
_cell_angle_alpha   59.99999789
_cell_angle_beta   59.99999837
_cell_angle_gamma   59.99999629
_symmetry_Int_Tables_number   1
_chemical_formula_structural   Zr6Nb4Al4Ga8Os7
_chemical_formula_sum   'Zr6 Nb4 Al4 Ga8 Os7'
_cell_volume   492.89872943
_cell_formula_units_Z   1
loop_
 _symmetry_equiv_pos_site_id
 _symmetry_equiv_pos_as_xyz
  1  'x, y, z'
loop_
 _atom_site_type_symbol
 _atom_site_label
 _atom_site_symmetry_multiplicity
 _atom_site_fract_x
 _atom_site_fract_y
 _atom_site_fract_z
 _atom_site_occupancy
  Zr  Zr0  1  0.703323  0.703323  0.296677  1
  Zr  Zr1  1  0.296677  0.703323  0.296677  1
  Zr  Zr2  1  0.703323  0.296677  0.296677  1
  Zr  Zr3  1  0.296677  0.296677  0.703323  1
  Zr  Zr4  1  0.703323  0.296677  0.703323  1
  Zr  Zr5  1  0.296677  0.703323  0.703323  1
  Nb  Nb6  1  0.877814  0.877814  0.366559  1
  Nb  Nb7  1  0.877814  0.366559  0.877814  1
  Nb  Nb8  1  0.366559  0.877814  0.877814  1
  Nb  Nb9  1  0.877814  0.877814  0.877814  1
  Al  Al10  1  0.121246  0.121246  0.636260  1
  Al  Al11  1  0.121246  0.636260  0.121246  1
  Al  Al12  1  0.636260  0.121246  0.121246  1
  Al  Al13  1  0.121246  0.121246  0.121246  1
  Ga  Ga14  1  0.656883  0.656883  0.029350  1
  Ga  Ga15  1  0.656883  0.029350  0.656883  1
  Ga  Ga16  1  0.029350  0.656883  0.656883  1
  Ga  Ga17  1  0.656883  0.656883  0.656883  1
  Ga  Ga18  1  0.338643  0.338643  0.984072  1
  Ga  Ga19  1  0.338643  0.984072  0.338643  1
  Ga  Ga20  1  0.984072  0.338643  0.338643  1
  Ga  Ga21  1  0.338643  0.338643  0.338643  1
  Os  Os22  1  0.000000  0.000000  0.000000  1
  Os  Os23  1  0.998608  0.998608  0.501392  1
  Os  Os24  1  0.501392  0.998608  0.501392  1
  Os  Os25  1  0.998608  0.501392  0.501392  1
  Os  Os26  1  0.501392  0.501392  0.998608  1
  Os  Os27  1  0.998608  0.501392  0.998608  1
  Os  Os28  1  0.501392  0.998608  0.998608  1
