# generated using pymatgen
data_Y2Ho2ZrTa3(Co4P3)4
_symmetry_space_group_name_H-M   'P 1'
_cell_length_a   12.15665400
_cell_length_b   12.15665292
_cell_length_c   3.68735100
_cell_angle_alpha   90.00000000
_cell_angle_beta   90.00000000
_cell_angle_gamma   120.03078360
_symmetry_Int_Tables_number   1
_chemical_formula_structural   Y2Ho2ZrTa3(Co4P3)4
_chemical_formula_sum   'Y2 Ho2 Zr1 Ta3 Co16 P12'
_cell_volume   471.77876096
_cell_formula_units_Z   1
loop_
 _symmetry_equiv_pos_site_id
 _symmetry_equiv_pos_as_xyz
  1  'x, y, z'
loop_
 _atom_site_type_symbol
 _atom_site_label
 _atom_site_symmetry_multiplicity
 _atom_site_fract_x
 _atom_site_fract_y
 _atom_site_fract_z
 _atom_site_occupancy
  Y  Y0  1  0.666352  0.333429  0.000000  1
  Y  Y1  1  0.333429  0.666352  0.000000  1
  Ho  Ho2  1  0.182279  0.000055  0.500000  1
  Ho  Ho3  1  0.000055  0.182279  0.500000  1
  Zr  Zr4  1  0.815708  0.815708  0.500000  1
  Ta  Ta5  1  0.445060  0.445060  0.000000  1
  Ta  Ta6  1  0.556237  0.999690  0.000000  1
  Ta  Ta7  1  0.999690  0.556237  0.000000  1
  Co  Co8  1  0.873838  0.355058  0.500000  1
  Co  Co9  1  0.646590  0.521013  0.500000  1
  Co  Co10  1  0.481199  0.125970  0.500000  1
  Co  Co11  1  0.355058  0.873838  0.500000  1
  Co  Co12  1  0.521013  0.646590  0.500000  1
  Co  Co13  1  0.125970  0.481199  0.500000  1
  Co  Co14  1  0.802755  0.175835  0.000000  1
  Co  Co15  1  0.823821  0.629475  0.000000  1
  Co  Co16  1  0.373587  0.197299  0.000000  1
  Co  Co17  1  0.175835  0.802755  0.000000  1
  Co  Co18  1  0.629475  0.823821  0.000000  1
  Co  Co19  1  0.197299  0.373587  0.000000  1
  Co  Co20  1  0.280645  0.280645  0.500000  1
  Co  Co21  1  0.719875  0.997716  0.500000  1
  Co  Co22  1  0.997716  0.719875  0.500000  1
  Co  Co23  1  0.997627  0.997627  0.000000  1
  P  P24  1  0.688926  0.167528  0.500000  1
  P  P25  1  0.832123  0.520484  0.500000  1
  P  P26  1  0.478974  0.311214  0.500000  1
  P  P27  1  0.167528  0.688926  0.500000  1
  P  P28  1  0.520484  0.832123  0.500000  1
  P  P29  1  0.311214  0.478974  0.500000  1
  P  P30  1  0.175368  0.175368  0.000000  1
  P  P31  1  0.823511  0.998239  0.000000  1
  P  P32  1  0.998239  0.823511  0.000000  1
  P  P33  1  0.647345  0.647345  0.000000  1
  P  P34  1  0.355018  0.000159  0.000000  1
  P  P35  1  0.000159  0.355018  0.000000  1
