# generated using pymatgen
data_Dy19ErSn16
_symmetry_space_group_name_H-M   'P 1'
_cell_length_a   8.04073323
_cell_length_b   8.19266723
_cell_length_c   15.47195100
_cell_angle_alpha   90.00000000
_cell_angle_beta   90.00000000
_cell_angle_gamma   89.97254693
_symmetry_Int_Tables_number   1
_chemical_formula_structural   Dy19ErSn16
_chemical_formula_sum   'Dy19 Er1 Sn16'
_cell_volume   1019.21545481
_cell_formula_units_Z   1
loop_
 _symmetry_equiv_pos_site_id
 _symmetry_equiv_pos_as_xyz
  1  'x, y, z'
loop_
 _atom_site_type_symbol
 _atom_site_label
 _atom_site_symmetry_multiplicity
 _atom_site_fract_x
 _atom_site_fract_y
 _atom_site_fract_z
 _atom_site_occupancy
  Dy  Dy0  1  0.367672  0.835846  0.878103  1
  Dy  Dy1  1  0.868043  0.663856  0.621892  1
  Dy  Dy2  1  0.632217  0.164005  0.378131  1
  Dy  Dy3  1  0.132202  0.335974  0.121776  1
  Dy  Dy4  1  0.632217  0.164005  0.121869  1
  Dy  Dy5  1  0.132202  0.335974  0.378224  1
  Dy  Dy6  1  0.367672  0.835846  0.621897  1
  Dy  Dy7  1  0.868043  0.663856  0.878108  1
  Dy  Dy8  1  0.521038  0.320329  0.902193  1
  Dy  Dy9  1  0.021250  0.179885  0.597788  1
  Dy  Dy10  1  0.478879  0.679776  0.402256  1
  Dy  Dy11  1  0.978829  0.820233  0.097787  1
  Dy  Dy12  1  0.478879  0.679776  0.097744  1
  Dy  Dy13  1  0.978829  0.820233  0.402213  1
  Dy  Dy14  1  0.521038  0.320329  0.597807  1
  Dy  Dy15  1  0.021250  0.179885  0.902212  1
  Dy  Dy16  1  0.698542  0.997436  0.750000  1
  Dy  Dy17  1  0.801374  0.497374  0.250000  1
  Dy  Dy18  1  0.301379  0.002639  0.250000  1
  Er  Er19  1  0.198906  0.502818  0.750000  1
  Sn  Sn20  1  0.292100  0.034837  0.041803  1
  Sn  Sn21  1  0.792084  0.465070  0.458187  1
  Sn  Sn22  1  0.707909  0.965143  0.541884  1
  Sn  Sn23  1  0.207882  0.534815  0.957788  1
  Sn  Sn24  1  0.707909  0.965143  0.958116  1
  Sn  Sn25  1  0.207882  0.534815  0.542212  1
  Sn  Sn26  1  0.292100  0.034837  0.458197  1
  Sn  Sn27  1  0.792084  0.465070  0.041813  1
  Sn  Sn28  1  0.564706  0.618544  0.750000  1
  Sn  Sn29  1  0.065629  0.880752  0.750000  1
  Sn  Sn30  1  0.434436  0.381166  0.250000  1
  Sn  Sn31  1  0.934554  0.118880  0.250000  1
  Sn  Sn32  1  0.329125  0.147893  0.750000  1
  Sn  Sn33  1  0.829544  0.353189  0.750000  1
  Sn  Sn34  1  0.670715  0.852772  0.250000  1
  Sn  Sn35  1  0.170882  0.646996  0.250000  1
