# generated using pymatgen
data_Ce2Pr7Nd(Al2Ru3)2
_symmetry_space_group_name_H-M   'P 1'
_cell_length_a   8.71237855
_cell_length_b   8.60193309
_cell_length_c   8.57718853
_cell_angle_alpha   110.24584834
_cell_angle_beta   109.05989889
_cell_angle_gamma   110.48213187
_symmetry_Int_Tables_number   1
_chemical_formula_structural   Ce2Pr7Nd(Al2Ru3)2
_chemical_formula_sum   'Ce2 Pr7 Nd1 Al4 Ru6'
_cell_volume   486.19276107
_cell_formula_units_Z   1
loop_
 _symmetry_equiv_pos_site_id
 _symmetry_equiv_pos_as_xyz
  1  'x, y, z'
loop_
 _atom_site_type_symbol
 _atom_site_label
 _atom_site_symmetry_multiplicity
 _atom_site_fract_x
 _atom_site_fract_y
 _atom_site_fract_z
 _atom_site_occupancy
  Ce  Ce0  1  0.945020  0.250363  0.197854  1
  Ce  Ce1  1  0.197677  0.943821  0.251363  1
  Pr  Pr2  1  0.314130  0.562347  0.754870  1
  Pr  Pr3  1  0.753980  0.313903  0.564615  1
  Pr  Pr4  1  0.560761  0.749178  0.307680  1
  Pr  Pr5  1  0.723447  0.503681  0.998680  1
  Pr  Pr6  1  0.999730  0.719780  0.504843  1
  Pr  Pr7  1  0.501665  0.990019  0.716061  1
  Pr  Pr8  1  0.254279  0.194998  0.938091  1
  Nd  Nd9  1  0.787480  0.790841  0.783682  1
  Al  Al10  1  0.413951  0.407501  0.409215  1
  Al  Al11  1  0.090255  0.490698  0.000276  1
  Al  Al12  1  0.998659  0.089997  0.495072  1
  Al  Al13  1  0.502054  0.013946  0.097957  1
  Ru  Ru14  1  0.874646  0.119890  0.736959  1
  Ru  Ru15  1  0.756323  0.919635  0.125523  1
  Ru  Ru16  1  0.132873  0.766231  0.925708  1
  Ru  Ru17  1  0.218046  0.576027  0.355392  1
  Ru  Ru18  1  0.350072  0.212313  0.581603  1
  Ru  Ru19  1  0.624956  0.384833  0.254554  1
