# generated using pymatgen
data_Zr10Cd2SnBi4Pb
_symmetry_space_group_name_H-M   'P 1'
_cell_length_a   8.92749198
_cell_length_b   8.91938847
_cell_length_c   6.00935000
_cell_angle_alpha   90.00000000
_cell_angle_beta   90.00000000
_cell_angle_gamma   119.88303696
_symmetry_Int_Tables_number   1
_chemical_formula_structural   Zr10Cd2SnBi4Pb
_chemical_formula_sum   'Zr10 Cd2 Sn1 Bi4 Pb1'
_cell_volume   414.89034812
_cell_formula_units_Z   1
loop_
 _symmetry_equiv_pos_site_id
 _symmetry_equiv_pos_as_xyz
  1  'x, y, z'
loop_
 _atom_site_type_symbol
 _atom_site_label
 _atom_site_symmetry_multiplicity
 _atom_site_fract_x
 _atom_site_fract_y
 _atom_site_fract_z
 _atom_site_occupancy
  Zr  Zr0  1  0.664332  0.330002  0.002383  1
  Zr  Zr1  1  0.333327  0.669880  0.002350  1
  Zr  Zr2  1  0.333327  0.669880  0.497650  1
  Zr  Zr3  1  0.664332  0.330002  0.497617  1
  Zr  Zr4  1  0.720716  0.721606  0.750000  1
  Zr  Zr5  1  0.281003  0.000531  0.750000  1
  Zr  Zr6  1  0.999706  0.278776  0.750000  1
  Zr  Zr7  1  0.283141  0.278457  0.250000  1
  Zr  Zr8  1  0.714729  0.000421  0.250000  1
  Zr  Zr9  1  0.005588  0.721200  0.250000  1
  Cd  Cd10  1  0.000504  0.000477  0.003055  1
  Cd  Cd11  1  0.000504  0.000477  0.496945  1
  Sn  Sn12  1  0.379072  0.000013  0.250000  1
  Bi  Bi13  1  0.380408  0.381379  0.750000  1
  Bi  Bi14  1  0.619090  0.000561  0.750000  1
  Bi  Bi15  1  0.999673  0.618687  0.750000  1
  Bi  Bi16  1  0.620040  0.619647  0.250000  1
  Pb  Pb17  1  0.000506  0.378003  0.250000  1
