# generated using pymatgen
data_Hf8Be(Al2Rh)7
_symmetry_space_group_name_H-M   'P 1'
_cell_length_a   8.84125575
_cell_length_b   8.84119939
_cell_length_c   8.84112635
_cell_angle_alpha   120.08460268
_cell_angle_beta   119.94197298
_cell_angle_gamma   89.97742532
_symmetry_Int_Tables_number   1
_chemical_formula_structural   Hf8Be(Al2Rh)7
_chemical_formula_sum   'Hf8 Be1 Al14 Rh7'
_cell_volume   488.57149950
_cell_formula_units_Z   1
loop_
 _symmetry_equiv_pos_site_id
 _symmetry_equiv_pos_as_xyz
  1  'x, y, z'
loop_
 _atom_site_type_symbol
 _atom_site_label
 _atom_site_symmetry_multiplicity
 _atom_site_fract_x
 _atom_site_fract_y
 _atom_site_fract_z
 _atom_site_occupancy
  Hf  Hf0  1  0.812108  0.307860  0.108785  1
  Hf  Hf1  1  0.199072  0.307866  0.495767  1
  Hf  Hf2  1  0.185222  0.685221  0.500004  1
  Hf  Hf3  1  0.199069  0.703313  0.891210  1
  Hf  Hf4  1  0.812100  0.703313  0.504231  1
  Hf  Hf5  1  0.792321  0.292327  0.500006  1
  Hf  Hf6  1  0.379363  0.118986  0.739642  1
  Hf  Hf7  1  0.379345  0.639717  0.260359  1
  Be  Be8  1  0.986548  0.486554  0.499998  1
  Al  Al9  1  0.160775  0.331195  0.170410  1
  Al  Al10  1  0.160780  0.990364  0.829585  1
  Al  Al11  1  0.151875  0.341571  0.810277  1
  Al  Al12  1  0.531294  0.341593  0.189719  1
  Al  Al13  1  0.839043  0.659111  0.820084  1
  Al  Al14  1  0.839021  0.018956  0.179913  1
  Al  Al15  1  0.837161  0.662561  0.174601  1
  Al  Al16  1  0.487951  0.662557  0.825394  1
  Al  Al17  1  0.379813  0.120996  0.258816  1
  Al  Al18  1  0.862175  0.120996  0.741180  1
  Al  Al19  1  0.622338  0.877821  0.255528  1
  Al  Al20  1  0.622302  0.366810  0.744485  1
  Al  Al21  1  0.625202  0.879551  0.745626  1
  Al  Al22  1  0.133922  0.879574  0.254371  1
  Rh  Rh23  1  0.000600  0.999765  0.501854  1
  Rh  Rh24  1  0.497903  0.999769  0.999157  1
  Rh  Rh25  1  0.498554  0.498554  0.000001  1
  Rh  Rh26  1  0.497915  0.498737  0.498147  1
  Rh  Rh27  1  0.000623  0.498758  0.000853  1
  Rh  Rh28  1  0.999687  0.999690  0.000003  1
  Rh  Rh29  1  0.505911  0.005913  0.499993  1
