# generated using pymatgen
data_Er3Tm5B24RhW3
_symmetry_space_group_name_H-M   'P 1'
_cell_length_a   3.58705500
_cell_length_b   9.21245133
_cell_length_c   11.60670714
_cell_angle_alpha   90.17623396
_cell_angle_beta   90.00000000
_cell_angle_gamma   90.00000000
_symmetry_Int_Tables_number   1
_chemical_formula_structural   Er3Tm5B24RhW3
_chemical_formula_sum   'Er3 Tm5 B24 Rh1 W3'
_cell_volume   383.54843442
_cell_formula_units_Z   1
loop_
 _symmetry_equiv_pos_site_id
 _symmetry_equiv_pos_as_xyz
  1  'x, y, z'
loop_
 _atom_site_type_symbol
 _atom_site_label
 _atom_site_symmetry_multiplicity
 _atom_site_fract_x
 _atom_site_fract_y
 _atom_site_fract_z
 _atom_site_occupancy
  Er  Er0  1  0.500000  0.318093  0.414548  1
  Er  Er1  1  0.500000  0.679444  0.588603  1
  Er  Er2  1  0.500000  0.178984  0.912545  1
  Tm  Tm3  1  0.500000  0.824217  0.082977  1
  Tm  Tm4  1  0.500000  0.444929  0.129374  1
  Tm  Tm5  1  0.500000  0.556066  0.873269  1
  Tm  Tm6  1  0.500000  0.054092  0.626594  1
  Tm  Tm7  1  0.500000  0.941680  0.371294  1
  B  B8  1  0.000000  0.100135  0.470932  1
  B  B9  1  0.000000  0.893944  0.527052  1
  B  B10  1  0.000000  0.398383  0.972784  1
  B  B11  1  0.000000  0.604112  0.030600  1
  B  B12  1  0.000000  0.130658  0.318252  1
  B  B13  1  0.000000  0.867716  0.682588  1
  B  B14  1  0.000000  0.369294  0.816605  1
  B  B15  1  0.000000  0.632705  0.184306  1
  B  B16  1  0.000000  0.051818  0.065277  1
  B  B17  1  0.000000  0.949252  0.934993  1
  B  B18  1  0.000000  0.449269  0.563255  1
  B  B19  1  0.000000  0.554930  0.433031  1
  B  B20  1  0.000000  0.483609  0.288618  1
  B  B21  1  0.000000  0.522028  0.712876  1
  B  B22  1  0.000000  0.021471  0.786051  1
  B  B23  1  0.000000  0.977291  0.212467  1
  B  B24  1  0.000000  0.252626  0.079061  1
  B  B25  1  0.000000  0.749042  0.922628  1
  B  B26  1  0.000000  0.247014  0.577115  1
  B  B27  1  0.000000  0.748770  0.420107  1
  B  B28  1  0.000000  0.296724  0.237957  1
  B  B29  1  0.000000  0.704492  0.764630  1
  B  B30  1  0.000000  0.204935  0.735244  1
  B  B31  1  0.000000  0.791015  0.264508  1
  Rh  Rh32  1  0.500000  0.639071  0.320435  1
  W  W33  1  0.500000  0.139750  0.181097  1
  W  W34  1  0.500000  0.861108  0.820443  1
  W  W35  1  0.500000  0.361328  0.677884  1
