# generated using pymatgen
data_Sr2DyHoF10
_symmetry_space_group_name_H-M   'P 1'
_cell_length_a   8.20829173
_cell_length_b   8.20828995
_cell_length_c   5.77849102
_cell_angle_alpha   89.05559953
_cell_angle_beta   89.05560665
_cell_angle_gamma   149.44310318
_symmetry_Int_Tables_number   1
_chemical_formula_structural   Sr2DyHoF10
_chemical_formula_sum   'Sr2 Dy1 Ho1 F10'
_cell_volume   197.54630227
_cell_formula_units_Z   1
loop_
 _symmetry_equiv_pos_site_id
 _symmetry_equiv_pos_as_xyz
  1  'x, y, z'
loop_
 _atom_site_type_symbol
 _atom_site_label
 _atom_site_symmetry_multiplicity
 _atom_site_fract_x
 _atom_site_fract_y
 _atom_site_fract_z
 _atom_site_occupancy
  Sr  Sr0  1  0.323382  0.676618  0.750000  1
  Sr  Sr1  1  0.676637  0.323363  0.250000  1
  Dy  Dy2  1  0.075247  0.924753  0.750000  1
  Ho  Ho3  1  0.924751  0.075249  0.250000  1
  F  F4  1  0.729730  0.807556  0.601761  1
  F  F5  1  0.807362  0.729973  0.102465  1
  F  F6  1  0.803419  0.181051  0.004376  1
  F  F7  1  0.621478  0.378522  0.750000  1
  F  F8  1  0.818949  0.196581  0.495624  1
  F  F9  1  0.181206  0.803279  0.504047  1
  F  F10  1  0.378648  0.621352  0.250000  1
  F  F11  1  0.196721  0.818794  0.995953  1
  F  F12  1  0.192444  0.270270  0.898239  1
  F  F13  1  0.270027  0.192638  0.397535  1
