# generated using pymatgen
data_Tb2Lu3(OsO6)2
_symmetry_space_group_name_H-M   'P 1'
_cell_length_a   6.79508430
_cell_length_b   6.79508564
_cell_length_c   7.39541157
_cell_angle_alpha   74.21366683
_cell_angle_beta   74.21366241
_cell_angle_gamma   48.98902731
_symmetry_Int_Tables_number   1
_chemical_formula_structural   Tb2Lu3(OsO6)2
_chemical_formula_sum   'Tb2 Lu3 Os2 O12'
_cell_volume   245.88354148
_cell_formula_units_Z   1
loop_
 _symmetry_equiv_pos_site_id
 _symmetry_equiv_pos_as_xyz
  1  'x, y, z'
loop_
 _atom_site_type_symbol
 _atom_site_label
 _atom_site_symmetry_multiplicity
 _atom_site_fract_x
 _atom_site_fract_y
 _atom_site_fract_z
 _atom_site_occupancy
  Tb  Tb0  1  0.698932  0.698932  0.642835  1
  Tb  Tb1  1  0.301068  0.301068  0.357165  1
  Lu  Lu2  1  0.687720  0.687720  0.171694  1
  Lu  Lu3  1  0.312280  0.312280  0.828306  1
  Lu  Lu4  1  0.000000  0.000000  0.500000  1
  Os  Os5  1  0.781260  0.218740  0.000000  1
  Os  Os6  1  0.218740  0.781260  0.000000  1
  O  O7  1  0.000712  0.000712  0.206607  1
  O  O8  1  0.999288  0.999288  0.793393  1
  O  O9  1  0.580286  0.082998  0.084339  1
  O  O10  1  0.419714  0.917002  0.915661  1
  O  O11  1  0.917002  0.419714  0.915661  1
  O  O12  1  0.082998  0.580286  0.084339  1
  O  O13  1  0.501504  0.501504  0.175808  1
  O  O14  1  0.498496  0.498496  0.824192  1
  O  O15  1  0.401420  0.897717  0.424040  1
  O  O16  1  0.598580  0.102283  0.575960  1
  O  O17  1  0.102283  0.598580  0.575960  1
  O  O18  1  0.897717  0.401420  0.424040  1
