# generated using pymatgen
data_SbOsCl10
_symmetry_space_group_name_H-M   'P 1'
_cell_length_a   13.66575688
_cell_length_b   13.66575658
_cell_length_c   6.48009147
_cell_angle_alpha   88.91137591
_cell_angle_beta   88.91137670
_cell_angle_gamma   86.77958554
_symmetry_Int_Tables_number   1
_chemical_formula_structural   SbOsCl10
_chemical_formula_sum   'Sb3 Os3 Cl30'
_cell_volume   1207.85181632
_cell_formula_units_Z   3
loop_
 _symmetry_equiv_pos_site_id
 _symmetry_equiv_pos_as_xyz
  1  'x, y, z'
loop_
 _atom_site_type_symbol
 _atom_site_label
 _atom_site_symmetry_multiplicity
 _atom_site_fract_x
 _atom_site_fract_y
 _atom_site_fract_z
 _atom_site_occupancy
  Sb  Sb0  1  0.772591  0.561354  0.524553  1
  Sb  Sb1  1  0.438646  0.227409  0.475447  1
  Sb  Sb2  1  0.105491  0.894509  0.000000  1
  Os  Os3  1  0.231745  0.434386  0.475339  1
  Os  Os4  1  0.565614  0.768255  0.524661  1
  Os  Os5  1  0.898588  0.101412  0.000000  1
  Cl  Cl6  1  0.666321  0.475102  0.744841  1
  Cl  Cl7  1  0.524898  0.333679  0.255159  1
  Cl  Cl8  1  0.329731  0.523423  0.261595  1
  Cl  Cl9  1  0.476577  0.670269  0.738405  1
  Cl  Cl10  1  0.798214  0.429001  0.302326  1
  Cl  Cl11  1  0.570999  0.201786  0.697674  1
  Cl  Cl12  1  0.947046  0.955978  0.207399  1
  Cl  Cl13  1  0.044022  0.052954  0.792601  1
  Cl  Cl14  1  0.768812  0.130696  0.214575  1
  Cl  Cl15  1  0.869304  0.231188  0.785425  1
  Cl  Cl16  1  0.238384  0.869714  0.770064  1
  Cl  Cl17  1  0.130286  0.761616  0.229936  1
  Cl  Cl18  1  0.810085  0.003917  0.799237  1
  Cl  Cl19  1  0.996083  0.189915  0.200763  1
  Cl  Cl20  1  0.191434  0.000395  0.206354  1
  Cl  Cl21  1  0.999605  0.808566  0.793646  1
  Cl  Cl22  1  0.710604  0.719274  0.725267  1
  Cl  Cl23  1  0.280726  0.289396  0.274733  1
  Cl  Cl24  1  0.536138  0.897407  0.732510  1
  Cl  Cl25  1  0.102593  0.463862  0.267490  1
  Cl  Cl26  1  0.463528  0.095211  0.252584  1
  Cl  Cl27  1  0.904789  0.536472  0.747416  1
  Cl  Cl28  1  0.663660  0.857084  0.310694  1
  Cl  Cl29  1  0.142916  0.336340  0.689306  1
  Cl  Cl30  1  0.332132  0.141090  0.695207  1
  Cl  Cl31  1  0.858910  0.667868  0.304793  1
  Cl  Cl32  1  0.614598  0.623193  0.324125  1
  Cl  Cl33  1  0.376807  0.385402  0.675875  1
  Cl  Cl34  1  0.436353  0.798232  0.317113  1
  Cl  Cl35  1  0.201768  0.563647  0.682887  1
