# generated using pymatgen
data_Tm5OsPb2
_symmetry_space_group_name_H-M   'P 1'
_cell_length_a   7.86170900
_cell_length_b   8.97324100
_cell_length_c   12.34901700
_cell_angle_alpha   90.00000000
_cell_angle_beta   90.00000000
_cell_angle_gamma   90.00000000
_symmetry_Int_Tables_number   1
_chemical_formula_structural   Tm5OsPb2
_chemical_formula_sum   'Tm20 Os4 Pb8'
_cell_volume   871.16152194
_cell_formula_units_Z   4
loop_
 _symmetry_equiv_pos_site_id
 _symmetry_equiv_pos_as_xyz
  1  'x, y, z'
loop_
 _atom_site_type_symbol
 _atom_site_label
 _atom_site_symmetry_multiplicity
 _atom_site_fract_x
 _atom_site_fract_y
 _atom_site_fract_z
 _atom_site_occupancy
  Tm  Tm0  1  0.844949  0.750000  0.787078  1
  Tm  Tm1  1  0.155051  0.250000  0.212922  1
  Tm  Tm2  1  0.344949  0.250000  0.712922  1
  Tm  Tm3  1  0.655051  0.750000  0.287078  1
  Tm  Tm4  1  0.382952  0.750000  0.691139  1
  Tm  Tm5  1  0.617048  0.250000  0.308861  1
  Tm  Tm6  1  0.882952  0.250000  0.808861  1
  Tm  Tm7  1  0.117048  0.750000  0.191139  1
  Tm  Tm8  1  0.949288  0.750000  0.503955  1
  Tm  Tm9  1  0.050712  0.250000  0.496045  1
  Tm  Tm10  1  0.449288  0.250000  0.996045  1
  Tm  Tm11  1  0.550712  0.750000  0.003955  1
  Tm  Tm12  1  0.672893  0.037580  0.570011  1
  Tm  Tm13  1  0.327107  0.962420  0.429989  1
  Tm  Tm14  1  0.172893  0.962420  0.929989  1
  Tm  Tm15  1  0.327107  0.537580  0.429989  1
  Tm  Tm16  1  0.827107  0.037580  0.070011  1
  Tm  Tm17  1  0.672893  0.462420  0.570011  1
  Tm  Tm18  1  0.827107  0.462420  0.070011  1
  Tm  Tm19  1  0.172893  0.537580  0.929989  1
  Os  Os20  1  0.575292  0.750000  0.505313  1
  Os  Os21  1  0.424708  0.250000  0.494687  1
  Os  Os22  1  0.075292  0.250000  0.994687  1
  Os  Os23  1  0.924708  0.750000  0.005313  1
  Pb  Pb24  1  0.573219  0.494451  0.830617  1
  Pb  Pb25  1  0.426781  0.505549  0.169383  1
  Pb  Pb26  1  0.073219  0.505549  0.669383  1
  Pb  Pb27  1  0.426781  0.994451  0.169383  1
  Pb  Pb28  1  0.926781  0.494451  0.330617  1
  Pb  Pb29  1  0.573219  0.005549  0.830617  1
  Pb  Pb30  1  0.926781  0.005549  0.330617  1
  Pb  Pb31  1  0.073219  0.994451  0.669383  1
