# generated using pymatgen
data_Ca3YBi3
_symmetry_space_group_name_H-M   'P 1'
_cell_length_a   8.19743282
_cell_length_b   8.40087679
_cell_length_c   8.40087800
_cell_angle_alpha   109.95657980
_cell_angle_beta   108.98138244
_cell_angle_gamma   108.98139251
_symmetry_Int_Tables_number   1
_chemical_formula_structural   Ca3YBi3
_chemical_formula_sum   'Ca6 Y2 Bi6'
_cell_volume   448.01755495
_cell_formula_units_Z   2
loop_
 _symmetry_equiv_pos_site_id
 _symmetry_equiv_pos_as_xyz
  1  'x, y, z'
loop_
 _atom_site_type_symbol
 _atom_site_label
 _atom_site_symmetry_multiplicity
 _atom_site_fract_x
 _atom_site_fract_y
 _atom_site_fract_z
 _atom_site_occupancy
  Ca  Ca0  1  0.501004  0.999590  0.646547  1
  Ca  Ca1  1  0.354457  0.353043  0.353453  1
  Ca  Ca2  1  0.501415  0.000410  0.146957  1
  Ca  Ca3  1  0.001415  0.646957  0.500410  1
  Ca  Ca4  1  0.854457  0.853453  0.853043  1
  Ca  Ca5  1  0.001004  0.146547  0.499590  1
  Y  Y6  1  0.141779  0.500000  0.000000  1
  Y  Y7  1  0.641779  0.500000  0.000000  1
  Bi  Bi8  1  0.376769  0.622597  0.756367  1
  Bi  Bi9  1  0.876769  0.256367  0.122597  1
  Bi  Bi10  1  0.620402  0.743633  0.366229  1
  Bi  Bi11  1  0.120402  0.866229  0.243633  1
  Bi  Bi12  1  0.254173  0.133771  0.877403  1
  Bi  Bi13  1  0.754173  0.377403  0.633771  1
