# generated using pymatgen
data_Rb3V2BiS8
_symmetry_space_group_name_H-M   'P 1'
_cell_length_a   24.76234800
_cell_length_b   7.03635700
_cell_length_c   9.37926900
_cell_angle_alpha   90.00000000
_cell_angle_beta   90.00000000
_cell_angle_gamma   90.00000000
_symmetry_Int_Tables_number   1
_chemical_formula_structural   Rb3V2BiS8
_chemical_formula_sum   'Rb12 V8 Bi4 S32'
_cell_volume   1634.21307299
_cell_formula_units_Z   4
loop_
 _symmetry_equiv_pos_site_id
 _symmetry_equiv_pos_as_xyz
  1  'x, y, z'
loop_
 _atom_site_type_symbol
 _atom_site_label
 _atom_site_symmetry_multiplicity
 _atom_site_fract_x
 _atom_site_fract_y
 _atom_site_fract_z
 _atom_site_occupancy
  Rb  Rb0  1  0.184433  0.987596  0.026869  1
  Rb  Rb1  1  0.784159  0.000801  0.096057  1
  Rb  Rb2  1  0.573328  0.006040  0.253887  1
  Rb  Rb3  1  0.426672  0.506040  0.246114  1
  Rb  Rb4  1  0.215840  0.500801  0.403944  1
  Rb  Rb5  1  0.815566  0.487596  0.473132  1
  Rb  Rb6  1  0.315567  0.012404  0.526869  1
  Rb  Rb7  1  0.715841  0.999199  0.596056  1
  Rb  Rb8  1  0.926672  0.993961  0.753887  1
  Rb  Rb9  1  0.073328  0.493960  0.746113  1
  Rb  Rb10  1  0.284159  0.499199  0.903944  1
  Rb  Rb11  1  0.684433  0.512404  0.973131  1
  V  V12  1  0.345408  0.010091  0.112815  1
  V  V13  1  0.088173  0.464382  0.153128  1
  V  V14  1  0.911827  0.964382  0.346873  1
  V  V15  1  0.654591  0.510091  0.387184  1
  V  V16  1  0.154592  0.989907  0.612816  1
  V  V17  1  0.411827  0.535619  0.653128  1
  V  V18  1  0.588173  0.035619  0.846872  1
  V  V19  1  0.845408  0.489907  0.887184  1
  Bi  Bi20  1  0.945037  0.576268  0.131423  1
  Bi  Bi21  1  0.054963  0.076268  0.368576  1
  Bi  Bi22  1  0.554963  0.423732  0.631423  1
  Bi  Bi23  1  0.445037  0.923732  0.868576  1
  S  S24  1  0.044930  0.226999  0.068721  1
  S  S25  1  0.048969  0.724996  0.088030  1
  S  S26  1  0.168148  0.474143  0.076004  1
  S  S27  1  0.834412  0.476389  0.117891  1
  S  S28  1  0.916226  0.936327  0.111515  1
  S  S29  1  0.434414  0.996374  0.149425  1
  S  S30  1  0.306713  0.767672  0.199659  1
  S  S31  1  0.311775  0.253633  0.210509  1
  S  S32  1  0.688226  0.753633  0.289490  1
  S  S33  1  0.693287  0.267672  0.300341  1
  S  S34  1  0.565587  0.496373  0.350575  1
  S  S35  1  0.083774  0.436327  0.388485  1
  S  S36  1  0.165588  0.976389  0.382109  1
  S  S37  1  0.831852  0.974143  0.423996  1
  S  S38  1  0.951031  0.224996  0.411971  1
  S  S39  1  0.955069  0.726999  0.431278  1
  S  S40  1  0.455070  0.773001  0.568721  1
  S  S41  1  0.451031  0.275004  0.588030  1
  S  S42  1  0.331852  0.525857  0.576004  1
  S  S43  1  0.665588  0.523610  0.617891  1
  S  S44  1  0.583774  0.063674  0.611515  1
  S  S45  1  0.065587  0.003627  0.649425  1
  S  S46  1  0.193287  0.232328  0.699659  1
  S  S47  1  0.188226  0.746367  0.710509  1
  S  S48  1  0.811774  0.246367  0.789491  1
  S  S49  1  0.806714  0.732328  0.800341  1
  S  S50  1  0.934413  0.503627  0.850575  1
  S  S51  1  0.416226  0.563674  0.888485  1
  S  S52  1  0.334412  0.023609  0.882108  1
  S  S53  1  0.668148  0.025857  0.923996  1
  S  S54  1  0.548969  0.775004  0.911970  1
  S  S55  1  0.544931  0.273001  0.931279  1
