# generated using pymatgen
data_Y16In6FeCu
_symmetry_space_group_name_H-M   'P 1'
_cell_length_a   10.47078500
_cell_length_b   10.47069593
_cell_length_c   6.99663700
_cell_angle_alpha   89.99976592
_cell_angle_beta   89.99984969
_cell_angle_gamma   119.99958051
_symmetry_Int_Tables_number   1
_chemical_formula_structural   Y16In6FeCu
_chemical_formula_sum   'Y16 In6 Fe1 Cu1'
_cell_volume   664.31888688
_cell_formula_units_Z   1
loop_
 _symmetry_equiv_pos_site_id
 _symmetry_equiv_pos_as_xyz
  1  'x, y, z'
loop_
 _atom_site_type_symbol
 _atom_site_label
 _atom_site_symmetry_multiplicity
 _atom_site_fract_x
 _atom_site_fract_y
 _atom_site_fract_z
 _atom_site_occupancy
  Y  Y0  1  0.528590  0.057181  0.526799  1
  Y  Y1  1  0.942818  0.471409  0.526799  1
  Y  Y2  1  0.528590  0.471409  0.526798  1
  Y  Y3  1  0.464759  0.929523  0.022999  1
  Y  Y4  1  0.070476  0.535238  0.022999  1
  Y  Y5  1  0.464760  0.535237  0.022999  1
  Y  Y6  1  0.177861  0.355721  0.732839  1
  Y  Y7  1  0.644279  0.822139  0.732841  1
  Y  Y8  1  0.177861  0.822140  0.732838  1
  Y  Y9  1  0.824605  0.649212  0.230057  1
  Y  Y10  1  0.350788  0.175394  0.230057  1
  Y  Y11  1  0.824605  0.175392  0.230057  1
  Y  Y12  1  0.666665  0.333332  0.897835  1
  Y  Y13  1  0.333331  0.666665  0.410611  1
  Y  Y14  1  0.999998  0.999998  0.506319  1
  Y  Y15  1  0.000000  0.000001  0.008902  1
  In  In16  1  0.836274  0.672531  0.764144  1
  In  In17  1  0.327469  0.163742  0.764144  1
  In  In18  1  0.836274  0.163742  0.764144  1
  In  In19  1  0.162705  0.325412  0.267733  1
  In  In20  1  0.674584  0.837292  0.267737  1
  In  In21  1  0.162705  0.837293  0.267733  1
  Fe  Fe22  1  0.333333  0.666667  0.798590  1
  Cu  Cu23  1  0.666667  0.333332  0.299707  1
