# generated using pymatgen
data_Pm2Al3Rh
_symmetry_space_group_name_H-M   'P 1'
_cell_length_a   5.50962165
_cell_length_b   5.60766880
_cell_length_c   5.60801374
_cell_angle_alpha   60.00294054
_cell_angle_beta   59.41034134
_cell_angle_gamma   59.40920288
_symmetry_Int_Tables_number   1
_chemical_formula_structural   Pm2Al3Rh
_chemical_formula_sum   'Pm2 Al3 Rh1'
_cell_volume   121.41575480
_cell_formula_units_Z   1
loop_
 _symmetry_equiv_pos_site_id
 _symmetry_equiv_pos_as_xyz
  1  'x, y, z'
loop_
 _atom_site_type_symbol
 _atom_site_label
 _atom_site_symmetry_multiplicity
 _atom_site_fract_x
 _atom_site_fract_y
 _atom_site_fract_z
 _atom_site_occupancy
  Pm  Pm0  1  0.752350  0.749217  0.749211  1
  Pm  Pm1  1  0.997650  0.000783  0.000789  1
  Al  Al2  1  0.375000  0.875000  0.375000  1
  Al  Al3  1  0.375000  0.375000  0.875000  1
  Al  Al4  1  0.375000  0.375000  0.375000  1
  Rh  Rh5  1  0.875000  0.375000  0.375000  1
