# generated using pymatgen
data_Ba8CeUSe12
_symmetry_space_group_name_H-M   'P 1'
_cell_length_a   9.18057180
_cell_length_b   9.18057098
_cell_length_c   9.18057250
_cell_angle_alpha   89.94206975
_cell_angle_beta   89.94207450
_cell_angle_gamma   89.94207954
_symmetry_Int_Tables_number   1
_chemical_formula_structural   Ba8CeUSe12
_chemical_formula_sum   'Ba8 Ce1 U1 Se12'
_cell_volume   773.76400591
_cell_formula_units_Z   1
loop_
 _symmetry_equiv_pos_site_id
 _symmetry_equiv_pos_as_xyz
  1  'x, y, z'
loop_
 _atom_site_type_symbol
 _atom_site_label
 _atom_site_symmetry_multiplicity
 _atom_site_fract_x
 _atom_site_fract_y
 _atom_site_fract_z
 _atom_site_occupancy
  Ba  Ba0  1  0.873728  0.621920  0.254064  1
  Ba  Ba1  1  0.254064  0.873728  0.621920  1
  Ba  Ba2  1  0.621920  0.254064  0.873728  1
  Ba  Ba3  1  0.745936  0.126272  0.378080  1
  Ba  Ba4  1  0.378080  0.745936  0.126272  1
  Ba  Ba5  1  0.126272  0.378080  0.745936  1
  Ba  Ba6  1  0.252616  0.252616  0.252616  1
  Ba  Ba7  1  0.747384  0.747384  0.747384  1
  Ce  Ce8  1  0.500000  0.500000  0.500000  1
  U  U9  1  0.000000  0.000000  0.000000  1
  Se  Se10  1  0.198647  0.563863  0.418521  1
  Se  Se11  1  0.418521  0.198647  0.563863  1
  Se  Se12  1  0.563863  0.418521  0.198647  1
  Se  Se13  1  0.928114  0.056659  0.707004  1
  Se  Se14  1  0.707004  0.928114  0.056659  1
  Se  Se15  1  0.056659  0.707004  0.928114  1
  Se  Se16  1  0.801353  0.436137  0.581479  1
  Se  Se17  1  0.581479  0.801353  0.436137  1
  Se  Se18  1  0.436137  0.581479  0.801353  1
  Se  Se19  1  0.071886  0.943341  0.292996  1
  Se  Se20  1  0.292996  0.071886  0.943341  1
  Se  Se21  1  0.943341  0.292996  0.071886  1
