# generated using pymatgen
data_Dy4Ga20OsRu5
_symmetry_space_group_name_H-M   'P 1'
_cell_length_a   8.92520000
_cell_length_b   8.92520000
_cell_length_c   6.45080900
_cell_angle_alpha   90.00000000
_cell_angle_beta   90.00000000
_cell_angle_gamma   90.00000000
_symmetry_Int_Tables_number   1
_chemical_formula_structural   Dy4Ga20OsRu5
_chemical_formula_sum   'Dy4 Ga20 Os1 Ru5'
_cell_volume   513.86625230
_cell_formula_units_Z   1
loop_
 _symmetry_equiv_pos_site_id
 _symmetry_equiv_pos_as_xyz
  1  'x, y, z'
loop_
 _atom_site_type_symbol
 _atom_site_label
 _atom_site_symmetry_multiplicity
 _atom_site_fract_x
 _atom_site_fract_y
 _atom_site_fract_z
 _atom_site_occupancy
  Dy  Dy0  1  0.182592  0.683508  0.000000  1
  Dy  Dy1  1  0.817408  0.316492  0.000000  1
  Dy  Dy2  1  0.683508  0.817408  0.000000  1
  Dy  Dy3  1  0.316492  0.182592  0.000000  1
  Ga  Ga4  1  0.060956  0.206468  0.705558  1
  Ga  Ga5  1  0.939044  0.793532  0.705558  1
  Ga  Ga6  1  0.560882  0.293686  0.706125  1
  Ga  Ga7  1  0.439118  0.706314  0.706125  1
  Ga  Ga8  1  0.793532  0.060956  0.705558  1
  Ga  Ga9  1  0.206468  0.939044  0.705558  1
  Ga  Ga10  1  0.706314  0.560882  0.706125  1
  Ga  Ga11  1  0.293686  0.439118  0.706125  1
  Ga  Ga12  1  0.939044  0.793532  0.294442  1
  Ga  Ga13  1  0.060956  0.206468  0.294442  1
  Ga  Ga14  1  0.439118  0.706314  0.293875  1
  Ga  Ga15  1  0.560882  0.293686  0.293875  1
  Ga  Ga16  1  0.206468  0.939044  0.294442  1
  Ga  Ga17  1  0.793532  0.060956  0.294442  1
  Ga  Ga18  1  0.293686  0.439118  0.293875  1
  Ga  Ga19  1  0.706314  0.560882  0.293875  1
  Ga  Ga20  1  0.000000  0.500000  0.710921  1
  Ga  Ga21  1  0.500000  0.000000  0.710921  1
  Ga  Ga22  1  0.000000  0.500000  0.289079  1
  Ga  Ga23  1  0.500000  0.000000  0.289079  1
  Os  Os24  1  0.000000  0.000000  0.000000  1
  Ru  Ru25  1  0.178334  0.678565  0.500000  1
  Ru  Ru26  1  0.821666  0.321435  0.500000  1
  Ru  Ru27  1  0.678565  0.821666  0.500000  1
  Ru  Ru28  1  0.321435  0.178334  0.500000  1
  Ru  Ru29  1  0.500000  0.500000  0.000000  1
