# generated using pymatgen
data_Rb(CoSe2)2
_symmetry_space_group_name_H-M   'P 1'
_cell_length_a   6.04230100
_cell_length_b   6.99515700
_cell_length_c   16.57252900
_cell_angle_alpha   90.00000000
_cell_angle_beta   90.00000000
_cell_angle_gamma   90.00000000
_symmetry_Int_Tables_number   1
_chemical_formula_structural   Rb(CoSe2)2
_chemical_formula_sum   'Rb4 Co8 Se16'
_cell_volume   700.46850019
_cell_formula_units_Z   4
loop_
 _symmetry_equiv_pos_site_id
 _symmetry_equiv_pos_as_xyz
  1  'x, y, z'
loop_
 _atom_site_type_symbol
 _atom_site_label
 _atom_site_symmetry_multiplicity
 _atom_site_fract_x
 _atom_site_fract_y
 _atom_site_fract_z
 _atom_site_occupancy
  Rb  Rb0  1  0.368393  0.000000  0.000000  1
  Rb  Rb1  1  0.631607  0.500000  0.500000  1
  Rb  Rb2  1  0.035335  0.000000  0.500000  1
  Rb  Rb3  1  0.964665  0.500000  0.000000  1
  Co  Co4  1  0.004542  0.000000  0.252155  1
  Co  Co5  1  0.004542  0.000000  0.747845  1
  Co  Co6  1  0.995458  0.500000  0.247845  1
  Co  Co7  1  0.995458  0.500000  0.752155  1
  Co  Co8  1  0.500000  0.250000  0.250000  1
  Co  Co9  1  0.500000  0.750000  0.750000  1
  Co  Co10  1  0.500000  0.750000  0.250000  1
  Co  Co11  1  0.500000  0.250000  0.750000  1
  Se  Se12  1  0.834336  0.252055  0.327497  1
  Se  Se13  1  0.834336  0.747945  0.672503  1
  Se  Se14  1  0.165664  0.752055  0.172503  1
  Se  Se15  1  0.165664  0.247945  0.827497  1
  Se  Se16  1  0.165664  0.247945  0.172503  1
  Se  Se17  1  0.165664  0.752055  0.827497  1
  Se  Se18  1  0.834336  0.747945  0.327497  1
  Se  Se19  1  0.834336  0.252055  0.672503  1
  Se  Se20  1  0.672656  0.000000  0.173479  1
  Se  Se21  1  0.672656  0.000000  0.826521  1
  Se  Se22  1  0.327344  0.500000  0.326521  1
  Se  Se23  1  0.327344  0.500000  0.673479  1
  Se  Se24  1  0.341461  0.000000  0.328628  1
  Se  Se25  1  0.341461  0.000000  0.671372  1
  Se  Se26  1  0.658539  0.500000  0.171372  1
  Se  Se27  1  0.658539  0.500000  0.828628  1
