# generated using pymatgen
data_Ta4Si4OsRuRh2
_symmetry_space_group_name_H-M   'P 1'
_cell_length_a   3.82349900
_cell_length_b   6.38033977
_cell_length_c   7.33389794
_cell_angle_alpha   90.59214063
_cell_angle_beta   90.00000000
_cell_angle_gamma   90.00000000
_symmetry_Int_Tables_number   1
_chemical_formula_structural   Ta4Si4OsRuRh2
_chemical_formula_sum   'Ta4 Si4 Os1 Ru1 Rh2'
_cell_volume   178.90251911
_cell_formula_units_Z   1
loop_
 _symmetry_equiv_pos_site_id
 _symmetry_equiv_pos_as_xyz
  1  'x, y, z'
loop_
 _atom_site_type_symbol
 _atom_site_label
 _atom_site_symmetry_multiplicity
 _atom_site_fract_x
 _atom_site_fract_y
 _atom_site_fract_z
 _atom_site_occupancy
  Ta  Ta0  1  0.250000  0.527644  0.671067  1
  Ta  Ta1  1  0.750000  0.474050  0.328102  1
  Ta  Ta2  1  0.250000  0.020737  0.820579  1
  Ta  Ta3  1  0.750000  0.978776  0.179291  1
  Si  Si4  1  0.250000  0.269014  0.123804  1
  Si  Si5  1  0.750000  0.729300  0.878100  1
  Si  Si6  1  0.250000  0.772247  0.373535  1
  Si  Si7  1  0.750000  0.229061  0.624773  1
  Os  Os8  1  0.750000  0.848257  0.562295  1
  Ru  Ru9  1  0.250000  0.151323  0.438604  1
  Rh  Rh10  1  0.750000  0.351855  0.936452  1
  Rh  Rh11  1  0.250000  0.647736  0.063397  1
