# generated using pymatgen
data_ErTm(ThSi)4
_symmetry_space_group_name_H-M   'P 1'
_cell_length_a   7.61710600
_cell_length_b   7.61710600
_cell_length_c   4.27461700
_cell_angle_alpha   90.00000000
_cell_angle_beta   90.00000000
_cell_angle_gamma   90.00000000
_symmetry_Int_Tables_number   1
_chemical_formula_structural   ErTm(ThSi)4
_chemical_formula_sum   'Er1 Tm1 Th4 Si4'
_cell_volume   248.01457703
_cell_formula_units_Z   1
loop_
 _symmetry_equiv_pos_site_id
 _symmetry_equiv_pos_as_xyz
  1  'x, y, z'
loop_
 _atom_site_type_symbol
 _atom_site_label
 _atom_site_symmetry_multiplicity
 _atom_site_fract_x
 _atom_site_fract_y
 _atom_site_fract_z
 _atom_site_occupancy
  Er  Er0  1  0.000000  0.000000  0.000000  1
  Tm  Tm1  1  0.500000  0.500000  0.000000  1
  Th  Th2  1  0.678258  0.178319  0.500000  1
  Th  Th3  1  0.321742  0.821681  0.500000  1
  Th  Th4  1  0.178319  0.321742  0.500000  1
  Th  Th5  1  0.821681  0.678258  0.500000  1
  Si  Si6  1  0.118204  0.618158  0.000000  1
  Si  Si7  1  0.881796  0.381842  0.000000  1
  Si  Si8  1  0.618158  0.881796  0.000000  1
  Si  Si9  1  0.381842  0.118204  0.000000  1
