# generated using pymatgen
data_Ce(Al5Tc)2
_symmetry_space_group_name_H-M   'P 1'
_cell_length_a   6.92020813
_cell_length_b   6.92020681
_cell_length_c   9.20852100
_cell_angle_alpha   90.00000000
_cell_angle_beta   90.00000000
_cell_angle_gamma   97.11388874
_symmetry_Int_Tables_number   1
_chemical_formula_structural   Ce(Al5Tc)2
_chemical_formula_sum   'Ce2 Al20 Tc4'
_cell_volume   437.59460282
_cell_formula_units_Z   2
loop_
 _symmetry_equiv_pos_site_id
 _symmetry_equiv_pos_as_xyz
  1  'x, y, z'
loop_
 _atom_site_type_symbol
 _atom_site_label
 _atom_site_symmetry_multiplicity
 _atom_site_fract_x
 _atom_site_fract_y
 _atom_site_fract_z
 _atom_site_occupancy
  Ce  Ce0  1  0.875057  0.124943  0.750000  1
  Ce  Ce1  1  0.124943  0.875057  0.250000  1
  Al  Al2  1  0.592840  0.863649  0.250000  1
  Al  Al3  1  0.781917  0.523955  0.250000  1
  Al  Al4  1  0.158269  0.841731  0.900366  1
  Al  Al5  1  0.407160  0.136351  0.750000  1
  Al  Al6  1  0.622817  0.377183  0.954067  1
  Al  Al7  1  0.841731  0.158269  0.400366  1
  Al  Al8  1  0.772712  0.772712  0.000000  1
  Al  Al9  1  0.863649  0.592840  0.750000  1
  Al  Al10  1  0.841731  0.158269  0.099634  1
  Al  Al11  1  0.218083  0.476045  0.750000  1
  Al  Al12  1  0.158269  0.841731  0.599634  1
  Al  Al13  1  0.772712  0.772712  0.500000  1
  Al  Al14  1  0.476045  0.218083  0.250000  1
  Al  Al15  1  0.622817  0.377183  0.545933  1
  Al  Al16  1  0.227288  0.227288  0.500000  1
  Al  Al17  1  0.377183  0.622817  0.454067  1
  Al  Al18  1  0.136351  0.407160  0.250000  1
  Al  Al19  1  0.523955  0.781917  0.750000  1
  Al  Al20  1  0.377183  0.622817  0.045933  1
  Al  Al21  1  0.227288  0.227288  0.000000  1
  Tc  Tc22  1  0.500000  0.000000  0.000000  1
  Tc  Tc23  1  0.500000  0.000000  0.500000  1
  Tc  Tc24  1  0.000000  0.500000  0.000000  1
  Tc  Tc25  1  0.000000  0.500000  0.500000  1
