# generated using pymatgen
data_Tb3Ho9Ga2(NiOs)2
_symmetry_space_group_name_H-M   'P 1'
_cell_length_a   8.33948631
_cell_length_b   8.33858477
_cell_length_c   8.33858471
_cell_angle_alpha   113.15129770
_cell_angle_beta   110.13242210
_cell_angle_gamma   105.22336892
_symmetry_Int_Tables_number   1
_chemical_formula_structural   Tb3Ho9Ga2(NiOs)2
_chemical_formula_sum   'Tb3 Ho9 Ga2 Ni2 Os2'
_cell_volume   444.24365209
_cell_formula_units_Z   1
loop_
 _symmetry_equiv_pos_site_id
 _symmetry_equiv_pos_as_xyz
  1  'x, y, z'
loop_
 _atom_site_type_symbol
 _atom_site_label
 _atom_site_symmetry_multiplicity
 _atom_site_fract_x
 _atom_site_fract_y
 _atom_site_fract_z
 _atom_site_occupancy
  Tb  Tb0  1  0.435439  0.242532  0.192906  1
  Tb  Tb1  1  0.564551  0.757213  0.807338  1
  Tb  Tb2  1  0.049978  0.242749  0.807229  1
  Ho  Ho3  1  0.951256  0.757915  0.193340  1
  Ho  Ho4  1  0.179019  0.277392  0.456976  1
  Ho  Ho5  1  0.820740  0.721898  0.541914  1
  Ho  Ho6  1  0.179019  0.722042  0.901627  1
  Ho  Ho7  1  0.820740  0.278827  0.098843  1
  Ho  Ho8  1  0.330662  0.644403  0.312910  1
  Ho  Ho9  1  0.669223  0.356125  0.687535  1
  Ho  Ho10  1  0.330662  0.017752  0.686258  1
  Ho  Ho11  1  0.669223  0.981689  0.313099  1
  Ga  Ga12  1  0.501088  0.500490  0.000598  1
  Ga  Ga13  1  0.999477  0.999221  0.000256  1
  Ni  Ni14  1  0.116101  0.616654  0.499447  1
  Ni  Ni15  1  0.883387  0.383401  0.499987  1
  Os  Os16  1  0.329046  0.999751  0.329295  1
  Os  Os17  1  0.670387  0.999945  0.670442  1
