# generated using pymatgen
data_Na4Zn7Ag
_symmetry_space_group_name_H-M   'P 1'
_cell_length_a   5.45764500
_cell_length_b   5.45764456
_cell_length_c   8.98790100
_cell_angle_alpha   90.00000000
_cell_angle_beta   90.00000000
_cell_angle_gamma   119.99999658
_symmetry_Int_Tables_number   1
_chemical_formula_structural   Na4Zn7Ag
_chemical_formula_sum   'Na4 Zn7 Ag1'
_cell_volume   231.84592020
_cell_formula_units_Z   1
loop_
 _symmetry_equiv_pos_site_id
 _symmetry_equiv_pos_as_xyz
  1  'x, y, z'
loop_
 _atom_site_type_symbol
 _atom_site_label
 _atom_site_symmetry_multiplicity
 _atom_site_fract_x
 _atom_site_fract_y
 _atom_site_fract_z
 _atom_site_occupancy
  Na  Na0  1  0.333333  0.666667  0.062105  1
  Na  Na1  1  0.666667  0.333333  0.562366  1
  Na  Na2  1  0.666667  0.333333  0.937895  1
  Na  Na3  1  0.333333  0.666667  0.437634  1
  Zn  Zn4  1  0.000000  0.000000  0.000000  1
  Zn  Zn5  1  0.830802  0.661604  0.247107  1
  Zn  Zn6  1  0.169198  0.830802  0.752893  1
  Zn  Zn7  1  0.661604  0.830802  0.752893  1
  Zn  Zn8  1  0.338396  0.169198  0.247107  1
  Zn  Zn9  1  0.830802  0.169198  0.247107  1
  Zn  Zn10  1  0.169198  0.338396  0.752893  1
  Ag  Ag11  1  0.000000  0.000000  0.500000  1
