# generated using pymatgen
data_Mn3Cu2RhSe8
_symmetry_space_group_name_H-M   'P 1'
_cell_length_a   7.39774130
_cell_length_b   7.40660913
_cell_length_c   7.39347167
_cell_angle_alpha   59.38271113
_cell_angle_beta   59.17862552
_cell_angle_gamma   59.36950572
_symmetry_Int_Tables_number   1
_chemical_formula_structural   Mn3Cu2RhSe8
_chemical_formula_sum   'Mn3 Cu2 Rh1 Se8'
_cell_volume   281.95135235
_cell_formula_units_Z   1
loop_
 _symmetry_equiv_pos_site_id
 _symmetry_equiv_pos_as_xyz
  1  'x, y, z'
loop_
 _atom_site_type_symbol
 _atom_site_label
 _atom_site_symmetry_multiplicity
 _atom_site_fract_x
 _atom_site_fract_y
 _atom_site_fract_z
 _atom_site_occupancy
  Mn  Mn0  1  0.125000  0.125000  0.625000  1
  Mn  Mn1  1  0.125000  0.625000  0.125000  1
  Mn  Mn2  1  0.625000  0.125000  0.125000  1
  Cu  Cu3  1  0.499116  0.499818  0.498899  1
  Cu  Cu4  1  0.750884  0.750182  0.751101  1
  Rh  Rh5  1  0.125000  0.125000  0.125000  1
  Se  Se6  1  0.349007  0.883408  0.883413  1
  Se  Se7  1  0.367329  0.367350  0.367383  1
  Se  Se8  1  0.900993  0.366592  0.366587  1
  Se  Se9  1  0.883420  0.883382  0.349138  1
  Se  Se10  1  0.882671  0.882650  0.882617  1
  Se  Se11  1  0.366472  0.901277  0.366537  1
  Se  Se12  1  0.366580  0.366618  0.900862  1
  Se  Se13  1  0.883528  0.348723  0.883463  1
