# generated using pymatgen
data_Dy12In3Os2
_symmetry_space_group_name_H-M   'P 1'
_cell_length_a   8.52303933
_cell_length_b   8.52304358
_cell_length_c   8.52304407
_cell_angle_alpha   110.84386563
_cell_angle_beta   110.84368757
_cell_angle_gamma   106.75964636
_symmetry_Int_Tables_number   1
_chemical_formula_structural   Dy12In3Os2
_chemical_formula_sum   'Dy12 In3 Os2'
_cell_volume   475.81306983
_cell_formula_units_Z   1
loop_
 _symmetry_equiv_pos_site_id
 _symmetry_equiv_pos_as_xyz
  1  'x, y, z'
loop_
 _atom_site_type_symbol
 _atom_site_label
 _atom_site_symmetry_multiplicity
 _atom_site_fract_x
 _atom_site_fract_y
 _atom_site_fract_z
 _atom_site_occupancy
  Dy  Dy0  1  0.315544  0.315543  0.631084  1
  Dy  Dy1  1  0.684458  0.684459  0.368916  1
  Dy  Dy2  1  0.315542  0.684459  0.000000  1
  Dy  Dy3  1  0.684460  0.315543  0.000000  1
  Dy  Dy4  1  0.452761  0.201189  0.251572  1
  Dy  Dy5  1  0.547240  0.798810  0.748430  1
  Dy  Dy6  1  0.949616  0.201189  0.748428  1
  Dy  Dy7  1  0.201189  0.949617  0.748429  1
  Dy  Dy8  1  0.050381  0.798810  0.251570  1
  Dy  Dy9  1  0.798810  0.050380  0.251569  1
  Dy  Dy10  1  0.201190  0.452763  0.251573  1
  Dy  Dy11  1  0.798809  0.547238  0.748429  1
  In  In12  1  0.000000  0.000000  0.000000  1
  In  In13  1  0.500000  0.000000  0.500000  1
  In  In14  1  0.000000  0.500000  0.500000  1
  Os  Os15  1  0.347426  0.347426  0.999999  1
  Os  Os16  1  0.652574  0.652574  0.000001  1
