# generated using pymatgen
data_Nd2Ga3SiNi4
_symmetry_space_group_name_H-M   'P 1'
_cell_length_a   4.13659700
_cell_length_b   4.13659700
_cell_length_c   9.76018900
_cell_angle_alpha   90.00000000
_cell_angle_beta   90.00000000
_cell_angle_gamma   90.00000000
_symmetry_Int_Tables_number   1
_chemical_formula_structural   Nd2Ga3SiNi4
_chemical_formula_sum   'Nd2 Ga3 Si1 Ni4'
_cell_volume   167.01083713
_cell_formula_units_Z   1
loop_
 _symmetry_equiv_pos_site_id
 _symmetry_equiv_pos_as_xyz
  1  'x, y, z'
loop_
 _atom_site_type_symbol
 _atom_site_label
 _atom_site_symmetry_multiplicity
 _atom_site_fract_x
 _atom_site_fract_y
 _atom_site_fract_z
 _atom_site_occupancy
  Nd  Nd0  1  0.000000  0.500000  0.244498  1
  Nd  Nd1  1  0.500000  0.000000  0.751586  1
  Ga  Ga2  1  0.000000  0.000000  0.497310  1
  Ga  Ga3  1  0.500000  0.500000  0.497310  1
  Ga  Ga4  1  0.000000  0.500000  0.878482  1
  Si  Si5  1  0.500000  0.000000  0.121941  1
  Ni  Ni6  1  0.000000  0.000000  0.009111  1
  Ni  Ni7  1  0.500000  0.500000  0.009111  1
  Ni  Ni8  1  0.000000  0.500000  0.633128  1
  Ni  Ni9  1  0.500000  0.000000  0.357523  1
