# generated using pymatgen
data_K3Bi(PO4)2
_symmetry_space_group_name_H-M   'P 1'
_cell_length_a   5.58743904
_cell_length_b   5.58743801
_cell_length_c   8.02837661
_cell_angle_alpha   89.71995453
_cell_angle_beta   89.71995259
_cell_angle_gamma   62.06893594
_symmetry_Int_Tables_number   1
_chemical_formula_structural   K3Bi(PO4)2
_chemical_formula_sum   'K3 Bi1 P2 O8'
_cell_volume   221.44125941
_cell_formula_units_Z   1
loop_
 _symmetry_equiv_pos_site_id
 _symmetry_equiv_pos_as_xyz
  1  'x, y, z'
loop_
 _atom_site_type_symbol
 _atom_site_label
 _atom_site_symmetry_multiplicity
 _atom_site_fract_x
 _atom_site_fract_y
 _atom_site_fract_z
 _atom_site_occupancy
  K  K0  1  0.689365  0.689365  0.216012  1
  K  K1  1  0.000000  0.000000  0.000000  1
  K  K2  1  0.310636  0.310635  0.783988  1
  Bi  Bi3  1  0.000000  0.000000  0.500000  1
  P  P4  1  0.656903  0.656903  0.716776  1
  P  P5  1  0.343097  0.343097  0.283224  1
  O  O6  1  0.262123  0.262123  0.119182  1
  O  O7  1  0.242367  0.242367  0.436070  1
  O  O8  1  0.337954  0.781169  0.710288  1
  O  O9  1  0.781169  0.337954  0.710288  1
  O  O10  1  0.218831  0.662046  0.289712  1
  O  O11  1  0.662046  0.218831  0.289712  1
  O  O12  1  0.757633  0.757633  0.563930  1
  O  O13  1  0.737877  0.737877  0.880818  1
