# generated using pymatgen
data_LaPmAu4
_symmetry_space_group_name_H-M   'P 1'
_cell_length_a   4.78270300
_cell_length_b   4.78270299
_cell_length_c   7.26807900
_cell_angle_alpha   90.00000000
_cell_angle_beta   90.00000000
_cell_angle_gamma   120.00000696
_symmetry_Int_Tables_number   1
_chemical_formula_structural   LaPmAu4
_chemical_formula_sum   'La1 Pm1 Au4'
_cell_volume   143.97830779
_cell_formula_units_Z   1
loop_
 _symmetry_equiv_pos_site_id
 _symmetry_equiv_pos_as_xyz
  1  'x, y, z'
loop_
 _atom_site_type_symbol
 _atom_site_label
 _atom_site_symmetry_multiplicity
 _atom_site_fract_x
 _atom_site_fract_y
 _atom_site_fract_z
 _atom_site_occupancy
  La  La0  1  0.000000  0.000000  0.500000  1
  Pm  Pm1  1  0.000000  0.000000  0.000000  1
  Au  Au2  1  0.666665  0.333333  0.237079  1
  Au  Au3  1  0.333333  0.666665  0.237079  1
  Au  Au4  1  0.666665  0.333333  0.762922  1
  Au  Au5  1  0.333333  0.666665  0.762922  1
