# generated using pymatgen
data_Ti2SbRh5
_symmetry_space_group_name_H-M   'P 1'
_cell_length_a   4.03877300
_cell_length_b   5.54271900
_cell_length_c   10.87091900
_cell_angle_alpha   90.00000000
_cell_angle_beta   90.00000000
_cell_angle_gamma   90.00000000
_symmetry_Int_Tables_number   1
_chemical_formula_structural   Ti2SbRh5
_chemical_formula_sum   'Ti4 Sb2 Rh10'
_cell_volume   243.35404292
_cell_formula_units_Z   2
loop_
 _symmetry_equiv_pos_site_id
 _symmetry_equiv_pos_as_xyz
  1  'x, y, z'
loop_
 _atom_site_type_symbol
 _atom_site_label
 _atom_site_symmetry_multiplicity
 _atom_site_fract_x
 _atom_site_fract_y
 _atom_site_fract_z
 _atom_site_occupancy
  Ti  Ti0  1  0.500000  0.326571  0.145800  1
  Ti  Ti1  1  0.500000  0.673429  0.854200  1
  Ti  Ti2  1  0.500000  0.826571  0.354200  1
  Ti  Ti3  1  0.500000  0.173429  0.645800  1
  Sb  Sb4  1  0.000000  0.000000  0.000000  1
  Sb  Sb5  1  0.000000  0.500000  0.500000  1
  Rh  Rh6  1  0.000000  0.000000  0.500000  1
  Rh  Rh7  1  0.000000  0.500000  0.000000  1
  Rh  Rh8  1  0.000000  0.058221  0.247261  1
  Rh  Rh9  1  0.000000  0.941779  0.752739  1
  Rh  Rh10  1  0.000000  0.558221  0.252739  1
  Rh  Rh11  1  0.000000  0.441779  0.747261  1
  Rh  Rh12  1  0.500000  0.290488  0.383488  1
  Rh  Rh13  1  0.500000  0.709512  0.616512  1
  Rh  Rh14  1  0.500000  0.790488  0.116512  1
  Rh  Rh15  1  0.500000  0.209512  0.883488  1
