# generated using pymatgen
data_Ce4Al6PdAu
_symmetry_space_group_name_H-M   'P 1'
_cell_length_a   5.75632700
_cell_length_b   5.75632689
_cell_length_c   8.55327300
_cell_angle_alpha   90.00000000
_cell_angle_beta   90.00000000
_cell_angle_gamma   120.00000637
_symmetry_Int_Tables_number   1
_chemical_formula_structural   Ce4Al6PdAu
_chemical_formula_sum   'Ce4 Al6 Pd1 Au1'
_cell_volume   245.44480443
_cell_formula_units_Z   1
loop_
 _symmetry_equiv_pos_site_id
 _symmetry_equiv_pos_as_xyz
  1  'x, y, z'
loop_
 _atom_site_type_symbol
 _atom_site_label
 _atom_site_symmetry_multiplicity
 _atom_site_fract_x
 _atom_site_fract_y
 _atom_site_fract_z
 _atom_site_occupancy
  Ce  Ce0  1  0.333333  0.666667  0.912033  1
  Ce  Ce1  1  0.666667  0.333333  0.087967  1
  Ce  Ce2  1  0.666667  0.333333  0.410532  1
  Ce  Ce3  1  0.333333  0.666667  0.589468  1
  Al  Al4  1  0.833090  0.166910  0.745243  1
  Al  Al5  1  0.833090  0.666181  0.745243  1
  Al  Al6  1  0.333819  0.166910  0.745243  1
  Al  Al7  1  0.166910  0.833090  0.254757  1
  Al  Al8  1  0.166910  0.333819  0.254757  1
  Al  Al9  1  0.666181  0.833090  0.254757  1
  Pd  Pd10  1  0.000000  0.000000  0.500000  1
  Au  Au11  1  0.000000  0.000000  0.000000  1
