# generated using pymatgen
data_YHo2Pa(CdPd2)2
_symmetry_space_group_name_H-M   'P 1'
_cell_length_a   7.75850092
_cell_length_b   7.75025171
_cell_length_c   3.69898900
_cell_angle_alpha   90.00000000
_cell_angle_beta   90.00000000
_cell_angle_gamma   91.69530793
_symmetry_Int_Tables_number   1
_chemical_formula_structural   YHo2Pa(CdPd2)2
_chemical_formula_sum   'Y1 Ho2 Pa1 Cd2 Pd4'
_cell_volume   222.32409089
_cell_formula_units_Z   1
loop_
 _symmetry_equiv_pos_site_id
 _symmetry_equiv_pos_as_xyz
  1  'x, y, z'
loop_
 _atom_site_type_symbol
 _atom_site_label
 _atom_site_symmetry_multiplicity
 _atom_site_fract_x
 _atom_site_fract_y
 _atom_site_fract_z
 _atom_site_occupancy
  Y  Y0  1  0.172263  0.330791  0.500000  1
  Ho  Ho1  1  0.326395  0.825703  0.500000  1
  Ho  Ho2  1  0.831168  0.672083  0.500000  1
  Pa  Pa3  1  0.668488  0.168003  0.500000  1
  Cd  Cd4  1  0.005101  0.999362  0.000000  1
  Cd  Cd5  1  0.500162  0.505596  0.000000  1
  Pd  Pd6  1  0.121909  0.626756  0.000000  1
  Pd  Pd7  1  0.858025  0.361538  0.000000  1
  Pd  Pd8  1  0.633959  0.879626  0.000000  1
  Pd  Pd9  1  0.382531  0.130542  0.000000  1
