# generated using pymatgen
data_Hf8Pt3RhC2
_symmetry_space_group_name_H-M   'P 1'
_cell_length_a   8.81377530
_cell_length_b   8.81377536
_cell_length_c   8.81414100
_cell_angle_alpha   59.99863144
_cell_angle_beta   59.99863122
_cell_angle_gamma   59.99025865
_symmetry_Int_Tables_number   1
_chemical_formula_structural   Hf8Pt3RhC2
_chemical_formula_sum   'Hf16 Pt6 Rh2 C4'
_cell_volume   484.11437805
_cell_formula_units_Z   2
loop_
 _symmetry_equiv_pos_site_id
 _symmetry_equiv_pos_as_xyz
  1  'x, y, z'
loop_
 _atom_site_type_symbol
 _atom_site_label
 _atom_site_symmetry_multiplicity
 _atom_site_fract_x
 _atom_site_fract_y
 _atom_site_fract_z
 _atom_site_occupancy
  Hf  Hf0  1  0.121201  0.628282  0.625259  1
  Hf  Hf1  1  0.628282  0.121201  0.625259  1
  Hf  Hf2  1  0.626248  0.626248  0.123449  1
  Hf  Hf3  1  0.626248  0.626248  0.624054  1
  Hf  Hf4  1  0.817635  0.817635  0.182365  1
  Hf  Hf5  1  0.182440  0.182440  0.817560  1
  Hf  Hf6  1  0.817768  0.179984  0.817530  1
  Hf  Hf7  1  0.179984  0.817768  0.184718  1
  Hf  Hf8  1  0.179984  0.817768  0.817530  1
  Hf  Hf9  1  0.817768  0.179984  0.184718  1
  Hf  Hf10  1  0.433052  0.433052  0.066948  1
  Hf  Hf11  1  0.066541  0.066541  0.433459  1
  Hf  Hf12  1  0.433871  0.066720  0.432782  1
  Hf  Hf13  1  0.066720  0.433871  0.066626  1
  Hf  Hf14  1  0.066720  0.433871  0.432782  1
  Hf  Hf15  1  0.433871  0.066720  0.066626  1
  Pt  Pt16  1  0.771612  0.409924  0.409231  1
  Pt  Pt17  1  0.409924  0.771612  0.409231  1
  Pt  Pt18  1  0.409990  0.409990  0.770434  1
  Pt  Pt19  1  0.409990  0.409990  0.409584  1
  Pt  Pt20  1  0.479941  0.840962  0.839550  1
  Pt  Pt21  1  0.840962  0.479941  0.839550  1
  Rh  Rh22  1  0.839400  0.839400  0.483352  1
  Rh  Rh23  1  0.839400  0.839400  0.837849  1
  C  C24  1  0.625461  0.125062  0.124738  1
  C  C25  1  0.125062  0.625461  0.124738  1
  C  C26  1  0.124962  0.124962  0.625754  1
  C  C27  1  0.124962  0.124962  0.124323  1
