# generated using pymatgen
data_Er5TmTcSb2
_symmetry_space_group_name_H-M   'P 1'
_cell_length_a   8.09827100
_cell_length_b   8.09554480
_cell_length_c   4.22816900
_cell_angle_alpha   90.00000000
_cell_angle_beta   90.00000000
_cell_angle_gamma   120.01114442
_symmetry_Int_Tables_number   1
_chemical_formula_structural   Er5TmTcSb2
_chemical_formula_sum   'Er5 Tm1 Tc1 Sb2'
_cell_volume   240.03389589
_cell_formula_units_Z   1
loop_
 _symmetry_equiv_pos_site_id
 _symmetry_equiv_pos_as_xyz
  1  'x, y, z'
loop_
 _atom_site_type_symbol
 _atom_site_label
 _atom_site_symmetry_multiplicity
 _atom_site_fract_x
 _atom_site_fract_y
 _atom_site_fract_z
 _atom_site_occupancy
  Er  Er0  1  0.000114  0.235796  0.500000  1
  Er  Er1  1  0.764319  0.764204  0.500000  1
  Er  Er2  1  0.602958  0.000000  0.000000  1
  Er  Er3  1  0.000236  0.603630  0.000000  1
  Er  Er4  1  0.396606  0.396370  0.000000  1
  Tm  Tm5  1  0.235432  0.000000  0.500000  1
  Tc  Tc6  1  0.000777  0.000000  0.000000  1
  Sb  Sb7  1  0.333391  0.667226  0.500000  1
  Sb  Sb8  1  0.666167  0.332774  0.500000  1
