# generated using pymatgen
data_Tb2ThIn2GaPt3
_symmetry_space_group_name_H-M   'P 1'
_cell_length_a   7.61230450
_cell_length_b   7.55918806
_cell_length_c   3.96705100
_cell_angle_alpha   90.00000000
_cell_angle_beta   90.00000000
_cell_angle_gamma   119.76944534
_symmetry_Int_Tables_number   1
_chemical_formula_structural   Tb2ThIn2GaPt3
_chemical_formula_sum   'Tb2 Th1 In2 Ga1 Pt3'
_cell_volume   198.14996460
_cell_formula_units_Z   1
loop_
 _symmetry_equiv_pos_site_id
 _symmetry_equiv_pos_as_xyz
  1  'x, y, z'
loop_
 _atom_site_type_symbol
 _atom_site_label
 _atom_site_symmetry_multiplicity
 _atom_site_fract_x
 _atom_site_fract_y
 _atom_site_fract_z
 _atom_site_occupancy
  Tb  Tb0  1  0.400896  0.407573  0.500000  1
  Tb  Tb1  1  0.599104  0.006677  0.500000  1
  Th  Th2  1  0.000000  0.579012  0.500000  1
  In  In3  1  0.738537  0.747660  0.000000  1
  In  In4  1  0.261463  0.009124  0.000000  1
  Ga  Ga5  1  0.000000  0.243165  0.000000  1
  Pt  Pt6  1  0.679744  0.337014  0.000000  1
  Pt  Pt7  1  0.320256  0.657270  0.000000  1
  Pt  Pt8  1  0.000000  0.012507  0.500000  1
