# generated using pymatgen
data_Cs2CoGe3O8
_symmetry_space_group_name_H-M   'P 1'
_cell_length_a   5.65208252
_cell_length_b   7.24691148
_cell_length_c   7.38947500
_cell_angle_alpha   79.93475606
_cell_angle_beta   67.74450421
_cell_angle_gamma   67.45638524
_symmetry_Int_Tables_number   1
_chemical_formula_structural   Cs2CoGe3O8
_chemical_formula_sum   'Cs2 Co1 Ge3 O8'
_cell_volume   258.56618176
_cell_formula_units_Z   1
loop_
 _symmetry_equiv_pos_site_id
 _symmetry_equiv_pos_as_xyz
  1  'x, y, z'
loop_
 _atom_site_type_symbol
 _atom_site_label
 _atom_site_symmetry_multiplicity
 _atom_site_fract_x
 _atom_site_fract_y
 _atom_site_fract_z
 _atom_site_occupancy
  Cs  Cs0  1  0.962561  0.295658  0.818661  1
  Cs  Cs1  1  0.042038  0.696831  0.196503  1
  Co  Co2  1  0.685948  0.885390  0.773113  1
  Ge  Ge3  1  0.324822  0.080772  0.248519  1
  Ge  Ge4  1  0.657605  0.273547  0.411115  1
  Ge  Ge5  1  0.349008  0.714241  0.602773  1
  O  O6  1  0.998175  0.279621  0.274059  1
  O  O7  1  0.632266  0.682508  0.662359  1
  O  O8  1  0.574439  0.188116  0.232271  1
  O  O9  1  0.048321  0.719851  0.793690  1
  O  O10  1  0.245224  0.953382  0.478011  1
  O  O11  1  0.603157  0.155299  0.639327  1
  O  O12  1  0.428527  0.944470  0.045999  1
  O  O13  1  0.447907  0.532316  0.421601  1
