# generated using pymatgen
data_Y4Ho6IrRu3
_symmetry_space_group_name_H-M   'P 1'
_cell_length_a   6.35904869
_cell_length_b   7.32087800
_cell_length_c   8.47046996
_cell_angle_alpha   96.86892219
_cell_angle_beta   112.13464285
_cell_angle_gamma   90.00768969
_symmetry_Int_Tables_number   1
_chemical_formula_structural   Y4Ho6IrRu3
_chemical_formula_sum   'Y4 Ho6 Ir1 Ru3'
_cell_volume   362.21079569
_cell_formula_units_Z   1
loop_
 _symmetry_equiv_pos_site_id
 _symmetry_equiv_pos_as_xyz
  1  'x, y, z'
loop_
 _atom_site_type_symbol
 _atom_site_label
 _atom_site_symmetry_multiplicity
 _atom_site_fract_x
 _atom_site_fract_y
 _atom_site_fract_z
 _atom_site_occupancy
  Y  Y0  1  0.978263  0.918020  0.186266  1
  Y  Y1  1  0.790701  0.584453  0.812144  1
  Y  Y2  1  0.021948  0.084186  0.813209  1
  Y  Y3  1  0.210188  0.415120  0.186172  1
  Ho  Ho4  1  0.640780  0.815967  0.435328  1
  Ho  Ho5  1  0.207144  0.684615  0.566029  1
  Ho  Ho6  1  0.358570  0.184989  0.565439  1
  Ho  Ho7  1  0.793342  0.314037  0.435862  1
  Ho  Ho8  1  0.420885  0.750084  0.000099  1
  Ho  Ho9  1  0.578175  0.248752  0.998883  1
  Ir  Ir10  1  0.820815  0.575635  0.222031  1
  Ru  Ru11  1  0.601678  0.923633  0.778996  1
  Ru  Ru12  1  0.177413  0.425157  0.778363  1
  Ru  Ru13  1  0.400098  0.075352  0.221180  1
