# generated using pymatgen
data_LaTb11Tc4
_symmetry_space_group_name_H-M   'P 1'
_cell_length_a   6.27741762
_cell_length_b   7.45070672
_cell_length_c   9.30347205
_cell_angle_alpha   89.83864351
_cell_angle_beta   90.25692602
_cell_angle_gamma   90.06941377
_symmetry_Int_Tables_number   1
_chemical_formula_structural   LaTb11Tc4
_chemical_formula_sum   'La1 Tb11 Tc4'
_cell_volume   435.12811696
_cell_formula_units_Z   1
loop_
 _symmetry_equiv_pos_site_id
 _symmetry_equiv_pos_as_xyz
  1  'x, y, z'
loop_
 _atom_site_type_symbol
 _atom_site_label
 _atom_site_symmetry_multiplicity
 _atom_site_fract_x
 _atom_site_fract_y
 _atom_site_fract_z
 _atom_site_occupancy
  La  La0  1  0.336442  0.674852  0.064837  1
  Tb  Tb1  1  0.163898  0.175588  0.436970  1
  Tb  Tb2  1  0.663502  0.325628  0.563887  1
  Tb  Tb3  1  0.837038  0.825776  0.934538  1
  Tb  Tb4  1  0.666477  0.322264  0.935932  1
  Tb  Tb5  1  0.834894  0.823445  0.563250  1
  Tb  Tb6  1  0.334880  0.675659  0.439726  1
  Tb  Tb7  1  0.161988  0.175441  0.063018  1
  Tb  Tb8  1  0.871515  0.539572  0.251772  1
  Tb  Tb9  1  0.629996  0.043204  0.251310  1
  Tb  Tb10  1  0.125446  0.456507  0.748760  1
  Tb  Tb11  1  0.371087  0.960042  0.749338  1
  Tc  Tc12  1  0.039982  0.887795  0.249451  1
  Tc  Tc13  1  0.461224  0.388138  0.250129  1
  Tc  Tc14  1  0.960125  0.112910  0.749362  1
  Tc  Tc15  1  0.541504  0.613178  0.747720  1
