# generated using pymatgen
data_Dy9YCd3Ru
_symmetry_space_group_name_H-M   'P 1'
_cell_length_a   9.61278900
_cell_length_b   9.61278916
_cell_length_c   9.85148400
_cell_angle_alpha   90.00000000
_cell_angle_beta   90.00000000
_cell_angle_gamma   120.00087159
_symmetry_Int_Tables_number   1
_chemical_formula_structural   Dy9YCd3Ru
_chemical_formula_sum   'Dy18 Y2 Cd6 Ru2'
_cell_volume   788.36493673
_cell_formula_units_Z   2
loop_
 _symmetry_equiv_pos_site_id
 _symmetry_equiv_pos_as_xyz
  1  'x, y, z'
loop_
 _atom_site_type_symbol
 _atom_site_label
 _atom_site_symmetry_multiplicity
 _atom_site_fract_x
 _atom_site_fract_y
 _atom_site_fract_z
 _atom_site_occupancy
  Dy  Dy0  1  0.999996  0.000004  0.500031  1
  Dy  Dy1  1  0.999996  0.000004  0.999969  1
  Dy  Dy2  1  0.209863  0.790137  0.439720  1
  Dy  Dy3  1  0.209909  0.419758  0.439767  1
  Dy  Dy4  1  0.580242  0.790091  0.439767  1
  Dy  Dy5  1  0.790115  0.209885  0.560187  1
  Dy  Dy6  1  0.790076  0.580232  0.560215  1
  Dy  Dy7  1  0.419768  0.209924  0.560215  1
  Dy  Dy8  1  0.790115  0.209885  0.939813  1
  Dy  Dy9  1  0.790076  0.580232  0.939785  1
  Dy  Dy10  1  0.419768  0.209924  0.939785  1
  Dy  Dy11  1  0.209863  0.790137  0.060280  1
  Dy  Dy12  1  0.209909  0.419758  0.060233  1
  Dy  Dy13  1  0.580242  0.790091  0.060233  1
  Dy  Dy14  1  0.541274  0.458726  0.250000  1
  Dy  Dy15  1  0.541276  0.082555  0.250000  1
  Dy  Dy16  1  0.917445  0.458724  0.250000  1
  Dy  Dy17  1  0.458778  0.541222  0.750000  1
  Y  Y18  1  0.458733  0.917451  0.750000  1
  Y  Y19  1  0.082549  0.541267  0.750000  1
  Cd  Cd20  1  0.885412  0.114588  0.250000  1
  Cd  Cd21  1  0.885416  0.770821  0.250000  1
  Cd  Cd22  1  0.229179  0.114584  0.250000  1
  Cd  Cd23  1  0.114573  0.885427  0.750000  1
  Cd  Cd24  1  0.114615  0.229174  0.750000  1
  Cd  Cd25  1  0.770826  0.885385  0.750000  1
  Ru  Ru26  1  0.333338  0.666662  0.250000  1
  Ru  Ru27  1  0.666647  0.333353  0.750000  1
