# generated using pymatgen
data_Er3Al12CoIr3
_symmetry_space_group_name_H-M   'P 1'
_cell_length_a   8.76014400
_cell_length_b   8.76014379
_cell_length_c   9.42132700
_cell_angle_alpha   90.00000000
_cell_angle_beta   90.00000000
_cell_angle_gamma   120.00000080
_symmetry_Int_Tables_number   1
_chemical_formula_structural   Er3Al12CoIr3
_chemical_formula_sum   'Er6 Al24 Co2 Ir6'
_cell_volume   626.13097033
_cell_formula_units_Z   2
loop_
 _symmetry_equiv_pos_site_id
 _symmetry_equiv_pos_as_xyz
  1  'x, y, z'
loop_
 _atom_site_type_symbol
 _atom_site_label
 _atom_site_symmetry_multiplicity
 _atom_site_fract_x
 _atom_site_fract_y
 _atom_site_fract_z
 _atom_site_occupancy
  Er  Er0  1  0.195124  0.390250  0.250000  1
  Er  Er1  1  0.804876  0.609750  0.750000  1
  Er  Er2  1  0.609750  0.804876  0.250000  1
  Er  Er3  1  0.390250  0.195124  0.750000  1
  Er  Er4  1  0.195124  0.804876  0.250000  1
  Er  Er5  1  0.804876  0.195124  0.750000  1
  Al  Al6  1  0.333333  0.666667  0.026766  1
  Al  Al7  1  0.666667  0.333333  0.973234  1
  Al  Al8  1  0.666667  0.333333  0.526766  1
  Al  Al9  1  0.333333  0.666667  0.473234  1
  Al  Al10  1  0.160586  0.321172  0.577602  1
  Al  Al11  1  0.839414  0.678828  0.422398  1
  Al  Al12  1  0.678828  0.839414  0.577602  1
  Al  Al13  1  0.839414  0.678828  0.077602  1
  Al  Al14  1  0.321172  0.160586  0.422398  1
  Al  Al15  1  0.160586  0.321172  0.922398  1
  Al  Al16  1  0.160586  0.839414  0.577602  1
  Al  Al17  1  0.321172  0.160586  0.077602  1
  Al  Al18  1  0.839414  0.160586  0.422398  1
  Al  Al19  1  0.678828  0.839414  0.922398  1
  Al  Al20  1  0.839414  0.160586  0.077602  1
  Al  Al21  1  0.160586  0.839414  0.922398  1
  Al  Al22  1  0.562415  0.124828  0.250000  1
  Al  Al23  1  0.437585  0.875172  0.750000  1
  Al  Al24  1  0.875172  0.437585  0.250000  1
  Al  Al25  1  0.124828  0.562415  0.750000  1
  Al  Al26  1  0.562415  0.437585  0.250000  1
  Al  Al27  1  0.437585  0.562415  0.750000  1
  Al  Al28  1  0.000000  0.000000  0.250000  1
  Al  Al29  1  0.000000  0.000000  0.750000  1
  Co  Co30  1  0.000000  0.000000  0.000000  1
  Co  Co31  1  0.000000  0.000000  0.500000  1
  Ir  Ir32  1  0.500000  0.000000  0.000000  1
  Ir  Ir33  1  0.000000  0.500000  0.000000  1
  Ir  Ir34  1  0.500000  0.000000  0.500000  1
  Ir  Ir35  1  0.500000  0.500000  0.000000  1
  Ir  Ir36  1  0.000000  0.500000  0.500000  1
  Ir  Ir37  1  0.500000  0.500000  0.500000  1
