# generated using pymatgen
data_Na2ReN3
_symmetry_space_group_name_H-M   'P 1'
_cell_length_a   6.18486170
_cell_length_b   6.18486101
_cell_length_c   11.82843585
_cell_angle_alpha   89.85382632
_cell_angle_beta   89.85382148
_cell_angle_gamma   121.66114601
_symmetry_Int_Tables_number   1
_chemical_formula_structural   Na2ReN3
_chemical_formula_sum   'Na8 Re4 N12'
_cell_volume   385.12012355
_cell_formula_units_Z   4
loop_
 _symmetry_equiv_pos_site_id
 _symmetry_equiv_pos_as_xyz
  1  'x, y, z'
loop_
 _atom_site_type_symbol
 _atom_site_label
 _atom_site_symmetry_multiplicity
 _atom_site_fract_x
 _atom_site_fract_y
 _atom_site_fract_z
 _atom_site_occupancy
  Na  Na0  1  0.921693  0.518360  0.364062  1
  Na  Na1  1  0.481640  0.078307  0.135938  1
  Na  Na2  1  0.079522  0.483248  0.635770  1
  Na  Na3  1  0.516752  0.920478  0.864230  1
  Na  Na4  1  0.108794  0.353181  0.075761  1
  Na  Na5  1  0.646819  0.891206  0.424239  1
  Na  Na6  1  0.889213  0.645334  0.924207  1
  Na  Na7  1  0.354666  0.110787  0.575793  1
  Re  Re8  1  0.743254  0.741212  0.164311  1
  Re  Re9  1  0.258788  0.256746  0.335689  1
  Re  Re10  1  0.256247  0.257943  0.835452  1
  Re  Re11  1  0.742057  0.743753  0.664548  1
  N  N12  1  0.437939  0.562061  0.250000  1
  N  N13  1  0.561648  0.438352  0.750000  1
  N  N14  1  0.868570  0.546260  0.135817  1
  N  N15  1  0.453740  0.131430  0.364183  1
  N  N16  1  0.130286  0.452353  0.864056  1
  N  N17  1  0.547647  0.869714  0.635944  1
  N  N18  1  0.849054  0.678945  0.536911  1
  N  N19  1  0.321055  0.150946  0.963089  1
  N  N20  1  0.151030  0.321131  0.463114  1
  N  N21  1  0.678869  0.848970  0.036886  1
  N  N22  1  0.971709  0.028291  0.250000  1
  N  N23  1  0.029009  0.970991  0.750000  1
