# generated using pymatgen
data_Ho2Zr4Sn6Ir5Rh
_symmetry_space_group_name_H-M   'P 1'
_cell_length_a   7.48107612
_cell_length_b   7.50905092
_cell_length_c   7.42559900
_cell_angle_alpha   90.00000000
_cell_angle_beta   90.00000000
_cell_angle_gamma   120.06597087
_symmetry_Int_Tables_number   1
_chemical_formula_structural   Ho2Zr4Sn6Ir5Rh
_chemical_formula_sum   'Ho2 Zr4 Sn6 Ir5 Rh1'
_cell_volume   361.01243321
_cell_formula_units_Z   1
loop_
 _symmetry_equiv_pos_site_id
 _symmetry_equiv_pos_as_xyz
  1  'x, y, z'
loop_
 _atom_site_type_symbol
 _atom_site_label
 _atom_site_symmetry_multiplicity
 _atom_site_fract_x
 _atom_site_fract_y
 _atom_site_fract_z
 _atom_site_occupancy
  Ho  Ho0  1  0.597649  0.000200  0.250000  1
  Ho  Ho1  1  0.404404  0.400590  0.250000  1
  Zr  Zr2  1  0.606641  0.001429  0.750000  1
  Zr  Zr3  1  0.390728  0.397184  0.750000  1
  Zr  Zr4  1  0.002825  0.604005  0.750000  1
  Zr  Zr5  1  0.001597  0.601847  0.250000  1
  Sn  Sn6  1  0.267417  0.001267  0.991741  1
  Sn  Sn7  1  0.733203  0.732390  0.507842  1
  Sn  Sn8  1  0.999121  0.265228  0.497634  1
  Sn  Sn9  1  0.999121  0.265228  0.002366  1
  Sn  Sn10  1  0.733203  0.732390  0.992158  1
  Sn  Sn11  1  0.267417  0.001267  0.508259  1
  Ir  Ir12  1  0.671676  0.337729  0.973131  1
  Ir  Ir13  1  0.671676  0.337729  0.526869  1
  Ir  Ir14  1  0.326865  0.665636  0.981846  1
  Ir  Ir15  1  0.326865  0.665636  0.518154  1
  Ir  Ir16  1  0.000088  0.987338  0.250000  1
  Rh  Rh17  1  0.999505  0.002907  0.750000  1
