# generated using pymatgen
data_Lu12CuNi4Sn
_symmetry_space_group_name_H-M   'P 1'
_cell_length_a   8.14352933
_cell_length_b   8.14352934
_cell_length_c   8.14352955
_cell_angle_alpha   112.15048005
_cell_angle_beta   109.61735209
_cell_angle_gamma   106.69175393
_symmetry_Int_Tables_number   1
_chemical_formula_structural   Lu12CuNi4Sn
_chemical_formula_sum   'Lu12 Cu1 Ni4 Sn1'
_cell_volume   414.79160133
_cell_formula_units_Z   1
loop_
 _symmetry_equiv_pos_site_id
 _symmetry_equiv_pos_as_xyz
  1  'x, y, z'
loop_
 _atom_site_type_symbol
 _atom_site_label
 _atom_site_symmetry_multiplicity
 _atom_site_fract_x
 _atom_site_fract_y
 _atom_site_fract_z
 _atom_site_occupancy
  Lu  Lu0  1  0.675523  0.868782  0.193259  1
  Lu  Lu1  1  0.324477  0.517737  0.193259  1
  Lu  Lu2  1  0.821223  0.785543  0.606766  1
  Lu  Lu3  1  0.178777  0.785543  0.964319  1
  Lu  Lu4  1  0.821223  0.214457  0.035681  1
  Lu  Lu5  1  0.178777  0.214457  0.393234  1
  Lu  Lu6  1  0.675523  0.482263  0.806741  1
  Lu  Lu7  1  0.324477  0.131218  0.806741  1
  Lu  Lu8  1  0.580421  0.275701  0.304719  1
  Lu  Lu9  1  0.419579  0.724299  0.695281  1
  Lu  Lu10  1  0.029019  0.724299  0.304719  1
  Lu  Lu11  1  0.970981  0.275701  0.695281  1
  Cu  Cu12  1  0.000000  0.500000  0.500000  1
  Ni  Ni13  1  0.352459  0.500000  0.852459  1
  Ni  Ni14  1  0.647541  0.500000  0.147541  1
  Ni  Ni15  1  0.876139  0.876139  0.000000  1
  Ni  Ni16  1  0.123861  0.123861  0.000000  1
  Sn  Sn17  1  0.500000  0.000000  0.500000  1
