# generated using pymatgen
data_Zr2In2Ru3Rh
_symmetry_space_group_name_H-M   'P 1'
_cell_length_a   4.60431382
_cell_length_b   6.52884201
_cell_length_c   13.75496803
_cell_angle_alpha   90.00170988
_cell_angle_beta   89.99086872
_cell_angle_gamma   89.99843750
_symmetry_Int_Tables_number   1
_chemical_formula_structural   Zr2In2Ru3Rh
_chemical_formula_sum   'Zr6 In6 Ru9 Rh3'
_cell_volume   413.48585281
_cell_formula_units_Z   3
loop_
 _symmetry_equiv_pos_site_id
 _symmetry_equiv_pos_as_xyz
  1  'x, y, z'
loop_
 _atom_site_type_symbol
 _atom_site_label
 _atom_site_symmetry_multiplicity
 _atom_site_fract_x
 _atom_site_fract_y
 _atom_site_fract_z
 _atom_site_occupancy
  Zr  Zr0  1  0.999865  0.500182  0.003003  1
  Zr  Zr1  1  0.500417  0.999125  0.167075  1
  Zr  Zr2  1  0.000245  0.499939  0.333088  1
  Zr  Zr3  1  0.499937  0.002057  0.497960  1
  Zr  Zr4  1  0.999790  0.496680  0.663866  1
  Zr  Zr5  1  0.500015  0.001831  0.835056  1
  In  In6  1  0.000112  0.000200  0.001084  1
  In  In7  1  0.500142  0.500231  0.166295  1
  In  In8  1  0.999973  0.000182  0.333527  1
  In  In9  1  0.500034  0.499410  0.499739  1
  In  In10  1  0.999795  0.000009  0.665539  1
  In  In11  1  0.499787  0.499846  0.833886  1
  Ru  Ru12  1  0.500124  0.249835  0.998377  1
  Ru  Ru13  1  0.499955  0.750150  0.998001  1
  Ru  Ru14  1  0.999988  0.250141  0.165792  1
  Ru  Ru15  1  0.000621  0.749493  0.165684  1
  Ru  Ru16  1  0.500368  0.250123  0.333191  1
  Ru  Ru17  1  0.499897  0.749472  0.333978  1
  Ru  Ru18  1  0.999621  0.250787  0.502046  1
  Ru  Ru19  1  0.000194  0.749279  0.501226  1
  Ru  Ru20  1  0.499807  0.251035  0.668158  1
  Rh  Rh21  1  0.499743  0.749206  0.667958  1
  Rh  Rh22  1  0.999888  0.247852  0.832613  1
  Rh  Rh23  1  0.999686  0.752926  0.832861  1
