# generated using pymatgen
data_Ho5ErReB14Os
_symmetry_space_group_name_H-M   'P 1'
_cell_length_a   8.03246327
_cell_length_b   8.03246246
_cell_length_c   9.31119032
_cell_angle_alpha   89.97046026
_cell_angle_beta   90.02954070
_cell_angle_gamma   154.66688023
_symmetry_Int_Tables_number   1
_chemical_formula_structural   Ho5ErReB14Os
_chemical_formula_sum   'Ho5 Er1 Re1 B14 Os1'
_cell_volume   257.05436613
_cell_formula_units_Z   1
loop_
 _symmetry_equiv_pos_site_id
 _symmetry_equiv_pos_as_xyz
  1  'x, y, z'
loop_
 _atom_site_type_symbol
 _atom_site_label
 _atom_site_symmetry_multiplicity
 _atom_site_fract_x
 _atom_site_fract_y
 _atom_site_fract_z
 _atom_site_occupancy
  Ho  Ho0  1  0.894315  0.105685  0.440223  1
  Ho  Ho1  1  0.105794  0.894206  0.560967  1
  Ho  Ho2  1  0.894300  0.105700  0.059758  1
  Ho  Ho3  1  0.243623  0.756377  0.249968  1
  Ho  Ho4  1  0.756696  0.243304  0.750058  1
  Er  Er5  1  0.105683  0.894317  0.939262  1
  Re  Re6  1  0.947603  0.052397  0.750132  1
  B  B7  1  0.727015  0.272985  0.465326  1
  B  B8  1  0.272360  0.727640  0.533509  1
  B  B9  1  0.726886  0.273114  0.034598  1
  B  B10  1  0.272171  0.727829  0.966434  1
  B  B11  1  0.631738  0.368262  0.150846  1
  B  B12  1  0.367711  0.632289  0.849143  1
  B  B13  1  0.631742  0.368258  0.348902  1
  B  B14  1  0.367711  0.632289  0.650857  1
  B  B15  1  0.520396  0.479604  0.095886  1
  B  B16  1  0.479847  0.520153  0.904896  1
  B  B17  1  0.520345  0.479655  0.403903  1
  B  B18  1  0.479754  0.520246  0.595309  1
  B  B19  1  0.455927  0.544073  0.249969  1
  B  B20  1  0.544787  0.455213  0.750265  1
  Os  Os21  1  0.053595  0.946405  0.249790  1
