# generated using pymatgen
data_HoZnSi2Pt
_symmetry_space_group_name_H-M   'P 1'
_cell_length_a   4.13251500
_cell_length_b   4.13251500
_cell_length_c   10.25507300
_cell_angle_alpha   90.00000000
_cell_angle_beta   90.00000000
_cell_angle_gamma   90.00000000
_symmetry_Int_Tables_number   1
_chemical_formula_structural   HoZnSi2Pt
_chemical_formula_sum   'Ho2 Zn2 Si4 Pt2'
_cell_volume   175.13285738
_cell_formula_units_Z   2
loop_
 _symmetry_equiv_pos_site_id
 _symmetry_equiv_pos_as_xyz
  1  'x, y, z'
loop_
 _atom_site_type_symbol
 _atom_site_label
 _atom_site_symmetry_multiplicity
 _atom_site_fract_x
 _atom_site_fract_y
 _atom_site_fract_z
 _atom_site_occupancy
  Ho  Ho0  1  0.000000  0.500000  0.747061  1
  Ho  Ho1  1  0.500000  0.000000  0.252939  1
  Zn  Zn2  1  0.000000  0.000000  0.000000  1
  Zn  Zn3  1  0.500000  0.500000  0.000000  1
  Si  Si4  1  0.000000  0.500000  0.143336  1
  Si  Si5  1  0.500000  0.500000  0.500000  1
  Si  Si6  1  0.500000  0.000000  0.856664  1
  Si  Si7  1  0.000000  0.000000  0.500000  1
  Pt  Pt8  1  0.500000  0.000000  0.624701  1
  Pt  Pt9  1  0.000000  0.500000  0.375299  1
