# generated using pymatgen
data_Ca2Nd3(Ni2Sn5)2
_symmetry_space_group_name_H-M   'P 1'
_cell_length_a   14.00739900
_cell_length_b   14.00739900
_cell_length_c   4.52495600
_cell_angle_alpha   90.00000000
_cell_angle_beta   90.00000000
_cell_angle_gamma   90.00000000
_symmetry_Int_Tables_number   1
_chemical_formula_structural   Ca2Nd3(Ni2Sn5)2
_chemical_formula_sum   'Ca4 Nd6 Ni8 Sn20'
_cell_volume   887.82906790
_cell_formula_units_Z   2
loop_
 _symmetry_equiv_pos_site_id
 _symmetry_equiv_pos_as_xyz
  1  'x, y, z'
loop_
 _atom_site_type_symbol
 _atom_site_label
 _atom_site_symmetry_multiplicity
 _atom_site_fract_x
 _atom_site_fract_y
 _atom_site_fract_z
 _atom_site_occupancy
  Ca  Ca0  1  0.181179  0.681179  0.500000  1
  Ca  Ca1  1  0.818821  0.318821  0.500000  1
  Ca  Ca2  1  0.681179  0.818821  0.500000  1
  Ca  Ca3  1  0.318821  0.181179  0.500000  1
  Nd  Nd4  1  0.000000  0.000000  0.000000  1
  Nd  Nd5  1  0.500000  0.500000  0.000000  1
  Nd  Nd6  1  0.892605  0.607395  0.500000  1
  Nd  Nd7  1  0.107395  0.392605  0.500000  1
  Nd  Nd8  1  0.392605  0.892605  0.500000  1
  Nd  Nd9  1  0.607395  0.107395  0.500000  1
  Ni  Ni10  1  0.256040  0.533506  0.000000  1
  Ni  Ni11  1  0.743960  0.466494  0.000000  1
  Ni  Ni12  1  0.756040  0.966494  0.000000  1
  Ni  Ni13  1  0.243960  0.033506  0.000000  1
  Ni  Ni14  1  0.466494  0.256040  0.000000  1
  Ni  Ni15  1  0.533506  0.743960  0.000000  1
  Ni  Ni16  1  0.033506  0.756040  0.000000  1
  Ni  Ni17  1  0.966494  0.243960  0.000000  1
  Sn  Sn18  1  0.351557  0.699452  0.000000  1
  Sn  Sn19  1  0.648443  0.300548  0.000000  1
  Sn  Sn20  1  0.851557  0.800548  0.000000  1
  Sn  Sn21  1  0.148443  0.199452  0.000000  1
  Sn  Sn22  1  0.300548  0.351557  0.000000  1
  Sn  Sn23  1  0.699452  0.648443  0.000000  1
  Sn  Sn24  1  0.199452  0.851557  0.000000  1
  Sn  Sn25  1  0.800548  0.148443  0.000000  1
  Sn  Sn26  1  0.333415  0.507819  0.500000  1
  Sn  Sn27  1  0.666585  0.492181  0.500000  1
  Sn  Sn28  1  0.833415  0.992181  0.500000  1
  Sn  Sn29  1  0.166585  0.007819  0.500000  1
  Sn  Sn30  1  0.492181  0.333415  0.500000  1
  Sn  Sn31  1  0.507819  0.666585  0.500000  1
  Sn  Sn32  1  0.007819  0.833415  0.500000  1
  Sn  Sn33  1  0.992181  0.166585  0.500000  1
  Sn  Sn34  1  0.072230  0.572230  0.000000  1
  Sn  Sn35  1  0.927770  0.427770  0.000000  1
  Sn  Sn36  1  0.572230  0.927770  0.000000  1
  Sn  Sn37  1  0.427770  0.072230  0.000000  1
