# generated using pymatgen
data_TbGdTl4F10
_symmetry_space_group_name_H-M   'P 1'
_cell_length_a   6.98829387
_cell_length_b   7.47695700
_cell_length_c   11.54322100
_cell_angle_alpha   90.00000000
_cell_angle_beta   90.35596236
_cell_angle_gamma   90.00000000
_symmetry_Int_Tables_number   1
_chemical_formula_structural   TbGdTl4F10
_chemical_formula_sum   'Tb2 Gd2 Tl8 F20'
_cell_volume   603.13519440
_cell_formula_units_Z   2
loop_
 _symmetry_equiv_pos_site_id
 _symmetry_equiv_pos_as_xyz
  1  'x, y, z'
loop_
 _atom_site_type_symbol
 _atom_site_label
 _atom_site_symmetry_multiplicity
 _atom_site_fract_x
 _atom_site_fract_y
 _atom_site_fract_z
 _atom_site_occupancy
  Tb  Tb0  1  0.559357  0.250000  0.502382  1
  Tb  Tb1  1  0.440643  0.750000  0.497618  1
  Gd  Gd2  1  0.939602  0.250000  0.002822  1
  Gd  Gd3  1  0.060398  0.750000  0.997178  1
  Tl  Tl4  1  0.532444  0.996515  0.828751  1
  Tl  Tl5  1  0.467556  0.496515  0.171249  1
  Tl  Tl6  1  0.967280  0.996599  0.329321  1
  Tl  Tl7  1  0.032720  0.496599  0.670679  1
  Tl  Tl8  1  0.532444  0.503485  0.828751  1
  Tl  Tl9  1  0.467556  0.003485  0.171249  1
  Tl  Tl10  1  0.967280  0.503401  0.329321  1
  Tl  Tl11  1  0.032720  0.003401  0.670679  1
  F  F12  1  0.878261  0.750000  0.835652  1
  F  F13  1  0.121739  0.250000  0.164348  1
  F  F14  1  0.617912  0.750000  0.338568  1
  F  F15  1  0.382088  0.250000  0.661432  1
  F  F16  1  0.850136  0.250000  0.813728  1
  F  F17  1  0.149864  0.750000  0.186272  1
  F  F18  1  0.647324  0.250000  0.315954  1
  F  F19  1  0.352676  0.750000  0.684046  1
  F  F20  1  0.641920  0.965413  0.569602  1
  F  F21  1  0.358080  0.465413  0.430398  1
  F  F22  1  0.854775  0.964527  0.069762  1
  F  F23  1  0.145225  0.464527  0.930238  1
  F  F24  1  0.381752  0.750000  0.982505  1
  F  F25  1  0.618248  0.250000  0.017495  1
  F  F26  1  0.122197  0.750000  0.482725  1
  F  F27  1  0.877803  0.250000  0.517275  1
  F  F28  1  0.145225  0.035473  0.930238  1
  F  F29  1  0.854775  0.535473  0.069762  1
  F  F30  1  0.358080  0.034587  0.430398  1
  F  F31  1  0.641920  0.534587  0.569602  1
