# generated using pymatgen
data_YbUB6Ru
_symmetry_space_group_name_H-M   'P 1'
_cell_length_a   3.60275400
_cell_length_b   9.27729900
_cell_length_c   11.40021600
_cell_angle_alpha   90.00000000
_cell_angle_beta   90.00000000
_cell_angle_gamma   90.00000000
_symmetry_Int_Tables_number   1
_chemical_formula_structural   YbUB6Ru
_chemical_formula_sum   'Yb4 U4 B24 Ru4'
_cell_volume   381.03883687
_cell_formula_units_Z   4
loop_
 _symmetry_equiv_pos_site_id
 _symmetry_equiv_pos_as_xyz
  1  'x, y, z'
loop_
 _atom_site_type_symbol
 _atom_site_label
 _atom_site_symmetry_multiplicity
 _atom_site_fract_x
 _atom_site_fract_y
 _atom_site_fract_z
 _atom_site_occupancy
  Yb  Yb0  1  0.000000  0.338426  0.408268  1
  Yb  Yb1  1  0.000000  0.661574  0.591732  1
  Yb  Yb2  1  0.000000  0.838426  0.091732  1
  Yb  Yb3  1  0.000000  0.161574  0.908268  1
  U  U4  1  0.000000  0.957079  0.397922  1
  U  U5  1  0.000000  0.042921  0.602078  1
  U  U6  1  0.000000  0.457079  0.102078  1
  U  U7  1  0.000000  0.542921  0.897922  1
  B  B8  1  0.500000  0.552698  0.430515  1
  B  B9  1  0.500000  0.447302  0.569485  1
  B  B10  1  0.500000  0.052698  0.069485  1
  B  B11  1  0.500000  0.947302  0.930515  1
  B  B12  1  0.500000  0.742145  0.422286  1
  B  B13  1  0.500000  0.257855  0.577714  1
  B  B14  1  0.500000  0.242145  0.077714  1
  B  B15  1  0.500000  0.757855  0.922286  1
  B  B16  1  0.500000  0.801153  0.274385  1
  B  B17  1  0.500000  0.198847  0.725615  1
  B  B18  1  0.500000  0.301153  0.225615  1
  B  B19  1  0.500000  0.698847  0.774385  1
  B  B20  1  0.500000  0.644325  0.189073  1
  B  B21  1  0.500000  0.355675  0.810927  1
  B  B22  1  0.500000  0.144325  0.310927  1
  B  B23  1  0.500000  0.855675  0.689073  1
  B  B24  1  0.500000  0.990326  0.218489  1
  B  B25  1  0.500000  0.009674  0.781511  1
  B  B26  1  0.500000  0.490326  0.281511  1
  B  B27  1  0.500000  0.509674  0.718489  1
  B  B28  1  0.500000  0.640204  0.038836  1
  B  B29  1  0.500000  0.359796  0.961164  1
  B  B30  1  0.500000  0.140204  0.461164  1
  B  B31  1  0.500000  0.859796  0.538836  1
  Ru  Ru32  1  0.000000  0.645442  0.318611  1
  Ru  Ru33  1  0.000000  0.354558  0.681389  1
  Ru  Ru34  1  0.000000  0.145442  0.181389  1
  Ru  Ru35  1  0.000000  0.854558  0.818611  1
