# generated using pymatgen
data_Sr3(CoH6)2
_symmetry_space_group_name_H-M   'P 1'
_cell_length_a   5.08333600
_cell_length_b   5.08333540
_cell_length_c   8.24031500
_cell_angle_alpha   90.00000000
_cell_angle_beta   90.00000000
_cell_angle_gamma   119.99999087
_symmetry_Int_Tables_number   1
_chemical_formula_structural   Sr3(CoH6)2
_chemical_formula_sum   'Sr3 Co2 H12'
_cell_volume   184.40473481
_cell_formula_units_Z   1
loop_
 _symmetry_equiv_pos_site_id
 _symmetry_equiv_pos_as_xyz
  1  'x, y, z'
loop_
 _atom_site_type_symbol
 _atom_site_label
 _atom_site_symmetry_multiplicity
 _atom_site_fract_x
 _atom_site_fract_y
 _atom_site_fract_z
 _atom_site_occupancy
  Sr  Sr0  1  0.000000  0.000000  0.000000  1
  Sr  Sr1  1  0.666667  0.333333  0.358392  1
  Sr  Sr2  1  0.333333  0.666667  0.641608  1
  Co  Co3  1  0.666667  0.333333  0.755810  1
  Co  Co4  1  0.333333  0.666667  0.244190  1
  H  H5  1  0.186708  0.813292  0.349442  1
  H  H6  1  0.626584  0.813292  0.349442  1
  H  H7  1  0.186708  0.373416  0.349442  1
  H  H8  1  0.813292  0.186708  0.650558  1
  H  H9  1  0.373416  0.186708  0.650558  1
  H  H10  1  0.813292  0.626584  0.650558  1
  H  H11  1  0.528245  0.056490  0.869297  1
  H  H12  1  0.528245  0.471755  0.869297  1
  H  H13  1  0.943510  0.471755  0.869297  1
  H  H14  1  0.471755  0.943510  0.130703  1
  H  H15  1  0.471755  0.528245  0.130703  1
  H  H16  1  0.056490  0.528245  0.130703  1
