# generated using pymatgen
data_Be13Nb6(SiNi4)2
_symmetry_space_group_name_H-M   'P 1'
_cell_length_a   7.64917724
_cell_length_b   7.64911633
_cell_length_c   7.62270800
_cell_angle_alpha   60.11276347
_cell_angle_beta   60.11287622
_cell_angle_gamma   60.03425052
_symmetry_Int_Tables_number   1
_chemical_formula_structural   Be13Nb6(SiNi4)2
_chemical_formula_sum   'Be13 Nb6 Si2 Ni8'
_cell_volume   315.98861628
_cell_formula_units_Z   1
loop_
 _symmetry_equiv_pos_site_id
 _symmetry_equiv_pos_as_xyz
  1  'x, y, z'
loop_
 _atom_site_type_symbol
 _atom_site_label
 _atom_site_symmetry_multiplicity
 _atom_site_fract_x
 _atom_site_fract_y
 _atom_site_fract_z
 _atom_site_occupancy
  Be  Be0  1  0.326613  0.326656  0.324849  1
  Be  Be1  1  0.673387  0.673344  0.675151  1
  Be  Be2  1  0.326589  0.326634  0.021909  1
  Be  Be3  1  0.335365  0.023256  0.320674  1
  Be  Be4  1  0.673411  0.673366  0.978091  1
  Be  Be5  1  0.664635  0.976744  0.679326  1
  Be  Be6  1  0.023293  0.335383  0.320645  1
  Be  Be7  1  0.976707  0.664617  0.679355  1
  Be  Be8  1  0.500000  0.000000  0.000000  1
  Be  Be9  1  0.000000  0.500000  0.500000  1
  Be  Be10  1  0.000000  0.500000  0.000000  1
  Be  Be11  1  0.500000  0.000000  0.500000  1
  Be  Be12  1  0.500000  0.500000  0.000000  1
  Nb  Nb13  1  0.699571  0.300427  0.298551  1
  Nb  Nb14  1  0.300429  0.699573  0.701449  1
  Nb  Nb15  1  0.300432  0.699578  0.298544  1
  Nb  Nb16  1  0.699568  0.300422  0.701456  1
  Nb  Nb17  1  0.296566  0.296556  0.703440  1
  Nb  Nb18  1  0.703434  0.703444  0.296560  1
  Si  Si19  1  0.000000  0.000000  0.500000  1
  Si  Si20  1  0.000000  0.000000  0.000000  1
  Ni  Ni21  1  0.125722  0.125759  0.120936  1
  Ni  Ni22  1  0.874278  0.874241  0.879064  1
  Ni  Ni23  1  0.125742  0.125780  0.627548  1
  Ni  Ni24  1  0.124962  0.628694  0.123160  1
  Ni  Ni25  1  0.874258  0.874220  0.372452  1
  Ni  Ni26  1  0.875038  0.371306  0.876840  1
  Ni  Ni27  1  0.628718  0.124976  0.123143  1
  Ni  Ni28  1  0.371282  0.875024  0.876857  1
