# generated using pymatgen
data_Sc12Si11GeOs4
_symmetry_space_group_name_H-M   'P 1'
_cell_length_a   4.00959500
_cell_length_b   10.36061412
_cell_length_c   11.69696113
_cell_angle_alpha   89.98268077
_cell_angle_beta   90.00000000
_cell_angle_gamma   90.00000000
_symmetry_Int_Tables_number   1
_chemical_formula_structural   Sc12Si11GeOs4
_chemical_formula_sum   'Sc12 Si11 Ge1 Os4'
_cell_volume   485.91357644
_cell_formula_units_Z   1
loop_
 _symmetry_equiv_pos_site_id
 _symmetry_equiv_pos_as_xyz
  1  'x, y, z'
loop_
 _atom_site_type_symbol
 _atom_site_label
 _atom_site_symmetry_multiplicity
 _atom_site_fract_x
 _atom_site_fract_y
 _atom_site_fract_z
 _atom_site_occupancy
  Sc  Sc0  1  0.250000  0.875856  0.017879  1
  Sc  Sc1  1  0.250000  0.622148  0.518360  1
  Sc  Sc2  1  0.750000  0.124165  0.983194  1
  Sc  Sc3  1  0.750000  0.377373  0.480856  1
  Sc  Sc4  1  0.250000  0.919716  0.605087  1
  Sc  Sc5  1  0.250000  0.578529  0.106188  1
  Sc  Sc6  1  0.750000  0.078668  0.394534  1
  Sc  Sc7  1  0.750000  0.422584  0.895717  1
  Sc  Sc8  1  0.250000  0.658354  0.798270  1
  Sc  Sc9  1  0.250000  0.841785  0.297882  1
  Sc  Sc10  1  0.750000  0.342123  0.202334  1
  Sc  Sc11  1  0.750000  0.162019  0.700846  1
  Si  Si12  1  0.250000  0.484178  0.322299  1
  Si  Si13  1  0.750000  0.984106  0.177659  1
  Si  Si14  1  0.750000  0.514866  0.677416  1
  Si  Si15  1  0.250000  0.257370  0.843420  1
  Si  Si16  1  0.250000  0.248193  0.342011  1
  Si  Si17  1  0.750000  0.748159  0.157673  1
  Si  Si18  1  0.750000  0.750160  0.656373  1
  Si  Si19  1  0.250000  0.194426  0.544977  1
  Si  Si20  1  0.250000  0.306041  0.047040  1
  Si  Si21  1  0.750000  0.804872  0.453555  1
  Si  Si22  1  0.750000  0.692433  0.955136  1
  Ge  Ge23  1  0.250000  0.019726  0.822031  1
  Os  Os24  1  0.250000  0.390023  0.675388  1
  Os  Os25  1  0.250000  0.109484  0.176570  1
  Os  Os26  1  0.750000  0.609467  0.323223  1
  Os  Os27  1  0.750000  0.883177  0.824079  1
