# generated using pymatgen
data_SmLu2ZnGa7Ag3
_symmetry_space_group_name_H-M   'P 1'
_cell_length_a   4.31011596
_cell_length_b   8.32131632
_cell_length_c   8.31340648
_cell_angle_alpha   70.21553303
_cell_angle_beta   74.97580361
_cell_angle_gamma   74.99043512
_symmetry_Int_Tables_number   1
_chemical_formula_structural   SmLu2ZnGa7Ag3
_chemical_formula_sum   'Sm1 Lu2 Zn1 Ga7 Ag3'
_cell_volume   266.12292639
_cell_formula_units_Z   1
loop_
 _symmetry_equiv_pos_site_id
 _symmetry_equiv_pos_as_xyz
  1  'x, y, z'
loop_
 _atom_site_type_symbol
 _atom_site_label
 _atom_site_symmetry_multiplicity
 _atom_site_fract_x
 _atom_site_fract_y
 _atom_site_fract_z
 _atom_site_occupancy
  Sm  Sm0  1  0.999257  0.000626  0.000862  1
  Lu  Lu1  1  0.300709  0.696283  0.702300  1
  Lu  Lu2  1  0.700649  0.300483  0.298216  1
  Zn  Zn3  1  0.337544  0.296069  0.028843  1
  Ga  Ga4  1  0.661784  0.706164  0.970267  1
  Ga  Ga5  1  0.339871  0.034349  0.285909  1
  Ga  Ga6  1  0.660453  0.970329  0.708764  1
  Ga  Ga7  1  0.145403  0.571004  0.138189  1
  Ga  Ga8  1  0.856842  0.420460  0.865855  1
  Ga  Ga9  1  0.144593  0.138546  0.572268  1
  Ga  Ga10  1  0.855120  0.862666  0.427091  1
  Ag  Ag11  1  0.499726  0.304934  0.695613  1
  Ag  Ag12  1  0.499308  0.696707  0.304677  1
  Ag  Ag13  1  0.998739  0.501380  0.501142  1
