# generated using pymatgen
data_Ho8VSi16Tc11
_symmetry_space_group_name_H-M   'P 1'
_cell_length_a   6.80322822
_cell_length_b   6.79027411
_cell_length_c   12.62939911
_cell_angle_alpha   89.72137857
_cell_angle_beta   89.71402849
_cell_angle_gamma   89.92055643
_symmetry_Int_Tables_number   1
_chemical_formula_structural   Ho8VSi16Tc11
_chemical_formula_sum   'Ho8 V1 Si16 Tc11'
_cell_volume   583.41029279
_cell_formula_units_Z   1
loop_
 _symmetry_equiv_pos_site_id
 _symmetry_equiv_pos_as_xyz
  1  'x, y, z'
loop_
 _atom_site_type_symbol
 _atom_site_label
 _atom_site_symmetry_multiplicity
 _atom_site_fract_x
 _atom_site_fract_y
 _atom_site_fract_z
 _atom_site_occupancy
  Ho  Ho0  1  0.001447  0.662434  0.029894  1
  Ho  Ho1  1  0.837691  0.498681  0.279829  1
  Ho  Ho2  1  0.159528  0.498110  0.780177  1
  Ho  Ho3  1  0.500088  0.840066  0.719509  1
  Ho  Ho4  1  0.496392  0.159948  0.219381  1
  Ho  Ho5  1  0.994595  0.337889  0.531157  1
  Ho  Ho6  1  0.659550  0.004027  0.969204  1
  Ho  Ho7  1  0.337353  0.998649  0.470414  1
  V  V8  1  0.830270  0.002514  0.376772  1
  Si  Si9  1  0.274008  0.975396  0.064222  1
  Si  Si10  1  0.530041  0.782431  0.315193  1
  Si  Si11  1  0.480066  0.232527  0.812731  1
  Si  Si12  1  0.769151  0.522509  0.687489  1
  Si  Si13  1  0.220148  0.472990  0.184054  1
  Si  Si14  1  0.721534  0.029471  0.565844  1
  Si  Si15  1  0.977299  0.274812  0.936919  1
  Si  Si16  1  0.035444  0.714564  0.434240  1
  Si  Si17  1  0.692402  0.382707  0.062943  1
  Si  Si18  1  0.117714  0.195686  0.314018  1
  Si  Si19  1  0.882647  0.809775  0.811437  1
  Si  Si20  1  0.191674  0.117621  0.687429  1
  Si  Si21  1  0.805095  0.883213  0.189180  1
  Si  Si22  1  0.309066  0.615310  0.561165  1
  Si  Si23  1  0.384519  0.691323  0.937084  1
  Si  Si24  1  0.619855  0.302863  0.436025  1
  Tc  Tc25  1  0.332463  0.332144  0.998966  1
  Tc  Tc26  1  0.163964  0.834533  0.251645  1
  Tc  Tc27  1  0.830439  0.169228  0.750596  1
  Tc  Tc28  1  0.665413  0.671587  0.498237  1
  Tc  Tc29  1  0.978367  0.180194  0.128829  1
  Tc  Tc30  1  0.325259  0.486662  0.373274  1
  Tc  Tc31  1  0.687559  0.525974  0.880937  1
  Tc  Tc32  1  0.475568  0.315491  0.621046  1
  Tc  Tc33  1  0.514907  0.674735  0.124426  1
  Tc  Tc34  1  0.019678  0.825845  0.623880  1
  Tc  Tc35  1  0.178807  0.978090  0.871853  1
