# generated using pymatgen
data_Sr3Sc2RuO9
_symmetry_space_group_name_H-M   'P 1'
_cell_length_a   9.88918323
_cell_length_b   9.88918405
_cell_length_c   5.68451902
_cell_angle_alpha   73.25879428
_cell_angle_beta   73.25878873
_cell_angle_gamma   49.07236710
_symmetry_Int_Tables_number   1
_chemical_formula_structural   Sr3Sc2RuO9
_chemical_formula_sum   'Sr6 Sc4 Ru2 O18'
_cell_volume   398.40853019
_cell_formula_units_Z   2
loop_
 _symmetry_equiv_pos_site_id
 _symmetry_equiv_pos_as_xyz
  1  'x, y, z'
loop_
 _atom_site_type_symbol
 _atom_site_label
 _atom_site_symmetry_multiplicity
 _atom_site_fract_x
 _atom_site_fract_y
 _atom_site_fract_z
 _atom_site_occupancy
  Sr  Sr0  1  0.917996  0.406383  0.842215  1
  Sr  Sr1  1  0.240270  0.759730  0.500000  1
  Sr  Sr2  1  0.593617  0.082004  0.157785  1
  Sr  Sr3  1  0.759730  0.240270  0.500000  1
  Sr  Sr4  1  0.082004  0.593617  0.157785  1
  Sr  Sr5  1  0.406383  0.917996  0.842215  1
  Sc  Sc6  1  0.500000  0.500000  0.000000  1
  Sc  Sc7  1  0.833966  0.833966  0.662577  1
  Sc  Sc8  1  0.166034  0.166034  0.337423  1
  Sc  Sc9  1  0.000000  0.000000  0.000000  1
  Ru  Ru10  1  0.333114  0.333114  0.664793  1
  Ru  Ru11  1  0.666886  0.666886  0.335207  1
  O  O12  1  0.430449  0.908800  0.329913  1
  O  O13  1  0.746195  0.253805  0.000000  1
  O  O14  1  0.091200  0.569551  0.670087  1
  O  O15  1  0.908800  0.430449  0.329913  1
  O  O16  1  0.253805  0.746195  0.000000  1
  O  O17  1  0.569551  0.091200  0.670087  1
  O  O18  1  0.070927  0.070927  0.229247  1
  O  O19  1  0.397640  0.397640  0.884183  1
  O  O20  1  0.726833  0.726833  0.562680  1
  O  O21  1  0.602360  0.602360  0.115817  1
  O  O22  1  0.929073  0.929073  0.770753  1
  O  O23  1  0.273167  0.273167  0.437320  1
  O  O24  1  0.571369  0.571369  0.618569  1
  O  O25  1  0.896108  0.896108  0.304273  1
  O  O26  1  0.239858  0.239858  0.951457  1
  O  O27  1  0.103892  0.103892  0.695727  1
  O  O28  1  0.428631  0.428631  0.381431  1
  O  O29  1  0.760142  0.760142  0.048543  1
