# generated using pymatgen
data_Pr4Dy6TlBi7
_symmetry_space_group_name_H-M   'P 1'
_cell_length_a   8.42641100
_cell_length_b   8.35896100
_cell_length_c   15.68339800
_cell_angle_alpha   90.00000000
_cell_angle_beta   90.00000000
_cell_angle_gamma   90.00000000
_symmetry_Int_Tables_number   1
_chemical_formula_structural   Pr4Dy6TlBi7
_chemical_formula_sum   'Pr8 Dy12 Tl2 Bi14'
_cell_volume   1104.67646328
_cell_formula_units_Z   2
loop_
 _symmetry_equiv_pos_site_id
 _symmetry_equiv_pos_as_xyz
  1  'x, y, z'
loop_
 _atom_site_type_symbol
 _atom_site_label
 _atom_site_symmetry_multiplicity
 _atom_site_fract_x
 _atom_site_fract_y
 _atom_site_fract_z
 _atom_site_occupancy
  Pr  Pr0  1  0.521223  0.322256  0.906833  1
  Pr  Pr1  1  0.021223  0.177744  0.593167  1
  Pr  Pr2  1  0.478914  0.681220  0.403593  1
  Pr  Pr3  1  0.978914  0.818780  0.096407  1
  Pr  Pr4  1  0.478914  0.681220  0.096407  1
  Pr  Pr5  1  0.978914  0.818780  0.403593  1
  Pr  Pr6  1  0.521223  0.322256  0.593167  1
  Pr  Pr7  1  0.021223  0.177744  0.906833  1
  Dy  Dy8  1  0.352657  0.850451  0.876304  1
  Dy  Dy9  1  0.852657  0.649549  0.623696  1
  Dy  Dy10  1  0.644024  0.150218  0.374647  1
  Dy  Dy11  1  0.144024  0.349782  0.125353  1
  Dy  Dy12  1  0.644024  0.150218  0.125353  1
  Dy  Dy13  1  0.144024  0.349782  0.374647  1
  Dy  Dy14  1  0.352657  0.850451  0.623696  1
  Dy  Dy15  1  0.852657  0.649549  0.876304  1
  Dy  Dy16  1  0.187352  0.497463  0.750000  1
  Dy  Dy17  1  0.687352  0.002537  0.750000  1
  Dy  Dy18  1  0.813456  0.505809  0.250000  1
  Dy  Dy19  1  0.313456  0.994191  0.250000  1
  Tl  Tl20  1  0.665253  0.844161  0.250000  1
  Tl  Tl21  1  0.165253  0.655839  0.250000  1
  Bi  Bi22  1  0.296150  0.043359  0.045950  1
  Bi  Bi23  1  0.796150  0.456641  0.454050  1
  Bi  Bi24  1  0.704363  0.957728  0.546361  1
  Bi  Bi25  1  0.204363  0.542272  0.953639  1
  Bi  Bi26  1  0.704363  0.957728  0.953639  1
  Bi  Bi27  1  0.204363  0.542272  0.546361  1
  Bi  Bi28  1  0.296150  0.043359  0.454050  1
  Bi  Bi29  1  0.796150  0.456641  0.045950  1
  Bi  Bi30  1  0.549942  0.634201  0.750000  1
  Bi  Bi31  1  0.049942  0.865799  0.750000  1
  Bi  Bi32  1  0.448684  0.374488  0.250000  1
  Bi  Bi33  1  0.948684  0.125512  0.250000  1
  Bi  Bi34  1  0.340650  0.155142  0.750000  1
  Bi  Bi35  1  0.840650  0.344858  0.750000  1
