# generated using pymatgen
data_HfUBr9
_symmetry_space_group_name_H-M   'P 1'
_cell_length_a   12.83538300
_cell_length_b   7.49379167
_cell_length_c   10.36317078
_cell_angle_alpha   75.65985406
_cell_angle_beta   90.00000000
_cell_angle_gamma   90.00000000
_symmetry_Int_Tables_number   1
_chemical_formula_structural   HfUBr9
_chemical_formula_sum   'Hf2 U2 Br18'
_cell_volume   965.73117555
_cell_formula_units_Z   2
loop_
 _symmetry_equiv_pos_site_id
 _symmetry_equiv_pos_as_xyz
  1  'x, y, z'
loop_
 _atom_site_type_symbol
 _atom_site_label
 _atom_site_symmetry_multiplicity
 _atom_site_fract_x
 _atom_site_fract_y
 _atom_site_fract_z
 _atom_site_occupancy
  Hf  Hf0  1  0.250000  0.757651  0.468477  1
  Hf  Hf1  1  0.750000  0.242349  0.531523  1
  U  U2  1  0.250000  0.647247  0.848409  1
  U  U3  1  0.750000  0.352753  0.151591  1
  Br  Br4  1  0.609780  0.439092  0.331592  1
  Br  Br5  1  0.109780  0.560908  0.668408  1
  Br  Br6  1  0.390220  0.560908  0.668408  1
  Br  Br7  1  0.890220  0.439092  0.331592  1
  Br  Br8  1  0.750000  0.693052  0.003340  1
  Br  Br9  1  0.250000  0.306948  0.996660  1
  Br  Br10  1  0.750000  0.509608  0.632583  1
  Br  Br11  1  0.250000  0.490392  0.367417  1
  Br  Br12  1  0.750000  0.019788  0.344076  1
  Br  Br13  1  0.250000  0.980212  0.655924  1
  Br  Br14  1  0.900096  0.244357  0.015547  1
  Br  Br15  1  0.400096  0.755643  0.984453  1
  Br  Br16  1  0.099904  0.755643  0.984453  1
  Br  Br17  1  0.599904  0.244357  0.015547  1
  Br  Br18  1  0.899279  0.061939  0.647486  1
  Br  Br19  1  0.399279  0.938061  0.352514  1
  Br  Br20  1  0.100721  0.938061  0.352514  1
  Br  Br21  1  0.600721  0.061939  0.647486  1
