# generated using pymatgen
data_TbDyLu4(Sb4Au3)2
_symmetry_space_group_name_H-M   'P 1'
_cell_length_a   8.56081225
_cell_length_b   8.56056922
_cell_length_c   8.56162606
_cell_angle_alpha   109.32268468
_cell_angle_beta   109.53173663
_cell_angle_gamma   109.56250074
_symmetry_Int_Tables_number   1
_chemical_formula_structural   TbDyLu4(Sb4Au3)2
_chemical_formula_sum   'Tb1 Dy1 Lu4 Sb8 Au6'
_cell_volume   482.98408144
_cell_formula_units_Z   1
loop_
 _symmetry_equiv_pos_site_id
 _symmetry_equiv_pos_as_xyz
  1  'x, y, z'
loop_
 _atom_site_type_symbol
 _atom_site_label
 _atom_site_symmetry_multiplicity
 _atom_site_fract_x
 _atom_site_fract_y
 _atom_site_fract_z
 _atom_site_occupancy
  Tb  Tb0  1  0.125362  0.875170  0.250059  1
  Dy  Dy1  1  0.874505  0.249783  0.124619  1
  Lu  Lu2  1  0.625153  0.749908  0.375344  1
  Lu  Lu3  1  0.750083  0.375147  0.624821  1
  Lu  Lu4  1  0.249962  0.125194  0.874886  1
  Lu  Lu5  1  0.374884  0.624807  0.750152  1
  Sb  Sb6  1  0.180067  0.499461  0.000108  1
  Sb  Sb7  1  0.320822  0.320425  0.321680  1
  Sb  Sb8  1  0.999910  0.179121  0.498599  1
  Sb  Sb9  1  0.819954  0.819464  0.819968  1
  Sb  Sb10  1  0.500760  0.001852  0.680467  1
  Sb  Sb11  1  0.999978  0.679032  0.498603  1
  Sb  Sb12  1  0.499352  0.001141  0.179636  1
  Sb  Sb13  1  0.679186  0.499593  0.000920  1
  Au  Au14  1  0.377344  0.254760  0.629280  1
  Au  Au15  1  0.874562  0.122795  0.745689  1
  Au  Au16  1  0.256410  0.626546  0.379676  1
  Au  Au17  1  0.743314  0.870526  0.123034  1
  Au  Au18  1  0.125487  0.748048  0.870691  1
  Au  Au19  1  0.622907  0.377226  0.251768  1
