# generated using pymatgen
data_LiTa5MnH16
_symmetry_space_group_name_H-M   'P 1'
_cell_length_a   6.31716953
_cell_length_b   6.12496166
_cell_length_c   6.31716800
_cell_angle_alpha   61.00147957
_cell_angle_beta   57.95517526
_cell_angle_gamma   61.00148794
_symmetry_Int_Tables_number   1
_chemical_formula_structural   LiTa5MnH16
_chemical_formula_sum   'Li1 Ta5 Mn1 H16'
_cell_volume   172.46169329
_cell_formula_units_Z   1
loop_
 _symmetry_equiv_pos_site_id
 _symmetry_equiv_pos_as_xyz
  1  'x, y, z'
loop_
 _atom_site_type_symbol
 _atom_site_label
 _atom_site_symmetry_multiplicity
 _atom_site_fract_x
 _atom_site_fract_y
 _atom_site_fract_z
 _atom_site_occupancy
  Li  Li0  1  0.500000  0.000000  0.500000  1
  Ta  Ta1  1  0.000000  0.000000  0.500000  1
  Ta  Ta2  1  0.000000  0.500000  0.500000  1
  Ta  Ta3  1  0.500000  0.500000  0.000000  1
  Ta  Ta4  1  0.000000  0.500000  0.000000  1
  Ta  Ta5  1  0.500000  0.000000  0.000000  1
  Mn  Mn6  1  0.000000  0.000000  0.000000  1
  H  H7  1  0.871236  0.880070  0.368623  1
  H  H8  1  0.883029  0.355333  0.883029  1
  H  H9  1  0.368623  0.880070  0.871236  1
  H  H10  1  0.883029  0.878608  0.883029  1
  H  H11  1  0.128764  0.119930  0.631377  1
  H  H12  1  0.116971  0.644667  0.116971  1
  H  H13  1  0.631377  0.119930  0.128764  1
  H  H14  1  0.116971  0.121392  0.116971  1
  H  H15  1  0.615169  0.614992  0.154848  1
  H  H16  1  0.624470  0.129398  0.624470  1
  H  H17  1  0.154848  0.614992  0.615169  1
  H  H18  1  0.624470  0.621661  0.624470  1
  H  H19  1  0.384831  0.385008  0.845152  1
  H  H20  1  0.375530  0.870602  0.375530  1
  H  H21  1  0.845152  0.385008  0.384831  1
  H  H22  1  0.375530  0.378339  0.375530  1
