# generated using pymatgen
data_HoErMg(P3Pd10)2
_symmetry_space_group_name_H-M   'P 1'
_cell_length_a   8.63530655
_cell_length_b   8.63530611
_cell_length_c   8.63530700
_cell_angle_alpha   60.00000041
_cell_angle_beta   60.00000211
_cell_angle_gamma   60.00000192
_symmetry_Int_Tables_number   1
_chemical_formula_structural   HoErMg(P3Pd10)2
_chemical_formula_sum   'Ho1 Er1 Mg1 P6 Pd20'
_cell_volume   455.32164429
_cell_formula_units_Z   1
loop_
 _symmetry_equiv_pos_site_id
 _symmetry_equiv_pos_as_xyz
  1  'x, y, z'
loop_
 _atom_site_type_symbol
 _atom_site_label
 _atom_site_symmetry_multiplicity
 _atom_site_fract_x
 _atom_site_fract_y
 _atom_site_fract_z
 _atom_site_occupancy
  Ho  Ho0  1  0.750000  0.750000  0.750000  1
  Er  Er1  1  0.250000  0.250000  0.250000  1
  Mg  Mg2  1  0.000000  0.000000  0.000000  1
  P  P3  1  0.736998  0.263002  0.263002  1
  P  P4  1  0.263002  0.736998  0.736998  1
  P  P5  1  0.263002  0.736998  0.263002  1
  P  P6  1  0.736998  0.263002  0.736998  1
  P  P7  1  0.263002  0.263002  0.736998  1
  P  P8  1  0.736998  0.736998  0.263002  1
  Pd  Pd9  1  0.384285  0.384285  0.384285  1
  Pd  Pd10  1  0.615620  0.615620  0.615620  1
  Pd  Pd11  1  0.384285  0.384285  0.847145  1
  Pd  Pd12  1  0.384285  0.847145  0.384285  1
  Pd  Pd13  1  0.615620  0.615620  0.153139  1
  Pd  Pd14  1  0.615620  0.153139  0.615620  1
  Pd  Pd15  1  0.847145  0.384285  0.384285  1
  Pd  Pd16  1  0.153139  0.615620  0.615620  1
  Pd  Pd17  1  0.344098  0.000029  0.000029  1
  Pd  Pd18  1  0.655843  0.000029  0.000029  1
  Pd  Pd19  1  0.000029  0.344098  0.655843  1
  Pd  Pd20  1  0.000029  0.655843  0.344098  1
  Pd  Pd21  1  0.000029  0.344098  0.000029  1
  Pd  Pd22  1  0.655843  0.000029  0.344098  1
  Pd  Pd23  1  0.000029  0.655843  0.000029  1
  Pd  Pd24  1  0.344098  0.000029  0.655843  1
  Pd  Pd25  1  0.000029  0.000029  0.344098  1
  Pd  Pd26  1  0.000029  0.000029  0.655843  1
  Pd  Pd27  1  0.655843  0.344098  0.000029  1
  Pd  Pd28  1  0.344098  0.655843  0.000029  1
