# generated using pymatgen
data_Rb2Tm(TeO4)3
_symmetry_space_group_name_H-M   'P 1'
_cell_length_a   7.55133073
_cell_length_b   7.41431612
_cell_length_c   7.55293766
_cell_angle_alpha   90.00917251
_cell_angle_beta   58.77531081
_cell_angle_gamma   119.36848478
_symmetry_Int_Tables_number   1
_chemical_formula_structural   Rb2Tm(TeO4)3
_chemical_formula_sum   'Rb2 Tm1 Te3 O12'
_cell_volume   296.26244506
_cell_formula_units_Z   1
loop_
 _symmetry_equiv_pos_site_id
 _symmetry_equiv_pos_as_xyz
  1  'x, y, z'
loop_
 _atom_site_type_symbol
 _atom_site_label
 _atom_site_symmetry_multiplicity
 _atom_site_fract_x
 _atom_site_fract_y
 _atom_site_fract_z
 _atom_site_occupancy
  Rb  Rb0  1  0.257559  0.126104  0.628822  1
  Rb  Rb1  1  0.742427  0.868490  0.371177  1
  Tm  Tm2  1  0.000049  0.497226  0.999966  1
  Te  Te3  1  0.500059  0.497372  0.000060  1
  Te  Te4  1  0.499951  0.997341  0.999931  1
  Te  Te5  1  0.999959  0.497305  0.500009  1
  O  O6  1  0.633621  0.814093  0.920432  1
  O  O7  1  0.851682  0.423225  0.349756  1
  O  O8  1  0.275758  0.423318  0.925935  1
  O  O9  1  0.237179  0.814187  0.316909  1
  O  O10  1  0.275493  0.847050  0.925792  1
  O  O11  1  0.237289  0.417844  0.316741  1
  O  O12  1  0.366419  0.180605  0.079548  1
  O  O13  1  0.148259  0.571448  0.650265  1
  O  O14  1  0.724376  0.571436  0.074159  1
  O  O15  1  0.762866  0.180532  0.683142  1
  O  O16  1  0.724390  0.147612  0.074099  1
  O  O17  1  0.762665  0.576816  0.683259  1
