# generated using pymatgen
data_Ho2Lu4ReBi2
_symmetry_space_group_name_H-M   'P 1'
_cell_length_a   8.13373800
_cell_length_b   8.14652151
_cell_length_c   4.31095400
_cell_angle_alpha   90.00000000
_cell_angle_beta   90.00000000
_cell_angle_gamma   119.94810490
_symmetry_Int_Tables_number   1
_chemical_formula_structural   Ho2Lu4ReBi2
_chemical_formula_sum   'Ho2 Lu4 Re1 Bi2'
_cell_volume   247.51029956
_cell_formula_units_Z   1
loop_
 _symmetry_equiv_pos_site_id
 _symmetry_equiv_pos_as_xyz
  1  'x, y, z'
loop_
 _atom_site_type_symbol
 _atom_site_label
 _atom_site_symmetry_multiplicity
 _atom_site_fract_x
 _atom_site_fract_y
 _atom_site_fract_z
 _atom_site_occupancy
  Ho  Ho0  1  0.000380  0.614861  0.000000  1
  Ho  Ho1  1  0.385520  0.385139  0.000000  1
  Lu  Lu2  1  0.229487  0.000000  0.500000  1
  Lu  Lu3  1  0.999365  0.230434  0.500000  1
  Lu  Lu4  1  0.768931  0.769566  0.500000  1
  Lu  Lu5  1  0.618267  0.000000  0.000000  1
  Re  Re6  1  0.997664  0.000000  0.000000  1
  Bi  Bi7  1  0.334112  0.667838  0.500000  1
  Bi  Bi8  1  0.666275  0.332162  0.500000  1
