# generated using pymatgen
data_Dy(PaRh2)5
_symmetry_space_group_name_H-M   'P 1'
_cell_length_a   5.83886517
_cell_length_b   5.83886512
_cell_length_c   9.20385007
_cell_angle_alpha   89.99072101
_cell_angle_beta   89.99072069
_cell_angle_gamma   105.20973183
_symmetry_Int_Tables_number   1
_chemical_formula_structural   Dy(PaRh2)5
_chemical_formula_sum   'Dy1 Pa5 Rh10'
_cell_volume   302.78969971
_cell_formula_units_Z   1
loop_
 _symmetry_equiv_pos_site_id
 _symmetry_equiv_pos_as_xyz
  1  'x, y, z'
loop_
 _atom_site_type_symbol
 _atom_site_label
 _atom_site_symmetry_multiplicity
 _atom_site_fract_x
 _atom_site_fract_y
 _atom_site_fract_z
 _atom_site_occupancy
  Dy  Dy0  1  0.793612  0.206388  0.500000  1
  Pa  Pa1  1  0.616861  0.613154  0.747255  1
  Pa  Pa2  1  0.386846  0.383139  0.252745  1
  Pa  Pa3  1  0.204113  0.795887  0.000000  1
  Pa  Pa4  1  0.194723  0.805277  0.500000  1
  Pa  Pa5  1  0.801353  0.198647  0.000000  1
  Rh  Rh6  1  0.689246  0.689089  0.047443  1
  Rh  Rh7  1  0.685422  0.688399  0.447807  1
  Rh  Rh8  1  0.310911  0.310754  0.952557  1
  Rh  Rh9  1  0.311601  0.314578  0.552193  1
  Rh  Rh10  1  0.499674  0.031095  0.755695  1
  Rh  Rh11  1  0.490100  0.956763  0.246730  1
  Rh  Rh12  1  0.991877  0.988482  0.247937  1
  Rh  Rh13  1  0.011518  0.008123  0.752063  1
  Rh  Rh14  1  0.043237  0.509900  0.753270  1
  Rh  Rh15  1  0.968905  0.500326  0.244305  1
