# generated using pymatgen
data_Y7(ErGa4)5
_symmetry_space_group_name_H-M   'P 1'
_cell_length_a   6.09108550
_cell_length_b   9.63200045
_cell_length_c   11.53284190
_cell_angle_alpha   90.02416763
_cell_angle_beta   89.96165649
_cell_angle_gamma   89.97418817
_symmetry_Int_Tables_number   1
_chemical_formula_structural   Y7(ErGa4)5
_chemical_formula_sum   'Y7 Er5 Ga20'
_cell_volume   676.62392254
_cell_formula_units_Z   1
loop_
 _symmetry_equiv_pos_site_id
 _symmetry_equiv_pos_as_xyz
  1  'x, y, z'
loop_
 _atom_site_type_symbol
 _atom_site_label
 _atom_site_symmetry_multiplicity
 _atom_site_fract_x
 _atom_site_fract_y
 _atom_site_fract_z
 _atom_site_occupancy
  Y  Y0  1  0.890771  0.509548  0.351164  1
  Y  Y1  1  0.609300  0.990342  0.851182  1
  Y  Y2  1  0.109115  0.009581  0.648958  1
  Y  Y3  1  0.390973  0.490417  0.148317  1
  Y  Y4  1  0.109011  0.490452  0.649049  1
  Y  Y5  1  0.390923  0.009617  0.148622  1
  Y  Y6  1  0.890832  0.990527  0.351234  1
  Er  Er7  1  0.848832  0.749844  0.075023  1
  Er  Er8  1  0.651053  0.749925  0.575405  1
  Er  Er9  1  0.151643  0.249970  0.924688  1
  Er  Er10  1  0.348940  0.250095  0.424847  1
  Er  Er11  1  0.608850  0.509733  0.851186  1
  Ga  Ga12  1  0.875539  0.053604  0.089818  1
  Ga  Ga13  1  0.624148  0.446667  0.590755  1
  Ga  Ga14  1  0.125175  0.553220  0.909912  1
  Ga  Ga15  1  0.375717  0.946431  0.410185  1
  Ga  Ga16  1  0.124343  0.946305  0.910070  1
  Ga  Ga17  1  0.375797  0.553617  0.410164  1
  Ga  Ga18  1  0.875588  0.446575  0.089410  1
  Ga  Ga19  1  0.624209  0.053559  0.589862  1
  Ga  Ga20  1  0.171580  0.749987  0.251560  1
  Ga  Ga21  1  0.328761  0.749301  0.752119  1
  Ga  Ga22  1  0.827610  0.250872  0.749080  1
  Ga  Ga23  1  0.671851  0.250016  0.248237  1
  Ga  Ga24  1  0.374274  0.749686  0.003870  1
  Ga  Ga25  1  0.126582  0.749982  0.504321  1
  Ga  Ga26  1  0.626558  0.250909  0.994766  1
  Ga  Ga27  1  0.873213  0.250124  0.495775  1
  Ga  Ga28  1  0.600944  0.749999  0.299234  1
  Ga  Ga29  1  0.897586  0.748869  0.799550  1
  Ga  Ga30  1  0.399217  0.250195  0.700897  1
  Ga  Ga31  1  0.101065  0.250032  0.200738  1
