# generated using pymatgen
data_Nd3HoSn10(PdRh2)2
_symmetry_space_group_name_H-M   'P 1'
_cell_length_a   13.59718609
_cell_length_b   13.59718612
_cell_length_c   7.40904825
_cell_angle_alpha   90.17875887
_cell_angle_beta   89.82124154
_cell_angle_gamma   161.04223631
_symmetry_Int_Tables_number   1
_chemical_formula_structural   Nd3HoSn10(PdRh2)2
_chemical_formula_sum   'Nd3 Ho1 Sn10 Pd2 Rh4'
_cell_volume   445.00958595
_cell_formula_units_Z   1
loop_
 _symmetry_equiv_pos_site_id
 _symmetry_equiv_pos_as_xyz
  1  'x, y, z'
loop_
 _atom_site_type_symbol
 _atom_site_label
 _atom_site_symmetry_multiplicity
 _atom_site_fract_x
 _atom_site_fract_y
 _atom_site_fract_z
 _atom_site_occupancy
  Nd  Nd0  1  0.174374  0.825626  0.747478  1
  Nd  Nd1  1  0.825552  0.174448  0.248596  1
  Nd  Nd2  1  0.476114  0.523886  0.762457  1
  Ho  Ho3  1  0.525097  0.474903  0.262391  1
  Sn  Sn4  1  0.878852  0.121148  0.773962  1
  Sn  Sn5  1  0.120828  0.879172  0.273521  1
  Sn  Sn6  1  0.704024  0.295976  0.449034  1
  Sn  Sn7  1  0.295509  0.704491  0.949622  1
  Sn  Sn8  1  0.597283  0.402717  0.881473  1
  Sn  Sn9  1  0.403130  0.596870  0.381461  1
  Sn  Sn10  1  0.951522  0.048478  0.100785  1
  Sn  Sn11  1  0.049137  0.950863  0.598227  1
  Sn  Sn12  1  0.289424  0.710576  0.525543  1
  Sn  Sn13  1  0.710322  0.289678  0.025500  1
  Pd  Pd14  1  0.050416  0.949584  0.988258  1
  Pd  Pd15  1  0.950360  0.049640  0.478339  1
  Rh  Rh16  1  0.776974  0.223026  0.733610  1
  Rh  Rh17  1  0.222404  0.777596  0.233185  1
  Rh  Rh18  1  0.394010  0.605990  0.017666  1
  Rh  Rh19  1  0.604669  0.395331  0.512886  1
