# generated using pymatgen
data_ErTh3(Ni2Hg)2
_symmetry_space_group_name_H-M   'P 1'
_cell_length_a   7.56326516
_cell_length_b   7.56326618
_cell_length_c   3.67913600
_cell_angle_alpha   90.00000000
_cell_angle_beta   90.00000000
_cell_angle_gamma   91.24797041
_symmetry_Int_Tables_number   1
_chemical_formula_structural   ErTh3(Ni2Hg)2
_chemical_formula_sum   'Er1 Th3 Ni4 Hg2'
_cell_volume   210.40765022
_cell_formula_units_Z   1
loop_
 _symmetry_equiv_pos_site_id
 _symmetry_equiv_pos_as_xyz
  1  'x, y, z'
loop_
 _atom_site_type_symbol
 _atom_site_label
 _atom_site_symmetry_multiplicity
 _atom_site_fract_x
 _atom_site_fract_y
 _atom_site_fract_z
 _atom_site_occupancy
  Er  Er0  1  0.826862  0.673138  0.500000  1
  Th  Th1  1  0.675481  0.173598  0.500000  1
  Th  Th2  1  0.326402  0.824519  0.500000  1
  Th  Th3  1  0.171589  0.328411  0.500000  1
  Ni  Ni4  1  0.879852  0.376069  0.000000  1
  Ni  Ni5  1  0.123931  0.620148  0.000000  1
  Ni  Ni6  1  0.375636  0.124364  0.000000  1
  Ni  Ni7  1  0.616197  0.883803  0.000000  1
  Hg  Hg8  1  0.510687  0.506636  0.000000  1
  Hg  Hg9  1  0.993364  0.989313  0.000000  1
