# generated using pymatgen
data_Ho2Si2NiRu
_symmetry_space_group_name_H-M   'P 1'
_cell_length_a   4.23183200
_cell_length_b   6.90276023
_cell_length_c   7.16491209
_cell_angle_alpha   91.41312504
_cell_angle_beta   90.00000000
_cell_angle_gamma   90.00000000
_symmetry_Int_Tables_number   1
_chemical_formula_structural   Ho2Si2NiRu
_chemical_formula_sum   'Ho4 Si4 Ni2 Ru2'
_cell_volume   209.23289744
_cell_formula_units_Z   2
loop_
 _symmetry_equiv_pos_site_id
 _symmetry_equiv_pos_as_xyz
  1  'x, y, z'
loop_
 _atom_site_type_symbol
 _atom_site_label
 _atom_site_symmetry_multiplicity
 _atom_site_fract_x
 _atom_site_fract_y
 _atom_site_fract_z
 _atom_site_occupancy
  Ho  Ho0  1  0.250000  0.990700  0.799529  1
  Ho  Ho1  1  0.750000  0.009300  0.200471  1
  Ho  Ho2  1  0.250000  0.488912  0.683290  1
  Ho  Ho3  1  0.750000  0.511088  0.316710  1
  Si  Si4  1  0.250000  0.299924  0.098768  1
  Si  Si5  1  0.750000  0.700076  0.901232  1
  Si  Si6  1  0.250000  0.804098  0.398230  1
  Si  Si7  1  0.750000  0.195902  0.601770  1
  Ni  Ni8  1  0.750000  0.836406  0.575172  1
  Ni  Ni9  1  0.250000  0.163594  0.424828  1
  Ru  Ru10  1  0.750000  0.344110  0.930613  1
  Ru  Ru11  1  0.250000  0.655890  0.069387  1
