# generated using pymatgen
data_RbEu(CO3)2
_symmetry_space_group_name_H-M   'P 1'
_cell_length_a   6.64302482
_cell_length_b   6.64302493
_cell_length_c   7.34697225
_cell_angle_alpha   75.72324667
_cell_angle_beta   75.72324928
_cell_angle_gamma   95.60645045
_symmetry_Int_Tables_number   1
_chemical_formula_structural   RbEu(CO3)2
_chemical_formula_sum   'Rb2 Eu2 C4 O12'
_cell_volume   300.13487279
_cell_formula_units_Z   2
loop_
 _symmetry_equiv_pos_site_id
 _symmetry_equiv_pos_as_xyz
  1  'x, y, z'
loop_
 _atom_site_type_symbol
 _atom_site_label
 _atom_site_symmetry_multiplicity
 _atom_site_fract_x
 _atom_site_fract_y
 _atom_site_fract_z
 _atom_site_occupancy
  Rb  Rb0  1  0.619717  0.380283  0.750000  1
  Rb  Rb1  1  0.380283  0.619717  0.250000  1
  Eu  Eu2  1  0.100478  0.899522  0.750000  1
  Eu  Eu3  1  0.899522  0.100478  0.250000  1
  C  C4  1  0.649985  0.892359  0.750852  1
  C  C5  1  0.350015  0.107641  0.249148  1
  C  C6  1  0.107641  0.350015  0.749148  1
  C  C7  1  0.892359  0.649985  0.250852  1
  O  O8  1  0.453008  0.895726  0.771966  1
  O  O9  1  0.546992  0.104274  0.228034  1
  O  O10  1  0.104274  0.546992  0.728034  1
  O  O11  1  0.895726  0.453008  0.271966  1
  O  O12  1  0.715545  0.758597  0.874354  1
  O  O13  1  0.284455  0.241403  0.125646  1
  O  O14  1  0.241403  0.284455  0.625646  1
  O  O15  1  0.758597  0.715545  0.374354  1
  O  O16  1  0.794033  0.028473  0.606035  1
  O  O17  1  0.205967  0.971527  0.393965  1
  O  O18  1  0.971527  0.205967  0.893965  1
  O  O19  1  0.028473  0.794033  0.106035  1
