# generated using pymatgen
data_Dy3YMgP12Ru19
_symmetry_space_group_name_H-M   'P 1'
_cell_length_a   12.48660641
_cell_length_b   12.51530321
_cell_length_c   3.99220500
_cell_angle_alpha   90.00000000
_cell_angle_beta   90.00000000
_cell_angle_gamma   120.07753996
_symmetry_Int_Tables_number   1
_chemical_formula_structural   Dy3YMgP12Ru19
_chemical_formula_sum   'Dy3 Y1 Mg1 P12 Ru19'
_cell_volume   539.87025535
_cell_formula_units_Z   1
loop_
 _symmetry_equiv_pos_site_id
 _symmetry_equiv_pos_as_xyz
  1  'x, y, z'
loop_
 _atom_site_type_symbol
 _atom_site_label
 _atom_site_symmetry_multiplicity
 _atom_site_fract_x
 _atom_site_fract_y
 _atom_site_fract_z
 _atom_site_occupancy
  Dy  Dy0  1  0.816509  0.815977  0.500000  1
  Dy  Dy1  1  0.672934  0.332770  0.000000  1
  Dy  Dy2  1  0.327058  0.659840  0.000000  1
  Y  Y3  1  0.183496  0.999478  0.500000  1
  Mg  Mg4  1  0.999994  0.189962  0.500000  1
  P  P5  1  0.999899  0.827059  0.000000  1
  P  P6  1  0.194124  0.181361  0.000000  1
  P  P7  1  0.805879  0.987138  0.000000  1
  P  P8  1  0.698583  0.169602  0.500000  1
  P  P9  1  0.830590  0.524762  0.500000  1
  P  P10  1  0.481059  0.306624  0.500000  1
  P  P11  1  0.169421  0.694168  0.500000  1
  P  P12  1  0.518935  0.825560  0.500000  1
  P  P13  1  0.301409  0.471005  0.500000  1
  P  P14  1  0.000003  0.381026  0.000000  1
  P  P15  1  0.625351  0.626030  0.000000  1
  P  P16  1  0.374738  0.000668  0.000000  1
  Ru  Ru17  1  0.000003  0.560452  0.000000  1
  Ru  Ru18  1  0.439797  0.445954  0.000000  1
  Ru  Ru19  1  0.560198  0.006152  0.000000  1
  Ru  Ru20  1  0.999941  0.721727  0.500000  1
  Ru  Ru21  1  0.283444  0.279667  0.500000  1
  Ru  Ru22  1  0.716595  0.996173  0.500000  1
  Ru  Ru23  1  0.825277  0.182684  0.000000  1
  Ru  Ru24  1  0.815429  0.627499  0.000000  1
  Ru  Ru25  1  0.384686  0.194995  0.000000  1
  Ru  Ru26  1  0.184576  0.811938  0.000000  1
  Ru  Ru27  1  0.615421  0.810332  0.000000  1
  Ru  Ru28  1  0.174712  0.357395  0.000000  1
  Ru  Ru29  1  0.874061  0.364831  0.500000  1
  Ru  Ru30  1  0.633662  0.508457  0.500000  1
  Ru  Ru31  1  0.496606  0.126895  0.500000  1
  Ru  Ru32  1  0.366366  0.874779  0.500000  1
  Ru  Ru33  1  0.503440  0.630326  0.500000  1
  Ru  Ru34  1  0.125941  0.490776  0.500000  1
  Ru  Ru35  1  0.999863  0.015932  0.000000  1
