# generated using pymatgen
data_Mn5CuCl18
_symmetry_space_group_name_H-M   'P 1'
_cell_length_a   6.27678749
_cell_length_b   6.04032867
_cell_length_c   19.86965695
_cell_angle_alpha   88.14754176
_cell_angle_beta   90.45564964
_cell_angle_gamma   119.45575098
_symmetry_Int_Tables_number   1
_chemical_formula_structural   Mn5CuCl18
_chemical_formula_sum   'Mn5 Cu1 Cl18'
_cell_volume   655.58590620
_cell_formula_units_Z   1
loop_
 _symmetry_equiv_pos_site_id
 _symmetry_equiv_pos_as_xyz
  1  'x, y, z'
loop_
 _atom_site_type_symbol
 _atom_site_label
 _atom_site_symmetry_multiplicity
 _atom_site_fract_x
 _atom_site_fract_y
 _atom_site_fract_z
 _atom_site_occupancy
  Mn  Mn0  1  0.877588  0.431863  0.000183  1
  Mn  Mn1  1  0.554014  0.112140  0.333685  1
  Mn  Mn2  1  0.893788  0.781340  0.332715  1
  Mn  Mn3  1  0.893584  0.114337  0.667130  1
  Mn  Mn4  1  0.554128  0.440762  0.666564  1
  Cu  Cu5  1  0.209485  0.098038  0.999655  1
  Cl  Cl6  1  0.558975  0.414204  0.060205  1
  Cl  Cl7  1  0.169457  0.760194  0.065547  1
  Cl  Cl8  1  0.887686  0.150225  0.073511  1
  Cl  Cl9  1  0.892757  0.083407  0.262955  1
  Cl  Cl10  1  0.270299  0.828624  0.263847  1
  Cl  Cl11  1  0.607229  0.458895  0.264971  1
  Cl  Cl12  1  0.840450  0.434581  0.401485  1
  Cl  Cl13  1  0.554344  0.809885  0.403543  1
  Cl  Cl14  1  0.176992  0.065020  0.402474  1
  Cl  Cl15  1  0.178613  0.115422  0.597454  1
  Cl  Cl16  1  0.560466  0.746595  0.596402  1
  Cl  Cl17  1  0.844873  0.410602  0.598866  1
  Cl  Cl18  1  0.603028  0.144799  0.734669  1
  Cl  Cl19  1  0.268759  0.439485  0.736392  1
  Cl  Cl20  1  0.886723  0.808296  0.737341  1
  Cl  Cl21  1  0.925215  0.773257  0.931935  1
  Cl  Cl22  1  0.185779  0.417961  0.938905  1
  Cl  Cl23  1  0.605774  0.160069  0.929571  1
