# generated using pymatgen
data_Sm8TaPdPt23
_symmetry_space_group_name_H-M   'P 1'
_cell_length_a   8.50284700
_cell_length_b   8.50284700
_cell_length_c   8.51211200
_cell_angle_alpha   90.00000000
_cell_angle_beta   90.00000000
_cell_angle_gamma   90.00000000
_symmetry_Int_Tables_number   1
_chemical_formula_structural   Sm8TaPdPt23
_chemical_formula_sum   'Sm8 Ta1 Pd1 Pt23'
_cell_volume   615.41213870
_cell_formula_units_Z   1
loop_
 _symmetry_equiv_pos_site_id
 _symmetry_equiv_pos_as_xyz
  1  'x, y, z'
loop_
 _atom_site_type_symbol
 _atom_site_label
 _atom_site_symmetry_multiplicity
 _atom_site_fract_x
 _atom_site_fract_y
 _atom_site_fract_z
 _atom_site_occupancy
  Sm  Sm0  1  0.250848  0.250848  0.251123  1
  Sm  Sm1  1  0.748910  0.748910  0.748933  1
  Sm  Sm2  1  0.749152  0.749152  0.251123  1
  Sm  Sm3  1  0.748910  0.251090  0.748933  1
  Sm  Sm4  1  0.251090  0.251090  0.748933  1
  Sm  Sm5  1  0.250848  0.749152  0.251123  1
  Sm  Sm6  1  0.251090  0.748910  0.748933  1
  Sm  Sm7  1  0.749152  0.250848  0.251123  1
  Ta  Ta8  1  0.000000  0.000000  0.000183  1
  Pd  Pd9  1  0.500000  0.500000  0.744152  1
  Pt  Pt10  1  0.266360  0.500000  0.000381  1
  Pt  Pt11  1  0.733640  0.500000  0.000381  1
  Pt  Pt12  1  0.000000  0.266312  0.500036  1
  Pt  Pt13  1  0.500000  0.266360  0.000381  1
  Pt  Pt14  1  0.000000  0.733688  0.500036  1
  Pt  Pt15  1  0.500000  0.733640  0.000381  1
  Pt  Pt16  1  0.500000  0.000000  0.265860  1
  Pt  Pt17  1  0.266312  0.000000  0.500036  1
  Pt  Pt18  1  0.500000  0.000000  0.733687  1
  Pt  Pt19  1  0.733688  0.000000  0.500036  1
  Pt  Pt20  1  0.000000  0.500000  0.265860  1
  Pt  Pt21  1  0.000000  0.500000  0.733687  1
  Pt  Pt22  1  0.255774  0.500000  0.499699  1
  Pt  Pt23  1  0.744226  0.500000  0.499699  1
  Pt  Pt24  1  0.500000  0.255774  0.499699  1
  Pt  Pt25  1  0.500000  0.744226  0.499699  1
  Pt  Pt26  1  0.500000  0.500000  0.255696  1
  Pt  Pt27  1  0.307623  0.000000  0.999864  1
  Pt  Pt28  1  0.692377  0.000000  0.999864  1
  Pt  Pt29  1  0.000000  0.307623  0.999864  1
  Pt  Pt30  1  0.000000  0.692377  0.999864  1
  Pt  Pt31  1  0.000000  0.000000  0.307413  1
  Pt  Pt32  1  0.000000  0.000000  0.693312  1
