# generated using pymatgen
data_VAg4Te3O14
_symmetry_space_group_name_H-M   'P 1'
_cell_length_a   7.29562607
_cell_length_b   7.29562617
_cell_length_c   7.36466144
_cell_angle_alpha   120.86830059
_cell_angle_beta   116.16189084
_cell_angle_gamma   92.12028839
_symmetry_Int_Tables_number   1
_chemical_formula_structural   VAg4Te3O14
_chemical_formula_sum   'V1 Ag4 Te3 O14'
_cell_volume   283.82391415
_cell_formula_units_Z   1
loop_
 _symmetry_equiv_pos_site_id
 _symmetry_equiv_pos_as_xyz
  1  'x, y, z'
loop_
 _atom_site_type_symbol
 _atom_site_label
 _atom_site_symmetry_multiplicity
 _atom_site_fract_x
 _atom_site_fract_y
 _atom_site_fract_z
 _atom_site_occupancy
  V  V0  1  0.500000  0.000000  0.000000  1
  Ag  Ag1  1  0.000000  0.500000  0.500000  1
  Ag  Ag2  1  0.500000  0.000000  0.500000  1
  Ag  Ag3  1  0.000000  0.500000  0.000000  1
  Ag  Ag4  1  0.000000  0.000000  0.500000  1
  Te  Te5  1  0.500000  0.500000  0.000000  1
  Te  Te6  1  0.000000  0.000000  0.000000  1
  Te  Te7  1  0.500000  0.500000  0.500000  1
  O  O8  1  0.540616  0.403681  0.714856  1
  O  O9  1  0.463810  0.184696  0.885710  1
  O  O10  1  0.798986  0.078100  0.114290  1
  O  O11  1  0.188825  0.325760  0.285144  1
  O  O12  1  0.459384  0.596319  0.285144  1
  O  O13  1  0.536190  0.815304  0.114290  1
  O  O14  1  0.201014  0.921900  0.885710  1
  O  O15  1  0.811175  0.674240  0.714856  1
  O  O16  1  0.580519  0.246639  0.327158  1
  O  O17  1  0.419481  0.753361  0.672842  1
  O  O18  1  0.186045  0.405097  0.786350  1
  O  O19  1  0.813955  0.594903  0.213650  1
  O  O20  1  0.881253  0.100305  0.786350  1
  O  O21  1  0.118747  0.899695  0.213650  1
