# generated using pymatgen
data_Zr4NiPt
_symmetry_space_group_name_H-M   'P 1'
_cell_length_a   5.40164913
_cell_length_b   5.40164935
_cell_length_c   5.40164795
_cell_angle_alpha   103.98422583
_cell_angle_beta   103.98422732
_cell_angle_gamma   121.11052862
_symmetry_Int_Tables_number   1
_chemical_formula_structural   Zr4NiPt
_chemical_formula_sum   'Zr4 Ni1 Pt1'
_cell_volume   117.50966407
_cell_formula_units_Z   1
loop_
 _symmetry_equiv_pos_site_id
 _symmetry_equiv_pos_as_xyz
  1  'x, y, z'
loop_
 _atom_site_type_symbol
 _atom_site_label
 _atom_site_symmetry_multiplicity
 _atom_site_fract_x
 _atom_site_fract_y
 _atom_site_fract_z
 _atom_site_occupancy
  Zr  Zr0  1  0.910421  0.410421  0.820841  1
  Zr  Zr1  1  0.589579  0.089579  0.179159  1
  Zr  Zr2  1  0.089579  0.910421  0.500000  1
  Zr  Zr3  1  0.410421  0.589579  0.500000  1
  Ni  Ni4  1  0.500000  0.500000  0.000000  1
  Pt  Pt5  1  0.000000  0.000000  0.000000  1
