# generated using pymatgen
data_Hf2Zr4Si3P
_symmetry_space_group_name_H-M   'P 1'
_cell_length_a   7.03901283
_cell_length_b   7.03901228
_cell_length_c   3.69794700
_cell_angle_alpha   90.00000000
_cell_angle_beta   90.00000000
_cell_angle_gamma   89.21822483
_symmetry_Int_Tables_number   1
_chemical_formula_structural   Hf2Zr4Si3P
_chemical_formula_sum   'Hf2 Zr4 Si3 P1'
_cell_volume   183.20770459
_cell_formula_units_Z   1
loop_
 _symmetry_equiv_pos_site_id
 _symmetry_equiv_pos_as_xyz
  1  'x, y, z'
loop_
 _atom_site_type_symbol
 _atom_site_label
 _atom_site_symmetry_multiplicity
 _atom_site_fract_x
 _atom_site_fract_y
 _atom_site_fract_z
 _atom_site_occupancy
  Hf  Hf0  1  0.498491  0.501013  0.000000  1
  Hf  Hf1  1  0.001013  0.998491  0.000000  1
  Zr  Zr2  1  0.831576  0.671864  0.500000  1
  Zr  Zr3  1  0.325529  0.825529  0.500000  1
  Zr  Zr4  1  0.171864  0.331576  0.500000  1
  Zr  Zr5  1  0.672532  0.172532  0.500000  1
  Si  Si6  1  0.623813  0.875909  0.000000  1
  Si  Si7  1  0.375909  0.123813  0.000000  1
  Si  Si8  1  0.872882  0.372882  0.000000  1
  P  P9  1  0.126391  0.626391  0.000000  1
