# generated using pymatgen
data_EuBi2(B2O5)2
_symmetry_space_group_name_H-M   'P 1'
_cell_length_a   6.88211138
_cell_length_b   7.17840707
_cell_length_c   9.94947070
_cell_angle_alpha   96.25104541
_cell_angle_beta   108.74196958
_cell_angle_gamma   100.99230294
_symmetry_Int_Tables_number   1
_chemical_formula_structural   EuBi2(B2O5)2
_chemical_formula_sum   'Eu2 Bi4 B8 O20'
_cell_volume   449.20715428
_cell_formula_units_Z   2
loop_
 _symmetry_equiv_pos_site_id
 _symmetry_equiv_pos_as_xyz
  1  'x, y, z'
loop_
 _atom_site_type_symbol
 _atom_site_label
 _atom_site_symmetry_multiplicity
 _atom_site_fract_x
 _atom_site_fract_y
 _atom_site_fract_z
 _atom_site_occupancy
  Eu  Eu0  1  0.034790  0.857881  0.167548  1
  Eu  Eu1  1  0.965210  0.142119  0.832452  1
  Bi  Bi2  1  0.736602  0.644919  0.661782  1
  Bi  Bi3  1  0.263398  0.355081  0.338218  1
  Bi  Bi4  1  0.692767  0.015721  0.398826  1
  Bi  Bi5  1  0.307233  0.984279  0.601174  1
  B  B6  1  0.399024  0.203103  0.074903  1
  B  B7  1  0.600976  0.796897  0.925097  1
  B  B8  1  0.846996  0.613019  0.365866  1
  B  B9  1  0.153004  0.386981  0.634134  1
  B  B10  1  0.407878  0.753746  0.091117  1
  B  B11  1  0.201270  0.694774  0.821154  1
  B  B12  1  0.798730  0.305226  0.178846  1
  B  B13  1  0.592122  0.246254  0.908883  1
  O  O14  1  0.077441  0.186081  0.610182  1
  O  O15  1  0.645426  0.897961  0.588031  1
  O  O16  1  0.599645  0.779865  0.064828  1
  O  O17  1  0.412985  0.769227  0.813024  1
  O  O18  1  0.587015  0.230773  0.186976  1
  O  O19  1  0.354574  0.102039  0.411969  1
  O  O20  1  0.209705  0.160598  0.092179  1
  O  O21  1  0.781747  0.292598  0.022984  1
  O  O22  1  0.218253  0.707402  0.977016  1
  O  O23  1  0.744290  0.521419  0.446404  1
  O  O24  1  0.885308  0.514477  0.249631  1
  O  O25  1  0.937063  0.187411  0.253675  1
  O  O26  1  0.589695  0.215798  0.770315  1
  O  O27  1  0.790295  0.839402  0.907821  1
  O  O28  1  0.114692  0.485523  0.750369  1
  O  O29  1  0.255710  0.478581  0.553596  1
  O  O30  1  0.062937  0.812589  0.746325  1
  O  O31  1  0.922559  0.813919  0.389818  1
  O  O32  1  0.410305  0.784202  0.229685  1
  O  O33  1  0.400355  0.220135  0.935172  1
