# generated using pymatgen
data_YbDy5(CoSn6)2
_symmetry_space_group_name_H-M   'P 1'
_cell_length_a   8.47449363
_cell_length_b   8.47449469
_cell_length_c   13.13946022
_cell_angle_alpha   90.01874227
_cell_angle_beta   89.98125642
_cell_angle_gamma   148.53848222
_symmetry_Int_Tables_number   1
_chemical_formula_structural   YbDy5(CoSn6)2
_chemical_formula_sum   'Yb1 Dy5 Co2 Sn12'
_cell_volume   492.50859805
_cell_formula_units_Z   1
loop_
 _symmetry_equiv_pos_site_id
 _symmetry_equiv_pos_as_xyz
  1  'x, y, z'
loop_
 _atom_site_type_symbol
 _atom_site_label
 _atom_site_symmetry_multiplicity
 _atom_site_fract_x
 _atom_site_fract_y
 _atom_site_fract_z
 _atom_site_occupancy
  Yb  Yb0  1  0.899325  0.100675  0.403663  1
  Dy  Dy1  1  0.898499  0.101501  0.094022  1
  Dy  Dy2  1  0.101262  0.898738  0.594635  1
  Dy  Dy3  1  0.900906  0.099094  0.752032  1
  Dy  Dy4  1  0.100827  0.899173  0.906319  1
  Dy  Dy5  1  0.099522  0.900478  0.249280  1
  Co  Co6  1  0.298893  0.701107  0.250184  1
  Co  Co7  1  0.700265  0.299735  0.749701  1
  Sn  Sn8  1  0.757347  0.242653  0.572058  1
  Sn  Sn9  1  0.428543  0.571457  0.576964  1
  Sn  Sn10  1  0.572652  0.427348  0.423741  1
  Sn  Sn11  1  0.734116  0.265884  0.248992  1
  Sn  Sn12  1  0.265394  0.734606  0.750338  1
  Sn  Sn13  1  0.243380  0.756620  0.071383  1
  Sn  Sn14  1  0.243808  0.756192  0.428885  1
  Sn  Sn15  1  0.571822  0.428178  0.075401  1
  Sn  Sn16  1  0.454044  0.545956  0.248271  1
  Sn  Sn17  1  0.546040  0.453960  0.750710  1
  Sn  Sn18  1  0.756318  0.243682  0.928256  1
  Sn  Sn19  1  0.427038  0.572962  0.925165  1
