# generated using pymatgen
data_Ce6P5Cl
_symmetry_space_group_name_H-M   'P 1'
_cell_length_a   7.02742806
_cell_length_b   7.02525782
_cell_length_c   7.00732200
_cell_angle_alpha   80.37385638
_cell_angle_beta   80.36860436
_cell_angle_gamma   119.86031822
_symmetry_Int_Tables_number   1
_chemical_formula_structural   Ce6P5Cl
_chemical_formula_sum   'Ce6 P5 Cl1'
_cell_volume   282.81005550
_cell_formula_units_Z   1
loop_
 _symmetry_equiv_pos_site_id
 _symmetry_equiv_pos_as_xyz
  1  'x, y, z'
loop_
 _atom_site_type_symbol
 _atom_site_label
 _atom_site_symmetry_multiplicity
 _atom_site_fract_x
 _atom_site_fract_y
 _atom_site_fract_z
 _atom_site_occupancy
  Ce  Ce0  1  0.176475  0.890102  0.477273  1
  Ce  Ce1  1  0.857686  0.230710  0.474967  1
  Ce  Ce2  1  0.346917  0.719836  0.984893  1
  Ce  Ce3  1  0.688548  0.402442  0.984069  1
  Ce  Ce4  1  0.007260  0.060890  0.983915  1
  Ce  Ce5  1  0.516892  0.571982  0.474867  1
  P  P6  1  0.098933  0.478739  0.729830  1
  P  P7  1  0.932401  0.646070  0.230852  1
  P  P8  1  0.267750  0.309966  0.230033  1
  P  P9  1  0.596932  0.981952  0.229354  1
  P  P10  1  0.764590  0.812610  0.729821  1
  Cl  Cl11  1  0.433950  0.146972  0.729675  1
