# generated using pymatgen
data_Sm10Be3Si15Au2
_symmetry_space_group_name_H-M   'P 1'
_cell_length_a   4.12815491
_cell_length_b   4.11709865
_cell_length_c   34.90063372
_cell_angle_alpha   86.60460246
_cell_angle_beta   86.55126232
_cell_angle_gamma   90.00267999
_symmetry_Int_Tables_number   1
_chemical_formula_structural   Sm10Be3Si15Au2
_chemical_formula_sum   'Sm10 Be3 Si15 Au2'
_cell_volume   591.05442777
_cell_formula_units_Z   1
loop_
 _symmetry_equiv_pos_site_id
 _symmetry_equiv_pos_as_xyz
  1  'x, y, z'
loop_
 _atom_site_type_symbol
 _atom_site_label
 _atom_site_symmetry_multiplicity
 _atom_site_fract_x
 _atom_site_fract_y
 _atom_site_fract_z
 _atom_site_occupancy
  Sm  Sm0  1  0.948035  0.448232  0.103605  1
  Sm  Sm1  1  0.350580  0.850678  0.298774  1
  Sm  Sm2  1  0.753244  0.253433  0.493639  1
  Sm  Sm3  1  0.149222  0.649848  0.700869  1
  Sm  Sm4  1  0.545807  0.045987  0.908241  1
  Sm  Sm5  1  0.997744  0.997469  0.004960  1
  Sm  Sm6  1  0.399864  0.399673  0.200567  1
  Sm  Sm7  1  0.802130  0.801916  0.395964  1
  Sm  Sm8  1  0.204577  0.203997  0.591621  1
  Sm  Sm9  1  0.600899  0.600663  0.797897  1
  Be  Be10  1  0.465238  0.965490  0.069183  1
  Be  Be11  1  0.867599  0.367734  0.264710  1
  Be  Be12  1  0.269830  0.769931  0.460029  1
  Si  Si13  1  0.667187  0.167277  0.665303  1
  Si  Si14  1  0.063474  0.564041  0.872056  1
  Si  Si15  1  0.915873  0.916229  0.167984  1
  Si  Si16  1  0.318148  0.318649  0.363229  1
  Si  Si17  1  0.720077  0.720722  0.559140  1
  Si  Si18  1  0.116739  0.116727  0.766513  1
  Si  Si19  1  0.513328  0.513559  0.972872  1
  Si  Si20  1  0.433676  0.933319  0.132963  1
  Si  Si21  1  0.835931  0.335530  0.328339  1
  Si  Si22  1  0.238343  0.737988  0.523615  1
  Si  Si23  1  0.633890  0.134190  0.732280  1
  Si  Si24  1  0.030784  0.530519  0.938879  1
  Si  Si25  1  0.480077  0.479794  0.040318  1
  Si  Si26  1  0.882367  0.882191  0.235620  1
  Si  Si27  1  0.284634  0.284422  0.430873  1
  Au  Au28  1  0.685570  0.685232  0.629194  1
  Au  Au29  1  0.082336  0.081761  0.836362  1
