# generated using pymatgen
data_TcOsRu5W
_symmetry_space_group_name_H-M   'P 1'
_cell_length_a   5.51571100
_cell_length_b   5.51247327
_cell_length_c   4.35133500
_cell_angle_alpha   90.00000000
_cell_angle_beta   90.00000000
_cell_angle_gamma   120.01944919
_symmetry_Int_Tables_number   1
_chemical_formula_structural   TcOsRu5W
_chemical_formula_sum   'Tc1 Os1 Ru5 W1'
_cell_volume   114.55551529
_cell_formula_units_Z   1
loop_
 _symmetry_equiv_pos_site_id
 _symmetry_equiv_pos_as_xyz
  1  'x, y, z'
loop_
 _atom_site_type_symbol
 _atom_site_label
 _atom_site_symmetry_multiplicity
 _atom_site_fract_x
 _atom_site_fract_y
 _atom_site_fract_z
 _atom_site_occupancy
  Tc  Tc0  1  0.666525  0.333048  0.250000  1
  Os  Os1  1  0.831312  0.662622  0.750000  1
  Ru  Ru2  1  0.165471  0.330942  0.250000  1
  Ru  Ru3  1  0.668978  0.834620  0.250000  1
  Ru  Ru4  1  0.165642  0.834620  0.250000  1
  Ru  Ru5  1  0.336528  0.169914  0.750000  1
  Ru  Ru6  1  0.833387  0.169914  0.750000  1
  W  W7  1  0.332159  0.664318  0.750000  1
