# generated using pymatgen
data_Hf2Mn4Fe8P7
_symmetry_space_group_name_H-M   'P 1'
_cell_length_a   8.94631034
_cell_length_b   9.04167316
_cell_length_c   3.54623900
_cell_angle_alpha   90.00000000
_cell_angle_beta   90.00000000
_cell_angle_gamma   120.19360101
_symmetry_Int_Tables_number   1
_chemical_formula_structural   Hf2Mn4Fe8P7
_chemical_formula_sum   'Hf2 Mn4 Fe8 P7'
_cell_volume   247.93671484
_cell_formula_units_Z   1
loop_
 _symmetry_equiv_pos_site_id
 _symmetry_equiv_pos_as_xyz
  1  'x, y, z'
loop_
 _atom_site_type_symbol
 _atom_site_label
 _atom_site_symmetry_multiplicity
 _atom_site_fract_x
 _atom_site_fract_y
 _atom_site_fract_z
 _atom_site_occupancy
  Hf  Hf0  1  0.668604  0.340604  0.000000  1
  Hf  Hf1  1  0.331776  0.661408  0.500000  1
  Mn  Mn2  1  0.611230  0.049525  0.500000  1
  Mn  Mn3  1  0.125420  0.892716  0.500000  1
  Mn  Mn4  1  0.103237  0.227280  0.500000  1
  Mn  Mn5  1  0.769872  0.874732  0.500000  1
  Fe  Fe6  1  0.374318  0.941506  0.000000  1
  Fe  Fe7  1  0.063755  0.431977  0.000000  1
  Fe  Fe8  1  0.568082  0.628616  0.000000  1
  Fe  Fe9  1  0.880956  0.724698  0.000000  1
  Fe  Fe10  1  0.275140  0.155044  0.000000  1
  Fe  Fe11  1  0.839321  0.121882  0.000000  1
  Fe  Fe12  1  0.948256  0.562346  0.500000  1
  Fe  Fe13  1  0.439921  0.387373  0.500000  1
  P  P14  1  0.116310  0.699260  0.000000  1
  P  P15  1  0.300589  0.413490  0.000000  1
  P  P16  1  0.582157  0.873510  0.000000  1
  P  P17  1  0.712833  0.590868  0.500000  1
  P  P18  1  0.410018  0.128681  0.500000  1
  P  P19  1  0.881146  0.295022  0.500000  1
  P  P20  1  0.997058  0.999462  0.000000  1
