# generated using pymatgen
data_Ac2SnI2
_symmetry_space_group_name_H-M   'P 1'
_cell_length_a   12.11034198
_cell_length_b   12.11034186
_cell_length_c   12.11034142
_cell_angle_alpha   23.14716993
_cell_angle_beta   23.14716923
_cell_angle_gamma   23.14717091
_symmetry_Int_Tables_number   1
_chemical_formula_structural   Ac2SnI2
_chemical_formula_sum   'Ac2 Sn1 I2'
_cell_volume   240.91136359
_cell_formula_units_Z   1
loop_
 _symmetry_equiv_pos_site_id
 _symmetry_equiv_pos_as_xyz
  1  'x, y, z'
loop_
 _atom_site_type_symbol
 _atom_site_label
 _atom_site_symmetry_multiplicity
 _atom_site_fract_x
 _atom_site_fract_y
 _atom_site_fract_z
 _atom_site_occupancy
  Ac  Ac0  1  0.384947  0.384947  0.384947  1
  Ac  Ac1  1  0.615053  0.615053  0.615053  1
  Sn  Sn2  1  0.000000  0.000000  0.000000  1
  I  I3  1  0.224297  0.224297  0.224297  1
  I  I4  1  0.775703  0.775703  0.775703  1
