# generated using pymatgen
data_Sr8Tl3InCu3N5
_symmetry_space_group_name_H-M   'P 1'
_cell_length_a   11.54041320
_cell_length_b   11.54041302
_cell_length_c   11.54041287
_cell_angle_alpha   160.61502684
_cell_angle_beta   114.87863676
_cell_angle_gamma   68.65349282
_symmetry_Int_Tables_number   1
_chemical_formula_structural   Sr8Tl3InCu3N5
_chemical_formula_sum   'Sr8 Tl3 In1 Cu3 N5'
_cell_volume   460.03863348
_cell_formula_units_Z   1
loop_
 _symmetry_equiv_pos_site_id
 _symmetry_equiv_pos_as_xyz
  1  'x, y, z'
loop_
 _atom_site_type_symbol
 _atom_site_label
 _atom_site_symmetry_multiplicity
 _atom_site_fract_x
 _atom_site_fract_y
 _atom_site_fract_z
 _atom_site_occupancy
  Sr  Sr0  1  0.563026  0.710558  0.852468  1
  Sr  Sr1  1  0.748216  0.901077  0.847140  1
  Sr  Sr2  1  0.437379  0.289301  0.148077  1
  Sr  Sr3  1  0.858091  0.710558  0.147532  1
  Sr  Sr4  1  0.141223  0.289301  0.851923  1
  Sr  Sr5  1  0.252243  0.098994  0.153248  1
  Sr  Sr6  1  0.053936  0.901077  0.152860  1
  Sr  Sr7  1  0.945746  0.098994  0.846752  1
  Tl  Tl8  1  0.653739  0.501309  0.152429  1
  Tl  Tl9  1  0.348880  0.501309  0.847571  1
  Tl  Tl10  1  0.411380  0.911380  0.500000  1
  In  In11  1  0.585343  0.085343  0.500000  1
  Cu  Cu12  1  0.192254  0.692254  0.500000  1
  Cu  Cu13  1  0.807813  0.307813  0.500000  1
  Cu  Cu14  1  0.000062  0.500062  0.500000  1
  N  N15  1  0.345771  0.694193  0.651578  1
  N  N16  1  0.957784  0.306129  0.651655  1
  N  N17  1  0.042614  0.694193  0.348422  1
  N  N18  1  0.000028  0.000028  0.000000  1
  N  N19  1  0.654473  0.306129  0.348345  1
