# generated using pymatgen
data_Tb3Y9(Tm2Bi3)4
_symmetry_space_group_name_H-M   'P 1'
_cell_length_a   8.23979514
_cell_length_b   9.47610605
_cell_length_c   12.05366820
_cell_angle_alpha   90.00744570
_cell_angle_beta   89.98075097
_cell_angle_gamma   89.99104916
_symmetry_Int_Tables_number   1
_chemical_formula_structural   Tb3Y9(Tm2Bi3)4
_chemical_formula_sum   'Tb3 Y9 Tm8 Bi12'
_cell_volume   941.16447406
_cell_formula_units_Z   1
loop_
 _symmetry_equiv_pos_site_id
 _symmetry_equiv_pos_as_xyz
  1  'x, y, z'
loop_
 _atom_site_type_symbol
 _atom_site_label
 _atom_site_symmetry_multiplicity
 _atom_site_fract_x
 _atom_site_fract_y
 _atom_site_fract_z
 _atom_site_occupancy
  Tb  Tb0  1  0.186220  0.749662  0.718834  1
  Tb  Tb1  1  0.686377  0.750358  0.781204  1
  Tb  Tb2  1  0.813520  0.249646  0.281296  1
  Y  Y3  1  0.313799  0.250332  0.218724  1
  Y  Y4  1  0.693219  0.562595  0.059639  1
  Y  Y5  1  0.193157  0.937489  0.440299  1
  Y  Y6  1  0.306848  0.062528  0.940190  1
  Y  Y7  1  0.806860  0.437425  0.559630  1
  Y  Y8  1  0.354628  0.750157  0.215760  1
  Y  Y9  1  0.854267  0.749850  0.284316  1
  Y  Y10  1  0.645610  0.250175  0.784228  1
  Y  Y11  1  0.145573  0.249831  0.715791  1
  Tm  Tm12  1  0.025142  0.750236  0.988490  1
  Tm  Tm13  1  0.525257  0.749767  0.511456  1
  Tm  Tm14  1  0.974483  0.250208  0.011448  1
  Tm  Tm15  1  0.475026  0.249767  0.488715  1
  Tm  Tm16  1  0.307243  0.433825  0.940366  1
  Tm  Tm17  1  0.807319  0.066225  0.559456  1
  Tm  Tm18  1  0.692802  0.933669  0.059523  1
  Tm  Tm19  1  0.192832  0.566216  0.440466  1
  Bi  Bi20  1  0.434266  0.004088  0.672550  1
  Bi  Bi21  1  0.934242  0.495886  0.827521  1
  Bi  Bi22  1  0.565542  0.503926  0.327479  1
  Bi  Bi23  1  0.065978  0.996148  0.172483  1
  Bi  Bi24  1  0.566348  0.995687  0.327659  1
  Bi  Bi25  1  0.066818  0.504244  0.172272  1
  Bi  Bi26  1  0.433449  0.495510  0.672341  1
  Bi  Bi27  1  0.933428  0.004525  0.827726  1
  Bi  Bi28  1  0.406994  0.747578  0.957855  1
  Bi  Bi29  1  0.906909  0.752415  0.542117  1
  Bi  Bi30  1  0.592532  0.247610  0.042313  1
  Bi  Bi31  1  0.093314  0.252424  0.457855  1
