# generated using pymatgen
data_Ca19Yb(Bi2Sb)4
_symmetry_space_group_name_H-M   'P 1'
_cell_length_a   8.40072000
_cell_length_b   9.75831100
_cell_length_c   12.73142200
_cell_angle_alpha   89.99998963
_cell_angle_beta   89.99983715
_cell_angle_gamma   89.99998144
_symmetry_Int_Tables_number   1
_chemical_formula_structural   Ca19Yb(Bi2Sb)4
_chemical_formula_sum   'Ca19 Yb1 Bi8 Sb4'
_cell_volume   1043.68172369
_cell_formula_units_Z   1
loop_
 _symmetry_equiv_pos_site_id
 _symmetry_equiv_pos_as_xyz
  1  'x, y, z'
loop_
 _atom_site_type_symbol
 _atom_site_label
 _atom_site_symmetry_multiplicity
 _atom_site_fract_x
 _atom_site_fract_y
 _atom_site_fract_z
 _atom_site_occupancy
  Ca  Ca0  1  0.462668  0.750000  0.004485  1
  Ca  Ca1  1  0.962759  0.250000  0.495602  1
  Ca  Ca2  1  0.537234  0.250000  0.995654  1
  Ca  Ca3  1  0.037300  0.750001  0.504278  1
  Ca  Ca4  1  0.652202  0.749999  0.292909  1
  Ca  Ca5  1  0.152261  0.250000  0.207069  1
  Ca  Ca6  1  0.347742  0.250001  0.707072  1
  Ca  Ca7  1  0.847745  0.750000  0.792899  1
  Ca  Ca8  1  0.318362  0.750000  0.727843  1
  Ca  Ca9  1  0.818367  0.250001  0.772141  1
  Ca  Ca10  1  0.681644  0.250000  0.272139  1
  Ca  Ca11  1  0.308850  0.457910  0.424747  1
  Ca  Ca12  1  0.808863  0.542136  0.075235  1
  Ca  Ca13  1  0.691127  0.957846  0.575207  1
  Ca  Ca14  1  0.191141  0.042156  0.924794  1
  Ca  Ca15  1  0.691126  0.542154  0.575207  1
  Ca  Ca16  1  0.191140  0.457845  0.924793  1
  Ca  Ca17  1  0.308850  0.042090  0.424748  1
  Ca  Ca18  1  0.808862  0.957863  0.075235  1
  Yb  Yb19  1  0.181746  0.750000  0.227908  1
  Bi  Bi20  1  0.436531  0.012136  0.171610  1
  Bi  Bi21  1  0.936842  0.987522  0.328343  1
  Bi  Bi22  1  0.563317  0.512335  0.828437  1
  Bi  Bi23  1  0.063332  0.487695  0.671577  1
  Bi  Bi24  1  0.563317  0.987665  0.828437  1
  Bi  Bi25  1  0.063333  0.012304  0.671577  1
  Bi  Bi26  1  0.436532  0.487864  0.171610  1
  Bi  Bi27  1  0.936842  0.512478  0.328342  1
  Sb  Sb28  1  0.079101  0.750000  0.984154  1
  Sb  Sb29  1  0.578972  0.250000  0.516063  1
  Sb  Sb30  1  0.921011  0.250000  0.016038  1
  Sb  Sb31  1  0.420881  0.749999  0.483845  1
