# generated using pymatgen
data_Y10In7Hg(PdPt)2
_symmetry_space_group_name_H-M   'P 1'
_cell_length_a   3.62813800
_cell_length_b   8.18213504
_cell_length_c   18.34318532
_cell_angle_alpha   90.09063341
_cell_angle_beta   90.00000000
_cell_angle_gamma   90.00000000
_symmetry_Int_Tables_number   1
_chemical_formula_structural   Y10In7Hg(PdPt)2
_chemical_formula_sum   'Y10 In7 Hg1 Pd2 Pt2'
_cell_volume   544.53356023
_cell_formula_units_Z   1
loop_
 _symmetry_equiv_pos_site_id
 _symmetry_equiv_pos_as_xyz
  1  'x, y, z'
loop_
 _atom_site_type_symbol
 _atom_site_label
 _atom_site_symmetry_multiplicity
 _atom_site_fract_x
 _atom_site_fract_y
 _atom_site_fract_z
 _atom_site_occupancy
  Y  Y0  1  0.000000  0.499523  0.500439  1
  Y  Y1  1  0.000000  0.996280  0.997548  1
  Y  Y2  1  0.000000  0.737605  0.279168  1
  Y  Y3  1  0.000000  0.262138  0.719670  1
  Y  Y4  1  0.000000  0.754304  0.783910  1
  Y  Y5  1  0.000000  0.244871  0.219763  1
  Y  Y6  1  0.000000  0.615666  0.084167  1
  Y  Y7  1  0.000000  0.391064  0.915002  1
  Y  Y8  1  0.000000  0.881912  0.584707  1
  Y  Y9  1  0.000000  0.116751  0.416260  1
  In  In10  1  0.500000  0.289225  0.066652  1
  In  In11  1  0.500000  0.792548  0.432147  1
  In  In12  1  0.500000  0.206227  0.567667  1
  In  In13  1  0.500000  0.580038  0.649247  1
  In  In14  1  0.500000  0.420473  0.351233  1
  In  In15  1  0.500000  0.924127  0.148860  1
  In  In16  1  0.500000  0.079960  0.850016  1
  Hg  Hg17  1  0.500000  0.711737  0.934791  1
  Pd  Pd18  1  0.500000  0.975592  0.697276  1
  Pd  Pd19  1  0.500000  0.022790  0.303252  1
  Pt  Pt20  1  0.500000  0.523204  0.196112  1
  Pt  Pt21  1  0.500000  0.473966  0.802113  1
