# generated using pymatgen
data_Nd4NiAg
_symmetry_space_group_name_H-M   'P 1'
_cell_length_a   9.77791320
_cell_length_b   9.77791271
_cell_length_c   9.77791200
_cell_angle_alpha   59.99999565
_cell_angle_beta   59.99999730
_cell_angle_gamma   59.99999850
_symmetry_Int_Tables_number   1
_chemical_formula_structural   Nd4NiAg
_chemical_formula_sum   'Nd16 Ni4 Ag4'
_cell_volume   661.03344363
_cell_formula_units_Z   4
loop_
 _symmetry_equiv_pos_site_id
 _symmetry_equiv_pos_as_xyz
  1  'x, y, z'
loop_
 _atom_site_type_symbol
 _atom_site_label
 _atom_site_symmetry_multiplicity
 _atom_site_fract_x
 _atom_site_fract_y
 _atom_site_fract_z
 _atom_site_occupancy
  Nd  Nd0  1  0.600067  0.600067  0.600067  1
  Nd  Nd1  1  0.600067  0.600067  0.199799  1
  Nd  Nd2  1  0.600067  0.199799  0.600067  1
  Nd  Nd3  1  0.199799  0.600067  0.600067  1
  Nd  Nd4  1  0.059855  0.440145  0.440145  1
  Nd  Nd5  1  0.440145  0.059855  0.059855  1
  Nd  Nd6  1  0.440145  0.059855  0.440145  1
  Nd  Nd7  1  0.059855  0.440145  0.059855  1
  Nd  Nd8  1  0.440145  0.440145  0.059855  1
  Nd  Nd9  1  0.059855  0.059855  0.440145  1
  Nd  Nd10  1  0.186925  0.813075  0.813075  1
  Nd  Nd11  1  0.813075  0.186925  0.186925  1
  Nd  Nd12  1  0.813075  0.186925  0.813075  1
  Nd  Nd13  1  0.186925  0.813075  0.186925  1
  Nd  Nd14  1  0.813075  0.813075  0.186925  1
  Nd  Nd15  1  0.186925  0.186925  0.813075  1
  Ni  Ni16  1  0.393261  0.393261  0.393261  1
  Ni  Ni17  1  0.393261  0.393261  0.820218  1
  Ni  Ni18  1  0.393261  0.820218  0.393261  1
  Ni  Ni19  1  0.820218  0.393261  0.393261  1
  Ag  Ag20  1  0.831280  0.831280  0.831280  1
  Ag  Ag21  1  0.831280  0.831280  0.506159  1
  Ag  Ag22  1  0.831280  0.506159  0.831280  1
  Ag  Ag23  1  0.506159  0.831280  0.831280  1
