# generated using pymatgen
data_Nd16Y3TmSn16
_symmetry_space_group_name_H-M   'P 1'
_cell_length_a   8.23720301
_cell_length_b   8.38823901
_cell_length_c   15.92808700
_cell_angle_alpha   90.00000000
_cell_angle_beta   90.00000000
_cell_angle_gamma   89.99436181
_symmetry_Int_Tables_number   1
_chemical_formula_structural   Nd16Y3TmSn16
_chemical_formula_sum   'Nd16 Y3 Tm1 Sn16'
_cell_volume   1100.56116277
_cell_formula_units_Z   1
loop_
 _symmetry_equiv_pos_site_id
 _symmetry_equiv_pos_as_xyz
  1  'x, y, z'
loop_
 _atom_site_type_symbol
 _atom_site_label
 _atom_site_symmetry_multiplicity
 _atom_site_fract_x
 _atom_site_fract_y
 _atom_site_fract_z
 _atom_site_occupancy
  Nd  Nd0  1  0.018041  0.180931  0.401475  1
  Nd  Nd1  1  0.367739  0.837500  0.120837  1
  Nd  Nd2  1  0.131925  0.337718  0.620879  1
  Nd  Nd3  1  0.482158  0.680831  0.901426  1
  Nd  Nd4  1  0.867757  0.662490  0.120771  1
  Nd  Nd5  1  0.131925  0.337718  0.879121  1
  Nd  Nd6  1  0.482158  0.680831  0.598574  1
  Nd  Nd7  1  0.632435  0.162721  0.620889  1
  Nd  Nd8  1  0.867757  0.662490  0.379229  1
  Nd  Nd9  1  0.018041  0.180931  0.098525  1
  Nd  Nd10  1  0.981880  0.818926  0.901456  1
  Nd  Nd11  1  0.632435  0.162721  0.879111  1
  Nd  Nd12  1  0.518022  0.319052  0.098511  1
  Nd  Nd13  1  0.367739  0.837500  0.379163  1
  Nd  Nd14  1  0.981880  0.818926  0.598544  1
  Nd  Nd15  1  0.518022  0.319052  0.401489  1
  Y  Y16  1  0.199020  0.501995  0.250000  1
  Y  Y17  1  0.699016  0.997973  0.250000  1
  Y  Y18  1  0.300971  0.001950  0.750000  1
  Tm  Tm19  1  0.800586  0.497890  0.750000  1
  Sn  Sn20  1  0.791943  0.464924  0.543976  1
  Sn  Sn21  1  0.708072  0.964880  0.456303  1
  Sn  Sn22  1  0.675485  0.853090  0.750000  1
  Sn  Sn23  1  0.208077  0.535162  0.456304  1
  Sn  Sn24  1  0.291923  0.035121  0.956266  1
  Sn  Sn25  1  0.824620  0.353799  0.250000  1
  Sn  Sn26  1  0.791943  0.464924  0.956024  1
  Sn  Sn27  1  0.564635  0.616497  0.250000  1
  Sn  Sn28  1  0.208077  0.535162  0.043696  1
  Sn  Sn29  1  0.435983  0.383648  0.750000  1
  Sn  Sn30  1  0.175180  0.646133  0.750000  1
  Sn  Sn31  1  0.935254  0.116741  0.750000  1
  Sn  Sn32  1  0.291923  0.035121  0.543734  1
  Sn  Sn33  1  0.708072  0.964880  0.043697  1
  Sn  Sn34  1  0.324685  0.146260  0.250000  1
  Sn  Sn35  1  0.064619  0.883515  0.250000  1
