# generated using pymatgen
data_Nb6IrOs3
_symmetry_space_group_name_H-M   'P 1'
_cell_length_a   9.92627917
_cell_length_b   9.95048345
_cell_length_c   5.09875911
_cell_angle_alpha   89.99163027
_cell_angle_beta   90.02219472
_cell_angle_gamma   90.14507180
_symmetry_Int_Tables_number   1
_chemical_formula_structural   Nb6IrOs3
_chemical_formula_sum   'Nb18 Ir3 Os9'
_cell_volume   503.60928910
_cell_formula_units_Z   3
loop_
 _symmetry_equiv_pos_site_id
 _symmetry_equiv_pos_as_xyz
  1  'x, y, z'
loop_
 _atom_site_type_symbol
 _atom_site_label
 _atom_site_symmetry_multiplicity
 _atom_site_fract_x
 _atom_site_fract_y
 _atom_site_fract_z
 _atom_site_occupancy
  Nb  Nb0  1  0.895267  0.895739  0.499554  1
  Nb  Nb1  1  0.104172  0.104670  0.498304  1
  Nb  Nb2  1  0.600847  0.397679  0.004020  1
  Nb  Nb3  1  0.398923  0.602865  0.004665  1
  Nb  Nb4  1  0.629283  0.959695  0.498957  1
  Nb  Nb5  1  0.371436  0.041066  0.499026  1
  Nb  Nb6  1  0.869873  0.463413  0.995687  1
  Nb  Nb7  1  0.130824  0.533265  0.994311  1
  Nb  Nb8  1  0.039460  0.372696  0.497708  1
  Nb  Nb9  1  0.960570  0.627522  0.499758  1
  Nb  Nb10  1  0.535302  0.128323  0.995942  1
  Nb  Nb11  1  0.463655  0.871865  0.996860  1
  Nb  Nb12  1  0.818763  0.182432  0.249304  1
  Nb  Nb13  1  0.179928  0.818324  0.249020  1
  Nb  Nb14  1  0.319168  0.320659  0.250047  1
  Nb  Nb15  1  0.680144  0.679183  0.248016  1
  Nb  Nb16  1  0.181829  0.819132  0.748127  1
  Nb  Nb17  1  0.819494  0.182370  0.749122  1
  Ir  Ir18  1  0.566068  0.241408  0.497844  1
  Ir  Ir19  1  0.434648  0.759195  0.498050  1
  Ir  Ir20  1  0.929623  0.738143  0.998558  1
  Os  Os21  1  0.499563  0.500290  0.529630  1
  Os  Os22  1  0.999272  0.000424  0.001100  1
  Os  Os23  1  0.072048  0.258718  0.997535  1
  Os  Os24  1  0.757640  0.436098  0.498851  1
  Os  Os25  1  0.242407  0.565500  0.498066  1
  Os  Os26  1  0.260402  0.070863  0.998026  1
  Os  Os27  1  0.740076  0.927920  0.999054  1
  Os  Os28  1  0.679046  0.680023  0.751247  1
  Os  Os29  1  0.320271  0.320519  0.753609  1
