# generated using pymatgen
data_ZrBeZnNi3
_symmetry_space_group_name_H-M   'P 1'
_cell_length_a   4.62344812
_cell_length_b   4.62344851
_cell_length_c   4.62344793
_cell_angle_alpha   63.39077529
_cell_angle_beta   63.39077232
_cell_angle_gamma   63.39076633
_symmetry_Int_Tables_number   1
_chemical_formula_structural   ZrBeZnNi3
_chemical_formula_sum   'Zr1 Be1 Zn1 Ni3'
_cell_volume   75.12945884
_cell_formula_units_Z   1
loop_
 _symmetry_equiv_pos_site_id
 _symmetry_equiv_pos_as_xyz
  1  'x, y, z'
loop_
 _atom_site_type_symbol
 _atom_site_label
 _atom_site_symmetry_multiplicity
 _atom_site_fract_x
 _atom_site_fract_y
 _atom_site_fract_z
 _atom_site_occupancy
  Zr  Zr0  1  0.002065  0.002065  0.002065  1
  Be  Be1  1  0.622337  0.622337  0.622337  1
  Zn  Zn2  1  0.255042  0.255042  0.255042  1
  Ni  Ni3  1  0.126030  0.622263  0.622263  1
  Ni  Ni4  1  0.622263  0.126030  0.622263  1
  Ni  Ni5  1  0.622263  0.622263  0.126030  1
