# generated using pymatgen
data_PrNdSc2Mn2O10
_symmetry_space_group_name_H-M   'P 1'
_cell_length_a   5.91523000
_cell_length_b   7.70829012
_cell_length_c   8.90935476
_cell_angle_alpha   90.11847432
_cell_angle_beta   90.00000000
_cell_angle_gamma   90.00000000
_symmetry_Int_Tables_number   1
_chemical_formula_structural   PrNdSc2Mn2O10
_chemical_formula_sum   'Pr2 Nd2 Sc4 Mn4 O20'
_cell_volume   406.23282393
_cell_formula_units_Z   2
loop_
 _symmetry_equiv_pos_site_id
 _symmetry_equiv_pos_as_xyz
  1  'x, y, z'
loop_
 _atom_site_type_symbol
 _atom_site_label
 _atom_site_symmetry_multiplicity
 _atom_site_fract_x
 _atom_site_fract_y
 _atom_site_fract_z
 _atom_site_occupancy
  Pr  Pr0  1  0.000000  0.863951  0.830344  1
  Pr  Pr1  1  0.000000  0.136049  0.169656  1
  Nd  Nd2  1  0.000000  0.364339  0.669021  1
  Nd  Nd3  1  0.000000  0.635661  0.330979  1
  Sc  Sc4  1  0.500000  0.114945  0.854010  1
  Sc  Sc5  1  0.500000  0.885055  0.145990  1
  Sc  Sc6  1  0.500000  0.614029  0.645547  1
  Sc  Sc7  1  0.500000  0.385971  0.354453  1
  Mn  Mn8  1  0.248830  0.500000  0.000000  1
  Mn  Mn9  1  0.750981  0.000000  0.500000  1
  Mn  Mn10  1  0.751170  0.500000  0.000000  1
  Mn  Mn11  1  0.249019  0.000000  0.500000  1
  O  O12  1  0.241482  0.899804  0.301528  1
  O  O13  1  0.241482  0.100196  0.698472  1
  O  O14  1  0.758398  0.402501  0.199190  1
  O  O15  1  0.758398  0.597499  0.800810  1
  O  O16  1  0.758518  0.100196  0.698472  1
  O  O17  1  0.758518  0.899804  0.301528  1
  O  O18  1  0.241602  0.597499  0.800810  1
  O  O19  1  0.241602  0.402501  0.199190  1
  O  O20  1  0.500000  0.354875  0.935483  1
  O  O21  1  0.500000  0.645125  0.064517  1
  O  O22  1  0.500000  0.854887  0.565436  1
  O  O23  1  0.500000  0.145113  0.434564  1
  O  O24  1  0.267571  0.000000  0.000000  1
  O  O25  1  0.734421  0.500000  0.500000  1
  O  O26  1  0.732429  0.000000  0.000000  1
  O  O27  1  0.265579  0.500000  0.500000  1
  O  O28  1  0.000000  0.154279  0.446396  1
  O  O29  1  0.000000  0.845721  0.553604  1
  O  O30  1  0.000000  0.653879  0.055267  1
  O  O31  1  0.000000  0.346121  0.944733  1
