# generated using pymatgen
data_Eu3IO8
_symmetry_space_group_name_H-M   'P 1'
_cell_length_a   6.09950700
_cell_length_b   7.50741951
_cell_length_c   7.50527500
_cell_angle_alpha   70.46808237
_cell_angle_beta   90.00000000
_cell_angle_gamma   90.00000000
_symmetry_Int_Tables_number   1
_chemical_formula_structural   Eu3IO8
_chemical_formula_sum   'Eu6 I2 O16'
_cell_volume   323.90140522
_cell_formula_units_Z   2
loop_
 _symmetry_equiv_pos_site_id
 _symmetry_equiv_pos_as_xyz
  1  'x, y, z'
loop_
 _atom_site_type_symbol
 _atom_site_label
 _atom_site_symmetry_multiplicity
 _atom_site_fract_x
 _atom_site_fract_y
 _atom_site_fract_z
 _atom_site_occupancy
  Eu  Eu0  1  0.750000  0.111538  0.673316  1
  Eu  Eu1  1  0.250000  0.888462  0.326684  1
  Eu  Eu2  1  0.250000  0.394762  0.392745  1
  Eu  Eu3  1  0.750000  0.605238  0.607255  1
  Eu  Eu4  1  0.250000  0.325233  0.887923  1
  Eu  Eu5  1  0.750000  0.674767  0.112077  1
  I  I6  1  0.250000  0.814872  0.816305  1
  I  I7  1  0.750000  0.185128  0.183695  1
  O  O8  1  0.999743  0.340735  0.658515  1
  O  O9  1  0.499743  0.659265  0.341485  1
  O  O10  1  0.000257  0.659265  0.341485  1
  O  O11  1  0.500257  0.340735  0.658515  1
  O  O12  1  0.940724  0.808630  0.809479  1
  O  O13  1  0.440724  0.191370  0.190521  1
  O  O14  1  0.059276  0.191370  0.190521  1
  O  O15  1  0.559276  0.808630  0.809479  1
  O  O16  1  0.750000  0.973989  0.413576  1
  O  O17  1  0.250000  0.026011  0.586424  1
  O  O18  1  0.750000  0.341240  0.340004  1
  O  O19  1  0.250000  0.658760  0.659996  1
  O  O20  1  0.750000  0.415587  0.972927  1
  O  O21  1  0.250000  0.584413  0.027073  1
  O  O22  1  0.750000  0.032317  0.029738  1
  O  O23  1  0.250000  0.967683  0.970262  1
