# generated using pymatgen
data_RbGaSbH
_symmetry_space_group_name_H-M   'P 1'
_cell_length_a   4.43976500
_cell_length_b   4.43976451
_cell_length_c   6.43707300
_cell_angle_alpha   90.00000000
_cell_angle_beta   90.00000000
_cell_angle_gamma   119.99999620
_symmetry_Int_Tables_number   1
_chemical_formula_structural   RbGaSbH
_chemical_formula_sum   'Rb1 Ga1 Sb1 H1'
_cell_volume   109.88514893
_cell_formula_units_Z   1
loop_
 _symmetry_equiv_pos_site_id
 _symmetry_equiv_pos_as_xyz
  1  'x, y, z'
loop_
 _atom_site_type_symbol
 _atom_site_label
 _atom_site_symmetry_multiplicity
 _atom_site_fract_x
 _atom_site_fract_y
 _atom_site_fract_z
 _atom_site_occupancy
  Rb  Rb0  1  0.000000  0.000000  0.004871  1
  Ga  Ga1  1  0.666667  0.333333  0.579884  1
  Sb  Sb2  1  0.333333  0.666667  0.436760  1
  H  H3  1  0.666667  0.333333  0.835585  1
