# generated using pymatgen
data_Gd4FeRuC8
_symmetry_space_group_name_H-M   'P 1'
_cell_length_a   5.20591988
_cell_length_b   6.69271314
_cell_length_c   6.69271461
_cell_angle_alpha   69.65011759
_cell_angle_beta   67.11239733
_cell_angle_gamma   67.11240773
_symmetry_Int_Tables_number   1
_chemical_formula_structural   Gd4FeRuC8
_chemical_formula_sum   'Gd4 Fe1 Ru1 C8'
_cell_volume   192.53680590
_cell_formula_units_Z   1
loop_
 _symmetry_equiv_pos_site_id
 _symmetry_equiv_pos_as_xyz
  1  'x, y, z'
loop_
 _atom_site_type_symbol
 _atom_site_label
 _atom_site_symmetry_multiplicity
 _atom_site_fract_x
 _atom_site_fract_y
 _atom_site_fract_z
 _atom_site_occupancy
  Gd  Gd0  1  0.148845  0.199987  0.504791  1
  Gd  Gd1  1  0.853622  0.800013  0.495209  1
  Gd  Gd2  1  0.646378  0.504791  0.199987  1
  Gd  Gd3  1  0.351155  0.495209  0.800013  1
  Fe  Fe4  1  0.250000  0.000000  0.000000  1
  Ru  Ru5  1  0.750000  0.000000  0.000000  1
  C  C6  1  0.369824  0.790240  0.463311  1
  C  C7  1  0.623375  0.209760  0.536689  1
  C  C8  1  0.876625  0.463311  0.790240  1
  C  C9  1  0.130176  0.536689  0.209760  1
  C  C10  1  0.402605  0.907296  0.246287  1
  C  C11  1  0.556189  0.092704  0.753713  1
  C  C12  1  0.943811  0.246287  0.907296  1
  C  C13  1  0.097395  0.753713  0.092704  1
