# generated using pymatgen
data_Yb5Bi2As
_symmetry_space_group_name_H-M   'P 1'
_cell_length_a   8.22021500
_cell_length_b   9.48641400
_cell_length_c   12.51970200
_cell_angle_alpha   90.00000000
_cell_angle_beta   90.00000000
_cell_angle_gamma   90.00000000
_symmetry_Int_Tables_number   1
_chemical_formula_structural   Yb5Bi2As
_chemical_formula_sum   'Yb20 Bi8 As4'
_cell_volume   976.29090234
_cell_formula_units_Z   4
loop_
 _symmetry_equiv_pos_site_id
 _symmetry_equiv_pos_as_xyz
  1  'x, y, z'
loop_
 _atom_site_type_symbol
 _atom_site_label
 _atom_site_symmetry_multiplicity
 _atom_site_fract_x
 _atom_site_fract_y
 _atom_site_fract_z
 _atom_site_occupancy
  Yb  Yb0  1  0.815602  0.540782  0.069831  1
  Yb  Yb1  1  0.828660  0.250000  0.783023  1
  Yb  Yb2  1  0.045721  0.750000  0.502400  1
  Yb  Yb3  1  0.361644  0.250000  0.703086  1
  Yb  Yb4  1  0.184398  0.040782  0.930169  1
  Yb  Yb5  1  0.545721  0.250000  0.997600  1
  Yb  Yb6  1  0.861644  0.750000  0.796914  1
  Yb  Yb7  1  0.328660  0.750000  0.716977  1
  Yb  Yb8  1  0.315602  0.459218  0.430169  1
  Yb  Yb9  1  0.671340  0.250000  0.283023  1
  Yb  Yb10  1  0.454279  0.750000  0.002400  1
  Yb  Yb11  1  0.684398  0.540782  0.569831  1
  Yb  Yb12  1  0.954279  0.250000  0.497600  1
  Yb  Yb13  1  0.138356  0.250000  0.203086  1
  Yb  Yb14  1  0.171340  0.750000  0.216977  1
  Yb  Yb15  1  0.184398  0.459218  0.930169  1
  Yb  Yb16  1  0.815602  0.959218  0.069831  1
  Yb  Yb17  1  0.684398  0.959218  0.569831  1
  Yb  Yb18  1  0.315602  0.040782  0.430169  1
  Yb  Yb19  1  0.638356  0.750000  0.296914  1
  Bi  Bi20  1  0.065475  0.011622  0.672328  1
  Bi  Bi21  1  0.934525  0.988378  0.327672  1
  Bi  Bi22  1  0.065475  0.488378  0.672328  1
  Bi  Bi23  1  0.565475  0.988378  0.827672  1
  Bi  Bi24  1  0.434525  0.011622  0.172328  1
  Bi  Bi25  1  0.434525  0.488378  0.172328  1
  Bi  Bi26  1  0.565475  0.511622  0.827672  1
  Bi  Bi27  1  0.934525  0.511622  0.327672  1
  As  As28  1  0.421566  0.750000  0.485247  1
  As  As29  1  0.578434  0.250000  0.514753  1
  As  As30  1  0.078434  0.750000  0.985247  1
  As  As31  1  0.921566  0.250000  0.014753  1
