# generated using pymatgen
data_CsRb3Ba8I20
_symmetry_space_group_name_H-M   'P 1'
_cell_length_a   9.46174826
_cell_length_b   10.57173547
_cell_length_c   15.19435407
_cell_angle_alpha   89.75400213
_cell_angle_beta   89.96046738
_cell_angle_gamma   90.12471761
_symmetry_Int_Tables_number   1
_chemical_formula_structural   CsRb3Ba8I20
_chemical_formula_sum   'Cs1 Rb3 Ba8 I20'
_cell_volume   1519.82918811
_cell_formula_units_Z   1
loop_
 _symmetry_equiv_pos_site_id
 _symmetry_equiv_pos_as_xyz
  1  'x, y, z'
loop_
 _atom_site_type_symbol
 _atom_site_label
 _atom_site_symmetry_multiplicity
 _atom_site_fract_x
 _atom_site_fract_y
 _atom_site_fract_z
 _atom_site_occupancy
  Cs  Cs0  1  0.464478  0.497506  0.828032  1
  Rb  Rb1  1  0.526592  0.497998  0.177650  1
  Rb  Rb2  1  0.973263  0.498359  0.676085  1
  Rb  Rb3  1  0.026818  0.501727  0.323644  1
  Ba  Ba4  1  0.476974  0.999549  0.821241  1
  Ba  Ba5  1  0.523994  0.000471  0.179517  1
  Ba  Ba6  1  0.975671  0.000555  0.677380  1
  Ba  Ba7  1  0.023677  0.999744  0.321787  1
  Ba  Ba8  1  0.424872  0.750611  0.506661  1
  Ba  Ba9  1  0.575519  0.249527  0.492201  1
  Ba  Ba10  1  0.926139  0.248766  0.993614  1
  Ba  Ba11  1  0.075745  0.751752  0.008241  1
  I  I12  1  0.331076  0.460163  0.587028  1
  I  I13  1  0.664295  0.539156  0.406423  1
  I  I14  1  0.842993  0.537705  0.906497  1
  I  I15  1  0.166082  0.462052  0.093667  1
  I  I16  1  0.668542  0.784281  0.682052  1
  I  I17  1  0.331952  0.217099  0.316597  1
  I  I18  1  0.167967  0.216225  0.816789  1
  I  I19  1  0.831494  0.782362  0.183396  1
  I  I20  1  0.194902  0.772732  0.783508  1
  I  I21  1  0.803456  0.231239  0.217281  1
  I  I22  1  0.697967  0.229391  0.715762  1
  I  I23  1  0.302694  0.769129  0.283246  1
  I  I24  1  0.043809  0.779171  0.502896  1
  I  I25  1  0.956353  0.221294  0.495784  1
  I  I26  1  0.545404  0.218679  0.998240  1
  I  I27  1  0.455947  0.781704  0.004137  1
  I  I28  1  0.838108  0.957335  0.899244  1
  I  I29  1  0.162189  0.043455  0.101928  1
  I  I30  1  0.338898  0.042541  0.600847  1
  I  I31  1  0.662129  0.957720  0.398623  1
