# generated using pymatgen
data_Nd5DyTa2O14
_symmetry_space_group_name_H-M   'P 1'
_cell_length_a   6.67036369
_cell_length_b   6.64128051
_cell_length_c   7.69185800
_cell_angle_alpha   90.00000000
_cell_angle_beta   90.00000000
_cell_angle_gamma   108.59877076
_symmetry_Int_Tables_number   1
_chemical_formula_structural   Nd5DyTa2O14
_chemical_formula_sum   'Nd5 Dy1 Ta2 O14'
_cell_volume   322.95198706
_cell_formula_units_Z   1
loop_
 _symmetry_equiv_pos_site_id
 _symmetry_equiv_pos_as_xyz
  1  'x, y, z'
loop_
 _atom_site_type_symbol
 _atom_site_label
 _atom_site_symmetry_multiplicity
 _atom_site_fract_x
 _atom_site_fract_y
 _atom_site_fract_z
 _atom_site_occupancy
  Nd  Nd0  1  0.536239  0.528930  0.499076  1
  Nd  Nd1  1  0.536239  0.528930  0.000924  1
  Nd  Nd2  1  0.007138  0.461591  0.750000  1
  Nd  Nd3  1  0.532814  0.003482  0.750000  1
  Nd  Nd4  1  0.463420  0.004054  0.250000  1
  Dy  Dy5  1  0.003937  0.532004  0.250000  1
  Ta  Ta6  1  0.001244  0.001291  0.497782  1
  Ta  Ta7  1  0.001244  0.001291  0.002218  1
  O  O8  1  0.945711  0.056534  0.750000  1
  O  O9  1  0.059181  0.934696  0.250000  1
  O  O10  1  0.354671  0.634359  0.250000  1
  O  O11  1  0.643233  0.369096  0.750000  1
  O  O12  1  0.372614  0.631242  0.750000  1
  O  O13  1  0.643683  0.377841  0.250000  1
  O  O14  1  0.308338  0.070475  0.969551  1
  O  O15  1  0.678267  0.917970  0.472980  1
  O  O16  1  0.308338  0.070475  0.530449  1
  O  O17  1  0.678267  0.917970  0.027020  1
  O  O18  1  0.032139  0.298613  0.457947  1
  O  O19  1  0.930572  0.680271  0.975823  1
  O  O20  1  0.930572  0.680271  0.524177  1
  O  O21  1  0.032139  0.298613  0.042053  1
