# generated using pymatgen
data_TbY3Tc5Ru3
_symmetry_space_group_name_H-M   'P 1'
_cell_length_a   5.33580354
_cell_length_b   5.33580383
_cell_length_c   9.18713538
_cell_angle_alpha   90.02887053
_cell_angle_beta   89.97113023
_cell_angle_gamma   122.16658554
_symmetry_Int_Tables_number   1
_chemical_formula_structural   TbY3Tc5Ru3
_chemical_formula_sum   'Tb1 Y3 Tc5 Ru3'
_cell_volume   221.41581479
_cell_formula_units_Z   1
loop_
 _symmetry_equiv_pos_site_id
 _symmetry_equiv_pos_as_xyz
  1  'x, y, z'
loop_
 _atom_site_type_symbol
 _atom_site_label
 _atom_site_symmetry_multiplicity
 _atom_site_fract_x
 _atom_site_fract_y
 _atom_site_fract_z
 _atom_site_occupancy
  Tb  Tb0  1  0.335733  0.664267  0.435439  1
  Y  Y1  1  0.665345  0.334655  0.563356  1
  Y  Y2  1  0.665219  0.334781  0.936556  1
  Y  Y3  1  0.335694  0.664306  0.064870  1
  Tc  Tc4  1  0.170173  0.340880  0.750164  1
  Tc  Tc5  1  0.171083  0.828917  0.750230  1
  Tc  Tc6  1  0.338160  0.174394  0.249806  1
  Tc  Tc7  1  0.825606  0.661840  0.249806  1
  Tc  Tc8  1  0.659120  0.829827  0.750164  1
  Ru  Ru9  1  0.004701  0.995299  0.002050  1
  Ru  Ru10  1  0.824504  0.175496  0.249825  1
  Ru  Ru11  1  0.004661  0.995339  0.497733  1
