# generated using pymatgen
data_Tm12Fe4PdPb
_symmetry_space_group_name_H-M   'P 1'
_cell_length_a   8.28014910
_cell_length_b   8.28014871
_cell_length_c   8.28014900
_cell_angle_alpha   111.13055272
_cell_angle_beta   110.47725316
_cell_angle_gamma   106.83821603
_symmetry_Int_Tables_number   1
_chemical_formula_structural   Tm12Fe4PdPb
_chemical_formula_sum   'Tm12 Fe4 Pd1 Pb1'
_cell_volume   436.30812366
_cell_formula_units_Z   1
loop_
 _symmetry_equiv_pos_site_id
 _symmetry_equiv_pos_as_xyz
  1  'x, y, z'
loop_
 _atom_site_type_symbol
 _atom_site_label
 _atom_site_symmetry_multiplicity
 _atom_site_fract_x
 _atom_site_fract_y
 _atom_site_fract_z
 _atom_site_occupancy
  Tm  Tm0  1  0.582280  0.284934  0.297346  1
  Tm  Tm1  1  0.186061  0.210301  0.396361  1
  Tm  Tm2  1  0.186061  0.789699  0.975761  1
  Tm  Tm3  1  0.688502  0.491560  0.803056  1
  Tm  Tm4  1  0.688502  0.885445  0.196944  1
  Tm  Tm5  1  0.987588  0.284934  0.702654  1
  Tm  Tm6  1  0.012412  0.715066  0.297346  1
  Tm  Tm7  1  0.311498  0.114555  0.803056  1
  Tm  Tm8  1  0.311498  0.508440  0.196944  1
  Tm  Tm9  1  0.813939  0.210301  0.024239  1
  Tm  Tm10  1  0.813939  0.789699  0.603639  1
  Tm  Tm11  1  0.417720  0.715066  0.702654  1
  Fe  Fe12  1  0.892065  0.892065  0.000000  1
  Fe  Fe13  1  0.385415  0.500000  0.885415  1
  Fe  Fe14  1  0.614585  0.500000  0.114585  1
  Fe  Fe15  1  0.107935  0.107935  0.000000  1
  Pd  Pd16  1  0.000000  0.500000  0.500000  1
  Pb  Pb17  1  0.500000  0.000000  0.500000  1
