# generated using pymatgen
data_LiHf3Sc2(AsRu)6
_symmetry_space_group_name_H-M   'P 1'
_cell_length_a   7.65527385
_cell_length_b   7.66439755
_cell_length_c   7.65527444
_cell_angle_alpha   128.15546572
_cell_angle_beta   120.94815957
_cell_angle_gamma   82.37794578
_symmetry_Int_Tables_number   1
_chemical_formula_structural   LiHf3Sc2(AsRu)6
_chemical_formula_sum   'Li1 Hf3 Sc2 As6 Ru6'
_cell_volume   291.27795706
_cell_formula_units_Z   1
loop_
 _symmetry_equiv_pos_site_id
 _symmetry_equiv_pos_as_xyz
  1  'x, y, z'
loop_
 _atom_site_type_symbol
 _atom_site_label
 _atom_site_symmetry_multiplicity
 _atom_site_fract_x
 _atom_site_fract_y
 _atom_site_fract_z
 _atom_site_occupancy
  Li  Li0  1  0.476671  0.716334  0.739664  1
  Hf  Hf1  1  0.247834  0.831523  0.083687  1
  Hf  Hf2  1  0.051934  0.256939  0.705004  1
  Hf  Hf3  1  0.948051  0.650391  0.202340  1
  Sc  Sc4  1  0.527476  0.255725  0.228250  1
  Sc  Sc5  1  0.749116  0.832853  0.583736  1
  As  As6  1  0.288311  0.285516  0.497206  1
  As  As7  1  0.720940  0.217792  0.996852  1
  As  As8  1  0.332731  0.587541  0.260219  1
  As  As9  1  0.666804  0.915348  0.248286  1
  As  As10  1  0.167060  0.915348  0.748543  1
  As  As11  1  0.827322  0.587541  0.754810  1
  Ru  Ru12  1  0.491408  0.493328  0.989668  1
  Ru  Ru13  1  0.003660  0.493328  0.501921  1
  Ru  Ru14  1  0.086822  0.248804  0.093545  1
  Ru  Ru15  1  0.915460  0.011245  0.168103  1
  Ru  Ru16  1  0.343141  0.011245  0.595784  1
  Ru  Ru17  1  0.655258  0.248804  0.661982  1
