# generated using pymatgen
data_Ho5Al2SnC4
_symmetry_space_group_name_H-M   'P 1'
_cell_length_a   10.91802600
_cell_length_b   10.91802600
_cell_length_c   3.53126900
_cell_angle_alpha   90.00000000
_cell_angle_beta   90.00000000
_cell_angle_gamma   90.00000000
_symmetry_Int_Tables_number   1
_chemical_formula_structural   Ho5Al2SnC4
_chemical_formula_sum   'Ho10 Al4 Sn2 C8'
_cell_volume   420.93888881
_cell_formula_units_Z   2
loop_
 _symmetry_equiv_pos_site_id
 _symmetry_equiv_pos_as_xyz
  1  'x, y, z'
loop_
 _atom_site_type_symbol
 _atom_site_label
 _atom_site_symmetry_multiplicity
 _atom_site_fract_x
 _atom_site_fract_y
 _atom_site_fract_z
 _atom_site_occupancy
  Ho  Ho0  1  0.550365  0.733682  0.500000  1
  Ho  Ho1  1  0.449635  0.266318  0.500000  1
  Ho  Ho2  1  0.050365  0.766318  0.500000  1
  Ho  Ho3  1  0.949635  0.233682  0.500000  1
  Ho  Ho4  1  0.266318  0.550365  0.500000  1
  Ho  Ho5  1  0.733682  0.449635  0.500000  1
  Ho  Ho6  1  0.233682  0.050365  0.500000  1
  Ho  Ho7  1  0.766318  0.949635  0.500000  1
  Ho  Ho8  1  0.500000  0.000000  0.000000  1
  Ho  Ho9  1  0.000000  0.500000  0.000000  1
  Al  Al10  1  0.703750  0.203750  0.000000  1
  Al  Al11  1  0.296250  0.796250  0.000000  1
  Al  Al12  1  0.203750  0.296250  0.000000  1
  Al  Al13  1  0.796250  0.703750  0.000000  1
  Sn  Sn14  1  0.500000  0.500000  0.000000  1
  Sn  Sn15  1  0.000000  0.000000  0.000000  1
  C  C16  1  0.632309  0.132309  0.500000  1
  C  C17  1  0.367691  0.867691  0.500000  1
  C  C18  1  0.132309  0.367691  0.500000  1
  C  C19  1  0.867691  0.632309  0.500000  1
  C  C20  1  0.162296  0.662296  0.000000  1
  C  C21  1  0.837704  0.337704  0.000000  1
  C  C22  1  0.662296  0.837704  0.000000  1
  C  C23  1  0.337704  0.162296  0.000000  1
