# generated using pymatgen
data_ZrNb2FeB7
_symmetry_space_group_name_H-M   'P 1'
_cell_length_a   3.25074500
_cell_length_b   7.38504978
_cell_length_c   8.92180200
_cell_angle_alpha   90.00000000
_cell_angle_beta   90.00000000
_cell_angle_gamma   77.28570950
_symmetry_Int_Tables_number   1
_chemical_formula_structural   ZrNb2FeB7
_chemical_formula_sum   'Zr2 Nb4 Fe2 B14'
_cell_volume   208.93304727
_cell_formula_units_Z   2
loop_
 _symmetry_equiv_pos_site_id
 _symmetry_equiv_pos_as_xyz
  1  'x, y, z'
loop_
 _atom_site_type_symbol
 _atom_site_label
 _atom_site_symmetry_multiplicity
 _atom_site_fract_x
 _atom_site_fract_y
 _atom_site_fract_z
 _atom_site_occupancy
  Zr  Zr0  1  0.751226  0.497551  0.250000  1
  Zr  Zr1  1  0.248776  0.502449  0.750000  1
  Nb  Nb2  1  0.105652  0.788697  0.052310  1
  Nb  Nb3  1  0.105652  0.788697  0.447689  1
  Nb  Nb4  1  0.894350  0.211302  0.552311  1
  Nb  Nb5  1  0.894350  0.211302  0.947690  1
  Fe  Fe6  1  0.952356  0.095290  0.250000  1
  Fe  Fe7  1  0.047645  0.904710  0.750000  1
  B  B8  1  0.273480  0.453041  0.032942  1
  B  B9  1  0.484863  0.030276  0.094459  1
  B  B10  1  0.369148  0.261707  0.151507  1
  B  B11  1  0.564447  0.871111  0.250000  1
  B  B12  1  0.369148  0.261707  0.348494  1
  B  B13  1  0.484863  0.030276  0.405541  1
  B  B14  1  0.273480  0.453041  0.467058  1
  B  B15  1  0.726522  0.546959  0.532942  1
  B  B16  1  0.515140  0.969723  0.594459  1
  B  B17  1  0.630854  0.738292  0.651506  1
  B  B18  1  0.435555  0.128889  0.750000  1
  B  B19  1  0.630854  0.738292  0.848493  1
  B  B20  1  0.515140  0.969723  0.905541  1
  B  B21  1  0.726522  0.546959  0.967058  1
