# generated using pymatgen
data_Hf2V2SiP
_symmetry_space_group_name_H-M   'P 1'
_cell_length_a   3.48260000
_cell_length_b   6.69265600
_cell_length_c   7.98594500
_cell_angle_alpha   90.00000000
_cell_angle_beta   90.00000000
_cell_angle_gamma   90.00000000
_symmetry_Int_Tables_number   1
_chemical_formula_structural   Hf2V2SiP
_chemical_formula_sum   'Hf4 V4 Si2 P2'
_cell_volume   186.13515854
_cell_formula_units_Z   2
loop_
 _symmetry_equiv_pos_site_id
 _symmetry_equiv_pos_as_xyz
  1  'x, y, z'
loop_
 _atom_site_type_symbol
 _atom_site_label
 _atom_site_symmetry_multiplicity
 _atom_site_fract_x
 _atom_site_fract_y
 _atom_site_fract_z
 _atom_site_occupancy
  Hf  Hf0  1  0.250000  0.040112  0.829655  1
  Hf  Hf1  1  0.250000  0.540112  0.670345  1
  Hf  Hf2  1  0.750000  0.956124  0.165473  1
  Hf  Hf3  1  0.750000  0.456124  0.334527  1
  V  V4  1  0.250000  0.129647  0.445641  1
  V  V5  1  0.250000  0.629647  0.054359  1
  V  V6  1  0.750000  0.873245  0.562532  1
  V  V7  1  0.750000  0.373245  0.937468  1
  Si  Si8  1  0.250000  0.760778  0.364592  1
  Si  Si9  1  0.250000  0.260778  0.135408  1
  P  P10  1  0.750000  0.240095  0.637241  1
  P  P11  1  0.750000  0.740095  0.862759  1
