# generated using pymatgen
data_Eu10Cd3Ir
_symmetry_space_group_name_H-M   'P 1'
_cell_length_a   10.39315800
_cell_length_b   10.39315899
_cell_length_c   10.52915100
_cell_angle_alpha   90.00000000
_cell_angle_beta   90.00000000
_cell_angle_gamma   119.99999684
_symmetry_Int_Tables_number   1
_chemical_formula_structural   Eu10Cd3Ir
_chemical_formula_sum   'Eu20 Cd6 Ir2'
_cell_volume   984.96114858
_cell_formula_units_Z   2
loop_
 _symmetry_equiv_pos_site_id
 _symmetry_equiv_pos_as_xyz
  1  'x, y, z'
loop_
 _atom_site_type_symbol
 _atom_site_label
 _atom_site_symmetry_multiplicity
 _atom_site_fract_x
 _atom_site_fract_y
 _atom_site_fract_z
 _atom_site_occupancy
  Eu  Eu0  1  0.000000  0.000000  0.500000  1
  Eu  Eu1  1  0.000000  0.000000  0.000000  1
  Eu  Eu2  1  0.208771  0.791229  0.435387  1
  Eu  Eu3  1  0.208771  0.417541  0.435387  1
  Eu  Eu4  1  0.582459  0.791229  0.435387  1
  Eu  Eu5  1  0.791229  0.208771  0.564613  1
  Eu  Eu6  1  0.791229  0.582459  0.564613  1
  Eu  Eu7  1  0.417541  0.208771  0.564613  1
  Eu  Eu8  1  0.791229  0.208771  0.935387  1
  Eu  Eu9  1  0.791229  0.582459  0.935387  1
  Eu  Eu10  1  0.417541  0.208771  0.935387  1
  Eu  Eu11  1  0.208771  0.791229  0.064613  1
  Eu  Eu12  1  0.208771  0.417541  0.064613  1
  Eu  Eu13  1  0.582459  0.791229  0.064613  1
  Eu  Eu14  1  0.538639  0.461361  0.250000  1
  Eu  Eu15  1  0.538639  0.077276  0.250000  1
  Eu  Eu16  1  0.922724  0.461361  0.250000  1
  Eu  Eu17  1  0.461361  0.538639  0.750000  1
  Eu  Eu18  1  0.461361  0.922724  0.750000  1
  Eu  Eu19  1  0.077276  0.538639  0.750000  1
  Cd  Cd20  1  0.885415  0.114585  0.250000  1
  Cd  Cd21  1  0.885415  0.770832  0.250000  1
  Cd  Cd22  1  0.229168  0.114585  0.250000  1
  Cd  Cd23  1  0.114585  0.885415  0.750000  1
  Cd  Cd24  1  0.114585  0.229168  0.750000  1
  Cd  Cd25  1  0.770832  0.885415  0.750000  1
  Ir  Ir26  1  0.333333  0.666667  0.250000  1
  Ir  Ir27  1  0.666667  0.333333  0.750000  1
