# generated using pymatgen
data_Th4Sc4Mn(CrB8)3
_symmetry_space_group_name_H-M   'P 1'
_cell_length_a   3.57539200
_cell_length_b   9.07594517
_cell_length_c   11.53197822
_cell_angle_alpha   89.97757947
_cell_angle_beta   90.00000000
_cell_angle_gamma   90.00000000
_symmetry_Int_Tables_number   1
_chemical_formula_structural   Th4Sc4Mn(CrB8)3
_chemical_formula_sum   'Th4 Sc4 Mn1 Cr3 B24'
_cell_volume   374.21337690
_cell_formula_units_Z   1
loop_
 _symmetry_equiv_pos_site_id
 _symmetry_equiv_pos_as_xyz
  1  'x, y, z'
loop_
 _atom_site_type_symbol
 _atom_site_label
 _atom_site_symmetry_multiplicity
 _atom_site_fract_x
 _atom_site_fract_y
 _atom_site_fract_z
 _atom_site_occupancy
  Th  Th0  1  0.000000  0.822795  0.084991  1
  Th  Th1  1  0.000000  0.178067  0.915529  1
  Th  Th2  1  0.000000  0.321443  0.414797  1
  Th  Th3  1  0.000000  0.678113  0.585078  1
  Sc  Sc4  1  0.000000  0.443819  0.129352  1
  Sc  Sc5  1  0.000000  0.554928  0.871180  1
  Sc  Sc6  1  0.000000  0.945103  0.370321  1
  Sc  Sc7  1  0.000000  0.055456  0.628907  1
  Mn  Mn8  1  0.000000  0.141882  0.183273  1
  Cr  Cr9  1  0.000000  0.858216  0.816881  1
  Cr  Cr10  1  0.000000  0.642088  0.316653  1
  Cr  Cr11  1  0.000000  0.358034  0.682912  1
  B  B12  1  0.500000  0.059491  0.074089  1
  B  B13  1  0.500000  0.942108  0.927584  1
  B  B14  1  0.500000  0.557707  0.427413  1
  B  B15  1  0.500000  0.442043  0.572282  1
  B  B16  1  0.500000  0.253354  0.086565  1
  B  B17  1  0.500000  0.745382  0.914869  1
  B  B18  1  0.500000  0.754529  0.414415  1
  B  B19  1  0.500000  0.245557  0.585190  1
  B  B20  1  0.500000  0.292222  0.233563  1
  B  B21  1  0.500000  0.705874  0.766316  1
  B  B22  1  0.500000  0.794374  0.265867  1
  B  B23  1  0.500000  0.205827  0.733804  1
  B  B24  1  0.500000  0.128648  0.314774  1
  B  B25  1  0.500000  0.871754  0.684183  1
  B  B26  1  0.500000  0.628529  0.183784  1
  B  B27  1  0.500000  0.371264  0.816021  1
  B  B28  1  0.500000  0.484184  0.283721  1
  B  B29  1  0.500000  0.515468  0.716241  1
  B  B30  1  0.500000  0.986353  0.215623  1
  B  B31  1  0.500000  0.015908  0.784023  1
  B  B32  1  0.500000  0.095339  0.473970  1
  B  B33  1  0.500000  0.904532  0.525100  1
  B  B34  1  0.500000  0.595475  0.025643  1
  B  B35  1  0.500000  0.404133  0.975089  1
