# generated using pymatgen
data_Hf16Ni4MoIr3N2
_symmetry_space_group_name_H-M   'P 1'
_cell_length_a   8.66137970
_cell_length_b   8.60908645
_cell_length_c   8.66137987
_cell_angle_alpha   119.94510722
_cell_angle_beta   120.31411001
_cell_angle_gamma   89.94832186
_symmetry_Int_Tables_number   1
_chemical_formula_structural   Hf16Ni4MoIr3N2
_chemical_formula_sum   'Hf16 Ni4 Mo1 Ir3 N2'
_cell_volume   455.09252756
_cell_formula_units_Z   1
loop_
 _symmetry_equiv_pos_site_id
 _symmetry_equiv_pos_as_xyz
  1  'x, y, z'
loop_
 _atom_site_type_symbol
 _atom_site_label
 _atom_site_symmetry_multiplicity
 _atom_site_fract_x
 _atom_site_fract_y
 _atom_site_fract_z
 _atom_site_occupancy
  Hf  Hf0  1  0.935878  0.183307  0.747429  1
  Hf  Hf1  1  0.321505  0.571515  0.750011  1
  Hf  Hf2  1  0.932183  0.568576  0.754596  1
  Hf  Hf3  1  0.311541  0.174829  0.743673  1
  Hf  Hf4  1  0.931156  0.174829  0.363288  1
  Hf  Hf5  1  0.313979  0.568576  0.136393  1
  Hf  Hf6  1  0.056960  0.807441  0.250481  1
  Hf  Hf7  1  0.689026  0.442785  0.253758  1
  Hf  Hf8  1  0.058222  0.438591  0.244458  1
  Hf  Hf9  1  0.692595  0.812948  0.258838  1
  Hf  Hf10  1  0.054111  0.812948  0.620354  1
  Hf  Hf11  1  0.694134  0.438591  0.880369  1
  Hf  Hf12  1  0.487201  0.011288  0.024086  1
  Hf  Hf13  1  0.483884  0.452850  0.468968  1
  Hf  Hf14  1  0.482021  0.017266  0.466132  1
  Hf  Hf15  1  0.051133  0.017266  0.035244  1
  Ni  Ni16  1  0.272168  0.234776  0.462608  1
  Ni  Ni17  1  0.274893  0.813468  0.038575  1
  Ni  Ni18  1  0.278449  0.227264  0.045708  1
  Ni  Ni19  1  0.681555  0.227264  0.448815  1
  Mo  Mo20  1  0.706965  0.792476  0.585511  1
  Ir  Ir21  1  0.709772  0.132136  0.922365  1
  Ir  Ir22  1  0.708796  0.789767  0.917507  1
  Ir  Ir23  1  0.372259  0.789767  0.580971  1
  N  N24  1  0.998680  0.499776  0.001096  1
  N  N25  1  0.000938  0.999704  0.498767  1
