# generated using pymatgen
data_Ga12FeMoIr2
_symmetry_space_group_name_H-M   'P 1'
_cell_length_a   6.53504409
_cell_length_b   6.52179101
_cell_length_c   6.83216400
_cell_angle_alpha   90.00000000
_cell_angle_beta   90.00000000
_cell_angle_gamma   89.28406512
_symmetry_Int_Tables_number   1
_chemical_formula_structural   Ga12FeMoIr2
_chemical_formula_sum   'Ga12 Fe1 Mo1 Ir2'
_cell_volume   291.16540799
_cell_formula_units_Z   1
loop_
 _symmetry_equiv_pos_site_id
 _symmetry_equiv_pos_as_xyz
  1  'x, y, z'
loop_
 _atom_site_type_symbol
 _atom_site_label
 _atom_site_symmetry_multiplicity
 _atom_site_fract_x
 _atom_site_fract_y
 _atom_site_fract_z
 _atom_site_occupancy
  Ga  Ga0  1  0.000022  0.503559  0.500000  1
  Ga  Ga1  1  0.493852  0.006595  0.000000  1
  Ga  Ga2  1  0.500835  0.998625  0.500000  1
  Ga  Ga3  1  0.008974  0.486481  0.000000  1
  Ga  Ga4  1  0.339781  0.646468  0.233378  1
  Ga  Ga5  1  0.643950  0.342735  0.229890  1
  Ga  Ga6  1  0.169467  0.160363  0.742218  1
  Ga  Ga7  1  0.848328  0.841066  0.736309  1
  Ga  Ga8  1  0.643950  0.342735  0.770110  1
  Ga  Ga9  1  0.339781  0.646468  0.766622  1
  Ga  Ga10  1  0.848328  0.841066  0.263691  1
  Ga  Ga11  1  0.169467  0.160363  0.257782  1
  Fe  Fe12  1  0.344746  0.344286  0.000000  1
  Mo  Mo13  1  0.156048  0.848916  0.500000  1
  Ir  Ir14  1  0.833181  0.170910  0.500000  1
  Ir  Ir15  1  0.659290  0.659362  0.000000  1
