# generated using pymatgen
data_Dy3HfAl17SiIr6
_symmetry_space_group_name_H-M   'P 1'
_cell_length_a   7.53948801
_cell_length_b   7.53071447
_cell_length_c   9.35071400
_cell_angle_alpha   90.00000000
_cell_angle_beta   90.00000000
_cell_angle_gamma   119.68355946
_symmetry_Int_Tables_number   1
_chemical_formula_structural   Dy3HfAl17SiIr6
_chemical_formula_sum   'Dy3 Hf1 Al17 Si1 Ir6'
_cell_volume   461.24263934
_cell_formula_units_Z   1
loop_
 _symmetry_equiv_pos_site_id
 _symmetry_equiv_pos_as_xyz
  1  'x, y, z'
loop_
 _atom_site_type_symbol
 _atom_site_label
 _atom_site_symmetry_multiplicity
 _atom_site_fract_x
 _atom_site_fract_y
 _atom_site_fract_z
 _atom_site_occupancy
  Dy  Dy0  1  0.006787  0.323414  0.250000  1
  Dy  Dy1  1  0.670597  0.995395  0.750000  1
  Dy  Dy2  1  0.324309  0.007170  0.250000  1
  Hf  Hf3  1  0.995161  0.671151  0.750000  1
  Al  Al4  1  0.124255  0.121869  0.750000  1
  Al  Al5  1  0.000717  0.337683  0.578842  1
  Al  Al6  1  0.999864  0.663239  0.427659  1
  Al  Al7  1  0.999864  0.663239  0.072341  1
  Al  Al8  1  0.331539  0.998094  0.921121  1
  Al  Al9  1  0.000717  0.337683  0.921158  1
  Al  Al10  1  0.662696  0.998769  0.076528  1
  Al  Al11  1  0.662696  0.998769  0.423472  1
  Al  Al12  1  0.331539  0.998094  0.578879  1
  Al  Al13  1  0.336672  0.336719  0.051075  1
  Al  Al14  1  0.670266  0.667734  0.938473  1
  Al  Al15  1  0.670266  0.667734  0.561527  1
  Al  Al16  1  0.336672  0.336719  0.448925  1
  Al  Al17  1  0.334575  0.548245  0.750000  1
  Al  Al18  1  0.664944  0.452082  0.250000  1
  Al  Al19  1  0.553109  0.342284  0.750000  1
  Al  Al20  1  0.450058  0.662416  0.250000  1
  Si  Si21  1  0.867700  0.866657  0.250000  1
  Ir  Ir22  1  0.673870  0.329864  0.500927  1
  Ir  Ir23  1  0.329710  0.673845  0.501368  1
  Ir  Ir24  1  0.329710  0.673845  0.998632  1
  Ir  Ir25  1  0.673870  0.329864  0.999073  1
  Ir  Ir26  1  0.998916  0.998713  0.494648  1
  Ir  Ir27  1  0.998916  0.998713  0.005352  1
