# generated using pymatgen
data_Tb16Cd3HgIrRu3
_symmetry_space_group_name_H-M   'P 1'
_cell_length_a   9.67283241
_cell_length_b   9.67677404
_cell_length_c   9.67677387
_cell_angle_alpha   59.79534655
_cell_angle_beta   59.72123630
_cell_angle_gamma   59.72124554
_symmetry_Int_Tables_number   1
_chemical_formula_structural   Tb16Cd3HgIrRu3
_chemical_formula_sum   'Tb16 Cd3 Hg1 Ir1 Ru3'
_cell_volume   636.77581733
_cell_formula_units_Z   1
loop_
 _symmetry_equiv_pos_site_id
 _symmetry_equiv_pos_as_xyz
  1  'x, y, z'
loop_
 _atom_site_type_symbol
 _atom_site_label
 _atom_site_symmetry_multiplicity
 _atom_site_fract_x
 _atom_site_fract_y
 _atom_site_fract_z
 _atom_site_occupancy
  Tb  Tb0  1  0.596183  0.598796  0.598796  1
  Tb  Tb1  1  0.596397  0.598224  0.207551  1
  Tb  Tb2  1  0.596397  0.207551  0.598224  1
  Tb  Tb3  1  0.209548  0.596639  0.596639  1
  Tb  Tb4  1  0.062459  0.438582  0.438582  1
  Tb  Tb5  1  0.438734  0.060003  0.060003  1
  Tb  Tb6  1  0.438478  0.061117  0.438244  1
  Tb  Tb7  1  0.061084  0.439070  0.058511  1
  Tb  Tb8  1  0.438478  0.438244  0.061117  1
  Tb  Tb9  1  0.061084  0.058511  0.439070  1
  Tb  Tb10  1  0.186897  0.811788  0.811788  1
  Tb  Tb11  1  0.810495  0.188623  0.188623  1
  Tb  Tb12  1  0.811136  0.187195  0.812800  1
  Tb  Tb13  1  0.189046  0.810663  0.189264  1
  Tb  Tb14  1  0.811136  0.812800  0.187195  1
  Tb  Tb15  1  0.189046  0.189264  0.810663  1
  Cd  Cd16  1  0.829653  0.829489  0.509331  1
  Cd  Cd17  1  0.829653  0.509331  0.829489  1
  Cd  Cd18  1  0.509019  0.829540  0.829540  1
  Hg  Hg19  1  0.833950  0.834037  0.834037  1
  Ir  Ir20  1  0.827078  0.391843  0.391843  1
  Ru  Ru21  1  0.390501  0.388718  0.388718  1
  Ru  Ru22  1  0.391773  0.389710  0.830264  1
  Ru  Ru23  1  0.391773  0.830264  0.389710  1
