# generated using pymatgen
data_K7NbIn3As5
_symmetry_space_group_name_H-M   'P 1'
_cell_length_a   8.39347200
_cell_length_b   9.37739569
_cell_length_c   14.06291483
_cell_angle_alpha   85.90838056
_cell_angle_beta   83.84448143
_cell_angle_gamma   88.29837688
_symmetry_Int_Tables_number   1
_chemical_formula_structural   K7NbIn3As5
_chemical_formula_sum   'K14 Nb2 In6 As10'
_cell_volume   1097.41886223
_cell_formula_units_Z   2
loop_
 _symmetry_equiv_pos_site_id
 _symmetry_equiv_pos_as_xyz
  1  'x, y, z'
loop_
 _atom_site_type_symbol
 _atom_site_label
 _atom_site_symmetry_multiplicity
 _atom_site_fract_x
 _atom_site_fract_y
 _atom_site_fract_z
 _atom_site_occupancy
  K  K0  1  0.826401  0.363027  0.645053  1
  K  K1  1  0.814989  0.810869  0.130948  1
  K  K2  1  0.243383  0.006735  0.467330  1
  K  K3  1  0.270904  0.258665  0.251918  1
  K  K4  1  0.739057  0.500217  0.973855  1
  K  K5  1  0.260943  0.499783  0.026145  1
  K  K6  1  0.688765  0.082205  0.882874  1
  K  K7  1  0.756617  0.993265  0.532670  1
  K  K8  1  0.729096  0.741335  0.748082  1
  K  K9  1  0.320549  0.335586  0.605462  1
  K  K10  1  0.173599  0.636973  0.354947  1
  K  K11  1  0.185011  0.189131  0.869052  1
  K  K12  1  0.311235  0.917795  0.117126  1
  K  K13  1  0.679451  0.664414  0.394538  1
  Nb  Nb14  1  0.354060  0.601709  0.774149  1
  Nb  Nb15  1  0.645940  0.398291  0.225851  1
  In  In16  1  0.051139  0.816225  0.875398  1
  In  In17  1  0.948861  0.183775  0.124602  1
  In  In18  1  0.374393  0.959226  0.699606  1
  In  In19  1  0.085614  0.717893  0.617462  1
  In  In20  1  0.914386  0.282107  0.382538  1
  In  In21  1  0.625607  0.040774  0.300394  1
  As  As22  1  0.936772  0.461525  0.206714  1
  As  As23  1  0.613894  0.193759  0.118476  1
  As  As24  1  0.063228  0.538475  0.793286  1
  As  As25  1  0.575853  0.300308  0.398343  1
  As  As26  1  0.424147  0.699692  0.601657  1
  As  As27  1  0.024457  0.005503  0.698655  1
  As  As28  1  0.517450  0.392484  0.812591  1
  As  As29  1  0.482550  0.607516  0.187409  1
  As  As30  1  0.386106  0.806241  0.881524  1
  As  As31  1  0.975543  0.994497  0.301345  1
