# generated using pymatgen
data_Dy11Ni4Hg9
_symmetry_space_group_name_H-M   'P 1'
_cell_length_a   3.59891500
_cell_length_b   12.98353310
_cell_length_c   12.98353335
_cell_angle_alpha   112.38776842
_cell_angle_beta   90.00000000
_cell_angle_gamma   90.00000000
_symmetry_Int_Tables_number   1
_chemical_formula_structural   Dy11Ni4Hg9
_chemical_formula_sum   'Dy11 Ni4 Hg9'
_cell_volume   560.94995695
_cell_formula_units_Z   1
loop_
 _symmetry_equiv_pos_site_id
 _symmetry_equiv_pos_as_xyz
  1  'x, y, z'
loop_
 _atom_site_type_symbol
 _atom_site_label
 _atom_site_symmetry_multiplicity
 _atom_site_fract_x
 _atom_site_fract_y
 _atom_site_fract_z
 _atom_site_occupancy
  Dy  Dy0  1  0.000000  0.917577  0.583188  1
  Dy  Dy1  1  0.000000  0.082423  0.416812  1
  Dy  Dy2  1  0.000000  0.583188  0.917577  1
  Dy  Dy3  1  0.000000  0.416812  0.082423  1
  Dy  Dy4  1  0.000000  0.165109  0.834891  1
  Dy  Dy5  1  0.000000  0.834891  0.165109  1
  Dy  Dy6  1  0.000000  0.373036  0.626964  1
  Dy  Dy7  1  0.000000  0.626964  0.373036  1
  Dy  Dy8  1  0.000000  0.691651  0.691651  1
  Dy  Dy9  1  0.000000  0.308349  0.308349  1
  Dy  Dy10  1  0.000000  0.000000  0.000000  1
  Ni  Ni11  1  0.500000  0.747022  0.548645  1
  Ni  Ni12  1  0.500000  0.252978  0.451355  1
  Ni  Ni13  1  0.500000  0.548645  0.747022  1
  Ni  Ni14  1  0.500000  0.451355  0.252978  1
  Hg  Hg15  1  0.500000  0.154461  0.629706  1
  Hg  Hg16  1  0.500000  0.845539  0.370294  1
  Hg  Hg17  1  0.500000  0.629706  0.154461  1
  Hg  Hg18  1  0.500000  0.370294  0.845539  1
  Hg  Hg19  1  0.500000  0.929714  0.783214  1
  Hg  Hg20  1  0.500000  0.070286  0.216786  1
  Hg  Hg21  1  0.500000  0.783214  0.929714  1
  Hg  Hg22  1  0.500000  0.216786  0.070286  1
  Hg  Hg23  1  0.500000  0.500000  0.500000  1
