# generated using pymatgen
data_NdCoAs3Rh4
_symmetry_space_group_name_H-M   'P 1'
_cell_length_a   3.96429200
_cell_length_b   11.26056300
_cell_length_c   12.87660100
_cell_angle_alpha   90.00000000
_cell_angle_beta   90.00000000
_cell_angle_gamma   90.00000000
_symmetry_Int_Tables_number   1
_chemical_formula_structural   NdCoAs3Rh4
_chemical_formula_sum   'Nd4 Co4 As12 Rh16'
_cell_volume   574.81352653
_cell_formula_units_Z   4
loop_
 _symmetry_equiv_pos_site_id
 _symmetry_equiv_pos_as_xyz
  1  'x, y, z'
loop_
 _atom_site_type_symbol
 _atom_site_label
 _atom_site_symmetry_multiplicity
 _atom_site_fract_x
 _atom_site_fract_y
 _atom_site_fract_z
 _atom_site_occupancy
  Nd  Nd0  1  0.250000  0.584511  0.706492  1
  Nd  Nd1  1  0.250000  0.915489  0.206492  1
  Nd  Nd2  1  0.750000  0.415489  0.293508  1
  Nd  Nd3  1  0.750000  0.084511  0.793508  1
  Co  Co4  1  0.250000  0.467398  0.933058  1
  Co  Co5  1  0.250000  0.032602  0.433058  1
  Co  Co6  1  0.750000  0.532602  0.066942  1
  Co  Co7  1  0.750000  0.967398  0.566942  1
  As  As8  1  0.250000  0.420296  0.105810  1
  As  As9  1  0.250000  0.079704  0.605810  1
  As  As10  1  0.750000  0.579704  0.894190  1
  As  As11  1  0.750000  0.920296  0.394190  1
  As  As12  1  0.250000  0.274328  0.873944  1
  As  As13  1  0.250000  0.225672  0.373944  1
  As  As14  1  0.750000  0.725672  0.126056  1
  As  As15  1  0.750000  0.774328  0.626056  1
  As  As16  1  0.250000  0.601519  0.388740  1
  As  As17  1  0.250000  0.898481  0.888740  1
  As  As18  1  0.750000  0.398481  0.611260  1
  As  As19  1  0.750000  0.101519  0.111260  1
  Rh  Rh20  1  0.250000  0.711674  0.987997  1
  Rh  Rh21  1  0.250000  0.788326  0.487997  1
  Rh  Rh22  1  0.750000  0.288326  0.012003  1
  Rh  Rh23  1  0.750000  0.211674  0.512003  1
  Rh  Rh24  1  0.250000  0.407520  0.482288  1
  Rh  Rh25  1  0.250000  0.092480  0.982288  1
  Rh  Rh26  1  0.750000  0.592480  0.517712  1
  Rh  Rh27  1  0.750000  0.907520  0.017712  1
  Rh  Rh28  1  0.250000  0.221394  0.178114  1
  Rh  Rh29  1  0.250000  0.278606  0.678114  1
  Rh  Rh30  1  0.750000  0.778606  0.821886  1
  Rh  Rh31  1  0.750000  0.721394  0.321886  1
  Rh  Rh32  1  0.250000  0.886612  0.696026  1
  Rh  Rh33  1  0.250000  0.613388  0.196026  1
  Rh  Rh34  1  0.750000  0.113388  0.303974  1
  Rh  Rh35  1  0.750000  0.386612  0.803974  1
