# generated using pymatgen
data_Tm2TiAl3
_symmetry_space_group_name_H-M   'P 1'
_cell_length_a   5.62968815
_cell_length_b   5.53585069
_cell_length_c   5.62968800
_cell_angle_alpha   59.43766855
_cell_angle_beta   60.00000090
_cell_angle_gamma   59.43766825
_symmetry_Int_Tables_number   1
_chemical_formula_structural   Tm2TiAl3
_chemical_formula_sum   'Tm2 Ti1 Al3'
_cell_volume   122.99683011
_cell_formula_units_Z   1
loop_
 _symmetry_equiv_pos_site_id
 _symmetry_equiv_pos_as_xyz
  1  'x, y, z'
loop_
 _atom_site_type_symbol
 _atom_site_label
 _atom_site_symmetry_multiplicity
 _atom_site_fract_x
 _atom_site_fract_y
 _atom_site_fract_z
 _atom_site_occupancy
  Tm  Tm0  1  0.753093  0.740721  0.753093  1
  Tm  Tm1  1  0.496907  0.509279  0.496907  1
  Ti  Ti2  1  0.125000  0.625000  0.125000  1
  Al  Al3  1  0.125000  0.125000  0.625000  1
  Al  Al4  1  0.625000  0.125000  0.125000  1
  Al  Al5  1  0.125000  0.125000  0.125000  1
