# generated using pymatgen
data_Pr8Y2Si5Pb
_symmetry_space_group_name_H-M   'P 1'
_cell_length_a   7.73201984
_cell_length_b   7.73201915
_cell_length_c   9.23800391
_cell_angle_alpha   114.73928284
_cell_angle_beta   114.73928365
_cell_angle_gamma   90.00000049
_symmetry_Int_Tables_number   1
_chemical_formula_structural   Pr8Y2Si5Pb
_chemical_formula_sum   'Pr8 Y2 Si5 Pb1'
_cell_volume   445.17554974
_cell_formula_units_Z   1
loop_
 _symmetry_equiv_pos_site_id
 _symmetry_equiv_pos_as_xyz
  1  'x, y, z'
loop_
 _atom_site_type_symbol
 _atom_site_label
 _atom_site_symmetry_multiplicity
 _atom_site_fract_x
 _atom_site_fract_y
 _atom_site_fract_z
 _atom_site_occupancy
  Pr  Pr0  1  0.977701  0.828526  0.280907  1
  Pr  Pr1  1  0.303207  0.452381  0.280907  1
  Pr  Pr2  1  0.828526  0.303207  0.280907  1
  Pr  Pr3  1  0.452381  0.977701  0.280907  1
  Pr  Pr4  1  0.047619  0.196793  0.719093  1
  Pr  Pr5  1  0.671474  0.522299  0.719093  1
  Pr  Pr6  1  0.196793  0.671474  0.719093  1
  Pr  Pr7  1  0.522299  0.047619  0.719093  1
  Y  Y8  1  0.517397  0.517397  0.034793  1
  Y  Y9  1  0.982603  0.982603  0.965207  1
  Si  Si10  1  0.250000  0.250000  0.500000  1
  Si  Si11  1  0.619181  0.880819  0.000000  1
  Si  Si12  1  0.380819  0.119181  0.000000  1
  Si  Si13  1  0.880819  0.380819  0.000000  1
  Si  Si14  1  0.119181  0.619181  0.000000  1
  Pb  Pb15  1  0.750000  0.750000  0.500000  1
