# generated using pymatgen
data_Ta7Nb5Cr4(Ga2C)4
_symmetry_space_group_name_H-M   'P 1'
_cell_length_a   8.28364222
_cell_length_b   8.28326928
_cell_length_c   8.28850902
_cell_angle_alpha   59.98630964
_cell_angle_beta   59.98387468
_cell_angle_gamma   59.93672549
_symmetry_Int_Tables_number   1
_chemical_formula_structural   Ta7Nb5Cr4(Ga2C)4
_chemical_formula_sum   'Ta7 Nb5 Cr4 Ga8 C4'
_cell_volume   401.86355028
_cell_formula_units_Z   1
loop_
 _symmetry_equiv_pos_site_id
 _symmetry_equiv_pos_as_xyz
  1  'x, y, z'
loop_
 _atom_site_type_symbol
 _atom_site_label
 _atom_site_symmetry_multiplicity
 _atom_site_fract_x
 _atom_site_fract_y
 _atom_site_fract_z
 _atom_site_occupancy
  Ta  Ta0  1  0.303899  0.303942  0.696358  1
  Ta  Ta1  1  0.554520  0.553958  0.945798  1
  Ta  Ta2  1  0.945984  0.553503  0.554371  1
  Ta  Ta3  1  0.553981  0.946021  0.946162  1
  Ta  Ta4  1  0.945517  0.945484  0.554766  1
  Ta  Ta5  1  0.696537  0.303434  0.696737  1
  Ta  Ta6  1  0.945543  0.554183  0.945724  1
  Nb  Nb7  1  0.553842  0.945931  0.554152  1
  Nb  Nb8  1  0.303481  0.696260  0.696950  1
  Nb  Nb9  1  0.696828  0.303376  0.303286  1
  Nb  Nb10  1  0.302920  0.697100  0.302742  1
  Nb  Nb11  1  0.697049  0.696605  0.303165  1
  Cr  Cr12  1  0.125464  0.125676  0.123935  1
  Cr  Cr13  1  0.625142  0.126094  0.122849  1
  Cr  Cr14  1  0.125118  0.624598  0.124949  1
  Cr  Cr15  1  0.123280  0.126467  0.625384  1
  Ga  Ga16  1  0.913483  0.913102  0.913299  1
  Ga  Ga17  1  0.990050  0.336538  0.336516  1
  Ga  Ga18  1  0.336583  0.990047  0.336871  1
  Ga  Ga19  1  0.336468  0.336801  0.989998  1
  Ga  Ga20  1  0.913431  0.259946  0.913542  1
  Ga  Ga21  1  0.913182  0.913438  0.260179  1
  Ga  Ga22  1  0.260043  0.913362  0.913173  1
  Ga  Ga23  1  0.336860  0.336436  0.336782  1
  C  C24  1  0.626540  0.622637  0.626650  1
  C  C25  1  0.123310  0.624217  0.626329  1
  C  C26  1  0.624995  0.125071  0.626889  1
  C  C27  1  0.625953  0.625772  0.122444  1
