# generated using pymatgen
data_TmTh3AlGa17Ir6
_symmetry_space_group_name_H-M   'P 1'
_cell_length_a   7.69753223
_cell_length_b   7.69872578
_cell_length_c   9.48235217
_cell_angle_alpha   89.99175929
_cell_angle_beta   89.96877677
_cell_angle_gamma   119.76338382
_symmetry_Int_Tables_number   1
_chemical_formula_structural   TmTh3AlGa17Ir6
_chemical_formula_sum   'Tm1 Th3 Al1 Ga17 Ir6'
_cell_volume   487.80643467
_cell_formula_units_Z   1
loop_
 _symmetry_equiv_pos_site_id
 _symmetry_equiv_pos_as_xyz
  1  'x, y, z'
loop_
 _atom_site_type_symbol
 _atom_site_label
 _atom_site_symmetry_multiplicity
 _atom_site_fract_x
 _atom_site_fract_y
 _atom_site_fract_z
 _atom_site_occupancy
  Tm  Tm0  1  0.997315  0.669789  0.249845  1
  Th  Th1  1  0.003262  0.330333  0.749265  1
  Th  Th2  1  0.668973  0.998243  0.250116  1
  Th  Th3  1  0.329422  0.003185  0.749238  1
  Al  Al4  1  0.339188  0.339438  0.954360  1
  Ga  Ga5  1  0.129365  0.127539  0.249128  1
  Ga  Ga6  1  0.866515  0.864491  0.748928  1
  Ga  Ga7  1  0.002857  0.341067  0.081323  1
  Ga  Ga8  1  0.996383  0.664965  0.925345  1
  Ga  Ga9  1  0.995637  0.664540  0.573834  1
  Ga  Ga10  1  0.328382  0.997969  0.416969  1
  Ga  Ga11  1  0.004377  0.341229  0.416968  1
  Ga  Ga12  1  0.664123  0.994589  0.579393  1
  Ga  Ga13  1  0.664558  0.995271  0.920288  1
  Ga  Ga14  1  0.328588  0.996584  0.081183  1
  Ga  Ga15  1  0.336250  0.336440  0.561151  1
  Ga  Ga16  1  0.669787  0.663945  0.433128  1
  Ga  Ga17  1  0.674058  0.668046  0.066933  1
  Ga  Ga18  1  0.337577  0.545138  0.249773  1
  Ga  Ga19  1  0.656847  0.455145  0.750138  1
  Ga  Ga20  1  0.549203  0.342908  0.249757  1
  Ga  Ga21  1  0.454609  0.655127  0.750156  1
  Ir  Ir22  1  0.668407  0.325523  0.998745  1
  Ir  Ir23  1  0.329682  0.670786  0.999081  1
  Ir  Ir24  1  0.329420  0.673619  0.499487  1
  Ir  Ir25  1  0.671384  0.325457  0.499706  1
  Ir  Ir26  1  0.004796  0.007263  0.996350  1
  Ir  Ir27  1  0.999029  0.001369  0.499413  1
