# generated using pymatgen
data_La10Nd6Cd4Co2IrRh
_symmetry_space_group_name_H-M   'P 1'
_cell_length_a   9.98579254
_cell_length_b   9.95039577
_cell_length_c   9.95039600
_cell_angle_alpha   59.99999924
_cell_angle_beta   60.11718830
_cell_angle_gamma   60.11719358
_symmetry_Int_Tables_number   1
_chemical_formula_structural   La10Nd6Cd4Co2IrRh
_chemical_formula_sum   'La10 Nd6 Cd4 Co2 Ir1 Rh1'
_cell_volume   700.35022935
_cell_formula_units_Z   1
loop_
 _symmetry_equiv_pos_site_id
 _symmetry_equiv_pos_as_xyz
  1  'x, y, z'
loop_
 _atom_site_type_symbol
 _atom_site_label
 _atom_site_symmetry_multiplicity
 _atom_site_fract_x
 _atom_site_fract_y
 _atom_site_fract_z
 _atom_site_occupancy
  La  La0  1  0.339436  0.348578  0.348578  1
  La  La1  1  0.342949  0.351856  0.960538  1
  La  La2  1  0.342949  0.960538  0.351856  1
  La  La3  1  0.962676  0.348195  0.348195  1
  La  La4  1  0.809925  0.190729  0.190729  1
  La  La5  1  0.191220  0.810211  0.810211  1
  La  La6  1  0.192511  0.803863  0.189171  1
  La  La7  1  0.816774  0.189341  0.803977  1
  La  La8  1  0.192511  0.189171  0.803863  1
  La  La9  1  0.816774  0.803977  0.189341  1
  Nd  Nd10  1  0.934047  0.565483  0.565483  1
  Nd  Nd11  1  0.565419  0.936246  0.936246  1
  Nd  Nd12  1  0.566020  0.935978  0.561964  1
  Nd  Nd13  1  0.934327  0.565107  0.935241  1
  Nd  Nd14  1  0.566020  0.561964  0.935978  1
  Nd  Nd15  1  0.934327  0.935241  0.565107  1
  Cd  Cd16  1  0.580817  0.579293  0.579293  1
  Cd  Cd17  1  0.580607  0.579220  0.261009  1
  Cd  Cd18  1  0.580607  0.261009  0.579220  1
  Cd  Cd19  1  0.259591  0.580111  0.580111  1
  Co  Co20  1  0.137042  0.141131  0.581570  1
  Co  Co21  1  0.137042  0.581570  0.141131  1
  Ir  Ir22  1  0.578393  0.140633  0.140633  1
  Rh  Rh23  1  0.138010  0.140554  0.140554  1
