# generated using pymatgen
data_Ca3IrC4
_symmetry_space_group_name_H-M   'P 1'
_cell_length_a   7.89483486
_cell_length_b   7.89483561
_cell_length_c   4.80265772
_cell_angle_alpha   103.97067896
_cell_angle_beta   103.97068062
_cell_angle_gamma   26.94643708
_symmetry_Int_Tables_number   1
_chemical_formula_structural   Ca3IrC4
_chemical_formula_sum   'Ca3 Ir1 C4'
_cell_volume   131.40243970
_cell_formula_units_Z   1
loop_
 _symmetry_equiv_pos_site_id
 _symmetry_equiv_pos_as_xyz
  1  'x, y, z'
loop_
 _atom_site_type_symbol
 _atom_site_label
 _atom_site_symmetry_multiplicity
 _atom_site_fract_x
 _atom_site_fract_y
 _atom_site_fract_z
 _atom_site_occupancy
  Ca  Ca0  1  0.168391  0.168391  0.215520  1
  Ca  Ca1  1  0.000000  0.000000  0.499999  1
  Ca  Ca2  1  0.831609  0.831609  0.784481  1
  Ir  Ir3  1  0.500000  0.500000  0.000000  1
  C  C4  1  0.398064  0.398064  0.183401  1
  C  C5  1  0.339303  0.339303  0.337187  1
  C  C6  1  0.660697  0.660697  0.662814  1
  C  C7  1  0.601936  0.601936  0.816599  1
