# generated using pymatgen
data_Y5P12Ru17Pt2
_symmetry_space_group_name_H-M   'P 1'
_cell_length_a   12.64471800
_cell_length_b   12.55745674
_cell_length_c   3.98981600
_cell_angle_alpha   90.00000000
_cell_angle_beta   90.00000000
_cell_angle_gamma   120.23013192
_symmetry_Int_Tables_number   1
_chemical_formula_structural   Y5P12Ru17Pt2
_chemical_formula_sum   'Y5 P12 Ru17 Pt2'
_cell_volume   547.37196186
_cell_formula_units_Z   1
loop_
 _symmetry_equiv_pos_site_id
 _symmetry_equiv_pos_as_xyz
  1  'x, y, z'
loop_
 _atom_site_type_symbol
 _atom_site_label
 _atom_site_symmetry_multiplicity
 _atom_site_fract_x
 _atom_site_fract_y
 _atom_site_fract_z
 _atom_site_occupancy
  Y  Y0  1  0.001290  0.182722  0.500000  1
  Y  Y1  1  0.818568  0.817278  0.500000  1
  Y  Y2  1  0.183464  0.000000  0.500000  1
  Y  Y3  1  0.664077  0.327471  0.000000  1
  Y  Y4  1  0.336605  0.672529  0.000000  1
  P  P5  1  0.998012  0.812514  0.000000  1
  P  P6  1  0.185498  0.187486  0.000000  1
  P  P7  1  0.817768  0.000000  0.000000  1
  P  P8  1  0.693078  0.169891  0.500000  1
  P  P9  1  0.817183  0.516772  0.500000  1
  P  P10  1  0.477524  0.299158  0.500000  1
  P  P11  1  0.178366  0.700842  0.500000  1
  P  P12  1  0.523187  0.830109  0.500000  1
  P  P13  1  0.300410  0.483228  0.500000  1
  P  P14  1  0.000306  0.365644  0.000000  1
  P  P15  1  0.634662  0.634356  0.000000  1
  P  P16  1  0.373488  0.000000  0.000000  1
  Ru  Ru17  1  0.555179  0.000000  0.000000  1
  Ru  Ru18  1  0.997600  0.709630  0.500000  1
  Ru  Ru19  1  0.287970  0.290370  0.500000  1
  Ru  Ru20  1  0.718360  0.000000  0.500000  1
  Ru  Ru21  1  0.808759  0.184812  0.000000  1
  Ru  Ru22  1  0.813038  0.618148  0.000000  1
  Ru  Ru23  1  0.376346  0.192966  0.000000  1
  Ru  Ru24  1  0.183381  0.807034  0.000000  1
  Ru  Ru25  1  0.623949  0.815188  0.000000  1
  Ru  Ru26  1  0.194891  0.381852  0.000000  1
  Ru  Ru27  1  0.870768  0.365395  0.500000  1
  Ru  Ru28  1  0.629156  0.506163  0.500000  1
  Ru  Ru29  1  0.491669  0.123790  0.500000  1
  Ru  Ru30  1  0.367879  0.876210  0.500000  1
  Ru  Ru31  1  0.505373  0.634605  0.500000  1
  Ru  Ru32  1  0.122993  0.493837  0.500000  1
  Ru  Ru33  1  0.002480  0.000000  0.000000  1
  Pt  Pt34  1  0.998363  0.550003  0.000000  1
  Pt  Pt35  1  0.448360  0.449997  0.000000  1
