# generated using pymatgen
data_Tb4Sm4Tc(B8Os)3
_symmetry_space_group_name_H-M   'P 1'
_cell_length_a   3.70774000
_cell_length_b   9.24428027
_cell_length_c   11.65122200
_cell_angle_alpha   89.94582131
_cell_angle_beta   90.00000000
_cell_angle_gamma   90.00000000
_symmetry_Int_Tables_number   1
_chemical_formula_structural   Tb4Sm4Tc(B8Os)3
_chemical_formula_sum   'Tb4 Sm4 Tc1 B24 Os3'
_cell_volume   399.34997289
_cell_formula_units_Z   1
loop_
 _symmetry_equiv_pos_site_id
 _symmetry_equiv_pos_as_xyz
  1  'x, y, z'
loop_
 _atom_site_type_symbol
 _atom_site_label
 _atom_site_symmetry_multiplicity
 _atom_site_fract_x
 _atom_site_fract_y
 _atom_site_fract_z
 _atom_site_occupancy
  Tb  Tb0  1  0.000000  0.942827  0.372317  1
  Tb  Tb1  1  0.000000  0.056711  0.627843  1
  Tb  Tb2  1  0.000000  0.444781  0.128413  1
  Tb  Tb3  1  0.000000  0.556457  0.871778  1
  Sm  Sm4  1  0.000000  0.324470  0.412789  1
  Sm  Sm5  1  0.000000  0.676376  0.584234  1
  Sm  Sm6  1  0.000000  0.821603  0.088014  1
  Sm  Sm7  1  0.000000  0.176585  0.914391  1
  Tc  Tc8  1  0.000000  0.638226  0.320801  1
  B  B9  1  0.500000  0.553966  0.431608  1
  B  B10  1  0.500000  0.445517  0.568609  1
  B  B11  1  0.500000  0.054629  0.068626  1
  B  B12  1  0.500000  0.945359  0.931706  1
  B  B13  1  0.500000  0.747684  0.418394  1
  B  B14  1  0.500000  0.252308  0.581555  1
  B  B15  1  0.500000  0.247996  0.081369  1
  B  B16  1  0.500000  0.752065  0.918523  1
  B  B17  1  0.500000  0.790512  0.267355  1
  B  B18  1  0.500000  0.209796  0.732649  1
  B  B19  1  0.500000  0.290208  0.232140  1
  B  B20  1  0.500000  0.710317  0.767355  1
  B  B21  1  0.500000  0.631756  0.186533  1
  B  B22  1  0.500000  0.368118  0.813951  1
  B  B23  1  0.500000  0.131706  0.313325  1
  B  B24  1  0.500000  0.868648  0.686228  1
  B  B25  1  0.500000  0.984907  0.213359  1
  B  B26  1  0.500000  0.014916  0.787103  1
  B  B27  1  0.500000  0.484663  0.286747  1
  B  B28  1  0.500000  0.514538  0.713259  1
  B  B29  1  0.500000  0.607185  0.029258  1
  B  B30  1  0.500000  0.392655  0.969987  1
  B  B31  1  0.500000  0.107520  0.470355  1
  B  B32  1  0.500000  0.893490  0.530131  1
  Os  Os33  1  0.000000  0.361412  0.679758  1
  Os  Os34  1  0.000000  0.138093  0.178688  1
  Os  Os35  1  0.000000  0.861998  0.820846  1
