# generated using pymatgen
data_La11ThTc4
_symmetry_space_group_name_H-M   'P 1'
_cell_length_a   6.62083709
_cell_length_b   7.37288104
_cell_length_c   10.11833200
_cell_angle_alpha   90.00000000
_cell_angle_beta   90.00000000
_cell_angle_gamma   90.92951742
_symmetry_Int_Tables_number   1
_chemical_formula_structural   La11ThTc4
_chemical_formula_sum   'La11 Th1 Tc4'
_cell_volume   493.85778082
_cell_formula_units_Z   1
loop_
 _symmetry_equiv_pos_site_id
 _symmetry_equiv_pos_as_xyz
  1  'x, y, z'
loop_
 _atom_site_type_symbol
 _atom_site_label
 _atom_site_symmetry_multiplicity
 _atom_site_fract_x
 _atom_site_fract_y
 _atom_site_fract_z
 _atom_site_occupancy
  La  La0  1  0.328964  0.669495  0.068079  1
  La  La1  1  0.164597  0.171718  0.433275  1
  La  La2  1  0.669978  0.331629  0.568226  1
  La  La3  1  0.830707  0.829528  0.933995  1
  La  La4  1  0.669978  0.331629  0.931774  1
  La  La5  1  0.830707  0.829528  0.566005  1
  La  La6  1  0.328964  0.669495  0.431921  1
  La  La7  1  0.164597  0.171718  0.066725  1
  La  La8  1  0.636372  0.058586  0.250000  1
  La  La9  1  0.137882  0.440085  0.750000  1
  La  La10  1  0.366350  0.939537  0.750000  1
  Th  Th11  1  0.844654  0.559045  0.250000  1
  Tc  Tc12  1  0.035829  0.865507  0.250000  1
  Tc  Tc13  1  0.486751  0.379614  0.250000  1
  Tc  Tc14  1  0.960931  0.125670  0.750000  1
  Tc  Tc15  1  0.542741  0.627218  0.750000  1
