# generated using pymatgen
data_Tb5Er15(GaBi2)4
_symmetry_space_group_name_H-M   'P 1'
_cell_length_a   8.05164782
_cell_length_b   9.23777500
_cell_length_c   12.05045800
_cell_angle_alpha   90.00000000
_cell_angle_beta   90.02593082
_cell_angle_gamma   90.00000000
_symmetry_Int_Tables_number   1
_chemical_formula_structural   Tb5Er15(GaBi2)4
_chemical_formula_sum   'Tb5 Er15 Ga4 Bi8'
_cell_volume   896.30467127
_cell_formula_units_Z   1
loop_
 _symmetry_equiv_pos_site_id
 _symmetry_equiv_pos_as_xyz
  1  'x, y, z'
loop_
 _atom_site_type_symbol
 _atom_site_label
 _atom_site_symmetry_multiplicity
 _atom_site_fract_x
 _atom_site_fract_y
 _atom_site_fract_z
 _atom_site_occupancy
  Tb  Tb0  1  0.668693  0.750000  0.715427  1
  Tb  Tb1  1  0.331161  0.250000  0.284421  1
  Tb  Tb2  1  0.168794  0.250000  0.784487  1
  Tb  Tb3  1  0.830850  0.750000  0.215733  1
  Tb  Tb4  1  0.144011  0.750000  0.794235  1
  Er  Er5  1  0.856042  0.250000  0.205660  1
  Er  Er6  1  0.644112  0.250000  0.705509  1
  Er  Er7  1  0.356256  0.750000  0.294417  1
  Er  Er8  1  0.539396  0.750000  0.002597  1
  Er  Er9  1  0.460778  0.250000  0.997440  1
  Er  Er10  1  0.039146  0.250000  0.497339  1
  Er  Er11  1  0.960444  0.750000  0.502251  1
  Er  Er12  1  0.819166  0.446310  0.936600  1
  Er  Er13  1  0.180864  0.553327  0.063777  1
  Er  Er14  1  0.319425  0.553380  0.563097  1
  Er  Er15  1  0.180864  0.946673  0.063777  1
  Er  Er16  1  0.680823  0.446191  0.436654  1
  Er  Er17  1  0.819166  0.053690  0.936600  1
  Er  Er18  1  0.680823  0.053809  0.436654  1
  Er  Er19  1  0.319425  0.946620  0.563097  1
  Ga  Ga20  1  0.907752  0.750000  0.975111  1
  Ga  Ga21  1  0.091209  0.250000  0.025960  1
  Ga  Ga22  1  0.408811  0.250000  0.525787  1
  Ga  Ga23  1  0.591238  0.750000  0.473975  1
  Bi  Bi24  1  0.934907  0.009258  0.673409  1
  Bi  Bi25  1  0.064686  0.991330  0.326204  1
  Bi  Bi26  1  0.436204  0.991819  0.826213  1
  Bi  Bi27  1  0.064686  0.508670  0.326204  1
  Bi  Bi28  1  0.564578  0.008776  0.173870  1
  Bi  Bi29  1  0.934907  0.490742  0.673409  1
  Bi  Bi30  1  0.564578  0.491224  0.173870  1
  Bi  Bi31  1  0.436204  0.508181  0.826213  1
