# generated using pymatgen
data_Cs4Cd4Si4As7P
_symmetry_space_group_name_H-M   'P 1'
_cell_length_a   8.80173334
_cell_length_b   8.61916405
_cell_length_c   8.76489109
_cell_angle_alpha   70.65342931
_cell_angle_beta   76.37678228
_cell_angle_gamma   73.30864103
_symmetry_Int_Tables_number   1
_chemical_formula_structural   Cs4Cd4Si4As7P
_chemical_formula_sum   'Cs4 Cd4 Si4 As7 P1'
_cell_volume   593.65963737
_cell_formula_units_Z   1
loop_
 _symmetry_equiv_pos_site_id
 _symmetry_equiv_pos_as_xyz
  1  'x, y, z'
loop_
 _atom_site_type_symbol
 _atom_site_label
 _atom_site_symmetry_multiplicity
 _atom_site_fract_x
 _atom_site_fract_y
 _atom_site_fract_z
 _atom_site_occupancy
  Cs  Cs0  1  0.447229  0.765449  0.322328  1
  Cs  Cs1  1  0.553137  0.234189  0.678058  1
  Cs  Cs2  1  0.432927  0.800719  0.815007  1
  Cs  Cs3  1  0.568354  0.197895  0.185699  1
  Cd  Cd4  1  0.994288  0.897106  0.687007  1
  Cd  Cd5  1  0.002624  0.100159  0.313901  1
  Cd  Cd6  1  0.964981  0.815655  0.175882  1
  Cd  Cd7  1  0.032640  0.184820  0.827939  1
  Si  Si8  1  0.960642  0.589473  0.592339  1
  Si  Si9  1  0.036209  0.417738  0.404254  1
  Si  Si10  1  0.139166  0.449284  0.979407  1
  Si  Si11  1  0.860484  0.550652  0.020252  1
  As  As12  1  0.180535  0.138511  0.533039  1
  As  As13  1  0.797756  0.411547  0.309282  1
  As  As14  1  0.201316  0.587284  0.689869  1
  As  As15  1  0.776444  0.852943  0.962883  1
  As  As16  1  0.222737  0.146837  0.039247  1
  As  As17  1  0.780713  0.457114  0.823281  1
  As  As18  1  0.218546  0.545705  0.174727  1
  P  P19  1  0.829273  0.856920  0.465599  1
