# generated using pymatgen
data_Cr(O2F3)2
_symmetry_space_group_name_H-M   'P 1'
_cell_length_a   3.90922288
_cell_length_b   6.06513775
_cell_length_c   7.68810533
_cell_angle_alpha   100.12306904
_cell_angle_beta   90.34503764
_cell_angle_gamma   96.75595316
_symmetry_Int_Tables_number   1
_chemical_formula_structural   Cr(O2F3)2
_chemical_formula_sum   'Cr1 O4 F6'
_cell_volume   178.13455948
_cell_formula_units_Z   1
loop_
 _symmetry_equiv_pos_site_id
 _symmetry_equiv_pos_as_xyz
  1  'x, y, z'
loop_
 _atom_site_type_symbol
 _atom_site_label
 _atom_site_symmetry_multiplicity
 _atom_site_fract_x
 _atom_site_fract_y
 _atom_site_fract_z
 _atom_site_occupancy
  Cr  Cr0  1  0.923045  0.624936  0.770796  1
  O  O1  1  0.653540  0.707620  0.274643  1
  O  O2  1  0.398190  0.142716  0.844394  1
  O  O3  1  0.408110  0.107430  0.687883  1
  O  O4  1  0.740092  0.898048  0.256192  1
  F  F5  1  0.423589  0.055547  0.285730  1
  F  F6  1  0.973769  0.890139  0.932297  1
  F  F7  1  0.873762  0.368921  0.607906  1
  F  F8  1  0.955492  0.796837  0.597993  1
  F  F9  1  0.891607  0.464796  0.948412  1
  F  F10  1  0.423278  0.627208  0.772599  1
