# generated using pymatgen
data_TlIrPdPbO7
_symmetry_space_group_name_H-M   'P 1'
_cell_length_a   7.33092316
_cell_length_b   7.38117863
_cell_length_c   7.33092280
_cell_angle_alpha   59.77297330
_cell_angle_beta   59.38766788
_cell_angle_gamma   59.77296734
_symmetry_Int_Tables_number   1
_chemical_formula_structural   TlIrPdPbO7
_chemical_formula_sum   'Tl2 Ir2 Pd2 Pb2 O14'
_cell_volume   278.22282594
_cell_formula_units_Z   2
loop_
 _symmetry_equiv_pos_site_id
 _symmetry_equiv_pos_as_xyz
  1  'x, y, z'
loop_
 _atom_site_type_symbol
 _atom_site_label
 _atom_site_symmetry_multiplicity
 _atom_site_fract_x
 _atom_site_fract_y
 _atom_site_fract_z
 _atom_site_occupancy
  Tl  Tl0  1  0.625000  0.125000  0.125000  1
  Tl  Tl1  1  0.125000  0.125000  0.625000  1
  Ir  Ir2  1  0.125000  0.625000  0.625000  1
  Ir  Ir3  1  0.625000  0.625000  0.125000  1
  Pd  Pd4  1  0.625000  0.125000  0.625000  1
  Pd  Pd5  1  0.625000  0.625000  0.625000  1
  Pb  Pb6  1  0.125000  0.625000  0.125000  1
  Pb  Pb7  1  0.125000  0.125000  0.125000  1
  O  O8  1  0.708347  0.705603  0.287279  1
  O  O9  1  0.287279  0.298772  0.708347  1
  O  O10  1  0.709424  0.290576  0.709424  1
  O  O11  1  0.296159  0.703841  0.296159  1
  O  O12  1  0.287279  0.705603  0.708347  1
  O  O13  1  0.708347  0.298772  0.287279  1
  O  O14  1  0.541653  0.544397  0.962721  1
  O  O15  1  0.962721  0.951228  0.541653  1
  O  O16  1  0.540576  0.959424  0.540576  1
  O  O17  1  0.953841  0.546159  0.953841  1
  O  O18  1  0.962721  0.544397  0.541653  1
  O  O19  1  0.541653  0.951228  0.962721  1
  O  O20  1  0.253645  0.246355  0.253645  1
  O  O21  1  0.996355  0.003645  0.996355  1
