# generated using pymatgen
data_Ho5Ni16(P4Pd)3
_symmetry_space_group_name_H-M   'P 1'
_cell_length_a   12.15414500
_cell_length_b   12.15414496
_cell_length_c   3.77055000
_cell_angle_alpha   90.00000000
_cell_angle_beta   90.00000000
_cell_angle_gamma   120.00000282
_symmetry_Int_Tables_number   1
_chemical_formula_structural   Ho5Ni16(P4Pd)3
_chemical_formula_sum   'Ho5 Ni16 P12 Pd3'
_cell_volume   482.37428589
_cell_formula_units_Z   1
loop_
 _symmetry_equiv_pos_site_id
 _symmetry_equiv_pos_as_xyz
  1  'x, y, z'
loop_
 _atom_site_type_symbol
 _atom_site_label
 _atom_site_symmetry_multiplicity
 _atom_site_fract_x
 _atom_site_fract_y
 _atom_site_fract_z
 _atom_site_occupancy
  Ho  Ho0  1  0.185592  0.185592  0.500000  1
  Ho  Ho1  1  0.814408  0.000000  0.500000  1
  Ho  Ho2  1  0.000000  0.814408  0.500000  1
  Ho  Ho3  1  0.333333  0.666667  0.000000  1
  Ho  Ho4  1  0.666667  0.333333  0.000000  1
  Ni  Ni5  1  0.716603  0.716603  0.500000  1
  Ni  Ni6  1  0.283397  0.000000  0.500000  1
  Ni  Ni7  1  0.000000  0.283397  0.500000  1
  Ni  Ni8  1  0.184212  0.378125  0.000000  1
  Ni  Ni9  1  0.621875  0.806089  0.000000  1
  Ni  Ni10  1  0.193911  0.815788  0.000000  1
  Ni  Ni11  1  0.806089  0.621875  0.000000  1
  Ni  Ni12  1  0.815788  0.193911  0.000000  1
  Ni  Ni13  1  0.378125  0.184212  0.000000  1
  Ni  Ni14  1  0.359918  0.485601  0.500000  1
  Ni  Ni15  1  0.514399  0.874317  0.500000  1
  Ni  Ni16  1  0.125683  0.640082  0.500000  1
  Ni  Ni17  1  0.874317  0.514399  0.500000  1
  Ni  Ni18  1  0.640082  0.125683  0.500000  1
  Ni  Ni19  1  0.485601  0.359918  0.500000  1
  Ni  Ni20  1  0.000000  0.000000  0.000000  1
  P  P21  1  0.822032  0.822032  0.000000  1
  P  P22  1  0.177968  0.000000  0.000000  1
  P  P23  1  0.000000  0.177968  0.000000  1
  P  P24  1  0.171376  0.478839  0.500000  1
  P  P25  1  0.521161  0.692538  0.500000  1
  P  P26  1  0.307462  0.828624  0.500000  1
  P  P27  1  0.692538  0.521161  0.500000  1
  P  P28  1  0.828624  0.307462  0.500000  1
  P  P29  1  0.478839  0.171376  0.500000  1
  P  P30  1  0.360194  0.360194  0.000000  1
  P  P31  1  0.639806  0.000000  0.000000  1
  P  P32  1  0.000000  0.639806  0.000000  1
  Pd  Pd33  1  0.553501  0.553501  0.000000  1
  Pd  Pd34  1  0.446499  0.000000  0.000000  1
  Pd  Pd35  1  0.000000  0.446499  0.000000  1
