# generated using pymatgen
data_Hf10Be2GaSb5
_symmetry_space_group_name_H-M   'P 1'
_cell_length_a   8.46793223
_cell_length_b   8.46793305
_cell_length_c   5.70290600
_cell_angle_alpha   90.00000000
_cell_angle_beta   90.00000000
_cell_angle_gamma   120.11457860
_symmetry_Int_Tables_number   1
_chemical_formula_structural   Hf10Be2GaSb5
_chemical_formula_sum   'Hf10 Be2 Ga1 Sb5'
_cell_volume   353.73583042
_cell_formula_units_Z   1
loop_
 _symmetry_equiv_pos_site_id
 _symmetry_equiv_pos_as_xyz
  1  'x, y, z'
loop_
 _atom_site_type_symbol
 _atom_site_label
 _atom_site_symmetry_multiplicity
 _atom_site_fract_x
 _atom_site_fract_y
 _atom_site_fract_z
 _atom_site_occupancy
  Hf  Hf0  1  0.663281  0.334109  0.497514  1
  Hf  Hf1  1  0.334109  0.663281  0.497514  1
  Hf  Hf2  1  0.334109  0.663281  0.002486  1
  Hf  Hf3  1  0.663281  0.334109  0.002486  1
  Hf  Hf4  1  0.739939  0.739939  0.250000  1
  Hf  Hf5  1  0.258478  0.011753  0.250000  1
  Hf  Hf6  1  0.011753  0.258478  0.250000  1
  Hf  Hf7  1  0.251426  0.251426  0.750000  1
  Hf  Hf8  1  0.746471  0.999000  0.750000  1
  Hf  Hf9  1  0.999000  0.746471  0.750000  1
  Be  Be10  1  0.998426  0.998426  0.003383  1
  Be  Be11  1  0.998426  0.998426  0.496617  1
  Ga  Ga12  1  0.392444  0.392444  0.250000  1
  Sb  Sb13  1  0.613029  0.001846  0.250000  1
  Sb  Sb14  1  0.001846  0.613029  0.250000  1
  Sb  Sb15  1  0.605001  0.605001  0.750000  1
  Sb  Sb16  1  0.390255  0.998723  0.750000  1
  Sb  Sb17  1  0.998723  0.390255  0.750000  1
