# generated using pymatgen
data_CaSc3(B6Ru)2
_symmetry_space_group_name_H-M   'P 1'
_cell_length_a   3.51435500
_cell_length_b   8.93915971
_cell_length_c   11.28793332
_cell_angle_alpha   89.94357235
_cell_angle_beta   90.00000000
_cell_angle_gamma   90.00000000
_symmetry_Int_Tables_number   1
_chemical_formula_structural   CaSc3(B6Ru)2
_chemical_formula_sum   'Ca2 Sc6 B24 Ru4'
_cell_volume   354.61454970
_cell_formula_units_Z   2
loop_
 _symmetry_equiv_pos_site_id
 _symmetry_equiv_pos_as_xyz
  1  'x, y, z'
loop_
 _atom_site_type_symbol
 _atom_site_label
 _atom_site_symmetry_multiplicity
 _atom_site_fract_x
 _atom_site_fract_y
 _atom_site_fract_z
 _atom_site_occupancy
  Ca  Ca0  1  0.000000  0.321747  0.414438  1
  Ca  Ca1  1  0.000000  0.678253  0.585562  1
  Sc  Sc2  1  0.000000  0.820084  0.085877  1
  Sc  Sc3  1  0.000000  0.179916  0.914123  1
  Sc  Sc4  1  0.000000  0.943182  0.369606  1
  Sc  Sc5  1  0.000000  0.056818  0.630394  1
  Sc  Sc6  1  0.000000  0.443599  0.128158  1
  Sc  Sc7  1  0.000000  0.556401  0.871842  1
  B  B8  1  0.500000  0.555091  0.431521  1
  B  B9  1  0.500000  0.444909  0.568479  1
  B  B10  1  0.500000  0.053649  0.064112  1
  B  B11  1  0.500000  0.946351  0.935888  1
  B  B12  1  0.500000  0.752940  0.416652  1
  B  B13  1  0.500000  0.247060  0.583348  1
  B  B14  1  0.500000  0.251593  0.078438  1
  B  B15  1  0.500000  0.748407  0.921562  1
  B  B16  1  0.500000  0.794942  0.261267  1
  B  B17  1  0.500000  0.205058  0.738733  1
  B  B18  1  0.500000  0.292576  0.233009  1
  B  B19  1  0.500000  0.707424  0.766991  1
  B  B20  1  0.500000  0.630850  0.180586  1
  B  B21  1  0.500000  0.369150  0.819414  1
  B  B22  1  0.500000  0.128466  0.314949  1
  B  B23  1  0.500000  0.871534  0.685051  1
  B  B24  1  0.500000  0.980294  0.210818  1
  B  B25  1  0.500000  0.019706  0.789182  1
  B  B26  1  0.500000  0.482319  0.284480  1
  B  B27  1  0.500000  0.517681  0.715520  1
  B  B28  1  0.500000  0.600107  0.026953  1
  B  B29  1  0.500000  0.399893  0.973047  1
  B  B30  1  0.500000  0.095891  0.473872  1
  B  B31  1  0.500000  0.904109  0.526128  1
  Ru  Ru32  1  0.000000  0.642697  0.314383  1
  Ru  Ru33  1  0.000000  0.357303  0.685617  1
  Ru  Ru34  1  0.000000  0.137060  0.176568  1
  Ru  Ru35  1  0.000000  0.862940  0.823432  1
