# generated using pymatgen
data_La12Os3PtI12
_symmetry_space_group_name_H-M   'P 1'
_cell_length_a   11.02211171
_cell_length_b   11.02211135
_cell_length_c   11.02211203
_cell_angle_alpha   109.57176340
_cell_angle_beta   109.57176202
_cell_angle_gamma   109.57176299
_symmetry_Int_Tables_number   1
_chemical_formula_structural   La12Os3PtI12
_chemical_formula_sum   'La12 Os3 Pt1 I12'
_cell_volume   1026.94051343
_cell_formula_units_Z   1
loop_
 _symmetry_equiv_pos_site_id
 _symmetry_equiv_pos_as_xyz
  1  'x, y, z'
loop_
 _atom_site_type_symbol
 _atom_site_label
 _atom_site_symmetry_multiplicity
 _atom_site_fract_x
 _atom_site_fract_y
 _atom_site_fract_z
 _atom_site_occupancy
  La  La0  1  0.457027  0.483799  0.223922  1
  La  La1  1  0.750000  0.228607  0.271393  1
  La  La2  1  0.750000  0.022297  0.477703  1
  La  La3  1  0.223922  0.457027  0.483799  1
  La  La4  1  0.271393  0.750000  0.228607  1
  La  La5  1  0.042973  0.276078  0.016201  1
  La  La6  1  0.016201  0.042973  0.276078  1
  La  La7  1  0.477703  0.750000  0.022297  1
  La  La8  1  0.483799  0.223922  0.457027  1
  La  La9  1  0.022297  0.477703  0.750000  1
  La  La10  1  0.276078  0.016201  0.042973  1
  La  La11  1  0.228607  0.271393  0.750000  1
  Os  Os12  1  0.498065  0.001935  0.250000  1
  Os  Os13  1  0.001935  0.250000  0.498065  1
  Os  Os14  1  0.250000  0.498065  0.001935  1
  Pt  Pt15  1  0.250000  0.250000  0.250000  1
  I  I16  1  0.250000  0.759553  0.740447  1
  I  I17  1  0.517655  0.508892  0.758978  1
  I  I18  1  0.982345  0.741022  0.991108  1
  I  I19  1  0.740447  0.250000  0.759553  1
  I  I20  1  0.991108  0.982345  0.741022  1
  I  I21  1  0.250000  0.991055  0.508945  1
  I  I22  1  0.758978  0.517655  0.508892  1
  I  I23  1  0.508945  0.250000  0.991055  1
  I  I24  1  0.759553  0.740447  0.250000  1
  I  I25  1  0.741022  0.991108  0.982345  1
  I  I26  1  0.991055  0.508945  0.250000  1
  I  I27  1  0.508892  0.758978  0.517655  1
