# generated using pymatgen
data_Tm16Ga6FeCo
_symmetry_space_group_name_H-M   'P 1'
_cell_length_a   9.85535700
_cell_length_b   9.85535680
_cell_length_c   6.85631200
_cell_angle_alpha   90.00000000
_cell_angle_beta   90.00000000
_cell_angle_gamma   120.00000404
_symmetry_Int_Tables_number   1
_chemical_formula_structural   Tm16Ga6FeCo
_chemical_formula_sum   'Tm16 Ga6 Fe1 Co1'
_cell_volume   576.72117674
_cell_formula_units_Z   1
loop_
 _symmetry_equiv_pos_site_id
 _symmetry_equiv_pos_as_xyz
  1  'x, y, z'
loop_
 _atom_site_type_symbol
 _atom_site_label
 _atom_site_symmetry_multiplicity
 _atom_site_fract_x
 _atom_site_fract_y
 _atom_site_fract_z
 _atom_site_occupancy
  Tm  Tm0  1  0.173494  0.826506  0.989904  1
  Tm  Tm1  1  0.347376  0.173688  0.488938  1
  Tm  Tm2  1  0.826312  0.652624  0.488938  1
  Tm  Tm3  1  0.173494  0.346987  0.989904  1
  Tm  Tm4  1  0.653013  0.826506  0.989904  1
  Tm  Tm5  1  0.826312  0.173688  0.488938  1
  Tm  Tm6  1  0.333333  0.666667  0.669073  1
  Tm  Tm7  1  0.666667  0.333333  0.170150  1
  Tm  Tm8  1  0.463285  0.536715  0.292260  1
  Tm  Tm9  1  0.928470  0.464236  0.792653  1
  Tm  Tm10  1  0.535764  0.071530  0.792653  1
  Tm  Tm11  1  0.463285  0.926568  0.292260  1
  Tm  Tm12  1  0.073432  0.536715  0.292260  1
  Tm  Tm13  1  0.535764  0.464236  0.792653  1
  Tm  Tm14  1  0.000000  0.000000  0.267279  1
  Tm  Tm15  1  0.000000  0.000000  0.766941  1
  Ga  Ga16  1  0.163232  0.836768  0.541156  1
  Ga  Ga17  1  0.327248  0.163624  0.041371  1
  Ga  Ga18  1  0.836376  0.672752  0.041371  1
  Ga  Ga19  1  0.163232  0.326463  0.541156  1
  Ga  Ga20  1  0.673537  0.836768  0.541156  1
  Ga  Ga21  1  0.836376  0.163624  0.041371  1
  Fe  Fe22  1  0.333333  0.666667  0.055038  1
  Co  Co23  1  0.666667  0.333333  0.556676  1
