# generated using pymatgen
data_Na2Zn(SiPd2)3
_symmetry_space_group_name_H-M   'P 1'
_cell_length_a   6.77003276
_cell_length_b   6.71183725
_cell_length_c   6.77003330
_cell_angle_alpha   129.71602064
_cell_angle_beta   115.20880134
_cell_angle_gamma   86.56457353
_symmetry_Int_Tables_number   1
_chemical_formula_structural   Na2Zn(SiPd2)3
_chemical_formula_sum   'Na2 Zn1 Si3 Pd6'
_cell_volume   203.89836857
_cell_formula_units_Z   1
loop_
 _symmetry_equiv_pos_site_id
 _symmetry_equiv_pos_as_xyz
  1  'x, y, z'
loop_
 _atom_site_type_symbol
 _atom_site_label
 _atom_site_symmetry_multiplicity
 _atom_site_fract_x
 _atom_site_fract_y
 _atom_site_fract_z
 _atom_site_occupancy
  Na  Na0  1  0.004914  0.986150  0.981236  1
  Na  Na1  1  0.498140  0.043146  0.545006  1
  Zn  Zn2  1  0.352305  0.415506  0.063201  1
  Si  Si3  1  0.809211  0.242701  0.433491  1
  Si  Si4  1  0.646179  0.698034  0.051856  1
  Si  Si5  1  0.193747  0.624498  0.430751  1
  Pd  Pd6  1  0.946554  0.500538  0.952397  1
  Pd  Pd7  1  0.548141  0.500538  0.553985  1
  Pd  Pd8  1  0.035129  0.993522  0.531767  1
  Pd  Pd9  1  0.795169  0.493423  0.284667  1
  Pd  Pd10  1  0.208755  0.493423  0.698253  1
  Pd  Pd11  1  0.461756  0.993522  0.958393  1
