# generated using pymatgen
data_CrBr9
_symmetry_space_group_name_H-M   'P 1'
_cell_length_a   9.15503556
_cell_length_b   9.15503646
_cell_length_c   9.15503579
_cell_angle_alpha   88.24953086
_cell_angle_beta   88.24952742
_cell_angle_gamma   88.24953422
_symmetry_Int_Tables_number   1
_chemical_formula_structural   CrBr9
_chemical_formula_sum   'Cr2 Br18'
_cell_volume   766.27359402
_cell_formula_units_Z   2
loop_
 _symmetry_equiv_pos_site_id
 _symmetry_equiv_pos_as_xyz
  1  'x, y, z'
loop_
 _atom_site_type_symbol
 _atom_site_label
 _atom_site_symmetry_multiplicity
 _atom_site_fract_x
 _atom_site_fract_y
 _atom_site_fract_z
 _atom_site_occupancy
  Cr  Cr0  1  0.000000  0.000000  0.000000  1
  Cr  Cr1  1  0.500000  0.500000  0.500000  1
  Br  Br2  1  0.727299  0.988775  0.031807  1
  Br  Br3  1  0.748269  0.130426  0.619087  1
  Br  Br4  1  0.031807  0.727299  0.988775  1
  Br  Br5  1  0.251731  0.869574  0.380913  1
  Br  Br6  1  0.130426  0.619087  0.748269  1
  Br  Br7  1  0.011225  0.968193  0.272701  1
  Br  Br8  1  0.619087  0.748269  0.130426  1
  Br  Br9  1  0.968193  0.272701  0.011225  1
  Br  Br10  1  0.869574  0.380913  0.251731  1
  Br  Br11  1  0.380913  0.251731  0.869574  1
  Br  Br12  1  0.988775  0.031807  0.727299  1
  Br  Br13  1  0.272701  0.011225  0.968193  1
  Br  Br14  1  0.773357  0.521675  0.477081  1
  Br  Br15  1  0.522919  0.226643  0.478325  1
  Br  Br16  1  0.478325  0.522919  0.226643  1
  Br  Br17  1  0.477081  0.773357  0.521675  1
  Br  Br18  1  0.521675  0.477081  0.773357  1
  Br  Br19  1  0.226643  0.478325  0.522919  1
