# generated using pymatgen
data_Er2Tm3VReO12
_symmetry_space_group_name_H-M   'P 1'
_cell_length_a   6.71458763
_cell_length_b   6.71458792
_cell_length_c   7.38679690
_cell_angle_alpha   73.94185564
_cell_angle_beta   73.94185780
_cell_angle_gamma   50.31372472
_symmetry_Int_Tables_number   1
_chemical_formula_structural   Er2Tm3VReO12
_chemical_formula_sum   'Er2 Tm3 V1 Re1 O12'
_cell_volume   244.02994933
_cell_formula_units_Z   1
loop_
 _symmetry_equiv_pos_site_id
 _symmetry_equiv_pos_as_xyz
  1  'x, y, z'
loop_
 _atom_site_type_symbol
 _atom_site_label
 _atom_site_symmetry_multiplicity
 _atom_site_fract_x
 _atom_site_fract_y
 _atom_site_fract_z
 _atom_site_occupancy
  Er  Er0  1  0.819209  0.789739  0.359792  1
  Er  Er1  1  0.210261  0.180791  0.640208  1
  Tm  Tm2  1  0.186926  0.184081  0.177659  1
  Tm  Tm3  1  0.815919  0.813074  0.822341  1
  Tm  Tm4  1  0.508432  0.491568  0.500000  1
  V  V5  1  0.267175  0.732825  0.000000  1
  Re  Re6  1  0.715715  0.284285  0.000000  1
  O  O7  1  0.409681  0.930315  0.915756  1
  O  O8  1  0.069685  0.590319  0.084244  1
  O  O9  1  0.592541  0.088428  0.083563  1
  O  O10  1  0.911572  0.407459  0.916437  1
  O  O11  1  0.606958  0.091059  0.570084  1
  O  O12  1  0.908941  0.393042  0.429916  1
  O  O13  1  0.410491  0.901232  0.421376  1
  O  O14  1  0.988239  0.011238  0.816793  1
  O  O15  1  0.988762  0.011761  0.183207  1
  O  O16  1  0.493765  0.503038  0.799840  1
  O  O17  1  0.496962  0.506235  0.200160  1
  O  O18  1  0.098768  0.589509  0.578624  1
