# generated using pymatgen
data_Ta4Nb2Co15Si7Rh
_symmetry_space_group_name_H-M   'P 1'
_cell_length_a   7.94843776
_cell_length_b   7.94847693
_cell_length_c   7.94430362
_cell_angle_alpha   59.90195804
_cell_angle_beta   59.92125467
_cell_angle_gamma   59.86062078
_symmetry_Int_Tables_number   1
_chemical_formula_structural   Ta4Nb2Co15Si7Rh
_chemical_formula_sum   'Ta4 Nb2 Co15 Si7 Rh1'
_cell_volume   354.05165812
_cell_formula_units_Z   1
loop_
 _symmetry_equiv_pos_site_id
 _symmetry_equiv_pos_as_xyz
  1  'x, y, z'
loop_
 _atom_site_type_symbol
 _atom_site_label
 _atom_site_symmetry_multiplicity
 _atom_site_fract_x
 _atom_site_fract_y
 _atom_site_fract_z
 _atom_site_occupancy
  Ta  Ta0  1  0.802347  0.199904  0.199492  1
  Ta  Ta1  1  0.797241  0.201013  0.797589  1
  Ta  Ta2  1  0.796447  0.797160  0.201466  1
  Ta  Ta3  1  0.199856  0.200625  0.802012  1
  Nb  Nb4  1  0.200241  0.797976  0.797682  1
  Nb  Nb5  1  0.199166  0.803138  0.199399  1
  Co  Co6  1  0.499305  0.834804  0.833513  1
  Co  Co7  1  0.621821  0.620222  0.143143  1
  Co  Co8  1  0.162376  0.163849  0.505147  1
  Co  Co9  1  0.833601  0.835051  0.497998  1
  Co  Co10  1  0.166384  0.167712  0.166643  1
  Co  Co11  1  0.832950  0.834143  0.833819  1
  Co  Co12  1  0.381678  0.379938  0.856716  1
  Co  Co13  1  0.834734  0.496660  0.834956  1
  Co  Co14  1  0.620629  0.618953  0.619430  1
  Co  Co15  1  0.381832  0.856724  0.380524  1
  Co  Co16  1  0.143033  0.620057  0.621294  1
  Co  Co17  1  0.621357  0.142982  0.620938  1
  Co  Co18  1  0.162739  0.503945  0.163957  1
  Co  Co19  1  0.856645  0.380696  0.381166  1
  Co  Co20  1  0.506510  0.162764  0.162447  1
  Si  Si21  1  0.999582  0.999585  0.499394  1
  Si  Si22  1  0.500432  0.993228  0.500945  1
  Si  Si23  1  0.504045  0.504583  0.504246  1
  Si  Si24  1  0.999319  0.499840  0.999356  1
  Si  Si25  1  0.500452  0.501484  0.993176  1
  Si  Si26  1  0.498841  0.999821  0.999837  1
  Si  Si27  1  0.993016  0.501463  0.500884  1
  Rh  Rh28  1  0.383424  0.381681  0.382835  1
