# generated using pymatgen
data_Sm3Mg2CdSn2Au
_symmetry_space_group_name_H-M   'P 1'
_cell_length_a   7.61854400
_cell_length_b   7.57133223
_cell_length_c   4.58147900
_cell_angle_alpha   90.00000000
_cell_angle_beta   90.00000000
_cell_angle_gamma   120.20647835
_symmetry_Int_Tables_number   1
_chemical_formula_structural   Sm3Mg2CdSn2Au
_chemical_formula_sum   'Sm3 Mg2 Cd1 Sn2 Au1'
_cell_volume   228.38798440
_cell_formula_units_Z   1
loop_
 _symmetry_equiv_pos_site_id
 _symmetry_equiv_pos_as_xyz
  1  'x, y, z'
loop_
 _atom_site_type_symbol
 _atom_site_label
 _atom_site_symmetry_multiplicity
 _atom_site_fract_x
 _atom_site_fract_y
 _atom_site_fract_z
 _atom_site_occupancy
  Sm  Sm0  1  0.589006  0.000000  0.000000  1
  Sm  Sm1  1  0.002779  0.595957  0.000000  1
  Sm  Sm2  1  0.406822  0.404043  0.000000  1
  Mg  Mg3  1  0.001043  0.232948  0.500000  1
  Mg  Mg4  1  0.768095  0.767052  0.500000  1
  Cd  Cd5  1  0.240167  0.000000  0.500000  1
  Sn  Sn6  1  0.334552  0.663343  0.500000  1
  Sn  Sn7  1  0.671210  0.336657  0.500000  1
  Au  Au8  1  0.986325  0.000000  0.000000  1
