# generated using pymatgen
data_K4HgAs2Pd
_symmetry_space_group_name_H-M   'P 1'
_cell_length_a   6.43890247
_cell_length_b   6.43890206
_cell_length_c   6.15040277
_cell_angle_alpha   90.61223659
_cell_angle_beta   89.38776267
_cell_angle_gamma   75.22834305
_symmetry_Int_Tables_number   1
_chemical_formula_structural   K4HgAs2Pd
_chemical_formula_sum   'K4 Hg1 As2 Pd1'
_cell_volume   246.52701134
_cell_formula_units_Z   1
loop_
 _symmetry_equiv_pos_site_id
 _symmetry_equiv_pos_as_xyz
  1  'x, y, z'
loop_
 _atom_site_type_symbol
 _atom_site_label
 _atom_site_symmetry_multiplicity
 _atom_site_fract_x
 _atom_site_fract_y
 _atom_site_fract_z
 _atom_site_occupancy
  K  K0  1  0.178151  0.475088  0.257438  1
  K  K1  1  0.524913  0.821849  0.257438  1
  K  K2  1  0.475088  0.178151  0.742561  1
  K  K3  1  0.821849  0.524913  0.742561  1
  Hg  Hg4  1  0.000000  0.000000  0.000000  1
  As  As5  1  0.740468  0.259532  0.261475  1
  As  As6  1  0.259532  0.740468  0.738524  1
  Pd  Pd7  1  0.000000  0.000000  0.500001  1
