# generated using pymatgen
data_La8ErLu(In3Br)2
_symmetry_space_group_name_H-M   'P 1'
_cell_length_a   9.70069500
_cell_length_b   9.70069412
_cell_length_c   6.88796600
_cell_angle_alpha   90.00000000
_cell_angle_beta   90.00000000
_cell_angle_gamma   120.00000641
_symmetry_Int_Tables_number   1
_chemical_formula_structural   La8ErLu(In3Br)2
_chemical_formula_sum   'La8 Er1 Lu1 In6 Br2'
_cell_volume   561.34164013
_cell_formula_units_Z   1
loop_
 _symmetry_equiv_pos_site_id
 _symmetry_equiv_pos_as_xyz
  1  'x, y, z'
loop_
 _atom_site_type_symbol
 _atom_site_label
 _atom_site_symmetry_multiplicity
 _atom_site_fract_x
 _atom_site_fract_y
 _atom_site_fract_z
 _atom_site_occupancy
  La  La0  1  0.731975  0.731546  0.254271  1
  La  La1  1  0.999571  0.731546  0.745729  1
  La  La2  1  0.731975  0.000429  0.745729  1
  La  La3  1  0.268454  0.268025  0.745729  1
  La  La4  1  0.999571  0.268025  0.254271  1
  La  La5  1  0.268454  0.000429  0.254271  1
  La  La6  1  0.333333  0.666667  0.000000  1
  La  La7  1  0.666667  0.333333  0.000000  1
  Er  Er8  1  0.333333  0.666667  0.500000  1
  Lu  Lu9  1  0.666667  0.333333  0.500000  1
  In  In10  1  0.393222  0.000233  0.742621  1
  In  In11  1  0.999767  0.606778  0.257379  1
  In  In12  1  0.607011  0.000233  0.257379  1
  In  In13  1  0.999767  0.392989  0.742621  1
  In  In14  1  0.393222  0.392989  0.257379  1
  In  In15  1  0.607011  0.606778  0.742621  1
  Br  Br16  1  0.000000  0.000000  0.500000  1
  Br  Br17  1  0.000000  0.000000  0.000000  1
