# generated using pymatgen
data_Pr5NdTa2(Co4P3)4
_symmetry_space_group_name_H-M   'P 1'
_cell_length_a   3.77892500
_cell_length_b   10.78899612
_cell_length_c   12.52228914
_cell_angle_alpha   89.98295931
_cell_angle_beta   90.00000000
_cell_angle_gamma   90.00000000
_symmetry_Int_Tables_number   1
_chemical_formula_structural   Pr5NdTa2(Co4P3)4
_chemical_formula_sum   'Pr5 Nd1 Ta2 Co16 P12'
_cell_volume   510.54381309
_cell_formula_units_Z   1
loop_
 _symmetry_equiv_pos_site_id
 _symmetry_equiv_pos_as_xyz
  1  'x, y, z'
loop_
 _atom_site_type_symbol
 _atom_site_label
 _atom_site_symmetry_multiplicity
 _atom_site_fract_x
 _atom_site_fract_y
 _atom_site_fract_z
 _atom_site_occupancy
  Pr  Pr0  1  0.000000  0.500025  0.525273  1
  Pr  Pr1  1  0.500000  0.999888  0.474659  1
  Pr  Pr2  1  0.500000  0.179880  0.205506  1
  Pr  Pr3  1  0.000000  0.680058  0.794447  1
  Pr  Pr4  1  0.000000  0.319954  0.794532  1
  Nd  Nd5  1  0.500000  0.819821  0.205267  1
  Ta  Ta6  1  0.500000  0.500219  0.153331  1
  Ta  Ta7  1  0.000000  0.999941  0.846751  1
  Co  Co8  1  0.500000  0.500024  0.703568  1
  Co  Co9  1  0.000000  0.999335  0.296167  1
  Co  Co10  1  0.000000  0.500287  0.988075  1
  Co  Co11  1  0.500000  0.999690  0.012330  1
  Co  Co12  1  0.500000  0.332749  0.993415  1
  Co  Co13  1  0.500000  0.667497  0.993577  1
  Co  Co14  1  0.000000  0.167059  0.006783  1
  Co  Co15  1  0.000000  0.832657  0.007008  1
  Co  Co16  1  0.500000  0.295543  0.431739  1
  Co  Co17  1  0.500000  0.704648  0.431394  1
  Co  Co18  1  0.000000  0.204427  0.568232  1
  Co  Co19  1  0.000000  0.795577  0.568039  1
  Co  Co20  1  0.500000  0.880649  0.707262  1
  Co  Co21  1  0.500000  0.119369  0.707358  1
  Co  Co22  1  0.000000  0.619827  0.292316  1
  Co  Co23  1  0.000000  0.380706  0.292669  1
  P  P24  1  0.500000  0.500085  0.886859  1
  P  P25  1  0.000000  0.999423  0.113707  1
  P  P26  1  0.500000  0.499978  0.349651  1
  P  P27  1  0.000000  0.000013  0.650359  1
  P  P28  1  0.500000  0.305222  0.613603  1
  P  P29  1  0.500000  0.694856  0.613430  1
  P  P30  1  0.000000  0.194702  0.386405  1
  P  P31  1  0.000000  0.805464  0.385617  1
  P  P32  1  0.500000  0.843615  0.896463  1
  P  P33  1  0.500000  0.156302  0.896639  1
  P  P34  1  0.000000  0.656870  0.104057  1
  P  P35  1  0.000000  0.343641  0.103513  1
