# generated using pymatgen
data_K4PuO6
_symmetry_space_group_name_H-M   'P 1'
_cell_length_a   7.48271233
_cell_length_b   7.48271257
_cell_length_c   7.48271200
_cell_angle_alpha   89.00718605
_cell_angle_beta   89.00718601
_cell_angle_gamma   89.00718322
_symmetry_Int_Tables_number   1
_chemical_formula_structural   K4PuO6
_chemical_formula_sum   'K8 Pu2 O12'
_cell_volume   418.77788212
_cell_formula_units_Z   2
loop_
 _symmetry_equiv_pos_site_id
 _symmetry_equiv_pos_as_xyz
  1  'x, y, z'
loop_
 _atom_site_type_symbol
 _atom_site_label
 _atom_site_symmetry_multiplicity
 _atom_site_fract_x
 _atom_site_fract_y
 _atom_site_fract_z
 _atom_site_occupancy
  K  K0  1  0.750000  0.394841  0.105159  1
  K  K1  1  0.105159  0.750000  0.394841  1
  K  K2  1  0.394841  0.105159  0.750000  1
  K  K3  1  0.250000  0.605159  0.894841  1
  K  K4  1  0.894841  0.250000  0.605159  1
  K  K5  1  0.605159  0.894841  0.250000  1
  K  K6  1  0.250000  0.250000  0.250000  1
  K  K7  1  0.750000  0.750000  0.750000  1
  Pu  Pu8  1  0.000000  0.000000  0.000000  1
  Pu  Pu9  1  0.500000  0.500000  0.500000  1
  O  O10  1  0.442565  0.749880  0.569305  1
  O  O11  1  0.569305  0.442565  0.749880  1
  O  O12  1  0.749880  0.569305  0.442565  1
  O  O13  1  0.057435  0.930695  0.750120  1
  O  O14  1  0.750120  0.057435  0.930695  1
  O  O15  1  0.930695  0.750120  0.057435  1
  O  O16  1  0.557435  0.250120  0.430695  1
  O  O17  1  0.430695  0.557435  0.250120  1
  O  O18  1  0.250120  0.430695  0.557435  1
  O  O19  1  0.942565  0.069305  0.249880  1
  O  O20  1  0.069305  0.249880  0.942565  1
  O  O21  1  0.249880  0.942565  0.069305  1
