# generated using pymatgen
data_DyZr(Ni2As)4
_symmetry_space_group_name_H-M   'P 1'
_cell_length_a   7.17008852
_cell_length_b   7.17008852
_cell_length_c   3.76856900
_cell_angle_alpha   90.00000000
_cell_angle_beta   90.00000000
_cell_angle_gamma   90.58839181
_symmetry_Int_Tables_number   1
_chemical_formula_structural   DyZr(Ni2As)4
_chemical_formula_sum   'Dy1 Zr1 Ni8 As4'
_cell_volume   193.73255463
_cell_formula_units_Z   1
loop_
 _symmetry_equiv_pos_site_id
 _symmetry_equiv_pos_as_xyz
  1  'x, y, z'
loop_
 _atom_site_type_symbol
 _atom_site_label
 _atom_site_symmetry_multiplicity
 _atom_site_fract_x
 _atom_site_fract_y
 _atom_site_fract_z
 _atom_site_occupancy
  Dy  Dy0  1  0.000000  0.000000  0.500000  1
  Zr  Zr1  1  0.500000  0.500000  0.000000  1
  Ni  Ni2  1  0.844757  0.412174  0.500000  1
  Ni  Ni3  1  0.910271  0.655023  0.000000  1
  Ni  Ni4  1  0.344977  0.089729  0.000000  1
  Ni  Ni5  1  0.587826  0.155243  0.500000  1
  Ni  Ni6  1  0.412174  0.844757  0.500000  1
  Ni  Ni7  1  0.089729  0.344977  0.000000  1
  Ni  Ni8  1  0.155243  0.587826  0.500000  1
  Ni  Ni9  1  0.655023  0.910271  0.000000  1
  As  As10  1  0.711079  0.711079  0.500000  1
  As  As11  1  0.288921  0.288921  0.500000  1
  As  As12  1  0.775634  0.224366  0.000000  1
  As  As13  1  0.224366  0.775634  0.000000  1
