# generated using pymatgen
data_Tm4Re2Ru5W
_symmetry_space_group_name_H-M   'P 1'
_cell_length_a   5.48023638
_cell_length_b   5.13423832
_cell_length_c   8.99896900
_cell_angle_alpha   90.00000000
_cell_angle_beta   90.00000000
_cell_angle_gamma   120.97519957
_symmetry_Int_Tables_number   1
_chemical_formula_structural   Tm4Re2Ru5W
_chemical_formula_sum   'Tm4 Re2 Ru5 W1'
_cell_volume   217.09337131
_cell_formula_units_Z   1
loop_
 _symmetry_equiv_pos_site_id
 _symmetry_equiv_pos_as_xyz
  1  'x, y, z'
loop_
 _atom_site_type_symbol
 _atom_site_label
 _atom_site_symmetry_multiplicity
 _atom_site_fract_x
 _atom_site_fract_y
 _atom_site_fract_z
 _atom_site_occupancy
  Tm  Tm0  1  0.673305  0.343500  0.564511  1
  Tm  Tm1  1  0.329317  0.663951  0.434005  1
  Tm  Tm2  1  0.329317  0.663951  0.065995  1
  Tm  Tm3  1  0.673305  0.343500  0.935489  1
  Re  Re4  1  0.843964  0.670123  0.250000  1
  Re  Re5  1  0.834263  0.175734  0.250000  1
  Ru  Ru6  1  0.989953  0.006311  0.499814  1
  Ru  Ru7  1  0.989953  0.006311  0.000186  1
  Ru  Ru8  1  0.171398  0.815363  0.750000  1
  Ru  Ru9  1  0.648466  0.816977  0.750000  1
  Ru  Ru10  1  0.353556  0.177543  0.250000  1
  W  W11  1  0.163205  0.316736  0.750000  1
