# generated using pymatgen
data_Ca13La(PbN4)2
_symmetry_space_group_name_H-M   'P 1'
_cell_length_a   3.59292957
_cell_length_b   11.97304829
_cell_length_c   11.48852400
_cell_angle_alpha   91.17012984
_cell_angle_beta   89.96773959
_cell_angle_gamma   89.97196078
_symmetry_Int_Tables_number   1
_chemical_formula_structural   Ca13La(PbN4)2
_chemical_formula_sum   'Ca13 La1 Pb2 N8'
_cell_volume   494.11379163
_cell_formula_units_Z   1
loop_
 _symmetry_equiv_pos_site_id
 _symmetry_equiv_pos_as_xyz
  1  'x, y, z'
loop_
 _atom_site_type_symbol
 _atom_site_label
 _atom_site_symmetry_multiplicity
 _atom_site_fract_x
 _atom_site_fract_y
 _atom_site_fract_z
 _atom_site_occupancy
  Ca  Ca0  1  0.500036  0.330944  0.759208  1
  Ca  Ca1  1  0.500033  0.168949  0.258808  1
  Ca  Ca2  1  0.499932  0.828935  0.738007  1
  Ca  Ca3  1  0.500031  0.499387  0.995670  1
  Ca  Ca4  1  0.500080  0.998915  0.497434  1
  Ca  Ca5  1  0.000060  0.930574  0.256164  1
  Ca  Ca6  1  0.999237  0.070292  0.735253  1
  Ca  Ca7  1  0.001138  0.421157  0.243625  1
  Ca  Ca8  1  0.000120  0.573159  0.763524  1
  Ca  Ca9  1  0.001102  0.763021  0.482554  1
  Ca  Ca10  1  0.999638  0.233548  0.519380  1
  Ca  Ca11  1  0.000346  0.265871  0.018745  1
  Ca  Ca12  1  0.999489  0.742713  0.980477  1
  La  La13  1  0.501331  0.660622  0.253280  1
  Pb  Pb14  1  0.505460  0.499559  0.502480  1
  Pb  Pb15  1  0.489768  0.003375  0.996649  1
  N  N16  1  0.001511  0.610423  0.134740  1
  N  N17  1  0.999974  0.400901  0.871893  1
  N  N18  1  0.999844  0.100023  0.365003  1
  N  N19  1  0.000030  0.894668  0.628813  1
  N  N20  1  0.500526  0.830664  0.352566  1
  N  N21  1  0.499363  0.165310  0.639270  1
  N  N22  1  0.501094  0.336677  0.143489  1
  N  N23  1  0.499858  0.670314  0.862971  1
