# generated using pymatgen
data_Tm3Zn3HgAu2
_symmetry_space_group_name_H-M   'P 1'
_cell_length_a   7.61057600
_cell_length_b   7.61057587
_cell_length_c   3.74681400
_cell_angle_alpha   90.00000000
_cell_angle_beta   90.00000000
_cell_angle_gamma   120.00000058
_symmetry_Int_Tables_number   1
_chemical_formula_structural   Tm3Zn3HgAu2
_chemical_formula_sum   'Tm3 Zn3 Hg1 Au2'
_cell_volume   187.94371640
_cell_formula_units_Z   1
loop_
 _symmetry_equiv_pos_site_id
 _symmetry_equiv_pos_as_xyz
  1  'x, y, z'
loop_
 _atom_site_type_symbol
 _atom_site_label
 _atom_site_symmetry_multiplicity
 _atom_site_fract_x
 _atom_site_fract_y
 _atom_site_fract_z
 _atom_site_occupancy
  Tm  Tm0  1  0.407518  0.000000  0.000000  1
  Tm  Tm1  1  0.000000  0.407517  0.000000  1
  Tm  Tm2  1  0.592483  0.592483  0.000000  1
  Zn  Zn3  1  0.727046  0.000000  0.500001  1
  Zn  Zn4  1  0.272954  0.272954  0.500001  1
  Zn  Zn5  1  0.000000  0.727046  0.500001  1
  Hg  Hg6  1  0.000000  0.000000  0.000000  1
  Au  Au7  1  0.666667  0.333333  0.500001  1
  Au  Au8  1  0.333333  0.666667  0.500001  1
