# generated using pymatgen
data_Ta3Mn(ZnRu3)2
_symmetry_space_group_name_H-M   'P 1'
_cell_length_a   4.37127804
_cell_length_b   6.23476305
_cell_length_c   13.12853100
_cell_angle_alpha   90.00034039
_cell_angle_beta   90.00089514
_cell_angle_gamma   90.01487539
_symmetry_Int_Tables_number   1
_chemical_formula_structural   Ta3Mn(ZnRu3)2
_chemical_formula_sum   'Ta6 Mn2 Zn4 Ru12'
_cell_volume   357.80343308
_cell_formula_units_Z   2
loop_
 _symmetry_equiv_pos_site_id
 _symmetry_equiv_pos_as_xyz
  1  'x, y, z'
loop_
 _atom_site_type_symbol
 _atom_site_label
 _atom_site_symmetry_multiplicity
 _atom_site_fract_x
 _atom_site_fract_y
 _atom_site_fract_z
 _atom_site_occupancy
  Ta  Ta0  1  0.999999  0.500025  0.996451  1
  Ta  Ta1  1  0.499831  0.999951  0.170193  1
  Ta  Ta2  1  0.999875  0.499992  0.338033  1
  Ta  Ta3  1  0.499994  0.999993  0.500993  1
  Ta  Ta4  1  0.000111  0.499999  0.665633  1
  Ta  Ta5  1  0.500136  0.999980  0.828656  1
  Mn  Mn6  1  0.000126  0.000053  0.999739  1
  Mn  Mn7  1  0.499868  0.500113  0.167060  1
  Zn  Zn8  1  0.999860  0.999992  0.333250  1
  Zn  Zn9  1  0.499988  0.499990  0.499892  1
  Zn  Zn10  1  0.000123  0.999999  0.666769  1
  Zn  Zn11  1  0.500131  0.499988  0.833370  1
  Ru  Ru12  1  0.499884  0.247404  0.002500  1
  Ru  Ru13  1  0.500156  0.752580  0.002497  1
  Ru  Ru14  1  0.999944  0.252587  0.164223  1
  Ru  Ru15  1  0.999740  0.747398  0.164225  1
  Ru  Ru16  1  0.499834  0.252449  0.330218  1
  Ru  Ru17  1  0.499931  0.747525  0.330227  1
  Ru  Ru18  1  0.000057  0.249466  0.499612  1
  Ru  Ru19  1  0.999937  0.750523  0.499612  1
  Ru  Ru20  1  0.500047  0.250496  0.666988  1
  Ru  Ru21  1  0.500174  0.749502  0.666984  1
  Ru  Ru22  1  0.000183  0.247544  0.836440  1
  Ru  Ru23  1  0.000065  0.752453  0.836437  1
