# generated using pymatgen
data_Ir5Rh3Se16
_symmetry_space_group_name_H-M   'P 1'
_cell_length_a   3.79459700
_cell_length_b   6.03123617
_cell_length_c   21.29769558
_cell_angle_alpha   90.02699971
_cell_angle_beta   90.00000000
_cell_angle_gamma   90.00000000
_symmetry_Int_Tables_number   1
_chemical_formula_structural   Ir5Rh3Se16
_chemical_formula_sum   'Ir5 Rh3 Se16'
_cell_volume   487.42136414
_cell_formula_units_Z   1
loop_
 _symmetry_equiv_pos_site_id
 _symmetry_equiv_pos_as_xyz
  1  'x, y, z'
loop_
 _atom_site_type_symbol
 _atom_site_label
 _atom_site_symmetry_multiplicity
 _atom_site_fract_x
 _atom_site_fract_y
 _atom_site_fract_z
 _atom_site_occupancy
  Ir  Ir0  1  0.250000  0.071261  0.576432  1
  Ir  Ir1  1  0.250000  0.427256  0.076301  1
  Ir  Ir2  1  0.750000  0.927962  0.423664  1
  Ir  Ir3  1  0.750000  0.570867  0.923709  1
  Ir  Ir4  1  0.250000  0.058035  0.805106  1
  Rh  Rh5  1  0.250000  0.443681  0.304816  1
  Rh  Rh6  1  0.750000  0.943666  0.194983  1
  Rh  Rh7  1  0.750000  0.557350  0.695038  1
  Se  Se8  1  0.250000  0.428879  0.861217  1
  Se  Se9  1  0.250000  0.070947  0.361201  1
  Se  Se10  1  0.750000  0.570592  0.138695  1
  Se  Se11  1  0.750000  0.928164  0.638515  1
  Se  Se12  1  0.750000  0.181665  0.738445  1
  Se  Se13  1  0.750000  0.319357  0.237701  1
  Se  Se14  1  0.250000  0.819412  0.262150  1
  Se  Se15  1  0.250000  0.682357  0.761931  1
  Se  Se16  1  0.750000  0.952322  0.878140  1
  Se  Se17  1  0.750000  0.549701  0.377829  1
  Se  Se18  1  0.250000  0.049459  0.122065  1
  Se  Se19  1  0.250000  0.449885  0.622093  1
  Se  Se20  1  0.750000  0.222555  0.508627  1
  Se  Se21  1  0.750000  0.276094  0.008579  1
  Se  Se22  1  0.250000  0.777428  0.491370  1
  Se  Se23  1  0.250000  0.721106  0.991395  1
