# generated using pymatgen
data_Ce5Sn3Cl
_symmetry_space_group_name_H-M   'P 1'
_cell_length_a   6.44920600
_cell_length_b   9.47945381
_cell_length_c   9.47739600
_cell_angle_alpha   120.00718955
_cell_angle_beta   90.00000000
_cell_angle_gamma   90.00000000
_symmetry_Int_Tables_number   1
_chemical_formula_structural   Ce5Sn3Cl
_chemical_formula_sum   'Ce10 Sn6 Cl2'
_cell_volume   501.73887924
_cell_formula_units_Z   2
loop_
 _symmetry_equiv_pos_site_id
 _symmetry_equiv_pos_as_xyz
  1  'x, y, z'
loop_
 _atom_site_type_symbol
 _atom_site_label
 _atom_site_symmetry_multiplicity
 _atom_site_fract_x
 _atom_site_fract_y
 _atom_site_fract_z
 _atom_site_occupancy
  Ce  Ce0  1  0.749957  0.264553  0.000000  1
  Ce  Ce1  1  0.750032  0.735589  0.735252  1
  Ce  Ce2  1  0.750032  0.000337  0.264748  1
  Ce  Ce3  1  0.249957  0.735447  0.000000  1
  Ce  Ce4  1  0.250032  0.264411  0.264748  1
  Ce  Ce5  1  0.250032  0.999663  0.735252  1
  Ce  Ce6  1  0.500018  0.332969  0.665897  1
  Ce  Ce7  1  0.500018  0.667072  0.334103  1
  Ce  Ce8  1  0.000018  0.667031  0.334103  1
  Ce  Ce9  1  0.000018  0.332928  0.665897  1
  Sn  Sn10  1  0.750099  0.615259  0.000000  1
  Sn  Sn11  1  0.749981  0.384814  0.385078  1
  Sn  Sn12  1  0.749981  0.999736  0.614922  1
  Sn  Sn13  1  0.250099  0.384741  0.000000  1
  Sn  Sn14  1  0.249981  0.615186  0.614922  1
  Sn  Sn15  1  0.249981  0.000264  0.385078  1
  Cl  Cl16  1  0.499881  0.999951  0.000000  1
  Cl  Cl17  1  0.999881  0.000049  0.000000  1
