# generated using pymatgen
data_Dy5LuSi24OsRu7
_symmetry_space_group_name_H-M   'P 1'
_cell_length_a   10.10631911
_cell_length_b   10.10632047
_cell_length_c   8.13914822
_cell_angle_alpha   90.00748881
_cell_angle_beta   90.00748650
_cell_angle_gamma   132.50765716
_symmetry_Int_Tables_number   1
_chemical_formula_structural   Dy5LuSi24OsRu7
_chemical_formula_sum   'Dy5 Lu1 Si24 Os1 Ru7'
_cell_volume   612.83378525
_cell_formula_units_Z   1
loop_
 _symmetry_equiv_pos_site_id
 _symmetry_equiv_pos_as_xyz
  1  'x, y, z'
loop_
 _atom_site_type_symbol
 _atom_site_label
 _atom_site_symmetry_multiplicity
 _atom_site_fract_x
 _atom_site_fract_y
 _atom_site_fract_z
 _atom_site_occupancy
  Dy  Dy0  1  0.000029  0.999971  0.000000  1
  Dy  Dy1  1  0.502343  0.002320  0.750078  1
  Dy  Dy2  1  0.997680  0.497657  0.249922  1
  Dy  Dy3  1  0.497795  0.997511  0.249809  1
  Dy  Dy4  1  0.002489  0.502205  0.750191  1
  Lu  Lu5  1  0.500053  0.499947  0.500000  1
  Si  Si6  1  0.795383  0.204617  0.500000  1
  Si  Si7  1  0.294883  0.705117  0.000000  1
  Si  Si8  1  0.205231  0.794769  0.500000  1
  Si  Si9  1  0.705222  0.294778  0.000000  1
  Si  Si10  1  0.332276  0.332510  0.833176  1
  Si  Si11  1  0.667490  0.667724  0.166824  1
  Si  Si12  1  0.167397  0.167178  0.332814  1
  Si  Si13  1  0.832822  0.832603  0.667186  1
  Si  Si14  1  0.121803  0.887655  0.728704  1
  Si  Si15  1  0.112345  0.878197  0.271296  1
  Si  Si16  1  0.612010  0.378295  0.227511  1
  Si  Si17  1  0.621705  0.387990  0.772489  1
  Si  Si18  1  0.877440  0.111425  0.270784  1
  Si  Si19  1  0.888575  0.122560  0.729216  1
  Si  Si20  1  0.387899  0.622157  0.771446  1
  Si  Si21  1  0.377843  0.612101  0.228554  1
  Si  Si22  1  0.344270  0.111279  0.505156  1
  Si  Si23  1  0.888721  0.655730  0.494844  1
  Si  Si24  1  0.387806  0.154222  0.004669  1
  Si  Si25  1  0.845778  0.612194  0.995331  1
  Si  Si26  1  0.653764  0.887313  0.493751  1
  Si  Si27  1  0.112687  0.346236  0.506249  1
  Si  Si28  1  0.611996  0.845529  0.995272  1
  Si  Si29  1  0.154471  0.388004  0.004728  1
  Os  Os30  1  0.668500  0.331500  0.500000  1
  Ru  Ru31  1  0.169322  0.830678  0.000000  1
  Ru  Ru32  1  0.331475  0.668525  0.500000  1
  Ru  Ru33  1  0.830682  0.169318  0.000000  1
  Ru  Ru34  1  0.128090  0.128355  0.625701  1
  Ru  Ru35  1  0.871645  0.871910  0.374299  1
  Ru  Ru36  1  0.374924  0.374844  0.128928  1
  Ru  Ru37  1  0.625156  0.625076  0.871072  1
