# generated using pymatgen
data_TbSm3Th6(Tl3C)2
_symmetry_space_group_name_H-M   'P 1'
_cell_length_a   9.45129300
_cell_length_b   9.45129389
_cell_length_c   6.41144300
_cell_angle_alpha   90.00000000
_cell_angle_beta   90.00000000
_cell_angle_gamma   120.00000738
_symmetry_Int_Tables_number   1
_chemical_formula_structural   TbSm3Th6(Tl3C)2
_chemical_formula_sum   'Tb1 Sm3 Th6 Tl6 C2'
_cell_volume   495.98538543
_cell_formula_units_Z   1
loop_
 _symmetry_equiv_pos_site_id
 _symmetry_equiv_pos_as_xyz
  1  'x, y, z'
loop_
 _atom_site_type_symbol
 _atom_site_label
 _atom_site_symmetry_multiplicity
 _atom_site_fract_x
 _atom_site_fract_y
 _atom_site_fract_z
 _atom_site_occupancy
  Tb  Tb0  1  0.666667  0.333333  0.500000  1
  Sm  Sm1  1  0.666667  0.333333  0.000000  1
  Sm  Sm2  1  0.333333  0.666667  0.000000  1
  Sm  Sm3  1  0.333333  0.666667  0.500000  1
  Th  Th4  1  0.782698  0.782713  0.749812  1
  Th  Th5  1  0.217287  0.999985  0.749812  1
  Th  Th6  1  0.000015  0.217302  0.749812  1
  Th  Th7  1  0.217287  0.217302  0.250188  1
  Th  Th8  1  0.782698  0.999985  0.250188  1
  Th  Th9  1  0.000015  0.782713  0.250188  1
  Tl  Tl10  1  0.409418  0.407797  0.748105  1
  Tl  Tl11  1  0.592203  0.001621  0.748105  1
  Tl  Tl12  1  0.998379  0.590582  0.748105  1
  Tl  Tl13  1  0.592203  0.590582  0.251895  1
  Tl  Tl14  1  0.409418  0.001621  0.251895  1
  Tl  Tl15  1  0.998379  0.407797  0.251895  1
  C  C16  1  0.000000  0.000000  0.000000  1
  C  C17  1  0.000000  0.000000  0.500000  1
