# generated using pymatgen
data_Sr4Y2RuPtO12
_symmetry_space_group_name_H-M   'P 1'
_cell_length_a   5.82131040
_cell_length_b   5.88898363
_cell_length_c   8.26070656
_cell_angle_alpha   89.91541282
_cell_angle_beta   90.43962632
_cell_angle_gamma   89.98939412
_symmetry_Int_Tables_number   1
_chemical_formula_structural   Sr4Y2RuPtO12
_chemical_formula_sum   'Sr4 Y2 Ru1 Pt1 O12'
_cell_volume   283.18160157
_cell_formula_units_Z   1
loop_
 _symmetry_equiv_pos_site_id
 _symmetry_equiv_pos_as_xyz
  1  'x, y, z'
loop_
 _atom_site_type_symbol
 _atom_site_label
 _atom_site_symmetry_multiplicity
 _atom_site_fract_x
 _atom_site_fract_y
 _atom_site_fract_z
 _atom_site_occupancy
  Sr  Sr0  1  0.508484  0.539434  0.245699  1
  Sr  Sr1  1  0.990507  0.037599  0.248012  1
  Sr  Sr2  1  0.009492  0.962401  0.751987  1
  Sr  Sr3  1  0.491515  0.460564  0.754303  1
  Y  Y4  1  0.000000  0.500002  0.000000  1
  Y  Y5  1  0.499999  0.999999  0.499999  1
  Ru  Ru6  1  0.000002  0.499996  0.500002  1
  Pt  Pt7  1  0.499998  0.000001  0.000000  1
  O  O8  1  0.774956  0.798254  0.040322  1
  O  O9  1  0.697584  0.276113  0.041184  1
  O  O10  1  0.423151  0.979437  0.237794  1
  O  O11  1  0.074111  0.480685  0.268185  1
  O  O12  1  0.807009  0.771294  0.459709  1
  O  O13  1  0.730329  0.303150  0.461112  1
  O  O14  1  0.269671  0.696850  0.538889  1
  O  O15  1  0.192991  0.228707  0.540291  1
  O  O16  1  0.925889  0.519316  0.731815  1
  O  O17  1  0.576849  0.020564  0.762206  1
  O  O18  1  0.302417  0.723887  0.958816  1
  O  O19  1  0.225044  0.201746  0.959678  1
