# generated using pymatgen
data_Tb8Y3Ho9Pb16
_symmetry_space_group_name_H-M   'P 1'
_cell_length_a   8.21074706
_cell_length_b   8.29400906
_cell_length_c   15.65581000
_cell_angle_alpha   89.99850730
_cell_angle_beta   89.99922818
_cell_angle_gamma   89.98621131
_symmetry_Int_Tables_number   1
_chemical_formula_structural   Tb8Y3Ho9Pb16
_chemical_formula_sum   'Tb8 Y3 Ho9 Pb16'
_cell_volume   1066.16079429
_cell_formula_units_Z   1
loop_
 _symmetry_equiv_pos_site_id
 _symmetry_equiv_pos_as_xyz
  1  'x, y, z'
loop_
 _atom_site_type_symbol
 _atom_site_label
 _atom_site_symmetry_multiplicity
 _atom_site_fract_x
 _atom_site_fract_y
 _atom_site_fract_z
 _atom_site_occupancy
  Tb  Tb0  1  0.534149  0.322952  0.899929  1
  Tb  Tb1  1  0.034118  0.177021  0.600073  1
  Tb  Tb2  1  0.465870  0.677010  0.399929  1
  Tb  Tb3  1  0.965889  0.822956  0.100071  1
  Tb  Tb4  1  0.465833  0.676972  0.100180  1
  Tb  Tb5  1  0.965891  0.822949  0.399835  1
  Tb  Tb6  1  0.534113  0.322962  0.600167  1
  Tb  Tb7  1  0.034144  0.177105  0.899932  1
  Y  Y8  1  0.376617  0.840821  0.879392  1
  Y  Y9  1  0.876623  0.659148  0.620635  1
  Y  Y10  1  0.623408  0.159169  0.379384  1
  Ho  Ho11  1  0.123364  0.340759  0.120624  1
  Ho  Ho12  1  0.623323  0.159201  0.120535  1
  Ho  Ho13  1  0.123299  0.340782  0.379399  1
  Ho  Ho14  1  0.376729  0.840795  0.620590  1
  Ho  Ho15  1  0.876682  0.659211  0.879399  1
  Ho  Ho16  1  0.208365  0.504017  0.750051  1
  Ho  Ho17  1  0.708351  0.995958  0.749999  1
  Ho  Ho18  1  0.791757  0.495890  0.249928  1
  Ho  Ho19  1  0.291568  0.004197  0.249903  1
  Pb  Pb20  1  0.281806  0.033874  0.042985  1
  Pb  Pb21  1  0.782004  0.466569  0.457098  1
  Pb  Pb22  1  0.717986  0.966589  0.542917  1
  Pb  Pb23  1  0.217846  0.533207  0.957319  1
  Pb  Pb24  1  0.718415  0.966459  0.957300  1
  Pb  Pb25  1  0.218425  0.533534  0.542711  1
  Pb  Pb26  1  0.281571  0.033542  0.457299  1
  Pb  Pb27  1  0.781942  0.466346  0.042777  1
  Pb  Pb28  1  0.571715  0.626899  0.749922  1
  Pb  Pb29  1  0.071730  0.873094  0.750059  1
  Pb  Pb30  1  0.428012  0.373090  0.249817  1
  Pb  Pb31  1  0.928473  0.127094  0.249914  1
  Pb  Pb32  1  0.345022  0.151916  0.749876  1
  Pb  Pb33  1  0.845015  0.348117  0.750090  1
  Pb  Pb34  1  0.654980  0.848083  0.249930  1
  Pb  Pb35  1  0.154966  0.651712  0.250029  1
