# generated using pymatgen
data_Er8Ti8Re3Si16Mo
_symmetry_space_group_name_H-M   'P 1'
_cell_length_a   6.91702004
_cell_length_b   6.91702004
_cell_length_c   12.73973409
_cell_angle_alpha   89.99014199
_cell_angle_beta   90.00985801
_cell_angle_gamma   90.00661050
_symmetry_Int_Tables_number   1
_chemical_formula_structural   Er8Ti8Re3Si16Mo
_chemical_formula_sum   'Er8 Ti8 Re3 Si16 Mo1'
_cell_volume   609.53467291
_cell_formula_units_Z   1
loop_
 _symmetry_equiv_pos_site_id
 _symmetry_equiv_pos_as_xyz
  1  'x, y, z'
loop_
 _atom_site_type_symbol
 _atom_site_label
 _atom_site_symmetry_multiplicity
 _atom_site_fract_x
 _atom_site_fract_y
 _atom_site_fract_z
 _atom_site_occupancy
  Er  Er0  1  0.340564  0.000636  0.468967  1
  Er  Er1  1  0.499711  0.840750  0.718747  1
  Er  Er2  1  0.500742  0.159115  0.219114  1
  Er  Er3  1  0.840750  0.499711  0.281253  1
  Er  Er4  1  0.159115  0.500742  0.780886  1
  Er  Er5  1  0.659297  0.999484  0.968796  1
  Er  Er6  1  0.000636  0.340564  0.531033  1
  Er  Er7  1  0.999484  0.659297  0.031204  1
  Ti  Ti8  1  0.152330  0.006298  0.875786  1
  Ti  Ti9  1  0.494099  0.651556  0.126007  1
  Ti  Ti10  1  0.506144  0.347761  0.625657  1
  Ti  Ti11  1  0.651556  0.494099  0.873993  1
  Ti  Ti12  1  0.347761  0.506144  0.374343  1
  Ti  Ti13  1  0.848077  0.994349  0.375913  1
  Ti  Ti14  1  0.006298  0.152330  0.124214  1
  Ti  Ti15  1  0.994349  0.848077  0.624087  1
  Re  Re16  1  0.171667  0.827254  0.250555  1
  Re  Re17  1  0.827254  0.171667  0.749445  1
  Re  Re18  1  0.672092  0.672092  0.500000  1
  Si  Si19  1  0.200889  0.130660  0.682930  1
  Si  Si20  1  0.368783  0.701858  0.933212  1
  Si  Si21  1  0.630720  0.299365  0.432939  1
  Si  Si22  1  0.701858  0.368783  0.066788  1
  Si  Si23  1  0.299365  0.630720  0.567061  1
  Si  Si24  1  0.799406  0.869261  0.183029  1
  Si  Si25  1  0.130660  0.200889  0.317070  1
  Si  Si26  1  0.869261  0.799406  0.816971  1
  Si  Si27  1  0.292240  0.952273  0.066480  1
  Si  Si28  1  0.547126  0.791703  0.316307  1
  Si  Si29  1  0.453512  0.207744  0.815811  1
  Si  Si30  1  0.791703  0.547126  0.683693  1
  Si  Si31  1  0.207744  0.453512  0.184189  1
  Si  Si32  1  0.708005  0.047055  0.566422  1
  Si  Si33  1  0.952273  0.292240  0.933520  1
  Si  Si34  1  0.047055  0.708005  0.433578  1
  Mo  Mo35  1  0.327476  0.327476  0.000000  1
