# generated using pymatgen
data_EuCdH6Ru
_symmetry_space_group_name_H-M   'P 1'
_cell_length_a   5.07462684
_cell_length_b   5.07462719
_cell_length_c   5.07462600
_cell_angle_alpha   60.00000774
_cell_angle_beta   60.00000547
_cell_angle_gamma   60.00000215
_symmetry_Int_Tables_number   1
_chemical_formula_structural   EuCdH6Ru
_chemical_formula_sum   'Eu1 Cd1 H6 Ru1'
_cell_volume   92.40539903
_cell_formula_units_Z   1
loop_
 _symmetry_equiv_pos_site_id
 _symmetry_equiv_pos_as_xyz
  1  'x, y, z'
loop_
 _atom_site_type_symbol
 _atom_site_label
 _atom_site_symmetry_multiplicity
 _atom_site_fract_x
 _atom_site_fract_y
 _atom_site_fract_z
 _atom_site_occupancy
  Eu  Eu0  1  0.250000  0.250000  0.250000  1
  Cd  Cd1  1  0.750000  0.750000  0.750000  1
  H  H2  1  0.761741  0.761741  0.238259  1
  H  H3  1  0.238259  0.761741  0.238259  1
  H  H4  1  0.761741  0.238259  0.238259  1
  H  H5  1  0.238259  0.238259  0.761741  1
  H  H6  1  0.761741  0.238259  0.761741  1
  H  H7  1  0.238259  0.761741  0.761741  1
  Ru  Ru8  1  0.000000  0.000000  0.000000  1
