# generated using pymatgen
data_Sc8In4GaAu7
_symmetry_space_group_name_H-M   'P 1'
_cell_length_a   7.68550512
_cell_length_b   7.68550512
_cell_length_c   6.99545782
_cell_angle_alpha   90.05895583
_cell_angle_beta   90.05895583
_cell_angle_gamma   90.48933496
_symmetry_Int_Tables_number   1
_chemical_formula_structural   Sc8In4GaAu7
_chemical_formula_sum   'Sc8 In4 Ga1 Au7'
_cell_volume   413.18511919
_cell_formula_units_Z   1
loop_
 _symmetry_equiv_pos_site_id
 _symmetry_equiv_pos_as_xyz
  1  'x, y, z'
loop_
 _atom_site_type_symbol
 _atom_site_label
 _atom_site_symmetry_multiplicity
 _atom_site_fract_x
 _atom_site_fract_y
 _atom_site_fract_z
 _atom_site_occupancy
  Sc  Sc0  1  0.152022  0.152022  0.999149  1
  Sc  Sc1  1  0.845171  0.845171  0.002507  1
  Sc  Sc2  1  0.653913  0.346895  0.504138  1
  Sc  Sc3  1  0.346895  0.653913  0.504138  1
  Sc  Sc4  1  0.686274  0.318654  0.994706  1
  Sc  Sc5  1  0.318654  0.686274  0.994706  1
  Sc  Sc6  1  0.817982  0.817982  0.497855  1
  Sc  Sc7  1  0.182072  0.182072  0.501790  1
  In  In8  1  0.499933  0.999552  0.252190  1
  In  In9  1  0.500308  0.000418  0.746012  1
  In  In10  1  0.999552  0.499933  0.252190  1
  In  In11  1  0.000418  0.500308  0.746012  1
  Ga  Ga12  1  0.371158  0.371158  0.218390  1
  Au  Au13  1  0.631795  0.631795  0.778923  1
  Au  Au14  1  0.623150  0.623150  0.222137  1
  Au  Au15  1  0.869385  0.130086  0.722337  1
  Au  Au16  1  0.868948  0.132313  0.276710  1
  Au  Au17  1  0.369971  0.369971  0.787064  1
  Au  Au18  1  0.132313  0.868948  0.276710  1
  Au  Au19  1  0.130086  0.869385  0.722337  1
