# generated using pymatgen
data_Dy8Tc3B24Os
_symmetry_space_group_name_H-M   'P 1'
_cell_length_a   3.68272700
_cell_length_b   9.16590084
_cell_length_c   11.55425806
_cell_angle_alpha   89.95096070
_cell_angle_beta   90.00000000
_cell_angle_gamma   90.00000000
_symmetry_Int_Tables_number   1
_chemical_formula_structural   Dy8Tc3B24Os
_chemical_formula_sum   'Dy8 Tc3 B24 Os1'
_cell_volume   390.01973634
_cell_formula_units_Z   1
loop_
 _symmetry_equiv_pos_site_id
 _symmetry_equiv_pos_as_xyz
  1  'x, y, z'
loop_
 _atom_site_type_symbol
 _atom_site_label
 _atom_site_symmetry_multiplicity
 _atom_site_fract_x
 _atom_site_fract_y
 _atom_site_fract_z
 _atom_site_occupancy
  Dy  Dy0  1  0.000000  0.323787  0.413839  1
  Dy  Dy1  1  0.000000  0.675700  0.584539  1
  Dy  Dy2  1  0.000000  0.823046  0.087242  1
  Dy  Dy3  1  0.000000  0.178057  0.914362  1
  Dy  Dy4  1  0.000000  0.942435  0.369881  1
  Dy  Dy5  1  0.000000  0.058234  0.630183  1
  Dy  Dy6  1  0.000000  0.442812  0.130475  1
  Dy  Dy7  1  0.000000  0.557068  0.869300  1
  Tc  Tc8  1  0.000000  0.638173  0.320551  1
  Tc  Tc9  1  0.000000  0.361895  0.679916  1
  Tc  Tc10  1  0.000000  0.137522  0.178167  1
  B  B11  1  0.500000  0.553237  0.432737  1
  B  B12  1  0.500000  0.446732  0.566950  1
  B  B13  1  0.500000  0.053139  0.067032  1
  B  B14  1  0.500000  0.946146  0.932798  1
  B  B15  1  0.500000  0.748083  0.418601  1
  B  B16  1  0.500000  0.251518  0.581391  1
  B  B17  1  0.500000  0.248764  0.081482  1
  B  B18  1  0.500000  0.751622  0.918234  1
  B  B19  1  0.500000  0.791408  0.265569  1
  B  B20  1  0.500000  0.208799  0.734883  1
  B  B21  1  0.500000  0.291321  0.234673  1
  B  B22  1  0.500000  0.709394  0.765399  1
  B  B23  1  0.500000  0.631063  0.185852  1
  B  B24  1  0.500000  0.368875  0.814698  1
  B  B25  1  0.500000  0.130664  0.313865  1
  B  B26  1  0.500000  0.868913  0.685945  1
  B  B27  1  0.500000  0.982313  0.211711  1
  B  B28  1  0.500000  0.016419  0.788318  1
  B  B29  1  0.500000  0.482663  0.288228  1
  B  B30  1  0.500000  0.517063  0.711585  1
  B  B31  1  0.500000  0.602083  0.028184  1
  B  B32  1  0.500000  0.398920  0.971655  1
  B  B33  1  0.500000  0.102125  0.471678  1
  B  B34  1  0.500000  0.897945  0.528830  1
  Os  Os35  1  0.000000  0.862061  0.821248  1
