# generated using pymatgen
data_Ho4Fe5Os3
_symmetry_space_group_name_H-M   'P 1'
_cell_length_a   5.18549215
_cell_length_b   5.18514852
_cell_length_c   8.63424600
_cell_angle_alpha   90.00000000
_cell_angle_beta   90.00000000
_cell_angle_gamma   120.27906552
_symmetry_Int_Tables_number   1
_chemical_formula_structural   Ho4Fe5Os3
_chemical_formula_sum   'Ho4 Fe5 Os3'
_cell_volume   200.48324934
_cell_formula_units_Z   1
loop_
 _symmetry_equiv_pos_site_id
 _symmetry_equiv_pos_as_xyz
  1  'x, y, z'
loop_
 _atom_site_type_symbol
 _atom_site_label
 _atom_site_symmetry_multiplicity
 _atom_site_fract_x
 _atom_site_fract_y
 _atom_site_fract_z
 _atom_site_occupancy
  Ho  Ho0  1  0.332056  0.667978  0.437438  1
  Ho  Ho1  1  0.664821  0.335138  0.562562  1
  Ho  Ho2  1  0.664821  0.335138  0.937438  1
  Ho  Ho3  1  0.332056  0.667978  0.062562  1
  Fe  Fe4  1  0.836881  0.660506  0.250000  1
  Fe  Fe5  1  0.339534  0.163126  0.250000  1
  Fe  Fe6  1  0.169935  0.830054  0.750000  1
  Fe  Fe7  1  0.167444  0.338223  0.750000  1
  Fe  Fe8  1  0.661773  0.832553  0.750000  1
  Os  Os9  1  0.998075  0.001906  0.505258  1
  Os  Os10  1  0.998075  0.001906  0.994742  1
  Os  Os11  1  0.834529  0.165494  0.250000  1
