# generated using pymatgen
data_Y6VFeB14
_symmetry_space_group_name_H-M   'P 1'
_cell_length_a   8.10001591
_cell_length_b   8.10001502
_cell_length_c   9.35120000
_cell_angle_alpha   90.00000000
_cell_angle_beta   90.00000000
_cell_angle_gamma   155.51568354
_symmetry_Int_Tables_number   1
_chemical_formula_structural   Y6VFeB14
_chemical_formula_sum   'Y6 V1 Fe1 B14'
_cell_volume   254.27581137
_cell_formula_units_Z   1
loop_
 _symmetry_equiv_pos_site_id
 _symmetry_equiv_pos_as_xyz
  1  'x, y, z'
loop_
 _atom_site_type_symbol
 _atom_site_label
 _atom_site_symmetry_multiplicity
 _atom_site_fract_x
 _atom_site_fract_y
 _atom_site_fract_z
 _atom_site_occupancy
  Y  Y0  1  0.756583  0.243417  0.250000  1
  Y  Y1  1  0.241464  0.758536  0.750000  1
  Y  Y2  1  0.894960  0.105040  0.563004  1
  Y  Y3  1  0.106042  0.893958  0.441544  1
  Y  Y4  1  0.106042  0.893958  0.058456  1
  Y  Y5  1  0.894960  0.105040  0.936996  1
  V  V6  1  0.947481  0.052519  0.250000  1
  Fe  Fe7  1  0.054557  0.945443  0.750000  1
  B  B8  1  0.542148  0.457852  0.250000  1
  B  B9  1  0.462296  0.537704  0.750000  1
  B  B10  1  0.521942  0.478058  0.902161  1
  B  B11  1  0.479463  0.520537  0.093602  1
  B  B12  1  0.479463  0.520537  0.406398  1
  B  B13  1  0.521942  0.478058  0.597839  1
  B  B14  1  0.629200  0.370800  0.846747  1
  B  B15  1  0.367366  0.632634  0.149061  1
  B  B16  1  0.726762  0.273238  0.965331  1
  B  B17  1  0.272001  0.727999  0.031619  1
  B  B18  1  0.272001  0.727999  0.468381  1
  B  B19  1  0.726762  0.273238  0.534669  1
  B  B20  1  0.629200  0.370800  0.653253  1
  B  B21  1  0.367366  0.632634  0.350939  1
