# generated using pymatgen
data_Cs3AgTe2
_symmetry_space_group_name_H-M   'P 1'
_cell_length_a   9.23371373
_cell_length_b   9.23371275
_cell_length_c   9.23371429
_cell_angle_alpha   69.10420492
_cell_angle_beta   69.10420388
_cell_angle_gamma   69.10421011
_symmetry_Int_Tables_number   1
_chemical_formula_structural   Cs3AgTe2
_chemical_formula_sum   'Cs6 Ag2 Te4'
_cell_volume   662.95648965
_cell_formula_units_Z   2
loop_
 _symmetry_equiv_pos_site_id
 _symmetry_equiv_pos_as_xyz
  1  'x, y, z'
loop_
 _atom_site_type_symbol
 _atom_site_label
 _atom_site_symmetry_multiplicity
 _atom_site_fract_x
 _atom_site_fract_y
 _atom_site_fract_z
 _atom_site_occupancy
  Cs  Cs0  1  0.750000  0.467474  0.032525  1
  Cs  Cs1  1  0.532526  0.967474  0.250000  1
  Cs  Cs2  1  0.032525  0.750000  0.467475  1
  Cs  Cs3  1  0.967475  0.250000  0.532525  1
  Cs  Cs4  1  0.467474  0.032526  0.750000  1
  Cs  Cs5  1  0.249999  0.532526  0.967475  1
  Ag  Ag6  1  0.000000  0.000000  0.000000  1
  Ag  Ag7  1  0.500000  0.500000  0.500000  1
  Te  Te8  1  0.126704  0.126704  0.126704  1
  Te  Te9  1  0.373296  0.373296  0.373296  1
  Te  Te10  1  0.626704  0.626704  0.626704  1
  Te  Te11  1  0.873296  0.873296  0.873296  1
