# generated using pymatgen
data_PrEuCo12SiP6
_symmetry_space_group_name_H-M   'P 1'
_cell_length_a   9.11403700
_cell_length_b   9.11403799
_cell_length_c   3.61926900
_cell_angle_alpha   90.00000000
_cell_angle_beta   90.00000000
_cell_angle_gamma   119.99999279
_symmetry_Int_Tables_number   1
_chemical_formula_structural   PrEuCo12SiP6
_chemical_formula_sum   'Pr1 Eu1 Co12 Si1 P6'
_cell_volume   260.35933157
_cell_formula_units_Z   1
loop_
 _symmetry_equiv_pos_site_id
 _symmetry_equiv_pos_as_xyz
  1  'x, y, z'
loop_
 _atom_site_type_symbol
 _atom_site_label
 _atom_site_symmetry_multiplicity
 _atom_site_fract_x
 _atom_site_fract_y
 _atom_site_fract_z
 _atom_site_occupancy
  Pr  Pr0  1  0.333333  0.666667  0.000000  1
  Eu  Eu1  1  0.666667  0.333333  0.500000  1
  Co  Co2  1  0.431726  0.058231  0.000000  1
  Co  Co3  1  0.941769  0.373493  0.000000  1
  Co  Co4  1  0.626507  0.568274  0.000000  1
  Co  Co5  1  0.384272  0.432144  0.500000  1
  Co  Co6  1  0.567856  0.952127  0.500000  1
  Co  Co7  1  0.047873  0.615728  0.500000  1
  Co  Co8  1  0.156742  0.278172  0.000000  1
  Co  Co9  1  0.721828  0.878570  0.000000  1
  Co  Co10  1  0.121430  0.843258  0.000000  1
  Co  Co11  1  0.226103  0.100636  0.500000  1
  Co  Co12  1  0.899364  0.125468  0.500000  1
  Co  Co13  1  0.874532  0.773897  0.500000  1
  Si  Si14  1  0.000000  0.000000  0.000000  1
  P  P15  1  0.104284  0.395225  0.500000  1
  P  P16  1  0.604775  0.709060  0.500000  1
  P  P17  1  0.290940  0.895716  0.500000  1
  P  P18  1  0.403991  0.294326  0.000000  1
  P  P19  1  0.705674  0.109665  0.000000  1
  P  P20  1  0.890335  0.596009  0.000000  1
