# generated using pymatgen
data_Ta4AlGa2BMo
_symmetry_space_group_name_H-M   'P 1'
_cell_length_a   7.76804304
_cell_length_b   7.78720016
_cell_length_c   5.27486477
_cell_angle_alpha   89.94160475
_cell_angle_beta   90.11708596
_cell_angle_gamma   119.91865880
_symmetry_Int_Tables_number   1
_chemical_formula_structural   Ta4AlGa2BMo
_chemical_formula_sum   'Ta8 Al2 Ga4 B2 Mo2'
_cell_volume   276.56002195
_cell_formula_units_Z   2
loop_
 _symmetry_equiv_pos_site_id
 _symmetry_equiv_pos_as_xyz
  1  'x, y, z'
loop_
 _atom_site_type_symbol
 _atom_site_label
 _atom_site_symmetry_multiplicity
 _atom_site_fract_x
 _atom_site_fract_y
 _atom_site_fract_z
 _atom_site_occupancy
  Ta  Ta0  1  0.241686  0.000000  0.256144  1
  Ta  Ta1  1  0.758314  0.000000  0.743856  1
  Ta  Ta2  1  0.000751  0.242874  0.254827  1
  Ta  Ta3  1  0.999249  0.757126  0.745173  1
  Ta  Ta4  1  0.757877  0.757126  0.254827  1
  Ta  Ta5  1  0.242123  0.242874  0.745173  1
  Ta  Ta6  1  0.666978  0.333954  0.500000  1
  Ta  Ta7  1  0.333022  0.666046  0.500000  1
  Al  Al8  1  0.595042  0.000000  0.238751  1
  Al  Al9  1  0.404958  0.000000  0.761249  1
  Ga  Ga10  1  0.000124  0.597134  0.240576  1
  Ga  Ga11  1  0.999876  0.402866  0.759424  1
  Ga  Ga12  1  0.402990  0.402866  0.240576  1
  Ga  Ga13  1  0.597010  0.597134  0.759424  1
  B  B14  1  0.000000  0.000000  0.000000  1
  B  B15  1  0.000000  0.000000  0.500000  1
  Mo  Mo16  1  0.333575  0.667152  0.000000  1
  Mo  Mo17  1  0.666425  0.332848  0.000000  1
