# generated using pymatgen
data_Li2GaPd5
_symmetry_space_group_name_H-M   'P 1'
_cell_length_a   4.11131000
_cell_length_b   5.36567000
_cell_length_c   10.48788000
_cell_angle_alpha   90.00000000
_cell_angle_beta   90.00000000
_cell_angle_gamma   90.00000000
_symmetry_Int_Tables_number   1
_chemical_formula_structural   Li2GaPd5
_chemical_formula_sum   'Li4 Ga2 Pd10'
_cell_volume   231.36192726
_cell_formula_units_Z   2
loop_
 _symmetry_equiv_pos_site_id
 _symmetry_equiv_pos_as_xyz
  1  'x, y, z'
loop_
 _atom_site_type_symbol
 _atom_site_label
 _atom_site_symmetry_multiplicity
 _atom_site_fract_x
 _atom_site_fract_y
 _atom_site_fract_z
 _atom_site_occupancy
  Li  Li0  1  0.000000  0.828356  0.638860  1
  Li  Li1  1  0.000000  0.328356  0.861140  1
  Li  Li2  1  0.000000  0.171644  0.361140  1
  Li  Li3  1  0.000000  0.671644  0.138860  1
  Ga  Ga4  1  0.500000  0.500000  0.500000  1
  Ga  Ga5  1  0.500000  0.000000  0.000000  1
  Pd  Pd6  1  0.000000  0.815079  0.891314  1
  Pd  Pd7  1  0.000000  0.684921  0.391314  1
  Pd  Pd8  1  0.000000  0.315079  0.608686  1
  Pd  Pd9  1  0.500000  0.901526  0.238727  1
  Pd  Pd10  1  0.500000  0.401526  0.261273  1
  Pd  Pd11  1  0.500000  0.598474  0.738727  1
  Pd  Pd12  1  0.500000  0.098474  0.761273  1
  Pd  Pd13  1  0.500000  0.500000  0.000000  1
  Pd  Pd14  1  0.500000  0.000000  0.500000  1
  Pd  Pd15  1  0.000000  0.184921  0.108686  1
