# generated using pymatgen
data_Rb7VIn3As5
_symmetry_space_group_name_H-M   'P 1'
_cell_length_a   8.72650993
_cell_length_b   9.57877189
_cell_length_c   14.63722189
_cell_angle_alpha   85.33467702
_cell_angle_beta   82.78769705
_cell_angle_gamma   85.30014399
_symmetry_Int_Tables_number   1
_chemical_formula_structural   Rb7VIn3As5
_chemical_formula_sum   'Rb14 V2 In6 As10'
_cell_volume   1206.62497750
_cell_formula_units_Z   2
loop_
 _symmetry_equiv_pos_site_id
 _symmetry_equiv_pos_as_xyz
  1  'x, y, z'
loop_
 _atom_site_type_symbol
 _atom_site_label
 _atom_site_symmetry_multiplicity
 _atom_site_fract_x
 _atom_site_fract_y
 _atom_site_fract_z
 _atom_site_occupancy
  Rb  Rb0  1  0.862510  0.354240  0.652252  1
  Rb  Rb1  1  0.820939  0.806684  0.131575  1
  Rb  Rb2  1  0.242786  0.015448  0.468078  1
  Rb  Rb3  1  0.273213  0.263891  0.249676  1
  Rb  Rb4  1  0.742733  0.496121  0.976509  1
  Rb  Rb5  1  0.257267  0.503879  0.023491  1
  Rb  Rb6  1  0.673785  0.083046  0.884792  1
  Rb  Rb7  1  0.757214  0.984552  0.531922  1
  Rb  Rb8  1  0.726787  0.736109  0.750324  1
  Rb  Rb9  1  0.358096  0.348796  0.603500  1
  Rb  Rb10  1  0.137490  0.645760  0.347748  1
  Rb  Rb11  1  0.179061  0.193316  0.868425  1
  Rb  Rb12  1  0.326215  0.916954  0.115208  1
  Rb  Rb13  1  0.641904  0.651204  0.396500  1
  V  V14  1  0.354764  0.609226  0.775358  1
  V  V15  1  0.645236  0.390774  0.224642  1
  In  In16  1  0.048944  0.814329  0.870885  1
  In  In17  1  0.951056  0.185671  0.129115  1
  In  In18  1  0.358138  0.954911  0.704109  1
  In  In19  1  0.101556  0.719594  0.623881  1
  In  In20  1  0.898444  0.280406  0.376119  1
  In  In21  1  0.641862  0.045089  0.295891  1
  As  As22  1  0.911121  0.453142  0.208600  1
  As  As23  1  0.628459  0.200334  0.123501  1
  As  As24  1  0.088879  0.546858  0.791400  1
  As  As25  1  0.573889  0.297482  0.383855  1
  As  As26  1  0.426111  0.702518  0.616145  1
  As  As27  1  0.021759  0.997100  0.702146  1
  As  As28  1  0.514233  0.413115  0.809735  1
  As  As29  1  0.485767  0.586885  0.190265  1
  As  As30  1  0.371541  0.799666  0.876499  1
  As  As31  1  0.978241  0.002900  0.297854  1
