# generated using pymatgen
data_TbEr5Co2(P3Rh4)4
_symmetry_space_group_name_H-M   'P 1'
_cell_length_a   3.85112900
_cell_length_b   11.11291100
_cell_length_c   12.77699600
_cell_angle_alpha   90.00000000
_cell_angle_beta   90.00000000
_cell_angle_gamma   90.00000000
_symmetry_Int_Tables_number   1
_chemical_formula_structural   TbEr5Co2(P3Rh4)4
_chemical_formula_sum   'Tb1 Er5 Co2 P12 Rh16'
_cell_volume   546.82034095
_cell_formula_units_Z   1
loop_
 _symmetry_equiv_pos_site_id
 _symmetry_equiv_pos_as_xyz
  1  'x, y, z'
loop_
 _atom_site_type_symbol
 _atom_site_label
 _atom_site_symmetry_multiplicity
 _atom_site_fract_x
 _atom_site_fract_y
 _atom_site_fract_z
 _atom_site_occupancy
  Tb  Tb0  1  0.500000  0.000000  0.478119  1
  Er  Er1  1  0.000000  0.500000  0.521911  1
  Er  Er2  1  0.500000  0.814699  0.201632  1
  Er  Er3  1  0.500000  0.185301  0.201632  1
  Er  Er4  1  0.000000  0.684737  0.798158  1
  Er  Er5  1  0.000000  0.315263  0.798158  1
  Co  Co6  1  0.000000  0.500000  0.978306  1
  Co  Co7  1  0.500000  0.000000  0.020947  1
  P  P8  1  0.500000  0.500000  0.880295  1
  P  P9  1  0.000000  0.000000  0.118773  1
  P  P10  1  0.500000  0.500000  0.352424  1
  P  P11  1  0.000000  0.000000  0.648974  1
  P  P12  1  0.500000  0.316064  0.619716  1
  P  P13  1  0.500000  0.683936  0.619716  1
  P  P14  1  0.000000  0.184307  0.380059  1
  P  P15  1  0.000000  0.815693  0.380059  1
  P  P16  1  0.500000  0.852977  0.895725  1
  P  P17  1  0.500000  0.147023  0.895725  1
  P  P18  1  0.000000  0.646482  0.104354  1
  P  P19  1  0.000000  0.353518  0.104354  1
  Rh  Rh20  1  0.500000  0.500000  0.168425  1
  Rh  Rh21  1  0.000000  0.000000  0.832191  1
  Rh  Rh22  1  0.500000  0.500000  0.702525  1
  Rh  Rh23  1  0.000000  0.000000  0.296167  1
  Rh  Rh24  1  0.500000  0.337134  0.993673  1
  Rh  Rh25  1  0.500000  0.662866  0.993673  1
  Rh  Rh26  1  0.000000  0.163346  0.006073  1
  Rh  Rh27  1  0.000000  0.836654  0.006073  1
  Rh  Rh28  1  0.500000  0.295127  0.430993  1
  Rh  Rh29  1  0.500000  0.704873  0.430993  1
  Rh  Rh30  1  0.000000  0.206394  0.569523  1
  Rh  Rh31  1  0.000000  0.793606  0.569523  1
  Rh  Rh32  1  0.500000  0.872459  0.712547  1
  Rh  Rh33  1  0.500000  0.127541  0.712547  1
  Rh  Rh34  1  0.000000  0.627448  0.288018  1
  Rh  Rh35  1  0.000000  0.372552  0.288018  1
