# generated using pymatgen
data_InFeI6
_symmetry_space_group_name_H-M   'P 1'
_cell_length_a   6.85808500
_cell_length_b   10.43938751
_cell_length_c   13.08002414
_cell_angle_alpha   71.83132861
_cell_angle_beta   90.00000000
_cell_angle_gamma   90.00000000
_symmetry_Int_Tables_number   1
_chemical_formula_structural   InFeI6
_chemical_formula_sum   'In2 Fe2 I12'
_cell_volume   889.76487970
_cell_formula_units_Z   2
loop_
 _symmetry_equiv_pos_site_id
 _symmetry_equiv_pos_as_xyz
  1  'x, y, z'
loop_
 _atom_site_type_symbol
 _atom_site_label
 _atom_site_symmetry_multiplicity
 _atom_site_fract_x
 _atom_site_fract_y
 _atom_site_fract_z
 _atom_site_occupancy
  In  In0  1  0.996513  0.809323  0.046919  1
  In  In1  1  0.496513  0.190677  0.453081  1
  Fe  Fe2  1  0.003216  0.182351  0.955278  1
  Fe  Fe3  1  0.503216  0.817649  0.544722  1
  I  I4  1  0.791999  0.320826  0.806985  1
  I  I5  1  0.291999  0.679174  0.693015  1
  I  I6  1  0.231210  0.671885  0.208831  1
  I  I7  1  0.731210  0.328115  0.291169  1
  I  I8  1  0.219664  0.315177  0.037038  1
  I  I9  1  0.719664  0.684823  0.462962  1
  I  I10  1  0.757350  0.678456  0.949923  1
  I  I11  1  0.257350  0.321544  0.550077  1
  I  I12  1  0.785847  0.013344  0.108371  1
  I  I13  1  0.285847  0.986656  0.391629  1
  I  I14  1  0.214203  0.010923  0.885732  1
  I  I15  1  0.714203  0.989077  0.614268  1
