# generated using pymatgen
data_U6Mn16Si7C
_symmetry_space_group_name_H-M   'P 1'
_cell_length_a   8.21593173
_cell_length_b   8.21464046
_cell_length_c   8.21479200
_cell_angle_alpha   59.99938171
_cell_angle_beta   60.00458073
_cell_angle_gamma   60.00919318
_symmetry_Int_Tables_number   1
_chemical_formula_structural   U6Mn16Si7C
_chemical_formula_sum   'U6 Mn16 Si7 C1'
_cell_volume   392.07587923
_cell_formula_units_Z   1
loop_
 _symmetry_equiv_pos_site_id
 _symmetry_equiv_pos_as_xyz
  1  'x, y, z'
loop_
 _atom_site_type_symbol
 _atom_site_label
 _atom_site_symmetry_multiplicity
 _atom_site_fract_x
 _atom_site_fract_y
 _atom_site_fract_z
 _atom_site_occupancy
  U  U0  1  0.709220  0.290807  0.290800  1
  U  U1  1  0.290779  0.709192  0.709199  1
  U  U2  1  0.290779  0.709192  0.290829  1
  U  U3  1  0.290679  0.290725  0.709297  1
  U  U4  1  0.709220  0.290807  0.709170  1
  U  U5  1  0.709320  0.709274  0.290702  1
  Mn  Mn6  1  0.325464  0.325456  0.325514  1
  Mn  Mn7  1  0.325464  0.325456  0.023565  1
  Mn  Mn8  1  0.023749  0.325412  0.325419  1
  Mn  Mn9  1  0.325509  0.023522  0.325484  1
  Mn  Mn10  1  0.674536  0.674544  0.674486  1
  Mn  Mn11  1  0.674536  0.674544  0.976434  1
  Mn  Mn12  1  0.674491  0.976477  0.674516  1
  Mn  Mn13  1  0.976250  0.674588  0.674581  1
  Mn  Mn14  1  0.122374  0.122267  0.122486  1
  Mn  Mn15  1  0.122374  0.122267  0.632873  1
  Mn  Mn16  1  0.632801  0.122551  0.122324  1
  Mn  Mn17  1  0.122570  0.632845  0.122292  1
  Mn  Mn18  1  0.877626  0.877733  0.877514  1
  Mn  Mn19  1  0.877626  0.877733  0.367126  1
  Mn  Mn20  1  0.877430  0.367154  0.877708  1
  Mn  Mn21  1  0.367198  0.877449  0.877676  1
  Si  Si22  1  0.000000  0.000000  0.000000  1
  Si  Si23  1  0.500000  0.000000  0.000000  1
  Si  Si24  1  0.000000  0.500000  0.500000  1
  Si  Si25  1  0.000000  0.500000  0.000000  1
  Si  Si26  1  0.000000  0.000000  0.500000  1
  Si  Si27  1  0.500000  0.000000  0.500000  1
  Si  Si28  1  0.500000  0.500000  0.000000  1
  C  C29  1  0.500000  0.500000  0.500000  1
