# generated using pymatgen
data_La2SmCo8TcP6
_symmetry_space_group_name_H-M   'P 1'
_cell_length_a   3.79269400
_cell_length_b   10.71805800
_cell_length_c   12.46580200
_cell_angle_alpha   90.00000000
_cell_angle_beta   90.00000000
_cell_angle_gamma   90.00000000
_symmetry_Int_Tables_number   1
_chemical_formula_structural   La2SmCo8TcP6
_chemical_formula_sum   'La4 Sm2 Co16 Tc2 P12'
_cell_volume   506.73876891
_cell_formula_units_Z   2
loop_
 _symmetry_equiv_pos_site_id
 _symmetry_equiv_pos_as_xyz
  1  'x, y, z'
loop_
 _atom_site_type_symbol
 _atom_site_label
 _atom_site_symmetry_multiplicity
 _atom_site_fract_x
 _atom_site_fract_y
 _atom_site_fract_z
 _atom_site_occupancy
  La  La0  1  0.000000  0.500000  0.524961  1
  La  La1  1  0.500000  0.000000  0.476399  1
  La  La2  1  0.500000  0.818900  0.206639  1
  La  La3  1  0.500000  0.181100  0.206639  1
  Sm  Sm4  1  0.000000  0.682373  0.795125  1
  Sm  Sm5  1  0.000000  0.317627  0.795125  1
  Co  Co6  1  0.500000  0.500000  0.705408  1
  Co  Co7  1  0.000000  0.000000  0.294135  1
  Co  Co8  1  0.000000  0.500000  0.985409  1
  Co  Co9  1  0.500000  0.000000  0.008962  1
  Co  Co10  1  0.500000  0.333050  0.989958  1
  Co  Co11  1  0.500000  0.666950  0.989958  1
  Co  Co12  1  0.000000  0.169151  0.005203  1
  Co  Co13  1  0.000000  0.830849  0.005203  1
  Co  Co14  1  0.500000  0.298649  0.432255  1
  Co  Co15  1  0.500000  0.701351  0.432255  1
  Co  Co16  1  0.000000  0.202472  0.573131  1
  Co  Co17  1  0.000000  0.797528  0.573131  1
  Co  Co18  1  0.500000  0.881189  0.712253  1
  Co  Co19  1  0.500000  0.118811  0.712253  1
  Co  Co20  1  0.000000  0.617775  0.289074  1
  Co  Co21  1  0.000000  0.382225  0.289074  1
  Tc  Tc22  1  0.500000  0.500000  0.152497  1
  Tc  Tc23  1  0.000000  0.000000  0.845805  1
  P  P24  1  0.500000  0.500000  0.883558  1
  P  P25  1  0.000000  0.000000  0.109250  1
  P  P26  1  0.500000  0.500000  0.341678  1
  P  P27  1  0.000000  0.000000  0.658451  1
  P  P28  1  0.500000  0.305169  0.617668  1
  P  P29  1  0.500000  0.694831  0.617668  1
  P  P30  1  0.000000  0.197580  0.388680  1
  P  P31  1  0.000000  0.802420  0.388680  1
  P  P32  1  0.500000  0.846414  0.894176  1
  P  P33  1  0.500000  0.153586  0.894176  1
  P  P34  1  0.000000  0.650961  0.102581  1
  P  P35  1  0.000000  0.349039  0.102581  1
