# generated using pymatgen
data_K2DyHo5F20
_symmetry_space_group_name_H-M   'P 1'
_cell_length_a   8.21291163
_cell_length_b   8.21317873
_cell_length_c   8.21317800
_cell_angle_alpha   59.99784780
_cell_angle_beta   60.00107282
_cell_angle_gamma   60.00106908
_symmetry_Int_Tables_number   1
_chemical_formula_structural   K2DyHo5F20
_chemical_formula_sum   'K2 Dy1 Ho5 F20'
_cell_volume   391.74605029
_cell_formula_units_Z   1
loop_
 _symmetry_equiv_pos_site_id
 _symmetry_equiv_pos_as_xyz
  1  'x, y, z'
loop_
 _atom_site_type_symbol
 _atom_site_label
 _atom_site_symmetry_multiplicity
 _atom_site_fract_x
 _atom_site_fract_y
 _atom_site_fract_z
 _atom_site_occupancy
  K  K0  1  0.250003  0.249997  0.249997  1
  K  K1  1  0.750003  0.749997  0.749997  1
  Dy  Dy2  1  0.759844  0.240156  0.240156  1
  Ho  Ho3  1  0.240355  0.759645  0.759645  1
  Ho  Ho4  1  0.240346  0.759654  0.240359  1
  Ho  Ho5  1  0.759641  0.240359  0.759654  1
  Ho  Ho6  1  0.240346  0.240359  0.759654  1
  Ho  Ho7  1  0.759641  0.759654  0.240359  1
  F  F8  1  0.830137  0.500001  0.500001  1
  F  F9  1  0.169861  0.500001  0.500001  1
  F  F10  1  0.499999  0.830139  0.169863  1
  F  F11  1  0.499999  0.169863  0.830139  1
  F  F12  1  0.499997  0.830152  0.500003  1
  F  F13  1  0.169848  0.500003  0.830152  1
  F  F14  1  0.499302  0.169657  0.500698  1
  F  F15  1  0.830343  0.500698  0.169657  1
  F  F16  1  0.499997  0.500003  0.830152  1
  F  F17  1  0.499302  0.500698  0.169657  1
  F  F18  1  0.169848  0.830152  0.500003  1
  F  F19  1  0.830343  0.169657  0.500698  1
  F  F20  1  0.112118  0.111355  0.111355  1
  F  F21  1  0.888456  0.888433  0.888433  1
  F  F22  1  0.111567  0.111544  0.665324  1
  F  F23  1  0.111567  0.665324  0.111544  1
  F  F24  1  0.888645  0.887882  0.334828  1
  F  F25  1  0.888645  0.334828  0.887882  1
  F  F26  1  0.665172  0.111355  0.111355  1
  F  F27  1  0.334676  0.888433  0.888433  1
