# generated using pymatgen
data_TiNb(Cu3Te4)2
_symmetry_space_group_name_H-M   'P 1'
_cell_length_a   5.94072900
_cell_length_b   8.48500200
_cell_length_c   8.48500200
_cell_angle_alpha   90.00000000
_cell_angle_beta   90.00000000
_cell_angle_gamma   90.00000000
_symmetry_Int_Tables_number   1
_chemical_formula_structural   TiNb(Cu3Te4)2
_chemical_formula_sum   'Ti1 Nb1 Cu6 Te8'
_cell_volume   427.70432265
_cell_formula_units_Z   1
loop_
 _symmetry_equiv_pos_site_id
 _symmetry_equiv_pos_as_xyz
  1  'x, y, z'
loop_
 _atom_site_type_symbol
 _atom_site_label
 _atom_site_symmetry_multiplicity
 _atom_site_fract_x
 _atom_site_fract_y
 _atom_site_fract_z
 _atom_site_occupancy
  Ti  Ti0  1  0.000000  0.500000  0.500000  1
  Nb  Nb1  1  0.000000  0.000000  0.000000  1
  Cu  Cu2  1  0.000000  0.250196  0.250196  1
  Cu  Cu3  1  0.000000  0.749804  0.749804  1
  Cu  Cu4  1  0.000000  0.250196  0.749804  1
  Cu  Cu5  1  0.000000  0.749804  0.250196  1
  Cu  Cu6  1  0.500000  0.000000  0.000000  1
  Cu  Cu7  1  0.500000  0.500000  0.500000  1
  Te  Te8  1  0.744856  0.500000  0.756440  1
  Te  Te9  1  0.744099  0.000000  0.258929  1
  Te  Te10  1  0.744856  0.500000  0.243560  1
  Te  Te11  1  0.744099  0.000000  0.741071  1
  Te  Te12  1  0.255901  0.741071  0.000000  1
  Te  Te13  1  0.255144  0.243560  0.500000  1
  Te  Te14  1  0.255901  0.258929  0.000000  1
  Te  Te15  1  0.255144  0.756440  0.500000  1
