# generated using pymatgen
data_Nd2SmNi4Sb5Pd2
_symmetry_space_group_name_H-M   'P 1'
_cell_length_a   4.33276200
_cell_length_b   9.96028024
_cell_length_c   13.14566361
_cell_angle_alpha   89.94299753
_cell_angle_beta   90.00000000
_cell_angle_gamma   90.00000000
_symmetry_Int_Tables_number   1
_chemical_formula_structural   Nd2SmNi4Sb5Pd2
_chemical_formula_sum   'Nd4 Sm2 Ni8 Sb10 Pd4'
_cell_volume   567.30771743
_cell_formula_units_Z   2
loop_
 _symmetry_equiv_pos_site_id
 _symmetry_equiv_pos_as_xyz
  1  'x, y, z'
loop_
 _atom_site_type_symbol
 _atom_site_label
 _atom_site_symmetry_multiplicity
 _atom_site_fract_x
 _atom_site_fract_y
 _atom_site_fract_z
 _atom_site_occupancy
  Nd  Nd0  1  0.000000  0.242330  0.000441  1
  Nd  Nd1  1  0.500000  0.757670  0.499559  1
  Nd  Nd2  1  0.000000  0.248905  0.675364  1
  Nd  Nd3  1  0.500000  0.751095  0.824636  1
  Sm  Sm4  1  0.000000  0.248811  0.323918  1
  Sm  Sm5  1  0.500000  0.751189  0.176082  1
  Ni  Ni6  1  0.000000  0.990850  0.153707  1
  Ni  Ni7  1  0.500000  0.009150  0.346293  1
  Ni  Ni8  1  0.000000  0.990817  0.847320  1
  Ni  Ni9  1  0.500000  0.009183  0.652680  1
  Ni  Ni10  1  0.000000  0.617287  0.319764  1
  Ni  Ni11  1  0.500000  0.382713  0.180236  1
  Ni  Ni12  1  0.000000  0.617192  0.679231  1
  Ni  Ni13  1  0.500000  0.382808  0.820769  1
  Sb  Sb14  1  0.000000  0.510284  0.139955  1
  Sb  Sb15  1  0.500000  0.489716  0.360045  1
  Sb  Sb16  1  0.000000  0.508928  0.860200  1
  Sb  Sb17  1  0.500000  0.491072  0.639800  1
  Sb  Sb18  1  0.000000  0.870548  0.327223  1
  Sb  Sb19  1  0.500000  0.129452  0.172777  1
  Sb  Sb20  1  0.000000  0.871599  0.671848  1
  Sb  Sb21  1  0.500000  0.128401  0.828152  1
  Sb  Sb22  1  0.000000  0.824895  0.001329  1
  Sb  Sb23  1  0.500000  0.175105  0.498671  1
  Pd  Pd24  1  0.500000  0.987232  0.000989  1
  Pd  Pd25  1  0.000000  0.012768  0.499011  1
  Pd  Pd26  1  0.500000  0.511095  0.000756  1
  Pd  Pd27  1  0.000000  0.488905  0.499244  1
