# generated using pymatgen
data_Yb11Y5(ZrIr3)4
_symmetry_space_group_name_H-M   'P 1'
_cell_length_a   10.88209522
_cell_length_b   10.87972324
_cell_length_c   6.25614723
_cell_angle_alpha   90.02162183
_cell_angle_beta   90.15873381
_cell_angle_gamma   90.14747801
_symmetry_Int_Tables_number   1
_chemical_formula_structural   Yb11Y5(ZrIr3)4
_chemical_formula_sum   'Yb11 Y5 Zr4 Ir12'
_cell_volume   740.68609750
_cell_formula_units_Z   1
loop_
 _symmetry_equiv_pos_site_id
 _symmetry_equiv_pos_as_xyz
  1  'x, y, z'
loop_
 _atom_site_type_symbol
 _atom_site_label
 _atom_site_symmetry_multiplicity
 _atom_site_fract_x
 _atom_site_fract_y
 _atom_site_fract_z
 _atom_site_occupancy
  Yb  Yb0  1  0.293172  0.082523  0.364648  1
  Yb  Yb1  1  0.293626  0.918874  0.865731  1
  Yb  Yb2  1  0.707319  0.081646  0.865768  1
  Yb  Yb3  1  0.706401  0.918004  0.367966  1
  Yb  Yb4  1  0.582134  0.793856  0.864824  1
  Yb  Yb5  1  0.582317  0.208497  0.363487  1
  Yb  Yb6  1  0.417592  0.793552  0.365217  1
  Yb  Yb7  1  0.417734  0.208441  0.863476  1
  Yb  Yb8  1  0.214326  0.415908  0.642329  1
  Yb  Yb9  1  0.215191  0.585012  0.141634  1
  Yb  Yb10  1  0.784046  0.414293  0.140811  1
  Y  Y11  1  0.786943  0.581277  0.637332  1
  Y  Y12  1  0.914197  0.708770  0.141197  1
  Y  Y13  1  0.916587  0.289092  0.640370  1
  Y  Y14  1  0.086459  0.707777  0.641372  1
  Y  Y15  1  0.083991  0.289865  0.139792  1
  Zr  Zr16  1  0.000877  0.998695  0.495216  1
  Zr  Zr17  1  0.999878  0.998236  0.994926  1
  Zr  Zr18  1  0.500137  0.501110  0.991664  1
  Zr  Zr19  1  0.497357  0.501235  0.491123  1
  Ir  Ir20  1  0.866602  0.144753  0.248065  1
  Ir  Ir21  1  0.865730  0.849522  0.745157  1
  Ir  Ir22  1  0.134520  0.145097  0.750319  1
  Ir  Ir23  1  0.134746  0.853590  0.248442  1
  Ir  Ir24  1  0.643503  0.364237  0.738765  1
  Ir  Ir25  1  0.642352  0.641631  0.249264  1
  Ir  Ir26  1  0.358290  0.360029  0.239780  1
  Ir  Ir27  1  0.358768  0.641526  0.744650  1
  Ir  Ir28  1  0.500182  0.001197  0.116260  1
  Ir  Ir29  1  0.500129  0.001601  0.616062  1
  Ir  Ir30  1  0.997479  0.500035  0.893891  1
  Ir  Ir31  1  0.997415  0.500120  0.390462  1
