# generated using pymatgen
data_HoGa2Ni2Rh
_symmetry_space_group_name_H-M   'P 1'
_cell_length_a   4.13954000
_cell_length_b   8.84911850
_cell_length_c   8.88322900
_cell_angle_alpha   119.87306008
_cell_angle_beta   90.00000000
_cell_angle_gamma   90.00000000
_symmetry_Int_Tables_number   1
_chemical_formula_structural   HoGa2Ni2Rh
_chemical_formula_sum   'Ho3 Ga6 Ni6 Rh3'
_cell_volume   282.16795033
_cell_formula_units_Z   3
loop_
 _symmetry_equiv_pos_site_id
 _symmetry_equiv_pos_as_xyz
  1  'x, y, z'
loop_
 _atom_site_type_symbol
 _atom_site_label
 _atom_site_symmetry_multiplicity
 _atom_site_fract_x
 _atom_site_fract_y
 _atom_site_fract_z
 _atom_site_occupancy
  Ho  Ho0  1  0.500000  0.332540  0.665658  1
  Ho  Ho1  1  0.500000  0.666883  0.334342  1
  Ho  Ho2  1  0.000000  0.998720  0.000000  1
  Ga  Ga3  1  0.000000  0.533554  0.000000  1
  Ga  Ga4  1  0.000000  0.467367  0.466500  1
  Ga  Ga5  1  0.000000  0.000867  0.533500  1
  Ga  Ga6  1  0.500000  0.282197  0.000000  1
  Ga  Ga7  1  0.500000  0.718165  0.718428  1
  Ga  Ga8  1  0.500000  0.999736  0.281572  1
  Ni  Ni9  1  0.000000  0.166014  0.383565  1
  Ni  Ni10  1  0.000000  0.218501  0.834238  1
  Ni  Ni11  1  0.000000  0.613493  0.779740  1
  Ni  Ni12  1  0.000000  0.782450  0.616435  1
  Ni  Ni13  1  0.000000  0.384263  0.165762  1
  Ni  Ni14  1  0.000000  0.833753  0.220260  1
  Rh  Rh15  1  0.500000  0.713086  0.000000  1
  Rh  Rh16  1  0.500000  0.287682  0.287047  1
  Rh  Rh17  1  0.500000  0.000633  0.712953  1
