# generated using pymatgen
data_Ce2Er3(In2Ir)2
_symmetry_space_group_name_H-M   'P 1'
_cell_length_a   3.67685400
_cell_length_b   8.06016000
_cell_length_c   18.17193100
_cell_angle_alpha   90.00000000
_cell_angle_beta   90.00000000
_cell_angle_gamma   90.00000000
_symmetry_Int_Tables_number   1
_chemical_formula_structural   Ce2Er3(In2Ir)2
_chemical_formula_sum   'Ce4 Er6 In8 Ir4'
_cell_volume   538.54392020
_cell_formula_units_Z   2
loop_
 _symmetry_equiv_pos_site_id
 _symmetry_equiv_pos_as_xyz
  1  'x, y, z'
loop_
 _atom_site_type_symbol
 _atom_site_label
 _atom_site_symmetry_multiplicity
 _atom_site_fract_x
 _atom_site_fract_y
 _atom_site_fract_z
 _atom_site_occupancy
  Ce  Ce0  1  0.000000  0.753496  0.278526  1
  Ce  Ce1  1  0.000000  0.246504  0.721474  1
  Ce  Ce2  1  0.000000  0.746504  0.778526  1
  Ce  Ce3  1  0.000000  0.253496  0.221474  1
  Er  Er4  1  0.000000  0.500000  0.500000  1
  Er  Er5  1  0.000000  0.000000  0.000000  1
  Er  Er6  1  0.000000  0.618823  0.086805  1
  Er  Er7  1  0.000000  0.381177  0.913195  1
  Er  Er8  1  0.000000  0.881177  0.586805  1
  Er  Er9  1  0.000000  0.118823  0.413195  1
  In  In10  1  0.500000  0.701979  0.935939  1
  In  In11  1  0.500000  0.298021  0.064061  1
  In  In12  1  0.500000  0.798021  0.435939  1
  In  In13  1  0.500000  0.201979  0.564061  1
  In  In14  1  0.500000  0.569268  0.645770  1
  In  In15  1  0.500000  0.430732  0.354230  1
  In  In16  1  0.500000  0.930732  0.145770  1
  In  In17  1  0.500000  0.069268  0.854230  1
  Ir  Ir18  1  0.500000  0.527933  0.199294  1
  Ir  Ir19  1  0.500000  0.472067  0.800706  1
  Ir  Ir20  1  0.500000  0.972067  0.699294  1
  Ir  Ir21  1  0.500000  0.027933  0.300706  1
