# generated using pymatgen
data_La4InRu
_symmetry_space_group_name_H-M   'P 1'
_cell_length_a   10.08113484
_cell_length_b   10.08259651
_cell_length_c   10.07887418
_cell_angle_alpha   59.96673237
_cell_angle_beta   59.96219346
_cell_angle_gamma   59.97782767
_symmetry_Int_Tables_number   1
_chemical_formula_structural   La4InRu
_chemical_formula_sum   'La16 In4 Ru4'
_cell_volume   723.89003981
_cell_formula_units_Z   4
loop_
 _symmetry_equiv_pos_site_id
 _symmetry_equiv_pos_as_xyz
  1  'x, y, z'
loop_
 _atom_site_type_symbol
 _atom_site_label
 _atom_site_symmetry_multiplicity
 _atom_site_fract_x
 _atom_site_fract_y
 _atom_site_fract_z
 _atom_site_occupancy
  La  La0  1  0.441344  0.441337  0.057320  1
  La  La1  1  0.057927  0.442896  0.057901  1
  La  La2  1  0.442890  0.057893  0.057951  1
  La  La3  1  0.057921  0.057916  0.442888  1
  La  La4  1  0.441321  0.057315  0.441356  1
  La  La5  1  0.057329  0.441325  0.441340  1
  La  La6  1  0.807386  0.807413  0.192823  1
  La  La7  1  0.191695  0.808140  0.191897  1
  La  La8  1  0.808096  0.191645  0.191992  1
  La  La9  1  0.191892  0.191782  0.808062  1
  La  La10  1  0.807379  0.192671  0.807338  1
  La  La11  1  0.192712  0.807400  0.807370  1
  La  La12  1  0.653108  0.653206  0.040713  1
  La  La13  1  0.653221  0.040650  0.653059  1
  La  La14  1  0.040684  0.653253  0.653029  1
  La  La15  1  0.653760  0.653826  0.653598  1
  In  In16  1  0.420147  0.420215  0.740712  1
  In  In17  1  0.420216  0.740603  0.420224  1
  In  In18  1  0.740725  0.420192  0.420187  1
  In  In19  1  0.419683  0.419734  0.419767  1
  Ru  Ru20  1  0.863091  0.863103  0.411016  1
  Ru  Ru21  1  0.863102  0.411028  0.863064  1
  Ru  Ru22  1  0.411017  0.863099  0.863075  1
  Ru  Ru23  1  0.863354  0.863358  0.863317  1
