# generated using pymatgen
data_Yb3Er(Sc3Pt4)2
_symmetry_space_group_name_H-M   'P 1'
_cell_length_a   7.28023800
_cell_length_b   7.33806852
_cell_length_c   14.04128293
_cell_angle_alpha   89.81612285
_cell_angle_beta   90.00000000
_cell_angle_gamma   90.00000000
_symmetry_Int_Tables_number   1
_chemical_formula_structural   Yb3Er(Sc3Pt4)2
_chemical_formula_sum   'Yb6 Er2 Sc12 Pt16'
_cell_volume   750.12198477
_cell_formula_units_Z   2
loop_
 _symmetry_equiv_pos_site_id
 _symmetry_equiv_pos_as_xyz
  1  'x, y, z'
loop_
 _atom_site_type_symbol
 _atom_site_label
 _atom_site_symmetry_multiplicity
 _atom_site_fract_x
 _atom_site_fract_y
 _atom_site_fract_z
 _atom_site_occupancy
  Yb  Yb0  1  0.513628  0.325307  0.093561  1
  Yb  Yb1  1  0.013628  0.174693  0.406439  1
  Yb  Yb2  1  0.513002  0.324904  0.406429  1
  Yb  Yb3  1  0.013002  0.175096  0.093571  1
  Yb  Yb4  1  0.486965  0.674930  0.906533  1
  Yb  Yb5  1  0.986965  0.825070  0.593467  1
  Er  Er6  1  0.488862  0.676352  0.594120  1
  Er  Er7  1  0.988862  0.823648  0.905880  1
  Sc  Sc8  1  0.646394  0.167294  0.624522  1
  Sc  Sc9  1  0.146394  0.332706  0.875478  1
  Sc  Sc10  1  0.353022  0.833899  0.124259  1
  Sc  Sc11  1  0.853022  0.666101  0.375741  1
  Sc  Sc12  1  0.352993  0.834115  0.374522  1
  Sc  Sc13  1  0.852993  0.665885  0.125478  1
  Sc  Sc14  1  0.646836  0.167048  0.875364  1
  Sc  Sc15  1  0.146836  0.332952  0.624636  1
  Sc  Sc16  1  0.809381  0.504953  0.749974  1
  Sc  Sc17  1  0.309381  0.995047  0.750026  1
  Sc  Sc18  1  0.190772  0.494776  0.250285  1
  Sc  Sc19  1  0.690772  0.005224  0.249715  1
  Pt  Pt20  1  0.675455  0.954090  0.454388  1
  Pt  Pt21  1  0.175455  0.545910  0.045612  1
  Pt  Pt22  1  0.318719  0.038606  0.953210  1
  Pt  Pt23  1  0.818719  0.461394  0.546790  1
  Pt  Pt24  1  0.324623  0.038981  0.547105  1
  Pt  Pt25  1  0.824623  0.461019  0.952895  1
  Pt  Pt26  1  0.680654  0.956633  0.044005  1
  Pt  Pt27  1  0.180654  0.543367  0.455995  1
  Pt  Pt28  1  0.444559  0.373533  0.748511  1
  Pt  Pt29  1  0.944559  0.126467  0.751489  1
  Pt  Pt30  1  0.553784  0.628280  0.249957  1
  Pt  Pt31  1  0.053784  0.871720  0.250043  1
  Pt  Pt32  1  0.669915  0.862072  0.749120  1
  Pt  Pt33  1  0.169915  0.637928  0.750880  1
  Pt  Pt34  1  0.330437  0.134908  0.249637  1
  Pt  Pt35  1  0.830437  0.365092  0.250363  1
