# generated using pymatgen
data_Cs(SnSe2)4
_symmetry_space_group_name_H-M   'P 1'
_cell_length_a   10.41599277
_cell_length_b   10.41599263
_cell_length_c   10.41599350
_cell_angle_alpha   44.30392430
_cell_angle_beta   44.30391982
_cell_angle_gamma   44.30392580
_symmetry_Int_Tables_number   1
_chemical_formula_structural   Cs(SnSe2)4
_chemical_formula_sum   'Cs1 Sn4 Se8'
_cell_volume   501.05039458
_cell_formula_units_Z   1
loop_
 _symmetry_equiv_pos_site_id
 _symmetry_equiv_pos_as_xyz
  1  'x, y, z'
loop_
 _atom_site_type_symbol
 _atom_site_label
 _atom_site_symmetry_multiplicity
 _atom_site_fract_x
 _atom_site_fract_y
 _atom_site_fract_z
 _atom_site_occupancy
  Cs  Cs0  1  0.500000  0.500000  0.500000  1
  Sn  Sn1  1  0.000000  0.500000  0.500000  1
  Sn  Sn2  1  0.500000  0.000000  0.500000  1
  Sn  Sn3  1  0.500000  0.500000  0.000000  1
  Sn  Sn4  1  0.000000  0.000000  0.000000  1
  Se  Se5  1  0.280384  0.775168  0.775168  1
  Se  Se6  1  0.224832  0.224832  0.719616  1
  Se  Se7  1  0.719616  0.224832  0.224832  1
  Se  Se8  1  0.224832  0.719616  0.224832  1
  Se  Se9  1  0.277026  0.277026  0.277026  1
  Se  Se10  1  0.722974  0.722974  0.722974  1
  Se  Se11  1  0.775168  0.280384  0.775168  1
  Se  Se12  1  0.775168  0.775168  0.280384  1
