# generated using pymatgen
data_La5SnBi2P
_symmetry_space_group_name_H-M   'P 1'
_cell_length_a   9.71245557
_cell_length_b   9.70021126
_cell_length_c   7.05598700
_cell_angle_alpha   90.00000000
_cell_angle_beta   90.00000000
_cell_angle_gamma   119.95832058
_symmetry_Int_Tables_number   1
_chemical_formula_structural   La5SnBi2P
_chemical_formula_sum   'La10 Sn2 Bi4 P2'
_cell_volume   575.94483433
_cell_formula_units_Z   2
loop_
 _symmetry_equiv_pos_site_id
 _symmetry_equiv_pos_as_xyz
  1  'x, y, z'
loop_
 _atom_site_type_symbol
 _atom_site_label
 _atom_site_symmetry_multiplicity
 _atom_site_fract_x
 _atom_site_fract_y
 _atom_site_fract_z
 _atom_site_occupancy
  La  La0  1  0.758700  0.762416  0.750000  1
  La  La1  1  0.241300  0.003715  0.750000  1
  La  La2  1  0.000000  0.237055  0.750000  1
  La  La3  1  0.238764  0.239097  0.250000  1
  La  La4  1  0.761236  0.000332  0.250000  1
  La  La5  1  0.000000  0.762173  0.250000  1
  La  La6  1  0.663837  0.330943  0.997600  1
  La  La7  1  0.336163  0.667107  0.997600  1
  La  La8  1  0.336163  0.667107  0.502400  1
  La  La9  1  0.663837  0.330943  0.502400  1
  Sn  Sn10  1  0.397743  0.397983  0.750000  1
  Sn  Sn11  1  0.602257  0.000239  0.750000  1
  Bi  Bi12  1  0.000000  0.603309  0.750000  1
  Bi  Bi13  1  0.603532  0.603116  0.250000  1
  Bi  Bi14  1  0.396468  0.999584  0.250000  1
  Bi  Bi15  1  0.000000  0.396372  0.250000  1
  P  P16  1  0.000000  0.999255  0.000528  1
  P  P17  1  0.000000  0.999255  0.499472  1
