# generated using pymatgen
data_AcGa3Au
_symmetry_space_group_name_H-M   'P 1'
_cell_length_a   4.54875671
_cell_length_b   4.54875695
_cell_length_c   6.29509417
_cell_angle_alpha   68.82032484
_cell_angle_beta   68.82032201
_cell_angle_gamma   90.00000472
_symmetry_Int_Tables_number   1
_chemical_formula_structural   AcGa3Au
_chemical_formula_sum   'Ac1 Ga3 Au1'
_cell_volume   111.96707926
_cell_formula_units_Z   1
loop_
 _symmetry_equiv_pos_site_id
 _symmetry_equiv_pos_as_xyz
  1  'x, y, z'
loop_
 _atom_site_type_symbol
 _atom_site_label
 _atom_site_symmetry_multiplicity
 _atom_site_fract_x
 _atom_site_fract_y
 _atom_site_fract_z
 _atom_site_occupancy
  Ac  Ac0  1  0.993560  0.993560  0.012881  1
  Ga  Ga1  1  0.748210  0.248210  0.503580  1
  Ga  Ga2  1  0.248210  0.748210  0.503580  1
  Ga  Ga3  1  0.385755  0.385755  0.228491  1
  Au  Au4  1  0.624266  0.624266  0.751467  1
