# generated using pymatgen
data_Nb10Ga4Ge2C
_symmetry_space_group_name_H-M   'P 1'
_cell_length_a   7.75827641
_cell_length_b   7.76152788
_cell_length_c   5.34178552
_cell_angle_alpha   89.94974100
_cell_angle_beta   90.02514417
_cell_angle_gamma   120.01386678
_symmetry_Int_Tables_number   1
_chemical_formula_structural   Nb10Ga4Ge2C
_chemical_formula_sum   'Nb10 Ga4 Ge2 C1'
_cell_volume   278.52788409
_cell_formula_units_Z   1
loop_
 _symmetry_equiv_pos_site_id
 _symmetry_equiv_pos_as_xyz
  1  'x, y, z'
loop_
 _atom_site_type_symbol
 _atom_site_label
 _atom_site_symmetry_multiplicity
 _atom_site_fract_x
 _atom_site_fract_y
 _atom_site_fract_z
 _atom_site_occupancy
  Nb  Nb0  1  0.000000  0.763873  0.256673  1
  Nb  Nb1  1  0.236448  0.236425  0.256352  1
  Nb  Nb2  1  0.763552  0.999977  0.256352  1
  Nb  Nb3  1  0.000000  0.235247  0.742646  1
  Nb  Nb4  1  0.764674  0.765185  0.743703  1
  Nb  Nb5  1  0.235326  0.000511  0.743703  1
  Nb  Nb6  1  0.335227  0.667160  0.000535  1
  Nb  Nb7  1  0.664773  0.331932  0.000535  1
  Nb  Nb8  1  0.665103  0.332256  0.499401  1
  Nb  Nb9  1  0.334897  0.667154  0.499401  1
  Ga  Ga10  1  0.000000  0.400722  0.243787  1
  Ga  Ga11  1  0.601685  0.600646  0.244644  1
  Ga  Ga12  1  0.398315  0.998961  0.244644  1
  Ga  Ga13  1  0.000000  0.599137  0.756157  1
  Ge  Ge14  1  0.400408  0.400869  0.756494  1
  Ge  Ge15  1  0.599592  0.000461  0.756494  1
  C  C16  1  0.000000  0.999485  0.498479  1
