# generated using pymatgen
data_Tb2CeCu4(P2O)2
_symmetry_space_group_name_H-M   'P 1'
_cell_length_a   3.96431243
_cell_length_b   3.96431238
_cell_length_c   13.48948700
_cell_angle_alpha   98.44967942
_cell_angle_beta   98.44967930
_cell_angle_gamma   89.99999878
_symmetry_Int_Tables_number   1
_chemical_formula_structural   Tb2CeCu4(P2O)2
_chemical_formula_sum   'Tb2 Ce1 Cu4 P4 O2'
_cell_volume   207.36983488
_cell_formula_units_Z   1
loop_
 _symmetry_equiv_pos_site_id
 _symmetry_equiv_pos_as_xyz
  1  'x, y, z'
loop_
 _atom_site_type_symbol
 _atom_site_label
 _atom_site_symmetry_multiplicity
 _atom_site_fract_x
 _atom_site_fract_y
 _atom_site_fract_z
 _atom_site_occupancy
  Tb  Tb0  1  0.707817  0.707813  0.415987  1
  Tb  Tb1  1  0.292193  0.292199  0.584020  1
  Ce  Ce2  1  0.000004  0.999986  0.999997  1
  Cu  Cu3  1  0.597186  0.097099  0.194457  1
  Cu  Cu4  1  0.097207  0.597419  0.194432  1
  Cu  Cu5  1  0.902793  0.402605  0.805538  1
  Cu  Cu6  1  0.402771  0.902846  0.805543  1
  P  P7  1  0.542543  0.542535  0.085028  1
  P  P8  1  0.143928  0.143929  0.287870  1
  P  P9  1  0.856081  0.856081  0.712134  1
  P  P10  1  0.457470  0.457480  0.914984  1
  O  O11  1  0.749995  0.250008  0.500006  1
  O  O12  1  0.250017  0.750004  0.500004  1
