# generated using pymatgen
data_Nb8CdIrS16
_symmetry_space_group_name_H-M   'P 1'
_cell_length_a   6.72413200
_cell_length_b   6.72413275
_cell_length_c   12.88694600
_cell_angle_alpha   90.00000000
_cell_angle_beta   90.00000000
_cell_angle_gamma   119.99999630
_symmetry_Int_Tables_number   1
_chemical_formula_structural   Nb8CdIrS16
_chemical_formula_sum   'Nb8 Cd1 Ir1 S16'
_cell_volume   504.60687824
_cell_formula_units_Z   1
loop_
 _symmetry_equiv_pos_site_id
 _symmetry_equiv_pos_as_xyz
  1  'x, y, z'
loop_
 _atom_site_type_symbol
 _atom_site_label
 _atom_site_symmetry_multiplicity
 _atom_site_fract_x
 _atom_site_fract_y
 _atom_site_fract_z
 _atom_site_occupancy
  Nb  Nb0  1  0.000000  0.000000  0.233239  1
  Nb  Nb1  1  0.000000  0.000000  0.766761  1
  Nb  Nb2  1  0.505649  0.011299  0.230811  1
  Nb  Nb3  1  0.988701  0.494351  0.230811  1
  Nb  Nb4  1  0.505649  0.494351  0.230811  1
  Nb  Nb5  1  0.494351  0.988701  0.769189  1
  Nb  Nb6  1  0.011299  0.505649  0.769189  1
  Nb  Nb7  1  0.494351  0.505649  0.769189  1
  Cd  Cd8  1  0.000000  0.000000  0.500000  1
  Ir  Ir9  1  0.000000  0.000000  0.000000  1
  S  S10  1  0.333333  0.666667  0.893379  1
  S  S11  1  0.666667  0.333333  0.106621  1
  S  S12  1  0.666667  0.333333  0.356277  1
  S  S13  1  0.333333  0.666667  0.643723  1
  S  S14  1  0.168707  0.831293  0.353351  1
  S  S15  1  0.168707  0.337415  0.353351  1
  S  S16  1  0.662585  0.831293  0.353351  1
  S  S17  1  0.831293  0.168707  0.646649  1
  S  S18  1  0.831293  0.662585  0.646649  1
  S  S19  1  0.337415  0.168707  0.646649  1
  S  S20  1  0.833672  0.166328  0.888325  1
  S  S21  1  0.833672  0.667345  0.888325  1
  S  S22  1  0.332655  0.166328  0.888325  1
  S  S23  1  0.166328  0.833672  0.111675  1
  S  S24  1  0.166328  0.332655  0.111675  1
  S  S25  1  0.667345  0.833672  0.111675  1
