# generated using pymatgen
data_Th(AlB14)2
_symmetry_space_group_name_H-M   'P 1'
_cell_length_a   7.28283540
_cell_length_b   7.28283493
_cell_length_c   5.80114028
_cell_angle_alpha   66.82424343
_cell_angle_beta   66.82424444
_cell_angle_gamma   92.90085245
_symmetry_Int_Tables_number   1
_chemical_formula_structural   Th(AlB14)2
_chemical_formula_sum   'Th1 Al2 B28'
_cell_volume   252.23022717
_cell_formula_units_Z   1
loop_
 _symmetry_equiv_pos_site_id
 _symmetry_equiv_pos_as_xyz
  1  'x, y, z'
loop_
 _atom_site_type_symbol
 _atom_site_label
 _atom_site_symmetry_multiplicity
 _atom_site_fract_x
 _atom_site_fract_y
 _atom_site_fract_z
 _atom_site_occupancy
  Th  Th0  1  0.897122  0.897122  0.366336  1
  Al  Al1  1  0.498164  0.498164  0.499570  1
  Al  Al2  1  0.148150  0.148150  0.550214  1
  B  B3  1  0.419409  0.737280  0.168930  1
  B  B4  1  0.579635  0.257082  0.835317  1
  B  B5  1  0.257082  0.579635  0.835317  1
  B  B6  1  0.737280  0.419409  0.168930  1
  B  B7  1  0.696810  0.864671  0.966483  1
  B  B8  1  0.305347  0.133999  0.035107  1
  B  B9  1  0.133999  0.305347  0.035107  1
  B  B10  1  0.864671  0.696810  0.966483  1
  B  B11  1  0.534478  0.873915  0.296773  1
  B  B12  1  0.468545  0.124265  0.206047  1
  B  B13  1  0.124265  0.468545  0.206047  1
  B  B14  1  0.873915  0.534478  0.296773  1
  B  B15  1  0.461095  0.122110  0.709202  1
  B  B16  1  0.530674  0.871865  0.799382  1
  B  B17  1  0.871865  0.530674  0.799382  1
  B  B18  1  0.122110  0.461095  0.709202  1
  B  B19  1  0.719459  0.103039  0.998640  1
  B  B20  1  0.284688  0.892016  0.323910  1
  B  B21  1  0.892016  0.284688  0.323910  1
  B  B22  1  0.103039  0.719459  0.998640  1
  B  B23  1  0.280485  0.894513  0.004601  1
  B  B24  1  0.715536  0.105301  0.681992  1
  B  B25  1  0.105301  0.715536  0.681992  1
  B  B26  1  0.894513  0.280485  0.004601  1
  B  B27  1  0.274693  0.472949  0.373234  1
  B  B28  1  0.713555  0.519150  0.642322  1
  B  B29  1  0.519150  0.713555  0.642322  1
  B  B30  1  0.472949  0.274693  0.373234  1
