# generated using pymatgen
data_HfZr9Ga2(Sn2Sb)2
_symmetry_space_group_name_H-M   'P 1'
_cell_length_a   8.72022909
_cell_length_b   8.70874464
_cell_length_c   5.88000406
_cell_angle_alpha   89.98689646
_cell_angle_beta   90.01451656
_cell_angle_gamma   119.97082497
_symmetry_Int_Tables_number   1
_chemical_formula_structural   HfZr9Ga2(Sn2Sb)2
_chemical_formula_sum   'Hf1 Zr9 Ga2 Sn4 Sb2'
_cell_volume   386.82923868
_cell_formula_units_Z   1
loop_
 _symmetry_equiv_pos_site_id
 _symmetry_equiv_pos_as_xyz
  1  'x, y, z'
loop_
 _atom_site_type_symbol
 _atom_site_label
 _atom_site_symmetry_multiplicity
 _atom_site_fract_x
 _atom_site_fract_y
 _atom_site_fract_z
 _atom_site_occupancy
  Hf  Hf0  1  0.666020  0.332667  0.498966  1
  Zr  Zr1  1  0.732783  0.733496  0.750099  1
  Zr  Zr2  1  0.267562  0.001460  0.749993  1
  Zr  Zr3  1  0.999593  0.265615  0.750016  1
  Zr  Zr4  1  0.269044  0.268210  0.250143  1
  Zr  Zr5  1  0.731277  0.999802  0.250079  1
  Zr  Zr6  1  0.999667  0.732256  0.249858  1
  Zr  Zr7  1  0.665717  0.332401  0.000521  1
  Zr  Zr8  1  0.334159  0.666623  0.000800  1
  Zr  Zr9  1  0.334279  0.666727  0.499249  1
  Ga  Ga10  1  0.000010  0.999604  0.002262  1
  Ga  Ga11  1  0.000020  0.999645  0.497730  1
  Sn  Sn12  1  0.999363  0.611189  0.749454  1
  Sn  Sn13  1  0.613834  0.612363  0.250583  1
  Sn  Sn14  1  0.386812  0.999765  0.250663  1
  Sn  Sn15  1  0.999372  0.387836  0.250599  1
  Sb  Sb16  1  0.390570  0.389982  0.749470  1
  Sb  Sb17  1  0.609919  0.000360  0.749516  1
