# generated using pymatgen
data_Nd4(AgPd3)3
_symmetry_space_group_name_H-M   'P 1'
_cell_length_a   7.33728343
_cell_length_b   7.33728262
_cell_length_c   7.33728300
_cell_angle_alpha   107.56013768
_cell_angle_beta   107.56013569
_cell_angle_gamma   113.36496784
_symmetry_Int_Tables_number   1
_chemical_formula_structural   Nd4(AgPd3)3
_chemical_formula_sum   'Nd4 Ag3 Pd9'
_cell_volume   303.01642627
_cell_formula_units_Z   1
loop_
 _symmetry_equiv_pos_site_id
 _symmetry_equiv_pos_as_xyz
  1  'x, y, z'
loop_
 _atom_site_type_symbol
 _atom_site_label
 _atom_site_symmetry_multiplicity
 _atom_site_fract_x
 _atom_site_fract_y
 _atom_site_fract_z
 _atom_site_occupancy
  Nd  Nd0  1  0.242459  0.242459  0.484920  1
  Nd  Nd1  1  0.757541  0.757541  0.515080  1
  Nd  Nd2  1  0.242459  0.757541  0.000000  1
  Nd  Nd3  1  0.757541  0.242459  0.000000  1
  Ag  Ag4  1  0.500000  0.000000  0.500000  1
  Ag  Ag5  1  0.000000  0.500000  0.500000  1
  Ag  Ag6  1  0.500000  0.500000  0.000000  1
  Pd  Pd7  1  0.504340  0.255209  0.249130  1
  Pd  Pd8  1  0.495660  0.744791  0.750870  1
  Pd  Pd9  1  0.006079  0.255209  0.750870  1
  Pd  Pd10  1  0.255209  0.006079  0.750870  1
  Pd  Pd11  1  0.993921  0.744791  0.249130  1
  Pd  Pd12  1  0.744791  0.993921  0.249130  1
  Pd  Pd13  1  0.255209  0.504340  0.249130  1
  Pd  Pd14  1  0.744791  0.495660  0.750870  1
  Pd  Pd15  1  0.000000  0.000000  0.000000  1
