# generated using pymatgen
data_AcNdCu2Ni3B2Rh3
_symmetry_space_group_name_H-M   'P 1'
_cell_length_a   5.32359300
_cell_length_b   5.32359294
_cell_length_c   7.16099400
_cell_angle_alpha   90.00000000
_cell_angle_beta   90.00000000
_cell_angle_gamma   119.99999414
_symmetry_Int_Tables_number   1
_chemical_formula_structural   AcNdCu2Ni3B2Rh3
_chemical_formula_sum   'Ac1 Nd1 Cu2 Ni3 B2 Rh3'
_cell_volume   175.75741367
_cell_formula_units_Z   1
loop_
 _symmetry_equiv_pos_site_id
 _symmetry_equiv_pos_as_xyz
  1  'x, y, z'
loop_
 _atom_site_type_symbol
 _atom_site_label
 _atom_site_symmetry_multiplicity
 _atom_site_fract_x
 _atom_site_fract_y
 _atom_site_fract_z
 _atom_site_occupancy
  Ac  Ac0  1  0.000000  0.000000  0.003746  1
  Nd  Nd1  1  0.000000  0.000000  0.500801  1
  Cu  Cu2  1  0.322770  0.667840  0.995399  1
  Cu  Cu3  1  0.677230  0.332160  0.995399  1
  Ni  Ni4  1  0.000000  0.500000  0.302364  1
  Ni  Ni5  1  0.500000  0.000000  0.700379  1
  Ni  Ni6  1  0.000000  0.500000  0.697892  1
  B  B7  1  0.674134  0.334263  0.502846  1
  B  B8  1  0.325866  0.665737  0.502846  1
  Rh  Rh9  1  0.500000  0.000000  0.298178  1
  Rh  Rh10  1  0.500000  0.500000  0.294574  1
  Rh  Rh11  1  0.500000  0.500000  0.705578  1
