# generated using pymatgen
data_Lu2PSe
_symmetry_space_group_name_H-M   'P 1'
_cell_length_a   6.89952698
_cell_length_b   6.89952710
_cell_length_c   6.89952780
_cell_angle_alpha   33.15455922
_cell_angle_beta   33.15455602
_cell_angle_gamma   33.15456327
_symmetry_Int_Tables_number   1
_chemical_formula_structural   Lu2PSe
_chemical_formula_sum   'Lu2 P1 Se1'
_cell_volume   87.44395946
_cell_formula_units_Z   1
loop_
 _symmetry_equiv_pos_site_id
 _symmetry_equiv_pos_as_xyz
  1  'x, y, z'
loop_
 _atom_site_type_symbol
 _atom_site_label
 _atom_site_symmetry_multiplicity
 _atom_site_fract_x
 _atom_site_fract_y
 _atom_site_fract_z
 _atom_site_occupancy
  Lu  Lu0  1  0.241964  0.241964  0.241964  1
  Lu  Lu1  1  0.758036  0.758036  0.758036  1
  P  P2  1  0.500000  0.500000  0.500000  1
  Se  Se3  1  0.000000  0.000000  0.000000  1
