# generated using pymatgen
data_Pr2Al9OsPt2
_symmetry_space_group_name_H-M   'P 1'
_cell_length_a   7.65984452
_cell_length_b   7.65984324
_cell_length_c   9.63636400
_cell_angle_alpha   90.00000000
_cell_angle_beta   90.00000000
_cell_angle_gamma   119.46157959
_symmetry_Int_Tables_number   1
_chemical_formula_structural   Pr2Al9OsPt2
_chemical_formula_sum   'Pr4 Al18 Os2 Pt4'
_cell_volume   492.28255378
_cell_formula_units_Z   2
loop_
 _symmetry_equiv_pos_site_id
 _symmetry_equiv_pos_as_xyz
  1  'x, y, z'
loop_
 _atom_site_type_symbol
 _atom_site_label
 _atom_site_symmetry_multiplicity
 _atom_site_fract_x
 _atom_site_fract_y
 _atom_site_fract_z
 _atom_site_occupancy
  Pr  Pr0  1  0.993986  0.669529  0.250000  1
  Pr  Pr1  1  0.006014  0.330471  0.750000  1
  Pr  Pr2  1  0.669529  0.993986  0.250000  1
  Pr  Pr3  1  0.330471  0.006014  0.750000  1
  Al  Al4  1  0.128290  0.128290  0.250000  1
  Al  Al5  1  0.871710  0.871710  0.750000  1
  Al  Al6  1  0.001823  0.329600  0.073409  1
  Al  Al7  1  0.998177  0.670400  0.926591  1
  Al  Al8  1  0.998177  0.670400  0.573409  1
  Al  Al9  1  0.329600  0.001823  0.426591  1
  Al  Al10  1  0.001823  0.329600  0.426591  1
  Al  Al11  1  0.670400  0.998177  0.573409  1
  Al  Al12  1  0.670400  0.998177  0.926591  1
  Al  Al13  1  0.329600  0.001823  0.073409  1
  Al  Al14  1  0.330074  0.330074  0.550476  1
  Al  Al15  1  0.669926  0.669926  0.449524  1
  Al  Al16  1  0.669926  0.669926  0.050476  1
  Al  Al17  1  0.330074  0.330074  0.949524  1
  Al  Al18  1  0.341136  0.543804  0.250000  1
  Al  Al19  1  0.658864  0.456196  0.750000  1
  Al  Al20  1  0.543804  0.341136  0.250000  1
  Al  Al21  1  0.456196  0.658864  0.750000  1
  Os  Os22  1  0.000000  0.000000  0.000000  1
  Os  Os23  1  0.000000  0.000000  0.500000  1
  Pt  Pt24  1  0.671016  0.328984  0.000000  1
  Pt  Pt25  1  0.328984  0.671016  0.000000  1
  Pt  Pt26  1  0.328984  0.671016  0.500000  1
  Pt  Pt27  1  0.671016  0.328984  0.500000  1
