# generated using pymatgen
data_Na16TiSiAs8
_symmetry_space_group_name_H-M   'P 1'
_cell_length_a   9.76370649
_cell_length_b   9.76370631
_cell_length_c   9.76370700
_cell_angle_alpha   60.00000106
_cell_angle_beta   60.00000167
_cell_angle_gamma   60.00000246
_symmetry_Int_Tables_number   1
_chemical_formula_structural   Na16TiSiAs8
_chemical_formula_sum   'Na16 Ti1 Si1 As8'
_cell_volume   658.15650872
_cell_formula_units_Z   1
loop_
 _symmetry_equiv_pos_site_id
 _symmetry_equiv_pos_as_xyz
  1  'x, y, z'
loop_
 _atom_site_type_symbol
 _atom_site_label
 _atom_site_symmetry_multiplicity
 _atom_site_fract_x
 _atom_site_fract_y
 _atom_site_fract_z
 _atom_site_occupancy
  Na  Na0  1  0.626580  0.626580  0.120261  1
  Na  Na1  1  0.626580  0.120261  0.626580  1
  Na  Na2  1  0.120261  0.626580  0.626580  1
  Na  Na3  1  0.626580  0.626580  0.626580  1
  Na  Na4  1  0.030526  0.469474  0.469474  1
  Na  Na5  1  0.774509  0.225491  0.225491  1
  Na  Na6  1  0.469474  0.030526  0.469474  1
  Na  Na7  1  0.469474  0.469474  0.030526  1
  Na  Na8  1  0.030526  0.030526  0.469474  1
  Na  Na9  1  0.030526  0.469474  0.030526  1
  Na  Na10  1  0.469474  0.030526  0.030526  1
  Na  Na11  1  0.774509  0.225491  0.774509  1
  Na  Na12  1  0.225491  0.774509  0.225491  1
  Na  Na13  1  0.225491  0.225491  0.774509  1
  Na  Na14  1  0.774509  0.774509  0.225491  1
  Na  Na15  1  0.225491  0.774509  0.774509  1
  Ti  Ti16  1  0.500000  0.500000  0.500000  1
  Si  Si17  1  0.750000  0.750000  0.750000  1
  As  As18  1  0.852893  0.852893  0.441323  1
  As  As19  1  0.852893  0.441323  0.852893  1
  As  As20  1  0.394860  0.394860  0.815418  1
  As  As21  1  0.394860  0.815418  0.394860  1
  As  As22  1  0.815418  0.394860  0.394860  1
  As  As23  1  0.852893  0.852893  0.852893  1
  As  As24  1  0.441323  0.852893  0.852893  1
  As  As25  1  0.394860  0.394860  0.394860  1
