# generated using pymatgen
data_DyHo8Tm7(Ga3Co)2
_symmetry_space_group_name_H-M   'P 1'
_cell_length_a   9.90665900
_cell_length_b   9.90666017
_cell_length_c   6.91481900
_cell_angle_alpha   90.00000000
_cell_angle_beta   90.00000000
_cell_angle_gamma   119.99999275
_symmetry_Int_Tables_number   1
_chemical_formula_structural   DyHo8Tm7(Ga3Co)2
_chemical_formula_sum   'Dy1 Ho8 Tm7 Ga6 Co2'
_cell_volume   587.71389669
_cell_formula_units_Z   1
loop_
 _symmetry_equiv_pos_site_id
 _symmetry_equiv_pos_as_xyz
  1  'x, y, z'
loop_
 _atom_site_type_symbol
 _atom_site_label
 _atom_site_symmetry_multiplicity
 _atom_site_fract_x
 _atom_site_fract_y
 _atom_site_fract_z
 _atom_site_occupancy
  Dy  Dy0  1  0.000000  0.000000  0.731175  1
  Ho  Ho1  1  0.666667  0.333333  0.327524  1
  Ho  Ho2  1  0.463284  0.536716  0.207536  1
  Ho  Ho3  1  0.073430  0.536716  0.207536  1
  Ho  Ho4  1  0.463284  0.926570  0.207536  1
  Ho  Ho5  1  0.536305  0.463695  0.708227  1
  Ho  Ho6  1  0.927389  0.463695  0.708227  1
  Ho  Ho7  1  0.536305  0.072611  0.708227  1
  Ho  Ho8  1  0.000000  0.000000  0.232306  1
  Tm  Tm9  1  0.173558  0.826442  0.512152  1
  Tm  Tm10  1  0.652883  0.826442  0.512152  1
  Tm  Tm11  1  0.173558  0.347117  0.512152  1
  Tm  Tm12  1  0.826955  0.173045  0.011306  1
  Tm  Tm13  1  0.346090  0.173045  0.011306  1
  Tm  Tm14  1  0.826955  0.653910  0.011306  1
  Tm  Tm15  1  0.333333  0.666667  0.825785  1
  Ga  Ga16  1  0.163676  0.836324  0.957743  1
  Ga  Ga17  1  0.672648  0.836324  0.957743  1
  Ga  Ga18  1  0.163676  0.327352  0.957743  1
  Ga  Ga19  1  0.837091  0.162909  0.458484  1
  Ga  Ga20  1  0.325817  0.162909  0.458484  1
  Ga  Ga21  1  0.837091  0.674183  0.458484  1
  Co  Co22  1  0.333333  0.666667  0.445464  1
  Co  Co23  1  0.666667  0.333333  0.946240  1
