# generated using pymatgen
data_ReMo2Ir5
_symmetry_space_group_name_H-M   'P 1'
_cell_length_a   5.56207315
_cell_length_b   5.52542002
_cell_length_c   4.42926800
_cell_angle_alpha   90.00000000
_cell_angle_beta   90.00000000
_cell_angle_gamma   119.78222455
_symmetry_Int_Tables_number   1
_chemical_formula_structural   ReMo2Ir5
_chemical_formula_sum   'Re1 Mo2 Ir5'
_cell_volume   118.14448268
_cell_formula_units_Z   1
loop_
 _symmetry_equiv_pos_site_id
 _symmetry_equiv_pos_as_xyz
  1  'x, y, z'
loop_
 _atom_site_type_symbol
 _atom_site_label
 _atom_site_symmetry_multiplicity
 _atom_site_fract_x
 _atom_site_fract_y
 _atom_site_fract_z
 _atom_site_occupancy
  Re  Re0  1  0.667037  0.833522  0.750001  1
  Mo  Mo1  1  0.664042  0.332020  0.750001  1
  Mo  Mo2  1  0.334335  0.667168  0.250000  1
  Ir  Ir3  1  0.168238  0.835680  0.750001  1
  Ir  Ir4  1  0.833783  0.167215  0.250000  1
  Ir  Ir5  1  0.330548  0.165273  0.250000  1
  Ir  Ir6  1  0.168238  0.332562  0.750001  1
  Ir  Ir7  1  0.833783  0.666565  0.250000  1
