# generated using pymatgen
data_Fe4Si2Mo6C
_symmetry_space_group_name_H-M   'P 1'
_cell_length_a   7.75956216
_cell_length_b   7.75956224
_cell_length_c   7.75956200
_cell_angle_alpha   60.00000103
_cell_angle_beta   60.00000069
_cell_angle_gamma   59.99999834
_symmetry_Int_Tables_number   1
_chemical_formula_structural   Fe4Si2Mo6C
_chemical_formula_sum   'Fe8 Si4 Mo12 C2'
_cell_volume   330.36699088
_cell_formula_units_Z   2
loop_
 _symmetry_equiv_pos_site_id
 _symmetry_equiv_pos_as_xyz
  1  'x, y, z'
loop_
 _atom_site_type_symbol
 _atom_site_label
 _atom_site_symmetry_multiplicity
 _atom_site_fract_x
 _atom_site_fract_y
 _atom_site_fract_z
 _atom_site_occupancy
  Fe  Fe0  1  0.417671  0.417671  0.746989  1
  Fe  Fe1  1  0.417671  0.746989  0.417671  1
  Fe  Fe2  1  0.746989  0.417671  0.417671  1
  Fe  Fe3  1  0.417671  0.417671  0.417671  1
  Fe  Fe4  1  0.832329  0.832329  0.503011  1
  Fe  Fe5  1  0.832329  0.503011  0.832329  1
  Fe  Fe6  1  0.503011  0.832329  0.832329  1
  Fe  Fe7  1  0.832329  0.832329  0.832329  1
  Si  Si8  1  0.625000  0.625000  0.125000  1
  Si  Si9  1  0.625000  0.125000  0.625000  1
  Si  Si10  1  0.125000  0.625000  0.625000  1
  Si  Si11  1  0.625000  0.625000  0.625000  1
  Mo  Mo12  1  0.054553  0.054553  0.445447  1
  Mo  Mo13  1  0.445447  0.054553  0.445447  1
  Mo  Mo14  1  0.054553  0.445447  0.445447  1
  Mo  Mo15  1  0.445447  0.445447  0.054553  1
  Mo  Mo16  1  0.054553  0.445447  0.054553  1
  Mo  Mo17  1  0.445447  0.054553  0.054553  1
  Mo  Mo18  1  0.195447  0.195447  0.804553  1
  Mo  Mo19  1  0.804553  0.195447  0.804553  1
  Mo  Mo20  1  0.195447  0.804553  0.804553  1
  Mo  Mo21  1  0.804553  0.804553  0.195447  1
  Mo  Mo22  1  0.195447  0.804553  0.195447  1
  Mo  Mo23  1  0.804553  0.195447  0.195447  1
  C  C24  1  0.250000  0.250000  0.250000  1
  C  C25  1  0.000000  0.000000  0.000000  1
