# generated using pymatgen
data_Y2Er18Cd3Ru2Au3
_symmetry_space_group_name_H-M   'P 1'
_cell_length_a   9.49536013
_cell_length_b   9.49535851
_cell_length_c   9.53557700
_cell_angle_alpha   90.00000000
_cell_angle_beta   90.00000000
_cell_angle_gamma   120.01876092
_symmetry_Int_Tables_number   1
_chemical_formula_structural   Y2Er18Cd3Ru2Au3
_chemical_formula_sum   'Y2 Er18 Cd3 Ru2 Au3'
_cell_volume   744.42042986
_cell_formula_units_Z   1
loop_
 _symmetry_equiv_pos_site_id
 _symmetry_equiv_pos_as_xyz
  1  'x, y, z'
loop_
 _atom_site_type_symbol
 _atom_site_label
 _atom_site_symmetry_multiplicity
 _atom_site_fract_x
 _atom_site_fract_y
 _atom_site_fract_z
 _atom_site_occupancy
  Y  Y0  1  0.458977  0.917820  0.750000  1
  Y  Y1  1  0.082180  0.541023  0.750000  1
  Er  Er2  1  0.999971  0.000029  0.461873  1
  Er  Er3  1  0.999971  0.000029  0.038127  1
  Er  Er4  1  0.209465  0.790535  0.439851  1
  Er  Er5  1  0.210003  0.419227  0.440273  1
  Er  Er6  1  0.580773  0.789997  0.440273  1
  Er  Er7  1  0.791540  0.208460  0.557729  1
  Er  Er8  1  0.791051  0.583093  0.558007  1
  Er  Er9  1  0.416907  0.208949  0.558007  1
  Er  Er10  1  0.791540  0.208460  0.942271  1
  Er  Er11  1  0.791051  0.583093  0.941993  1
  Er  Er12  1  0.416907  0.208949  0.941993  1
  Er  Er13  1  0.209465  0.790535  0.060149  1
  Er  Er14  1  0.210003  0.419227  0.059727  1
  Er  Er15  1  0.580773  0.789997  0.059727  1
  Er  Er16  1  0.539950  0.460050  0.250000  1
  Er  Er17  1  0.540028  0.079869  0.250000  1
  Er  Er18  1  0.920131  0.459972  0.250000  1
  Er  Er19  1  0.459616  0.540384  0.750000  1
  Cd  Cd20  1  0.109927  0.890073  0.750000  1
  Cd  Cd21  1  0.110361  0.220268  0.750000  1
  Cd  Cd22  1  0.779732  0.889639  0.750000  1
  Ru  Ru23  1  0.333373  0.666627  0.250000  1
  Ru  Ru24  1  0.666330  0.333670  0.750000  1
  Au  Au25  1  0.869876  0.130124  0.250000  1
  Au  Au26  1  0.869880  0.739777  0.250000  1
  Au  Au27  1  0.260223  0.130120  0.250000  1
