# generated using pymatgen
data_YSc4Si12Ir19
_symmetry_space_group_name_H-M   'P 1'
_cell_length_a   12.74850200
_cell_length_b   12.74850149
_cell_length_c   3.94283800
_cell_angle_alpha   90.00000000
_cell_angle_beta   90.00000000
_cell_angle_gamma   120.00000133
_symmetry_Int_Tables_number   1
_chemical_formula_structural   YSc4Si12Ir19
_chemical_formula_sum   'Y1 Sc4 Si12 Ir19'
_cell_volume   554.95511008
_cell_formula_units_Z   1
loop_
 _symmetry_equiv_pos_site_id
 _symmetry_equiv_pos_as_xyz
  1  'x, y, z'
loop_
 _atom_site_type_symbol
 _atom_site_label
 _atom_site_symmetry_multiplicity
 _atom_site_fract_x
 _atom_site_fract_y
 _atom_site_fract_z
 _atom_site_occupancy
  Y  Y0  1  0.333333  0.666667  0.000000  1
  Sc  Sc1  1  0.666667  0.333333  0.000000  1
  Sc  Sc2  1  0.815879  0.999985  0.500000  1
  Sc  Sc3  1  0.000015  0.815894  0.500000  1
  Sc  Sc4  1  0.184106  0.184121  0.500000  1
  Si  Si5  1  0.179282  0.000972  0.000000  1
  Si  Si6  1  0.999028  0.178311  0.000000  1
  Si  Si7  1  0.821689  0.820718  0.000000  1
  Si  Si8  1  0.167245  0.479973  0.500000  1
  Si  Si9  1  0.520027  0.687272  0.500000  1
  Si  Si10  1  0.312728  0.832755  0.500000  1
  Si  Si11  1  0.687609  0.517030  0.500000  1
  Si  Si12  1  0.829421  0.312391  0.500000  1
  Si  Si13  1  0.482970  0.170579  0.500000  1
  Si  Si14  1  0.634935  0.000486  0.000000  1
  Si  Si15  1  0.999514  0.634449  0.000000  1
  Si  Si16  1  0.365551  0.365065  0.000000  1
  Ir  Ir17  1  0.447359  0.999702  0.000000  1
  Ir  Ir18  1  0.000298  0.447657  0.000000  1
  Ir  Ir19  1  0.552343  0.552641  0.000000  1
  Ir  Ir20  1  0.360595  0.486266  0.500000  1
  Ir  Ir21  1  0.513734  0.874329  0.500000  1
  Ir  Ir22  1  0.125671  0.639405  0.500000  1
  Ir  Ir23  1  0.872135  0.511274  0.500000  1
  Ir  Ir24  1  0.639139  0.127865  0.500000  1
  Ir  Ir25  1  0.488726  0.360861  0.500000  1
  Ir  Ir26  1  0.181554  0.373096  0.000000  1
  Ir  Ir27  1  0.626904  0.808458  0.000000  1
  Ir  Ir28  1  0.191542  0.818446  0.000000  1
  Ir  Ir29  1  0.807191  0.624484  0.000000  1
  Ir  Ir30  1  0.817293  0.192809  0.000000  1
  Ir  Ir31  1  0.375516  0.182707  0.000000  1
  Ir  Ir32  1  0.281464  0.001219  0.500000  1
  Ir  Ir33  1  0.998781  0.280245  0.500000  1
  Ir  Ir34  1  0.719755  0.718536  0.500000  1
  Ir  Ir35  1  0.000000  0.000000  0.000000  1
