# generated using pymatgen
data_Rb8HoEr5BBr20
_symmetry_space_group_name_H-M   'P 1'
_cell_length_a   12.29282696
_cell_length_b   12.29512551
_cell_length_c   12.29512600
_cell_angle_alpha   59.98763786
_cell_angle_beta   60.00618626
_cell_angle_gamma   60.00618194
_symmetry_Int_Tables_number   1
_chemical_formula_structural   Rb8HoEr5BBr20
_chemical_formula_sum   'Rb8 Ho1 Er5 B1 Br20'
_cell_volume   1314.02222267
_cell_formula_units_Z   1
loop_
 _symmetry_equiv_pos_site_id
 _symmetry_equiv_pos_as_xyz
  1  'x, y, z'
loop_
 _atom_site_type_symbol
 _atom_site_label
 _atom_site_symmetry_multiplicity
 _atom_site_fract_x
 _atom_site_fract_y
 _atom_site_fract_z
 _atom_site_occupancy
  Rb  Rb0  1  0.359933  0.359252  0.359283  1
  Rb  Rb1  1  0.640024  0.640761  0.640745  1
  Rb  Rb2  1  0.359246  0.359957  0.921561  1
  Rb  Rb3  1  0.359264  0.921551  0.359969  1
  Rb  Rb4  1  0.640735  0.640078  0.078451  1
  Rb  Rb5  1  0.640720  0.078460  0.640070  1
  Rb  Rb6  1  0.921567  0.359284  0.359247  1
  Rb  Rb7  1  0.078445  0.640740  0.640771  1
  Ho  Ho8  1  0.850145  0.149847  0.149844  1
  Er  Er9  1  0.149316  0.850691  0.850695  1
  Er  Er10  1  0.149256  0.850742  0.149018  1
  Er  Er11  1  0.850969  0.149037  0.850754  1
  Er  Er12  1  0.149295  0.149073  0.850704  1
  Er  Er13  1  0.850933  0.850696  0.149070  1
  B  B14  1  0.000192  0.999808  0.999810  1
  Br  Br15  1  0.325536  0.999908  0.999962  1
  Br  Br16  1  0.674511  0.000047  0.000006  1
  Br  Br17  1  0.000013  0.325442  0.674491  1
  Br  Br18  1  0.000027  0.674514  0.325462  1
  Br  Br19  1  0.000700  0.327067  0.999262  1
  Br  Br20  1  0.672835  0.999306  0.327107  1
  Br  Br21  1  0.000075  0.673402  0.999982  1
  Br  Br22  1  0.326648  0.999916  0.673391  1
  Br  Br23  1  0.000723  0.999201  0.326856  1
  Br  Br24  1  0.000070  0.999991  0.673694  1
  Br  Br25  1  0.673091  0.326833  0.999284  1
  Br  Br26  1  0.326363  0.673712  0.999912  1
  Br  Br27  1  0.682949  0.316976  0.316993  1
  Br  Br28  1  0.316052  0.684033  0.684004  1
  Br  Br29  1  0.315585  0.684415  0.315332  1
  Br  Br30  1  0.684609  0.315417  0.684455  1
  Br  Br31  1  0.315697  0.315468  0.684271  1
  Br  Br32  1  0.684480  0.684371  0.315534  1
  Br  Br33  1  0.249999  0.250001  0.250007  1
  Br  Br34  1  0.749992  0.750002  0.750001  1
