# generated using pymatgen
data_Yb3PuBi3
_symmetry_space_group_name_H-M   'P 1'
_cell_length_a   8.32429192
_cell_length_b   8.34798623
_cell_length_c   8.32429261
_cell_angle_alpha   109.46266533
_cell_angle_beta   109.32758249
_cell_angle_gamma   109.46265316
_symmetry_Int_Tables_number   1
_chemical_formula_structural   Yb3PuBi3
_chemical_formula_sum   'Yb6 Pu2 Bi6'
_cell_volume   446.18249761
_cell_formula_units_Z   2
loop_
 _symmetry_equiv_pos_site_id
 _symmetry_equiv_pos_as_xyz
  1  'x, y, z'
loop_
 _atom_site_type_symbol
 _atom_site_label
 _atom_site_symmetry_multiplicity
 _atom_site_fract_x
 _atom_site_fract_y
 _atom_site_fract_z
 _atom_site_occupancy
  Yb  Yb0  1  0.500583  0.000787  0.145344  1
  Yb  Yb1  1  0.645344  0.500787  0.000583  1
  Yb  Yb2  1  0.000276  0.646569  0.500203  1
  Yb  Yb3  1  0.853690  0.853261  0.853019  1
  Yb  Yb4  1  0.000203  0.146569  0.500276  1
  Yb  Yb5  1  0.353019  0.353261  0.353690  1
  Pu  Pu6  1  0.148328  0.500028  0.000423  1
  Pu  Pu7  1  0.500423  0.000028  0.648328  1
  Bi  Bi8  1  0.621117  0.749077  0.373901  1
  Bi  Bi9  1  0.751053  0.373895  0.626847  1
  Bi  Bi10  1  0.251071  0.126382  0.874145  1
  Bi  Bi11  1  0.374145  0.626382  0.751071  1
  Bi  Bi12  1  0.126847  0.873895  0.251053  1
  Bi  Bi13  1  0.873901  0.249077  0.121117  1
