# generated using pymatgen
data_Sc5P12Ir9Ru10
_symmetry_space_group_name_H-M   'P 1'
_cell_length_a   12.50440371
_cell_length_b   12.46410292
_cell_length_c   3.91288500
_cell_angle_alpha   90.00000000
_cell_angle_beta   90.00000000
_cell_angle_gamma   119.77101942
_symmetry_Int_Tables_number   1
_chemical_formula_structural   Sc5P12Ir9Ru10
_chemical_formula_sum   'Sc5 P12 Ir9 Ru10'
_cell_volume   529.35763993
_cell_formula_units_Z   1
loop_
 _symmetry_equiv_pos_site_id
 _symmetry_equiv_pos_as_xyz
  1  'x, y, z'
loop_
 _atom_site_type_symbol
 _atom_site_label
 _atom_site_symmetry_multiplicity
 _atom_site_fract_x
 _atom_site_fract_y
 _atom_site_fract_z
 _atom_site_occupancy
  Sc  Sc0  1  0.667862  0.332247  0.000000  1
  Sc  Sc1  1  0.333387  0.666777  0.000000  1
  Sc  Sc2  1  0.812767  0.001203  0.500000  1
  Sc  Sc3  1  0.184884  0.187262  0.500000  1
  Sc  Sc4  1  0.000241  0.814211  0.500000  1
  P  P5  1  0.633920  0.997938  0.000000  1
  P  P6  1  0.363313  0.368975  0.000000  1
  P  P7  1  0.005828  0.636932  0.000000  1
  P  P8  1  0.689422  0.518484  0.500000  1
  P  P9  1  0.829262  0.306951  0.500000  1
  P  P10  1  0.313046  0.828888  0.500000  1
  P  P11  1  0.515795  0.686413  0.500000  1
  P  P12  1  0.179057  0.001742  0.000000  1
  P  P13  1  0.820775  0.820951  0.000000  1
  P  P14  1  0.996248  0.179197  0.000000  1
  P  P15  1  0.480803  0.168278  0.500000  1
  P  P16  1  0.171359  0.484701  0.500000  1
  Ir  Ir17  1  0.625843  0.806216  0.000000  1
  Ir  Ir18  1  0.180932  0.374515  0.000000  1
  Ir  Ir19  1  0.372007  0.185013  0.000000  1
  Ir  Ir20  1  0.193500  0.820761  0.000000  1
  Ir  Ir21  1  0.813092  0.627892  0.000000  1
  Ir  Ir22  1  0.866773  0.503828  0.500000  1
  Ir  Ir23  1  0.495165  0.360690  0.500000  1
  Ir  Ir24  1  0.637273  0.129688  0.500000  1
  Ir  Ir25  1  0.999349  0.000231  0.000000  1
  Ru  Ru26  1  0.128831  0.640456  0.500000  1
  Ru  Ru27  1  0.360915  0.489210  0.500000  1
  Ru  Ru28  1  0.509064  0.868892  0.500000  1
  Ru  Ru29  1  0.716964  0.715080  0.500000  1
  Ru  Ru30  1  0.000942  0.284236  0.500000  1
  Ru  Ru31  1  0.450788  0.001610  0.000000  1
  Ru  Ru32  1  0.551822  0.547307  0.000000  1
  Ru  Ru33  1  0.998439  0.449822  0.000000  1
  Ru  Ru34  1  0.816070  0.191404  0.000000  1
  Ru  Ru35  1  0.284262  0.001998  0.500000  1
