# generated using pymatgen
data_Tb8Dy8Cd4Co3Os
_symmetry_space_group_name_H-M   'P 1'
_cell_length_a   9.61346139
_cell_length_b   9.61103078
_cell_length_c   9.61136975
_cell_angle_alpha   59.38805657
_cell_angle_beta   59.40016572
_cell_angle_gamma   59.40047257
_symmetry_Int_Tables_number   1
_chemical_formula_structural   Tb8Dy8Cd4Co3Os
_chemical_formula_sum   'Tb8 Dy8 Cd4 Co3 Os1'
_cell_volume   619.31483066
_cell_formula_units_Z   1
loop_
 _symmetry_equiv_pos_site_id
 _symmetry_equiv_pos_as_xyz
  1  'x, y, z'
loop_
 _atom_site_type_symbol
 _atom_site_label
 _atom_site_symmetry_multiplicity
 _atom_site_fract_x
 _atom_site_fract_y
 _atom_site_fract_z
 _atom_site_occupancy
  Tb  Tb0  1  0.812737  0.813295  0.187295  1
  Tb  Tb1  1  0.211578  0.600213  0.599951  1
  Tb  Tb2  1  0.805356  0.190613  0.190571  1
  Tb  Tb3  1  0.057504  0.437173  0.437725  1
  Tb  Tb4  1  0.190575  0.805755  0.190195  1
  Tb  Tb5  1  0.599829  0.600113  0.211572  1
  Tb  Tb6  1  0.190623  0.190276  0.805511  1
  Tb  Tb7  1  0.061558  0.435454  0.061132  1
  Dy  Dy8  1  0.437880  0.437324  0.057374  1
  Dy  Dy9  1  0.595669  0.595849  0.596011  1
  Dy  Dy10  1  0.187550  0.813138  0.812640  1
  Dy  Dy11  1  0.061291  0.060915  0.436043  1
  Dy  Dy12  1  0.435889  0.061334  0.061341  1
  Dy  Dy13  1  0.812766  0.187618  0.812801  1
  Dy  Dy14  1  0.437469  0.057474  0.437456  1
  Dy  Dy15  1  0.600017  0.211567  0.599958  1
  Cd  Cd16  1  0.829275  0.829646  0.508229  1
  Cd  Cd17  1  0.829747  0.830265  0.829497  1
  Cd  Cd18  1  0.508040  0.829512  0.829371  1
  Cd  Cd19  1  0.829218  0.508045  0.829452  1
  Co  Co20  1  0.829523  0.391736  0.392669  1
  Co  Co21  1  0.391907  0.830012  0.392356  1
  Co  Co22  1  0.392481  0.392008  0.829581  1
  Os  Os23  1  0.391520  0.390665  0.391270  1
