# generated using pymatgen
data_K2RbBi2Au3
_symmetry_space_group_name_H-M   'P 1'
_cell_length_a   8.32017446
_cell_length_b   8.32017509
_cell_length_c   8.32017495
_cell_angle_alpha   45.99421654
_cell_angle_beta   45.99421366
_cell_angle_gamma   45.99421655
_symmetry_Int_Tables_number   1
_chemical_formula_structural   K2RbBi2Au3
_chemical_formula_sum   'K2 Rb1 Bi2 Au3'
_cell_volume   271.78791273
_cell_formula_units_Z   1
loop_
 _symmetry_equiv_pos_site_id
 _symmetry_equiv_pos_as_xyz
  1  'x, y, z'
loop_
 _atom_site_type_symbol
 _atom_site_label
 _atom_site_symmetry_multiplicity
 _atom_site_fract_x
 _atom_site_fract_y
 _atom_site_fract_z
 _atom_site_occupancy
  K  K0  1  0.077694  0.077694  0.077694  1
  K  K1  1  0.922306  0.922306  0.922306  1
  Rb  Rb2  1  0.500000  0.500000  0.500000  1
  Bi  Bi3  1  0.240270  0.240270  0.240270  1
  Bi  Bi4  1  0.759730  0.759730  0.759730  1
  Au  Au5  1  0.500000  0.500000  0.000000  1
  Au  Au6  1  0.500000  0.000000  0.499999  1
  Au  Au7  1  0.000000  0.500000  0.499999  1
