# generated using pymatgen
data_Dy5Er5(GaSb2)2
_symmetry_space_group_name_H-M   'P 1'
_cell_length_a   8.81046710
_cell_length_b   8.78775644
_cell_length_c   6.38743500
_cell_angle_alpha   90.00000000
_cell_angle_beta   90.00000000
_cell_angle_gamma   119.88702167
_symmetry_Int_Tables_number   1
_chemical_formula_structural   Dy5Er5(GaSb2)2
_chemical_formula_sum   'Dy5 Er5 Ga2 Sb4'
_cell_volume   428.77293688
_cell_formula_units_Z   1
loop_
 _symmetry_equiv_pos_site_id
 _symmetry_equiv_pos_as_xyz
  1  'x, y, z'
loop_
 _atom_site_type_symbol
 _atom_site_label
 _atom_site_symmetry_multiplicity
 _atom_site_fract_x
 _atom_site_fract_y
 _atom_site_fract_z
 _atom_site_occupancy
  Dy  Dy0  1  0.011496  0.767055  0.750000  1
  Dy  Dy1  1  0.011657  0.244135  0.250000  1
  Dy  Dy2  1  0.752955  0.753449  0.250000  1
  Dy  Dy3  1  0.752737  0.999220  0.750000  1
  Dy  Dy4  1  0.244626  0.233254  0.750000  1
  Er  Er5  1  0.244295  0.011394  0.250000  1
  Er  Er6  1  0.336054  0.668354  0.499677  1
  Er  Er7  1  0.652748  0.326201  0.000438  1
  Er  Er8  1  0.652748  0.326201  0.499562  1
  Er  Er9  1  0.336054  0.668354  0.000323  1
  Ga  Ga10  1  0.394758  0.997103  0.750000  1
  Ga  Ga11  1  0.394294  0.396527  0.250000  1
  Sb  Sb12  1  0.999272  0.607753  0.250000  1
  Sb  Sb13  1  0.998618  0.391535  0.750000  1
  Sb  Sb14  1  0.609240  0.607816  0.750000  1
  Sb  Sb15  1  0.608447  0.001651  0.250000  1
