# generated using pymatgen
data_TbTm4S5
_symmetry_space_group_name_H-M   'P 1'
_cell_length_a   13.94559654
_cell_length_b   13.94559656
_cell_length_c   13.94559609
_cell_angle_alpha   164.11213402
_cell_angle_beta   164.11213483
_cell_angle_gamma   22.54202257
_symmetry_Int_Tables_number   1
_chemical_formula_structural   TbTm4S5
_chemical_formula_sum   'Tb1 Tm4 S5'
_cell_volume   203.21451468
_cell_formula_units_Z   1
loop_
 _symmetry_equiv_pos_site_id
 _symmetry_equiv_pos_as_xyz
  1  'x, y, z'
loop_
 _atom_site_type_symbol
 _atom_site_label
 _atom_site_symmetry_multiplicity
 _atom_site_fract_x
 _atom_site_fract_y
 _atom_site_fract_z
 _atom_site_occupancy
  Tb  Tb0  1  0.000000  0.000000  0.000000  1
  Tm  Tm1  1  0.399901  0.399901  0.000000  1
  Tm  Tm2  1  0.799357  0.799357  0.000000  1
  Tm  Tm3  1  0.200643  0.200643  0.000000  1
  Tm  Tm4  1  0.600099  0.600099  0.000000  1
  S  S5  1  0.101244  0.101244  0.000000  1
  S  S6  1  0.500000  0.500000  0.000000  1
  S  S7  1  0.898756  0.898756  0.000000  1
  S  S8  1  0.300075  0.300075  0.000000  1
  S  S9  1  0.699925  0.699925  0.000000  1
