# generated using pymatgen
data_Ca4Zn2Si5Ge
_symmetry_space_group_name_H-M   'P 1'
_cell_length_a   8.36745229
_cell_length_b   8.22482619
_cell_length_c   5.97104977
_cell_angle_alpha   70.19036692
_cell_angle_beta   67.96224947
_cell_angle_gamma   42.17335527
_symmetry_Int_Tables_number   1
_chemical_formula_structural   Ca4Zn2Si5Ge
_chemical_formula_sum   'Ca4 Zn2 Si5 Ge1'
_cell_volume   254.50885319
_cell_formula_units_Z   1
loop_
 _symmetry_equiv_pos_site_id
 _symmetry_equiv_pos_as_xyz
  1  'x, y, z'
loop_
 _atom_site_type_symbol
 _atom_site_label
 _atom_site_symmetry_multiplicity
 _atom_site_fract_x
 _atom_site_fract_y
 _atom_site_fract_z
 _atom_site_occupancy
  Ca  Ca0  1  0.750193  0.750602  0.749267  1
  Ca  Ca1  1  0.756058  0.243079  0.756701  1
  Ca  Ca2  1  0.250733  0.250061  0.249807  1
  Ca  Ca3  1  0.243299  0.755838  0.243942  1
  Zn  Zn4  1  0.663399  0.672877  0.336601  1
  Zn  Zn5  1  0.333102  0.333895  0.666898  1
  Si  Si6  1  0.664533  0.163865  0.335467  1
  Si  Si7  1  0.167212  0.667659  0.832788  1
  Si  Si8  1  0.332586  0.832306  0.667414  1
  Si  Si9  1  0.172061  0.162410  0.827939  1
  Si  Si10  1  0.834662  0.833716  0.165338  1
  Ge  Ge11  1  0.832163  0.333693  0.167837  1
