# generated using pymatgen
data_U4AgPbS10
_symmetry_space_group_name_H-M   'P 1'
_cell_length_a   7.37218200
_cell_length_b   8.34908037
_cell_length_c   11.58973700
_cell_angle_alpha   90.88518438
_cell_angle_beta   90.00000000
_cell_angle_gamma   90.00000000
_symmetry_Int_Tables_number   1
_chemical_formula_structural   U4AgPbS10
_chemical_formula_sum   'U8 Ag2 Pb2 S20'
_cell_volume   713.27407544
_cell_formula_units_Z   2
loop_
 _symmetry_equiv_pos_site_id
 _symmetry_equiv_pos_as_xyz
  1  'x, y, z'
loop_
 _atom_site_type_symbol
 _atom_site_label
 _atom_site_symmetry_multiplicity
 _atom_site_fract_x
 _atom_site_fract_y
 _atom_site_fract_z
 _atom_site_occupancy
  U  U0  1  0.023640  0.996358  0.321824  1
  U  U1  1  0.523640  0.003642  0.178176  1
  U  U2  1  0.994310  0.001123  0.682762  1
  U  U3  1  0.494310  0.998877  0.817238  1
  U  U4  1  0.085971  0.756633  0.010051  1
  U  U5  1  0.585971  0.243367  0.489949  1
  U  U6  1  0.932883  0.252713  0.998125  1
  U  U7  1  0.432883  0.747287  0.501875  1
  Ag  Ag8  1  0.895927  0.520573  0.230330  1
  Ag  Ag9  1  0.395927  0.479427  0.269670  1
  Pb  Pb10  1  0.979922  0.508231  0.657129  1
  Pb  Pb11  1  0.479922  0.491769  0.842871  1
  S  S12  1  0.668796  0.947157  0.401116  1
  S  S13  1  0.168796  0.052843  0.098884  1
  S  S14  1  0.351290  0.041633  0.598093  1
  S  S15  1  0.851290  0.958367  0.901907  1
  S  S16  1  0.461165  0.794019  0.998651  1
  S  S17  1  0.961165  0.205981  0.501349  1
  S  S18  1  0.555898  0.213534  0.997242  1
  S  S19  1  0.055898  0.786466  0.502758  1
  S  S20  1  0.831432  0.802956  0.172047  1
  S  S21  1  0.331432  0.197044  0.327953  1
  S  S22  1  0.177044  0.216647  0.818317  1
  S  S23  1  0.677044  0.783353  0.681683  1
  S  S24  1  0.305964  0.781056  0.278157  1
  S  S25  1  0.805964  0.218944  0.221843  1
  S  S26  1  0.704596  0.228932  0.716861  1
  S  S27  1  0.204596  0.771068  0.783139  1
  S  S28  1  0.176954  0.465750  0.090830  1
  S  S29  1  0.676954  0.534250  0.409170  1
  S  S30  1  0.854207  0.538161  0.908376  1
  S  S31  1  0.354207  0.461839  0.591624  1
