# generated using pymatgen
data_Tb3Sm2(OsO6)2
_symmetry_space_group_name_H-M   'P 1'
_cell_length_a   6.95150678
_cell_length_b   6.95150784
_cell_length_c   7.58882224
_cell_angle_alpha   74.12730697
_cell_angle_beta   74.12730214
_cell_angle_gamma   48.42664002
_symmetry_Int_Tables_number   1
_chemical_formula_structural   Tb3Sm2(OsO6)2
_chemical_formula_sum   'Tb3 Sm2 Os2 O12'
_cell_volume   261.71783408
_cell_formula_units_Z   1
loop_
 _symmetry_equiv_pos_site_id
 _symmetry_equiv_pos_as_xyz
  1  'x, y, z'
loop_
 _atom_site_type_symbol
 _atom_site_label
 _atom_site_symmetry_multiplicity
 _atom_site_fract_x
 _atom_site_fract_y
 _atom_site_fract_z
 _atom_site_occupancy
  Tb  Tb0  1  0.688128  0.688128  0.168241  1
  Tb  Tb1  1  0.311872  0.311872  0.831759  1
  Tb  Tb2  1  0.000000  0.000000  0.500000  1
  Sm  Sm3  1  0.697263  0.697263  0.644182  1
  Sm  Sm4  1  0.302737  0.302737  0.355818  1
  Os  Os5  1  0.781637  0.218363  0.000000  1
  Os  Os6  1  0.218363  0.781637  0.000000  1
  O  O7  1  0.999310  0.999310  0.202532  1
  O  O8  1  0.000690  0.000690  0.797468  1
  O  O9  1  0.585832  0.084723  0.080802  1
  O  O10  1  0.414168  0.915277  0.919198  1
  O  O11  1  0.915277  0.414168  0.919198  1
  O  O12  1  0.084723  0.585832  0.080802  1
  O  O13  1  0.499979  0.499979  0.169292  1
  O  O14  1  0.500021  0.500021  0.830708  1
  O  O15  1  0.403259  0.900104  0.422769  1
  O  O16  1  0.596741  0.099896  0.577231  1
  O  O17  1  0.099896  0.596741  0.577231  1
  O  O18  1  0.900104  0.403259  0.422769  1
