# generated using pymatgen
data_Ho6Er10Cd3InPd4
_symmetry_space_group_name_H-M   'P 1'
_cell_length_a   9.62342921
_cell_length_b   9.62342860
_cell_length_c   9.62342965
_cell_angle_alpha   59.97408050
_cell_angle_beta   59.97408484
_cell_angle_gamma   59.97407790
_symmetry_Int_Tables_number   1
_chemical_formula_structural   Ho6Er10Cd3InPd4
_chemical_formula_sum   'Ho6 Er10 Cd3 In1 Pd4'
_cell_volume   629.82404100
_cell_formula_units_Z   1
loop_
 _symmetry_equiv_pos_site_id
 _symmetry_equiv_pos_as_xyz
  1  'x, y, z'
loop_
 _atom_site_type_symbol
 _atom_site_label
 _atom_site_symmetry_multiplicity
 _atom_site_fract_x
 _atom_site_fract_y
 _atom_site_fract_z
 _atom_site_occupancy
  Ho  Ho0  1  0.935560  0.566539  0.566539  1
  Ho  Ho1  1  0.564914  0.935159  0.935159  1
  Ho  Ho2  1  0.566539  0.935560  0.566539  1
  Ho  Ho3  1  0.935159  0.564914  0.935159  1
  Ho  Ho4  1  0.566539  0.566539  0.935560  1
  Ho  Ho5  1  0.935159  0.935159  0.564914  1
  Er  Er6  1  0.352108  0.352108  0.352108  1
  Er  Er7  1  0.355414  0.355414  0.937731  1
  Er  Er8  1  0.355414  0.937731  0.355414  1
  Er  Er9  1  0.937731  0.355414  0.355414  1
  Er  Er10  1  0.810605  0.189333  0.189333  1
  Er  Er11  1  0.189989  0.809877  0.809877  1
  Er  Er12  1  0.189333  0.810605  0.189333  1
  Er  Er13  1  0.809877  0.189989  0.809877  1
  Er  Er14  1  0.189333  0.189333  0.810605  1
  Er  Er15  1  0.809877  0.809877  0.189989  1
  Cd  Cd16  1  0.581405  0.581405  0.251828  1
  Cd  Cd17  1  0.581405  0.251828  0.581405  1
  Cd  Cd18  1  0.251828  0.581405  0.581405  1
  In  In19  1  0.582461  0.582461  0.582461  1
  Pd  Pd20  1  0.145049  0.145049  0.145049  1
  Pd  Pd21  1  0.143278  0.143278  0.567743  1
  Pd  Pd22  1  0.143278  0.567743  0.143278  1
  Pd  Pd23  1  0.567743  0.143278  0.143278  1
