# generated using pymatgen
data_Ac11In9Ni4
_symmetry_space_group_name_H-M   'P 1'
_cell_length_a   13.94731200
_cell_length_b   13.94731232
_cell_length_c   3.95660800
_cell_angle_alpha   90.00000000
_cell_angle_beta   90.00000000
_cell_angle_gamma   112.49784636
_symmetry_Int_Tables_number   1
_chemical_formula_structural   Ac11In9Ni4
_chemical_formula_sum   'Ac11 In9 Ni4'
_cell_volume   711.09262482
_cell_formula_units_Z   1
loop_
 _symmetry_equiv_pos_site_id
 _symmetry_equiv_pos_as_xyz
  1  'x, y, z'
loop_
 _atom_site_type_symbol
 _atom_site_label
 _atom_site_symmetry_multiplicity
 _atom_site_fract_x
 _atom_site_fract_y
 _atom_site_fract_z
 _atom_site_occupancy
  Ac  Ac0  1  0.312294  0.312294  0.000000  1
  Ac  Ac1  1  0.687706  0.687706  0.000000  1
  Ac  Ac2  1  0.000000  0.000000  0.000000  1
  Ac  Ac3  1  0.076656  0.418852  0.000000  1
  Ac  Ac4  1  0.923344  0.581148  0.000000  1
  Ac  Ac5  1  0.418852  0.076656  0.000000  1
  Ac  Ac6  1  0.581148  0.923344  0.000000  1
  Ac  Ac7  1  0.838850  0.161150  0.000000  1
  Ac  Ac8  1  0.161150  0.838850  0.000000  1
  Ac  Ac9  1  0.624427  0.375573  0.000000  1
  Ac  Ac10  1  0.375573  0.624427  0.000000  1
  In  In11  1  0.835402  0.366478  0.500000  1
  In  In12  1  0.164598  0.633522  0.500000  1
  In  In13  1  0.366478  0.835402  0.500000  1
  In  In14  1  0.633522  0.164598  0.500000  1
  In  In15  1  0.080900  0.220594  0.500000  1
  In  In16  1  0.919100  0.779406  0.500000  1
  In  In17  1  0.220594  0.080900  0.500000  1
  In  In18  1  0.779406  0.919100  0.500000  1
  In  In19  1  0.500000  0.500000  0.500000  1
  Ni  Ni20  1  0.244694  0.448074  0.500000  1
  Ni  Ni21  1  0.755306  0.551926  0.500000  1
  Ni  Ni22  1  0.448074  0.244694  0.500000  1
  Ni  Ni23  1  0.551926  0.755306  0.500000  1
