# generated using pymatgen
data_Tb8GePI12
_symmetry_space_group_name_H-M   'P 1'
_cell_length_a   4.22748700
_cell_length_b   14.00353469
_cell_length_c   14.77811813
_cell_angle_alpha   89.87984983
_cell_angle_beta   90.00000000
_cell_angle_gamma   90.00000000
_symmetry_Int_Tables_number   1
_chemical_formula_structural   Tb8GePI12
_chemical_formula_sum   'Tb8 Ge1 P1 I12'
_cell_volume   874.85913568
_cell_formula_units_Z   1
loop_
 _symmetry_equiv_pos_site_id
 _symmetry_equiv_pos_as_xyz
  1  'x, y, z'
loop_
 _atom_site_type_symbol
 _atom_site_label
 _atom_site_symmetry_multiplicity
 _atom_site_fract_x
 _atom_site_fract_y
 _atom_site_fract_z
 _atom_site_occupancy
  Tb  Tb0  1  0.500000  0.116584  0.345837  1
  Tb  Tb1  1  0.500000  0.883416  0.654163  1
  Tb  Tb2  1  0.500000  0.612173  0.148485  1
  Tb  Tb3  1  0.500000  0.387827  0.851515  1
  Tb  Tb4  1  0.000000  0.112850  0.576059  1
  Tb  Tb5  1  0.000000  0.887150  0.423941  1
  Tb  Tb6  1  0.000000  0.605656  0.928963  1
  Tb  Tb7  1  0.000000  0.394344  0.071037  1
  Ge  Ge8  1  0.500000  0.000000  0.500000  1
  P  P9  1  0.500000  0.500000  0.000000  1
  I  I10  1  0.500000  0.248706  0.160332  1
  I  I11  1  0.500000  0.751294  0.839668  1
  I  I12  1  0.500000  0.744727  0.336138  1
  I  I13  1  0.500000  0.255273  0.663862  1
  I  I14  1  0.000000  0.260237  0.415182  1
  I  I15  1  0.000000  0.739763  0.584818  1
  I  I16  1  0.000000  0.757616  0.084259  1
  I  I17  1  0.000000  0.242384  0.915741  1
  I  I18  1  0.000000  0.999982  0.239550  1
  I  I19  1  0.000000  0.000018  0.760450  1
  I  I20  1  0.000000  0.499930  0.257787  1
  I  I21  1  0.000000  0.500070  0.742213  1
