# generated using pymatgen
data_CaZr8Tl(PO4)12
_symmetry_space_group_name_H-M   'P 1'
_cell_length_a   8.93553011
_cell_length_b   9.29805984
_cell_length_c   12.89909286
_cell_angle_alpha   93.17293832
_cell_angle_beta   90.01340610
_cell_angle_gamma   89.99536199
_symmetry_Int_Tables_number   1
_chemical_formula_structural   CaZr8Tl(PO4)12
_chemical_formula_sum   'Ca1 Zr8 Tl1 P12 O48'
_cell_volume   1070.05361707
_cell_formula_units_Z   1
loop_
 _symmetry_equiv_pos_site_id
 _symmetry_equiv_pos_as_xyz
  1  'x, y, z'
loop_
 _atom_site_type_symbol
 _atom_site_label
 _atom_site_symmetry_multiplicity
 _atom_site_fract_x
 _atom_site_fract_y
 _atom_site_fract_z
 _atom_site_occupancy
  Ca  Ca0  1  0.000000  0.000000  0.000000  1
  Zr  Zr1  1  0.000542  0.716843  0.640742  1
  Zr  Zr2  1  0.499563  0.219519  0.141230  1
  Zr  Zr3  1  0.999458  0.283157  0.359258  1
  Zr  Zr4  1  0.500437  0.780481  0.858770  1
  Zr  Zr5  1  0.499131  0.200596  0.652305  1
  Zr  Zr6  1  0.001173  0.703248  0.146098  1
  Zr  Zr7  1  0.500869  0.799404  0.347695  1
  Zr  Zr8  1  0.998827  0.296752  0.853902  1
  Tl  Tl9  1  0.500000  0.500000  0.500000  1
  P  P10  1  0.211396  0.997595  0.759800  1
  P  P11  1  0.715324  0.500112  0.253820  1
  P  P12  1  0.637483  0.848745  0.607512  1
  P  P13  1  0.136594  0.349652  0.107009  1
  P  P14  1  0.147828  0.637531  0.392248  1
  P  P15  1  0.651585  0.133863  0.895589  1
  P  P16  1  0.788604  0.002405  0.240200  1
  P  P17  1  0.284676  0.499888  0.746180  1
  P  P18  1  0.362517  0.151255  0.392488  1
  P  P19  1  0.863406  0.650348  0.892991  1
  P  P20  1  0.852172  0.362469  0.607752  1
  P  P21  1  0.348415  0.866137  0.104411  1
  O  O22  1  0.371672  0.029822  0.112666  1
  O  O23  1  0.872020  0.526288  0.614101  1
  O  O24  1  0.687915  0.089938  0.170891  1
  O  O25  1  0.186140  0.584012  0.673481  1
  O  O26  1  0.441045  0.217991  0.301080  1
  O  O27  1  0.940859  0.710748  0.798830  1
  O  O28  1  0.628328  0.970178  0.887334  1
  O  O29  1  0.127980  0.473712  0.385899  1
  O  O30  1  0.312085  0.910062  0.829109  1
  O  O31  1  0.813860  0.415988  0.326519  1
  O  O32  1  0.558955  0.782009  0.698920  1
  O  O33  1  0.059141  0.289252  0.201170  1
  O  O34  1  0.064231  0.708160  0.485668  1
  O  O35  1  0.564775  0.206550  0.986661  1
  O  O36  1  0.125810  0.900258  0.680015  1
  O  O37  1  0.629172  0.400339  0.176349  1
  O  O38  1  0.808197  0.834182  0.613906  1
  O  O39  1  0.307536  0.336764  0.113373  1
  O  O40  1  0.935769  0.291840  0.514332  1
  O  O41  1  0.435225  0.793450  0.013339  1
  O  O42  1  0.874190  0.099742  0.319985  1
  O  O43  1  0.370828  0.599661  0.823651  1
  O  O44  1  0.191803  0.165818  0.386094  1
  O  O45  1  0.692464  0.663236  0.886627  1
  O  O46  1  0.902656  0.918800  0.167252  1
  O  O47  1  0.398877  0.409902  0.677684  1
  O  O48  1  0.419088  0.230071  0.495470  1
  O  O49  1  0.921140  0.740768  0.990733  1
  O  O50  1  0.681173  0.329390  0.596480  1
  O  O51  1  0.176924  0.839799  0.087837  1
  O  O52  1  0.097344  0.081200  0.832748  1
  O  O53  1  0.601123  0.590098  0.322316  1
  O  O54  1  0.580912  0.769929  0.504530  1
  O  O55  1  0.078860  0.259232  0.009267  1
  O  O56  1  0.318827  0.670610  0.403520  1
  O  O57  1  0.823076  0.160201  0.912163  1
  O  O58  1  0.306224  0.106172  0.700894  1
  O  O59  1  0.809287  0.605931  0.191854  1
  O  O60  1  0.597064  0.010073  0.603604  1
  O  O61  1  0.096762  0.510821  0.097641  1
  O  O62  1  0.600672  0.201865  0.794622  1
  O  O63  1  0.091890  0.704264  0.291755  1
  O  O64  1  0.693776  0.893828  0.299106  1
  O  O65  1  0.190713  0.394069  0.808146  1
  O  O66  1  0.402936  0.989927  0.396396  1
  O  O67  1  0.903238  0.489179  0.902359  1
  O  O68  1  0.399328  0.798135  0.205378  1
  O  O69  1  0.908110  0.295736  0.708245  1
