# generated using pymatgen
data_Cs9Rb3Sc3FeSe12
_symmetry_space_group_name_H-M   'P 1'
_cell_length_a   11.26815064
_cell_length_b   11.26567963
_cell_length_c   14.22298662
_cell_angle_alpha   89.78463092
_cell_angle_beta   89.91252486
_cell_angle_gamma   140.35762120
_symmetry_Int_Tables_number   1
_chemical_formula_structural   Cs9Rb3Sc3FeSe12
_chemical_formula_sum   'Cs9 Rb3 Sc3 Fe1 Se12'
_cell_volume   1151.87075783
_cell_formula_units_Z   1
loop_
 _symmetry_equiv_pos_site_id
 _symmetry_equiv_pos_as_xyz
  1  'x, y, z'
loop_
 _atom_site_type_symbol
 _atom_site_label
 _atom_site_symmetry_multiplicity
 _atom_site_fract_x
 _atom_site_fract_y
 _atom_site_fract_z
 _atom_site_occupancy
  Cs  Cs0  1  0.363017  0.364582  0.823253  1
  Cs  Cs1  1  0.169679  0.531555  0.133066  1
  Cs  Cs2  1  0.473276  0.830657  0.869200  1
  Cs  Cs3  1  0.971555  0.333508  0.631131  1
  Cs  Cs4  1  0.668251  0.027091  0.370358  1
  Cs  Cs5  1  0.829617  0.475007  0.869155  1
  Cs  Cs6  1  0.530197  0.170507  0.133328  1
  Cs  Cs7  1  0.015550  0.662392  0.373315  1
  Cs  Cs8  1  0.339853  0.983693  0.628142  1
  Rb  Rb9  1  0.856253  0.852771  0.661582  1
  Rb  Rb10  1  0.147794  0.144307  0.332910  1
  Rb  Rb11  1  0.642466  0.643260  0.170146  1
  Sc  Sc12  1  0.919658  0.086602  0.002202  1
  Sc  Sc13  1  0.419692  0.575239  0.498073  1
  Sc  Sc14  1  0.085754  0.920661  0.002150  1
  Fe  Fe15  1  0.577807  0.416728  0.498064  1
  Se  Se16  1  0.292498  0.280630  0.572442  1
  Se  Se17  1  0.708261  0.696641  0.418372  1
  Se  Se18  1  0.208378  0.209011  0.083825  1
  Se  Se19  1  0.803714  0.804541  0.917376  1
  Se  Se20  1  0.682116  0.979129  0.120362  1
  Se  Se21  1  0.013045  0.318343  0.884886  1
  Se  Se22  1  0.517258  0.806789  0.617233  1
  Se  Se23  1  0.184895  0.480391  0.383636  1
  Se  Se24  1  0.317021  0.014493  0.884538  1
  Se  Se25  1  0.978739  0.683335  0.120562  1
  Se  Se26  1  0.493745  0.203442  0.388018  1
  Se  Se27  1  0.789909  0.504697  0.612675  1
