# generated using pymatgen
data_Pr5GaSnRu3
_symmetry_space_group_name_H-M   'P 1'
_cell_length_a   8.69843522
_cell_length_b   8.69843375
_cell_length_c   8.66612669
_cell_angle_alpha   109.56518589
_cell_angle_beta   109.42349375
_cell_angle_gamma   109.57570804
_symmetry_Int_Tables_number   1
_chemical_formula_structural   Pr5GaSnRu3
_chemical_formula_sum   'Pr10 Ga2 Sn2 Ru6'
_cell_volume   503.81851817
_cell_formula_units_Z   2
loop_
 _symmetry_equiv_pos_site_id
 _symmetry_equiv_pos_as_xyz
  1  'x, y, z'
loop_
 _atom_site_type_symbol
 _atom_site_label
 _atom_site_symmetry_multiplicity
 _atom_site_fract_x
 _atom_site_fract_y
 _atom_site_fract_z
 _atom_site_occupancy
  Pr  Pr0  1  0.242407  0.685297  0.432759  1
  Pr  Pr1  1  0.752539  0.809650  0.067242  1
  Pr  Pr2  1  0.433578  0.246401  0.686392  1
  Pr  Pr3  1  0.692653  0.442654  0.250000  1
  Pr  Pr4  1  0.060009  0.747185  0.813608  1
  Pr  Pr5  1  0.817374  0.067374  0.750000  1
  Pr  Pr6  1  0.209575  0.209055  0.208312  1
  Pr  Pr7  1  0.500744  0.001263  0.291688  1
  Pr  Pr8  1  0.283773  0.500971  0.000601  1
  Pr  Pr9  1  0.000370  0.283173  0.499400  1
  Ga  Ga10  1  0.912031  0.500107  0.999761  1
  Ga  Ga11  1  0.000344  0.912270  0.500240  1
  Sn  Sn12  1  0.500603  0.999885  0.907316  1
  Sn  Sn13  1  0.592569  0.593285  0.592684  1
  Ru  Ru14  1  0.241204  0.122169  0.868229  1
  Ru  Ru15  1  0.753939  0.372972  0.631770  1
  Ru  Ru16  1  0.882557  0.260178  0.127337  1
  Ru  Ru17  1  0.121507  0.871507  0.250001  1
  Ru  Ru18  1  0.632838  0.755220  0.372662  1
  Ru  Ru19  1  0.369387  0.619387  0.750000  1
