# generated using pymatgen
data_Nd6Dy10Cd4OsPt3
_symmetry_space_group_name_H-M   'P 1'
_cell_length_a   9.79956593
_cell_length_b   9.79956663
_cell_length_c   9.79956724
_cell_angle_alpha   59.79036310
_cell_angle_beta   59.79036821
_cell_angle_gamma   59.79036908
_symmetry_Int_Tables_number   1
_chemical_formula_structural   Nd6Dy10Cd4OsPt3
_chemical_formula_sum   'Nd6 Dy10 Cd4 Os1 Pt3'
_cell_volume   662.26805562
_cell_formula_units_Z   1
loop_
 _symmetry_equiv_pos_site_id
 _symmetry_equiv_pos_as_xyz
  1  'x, y, z'
loop_
 _atom_site_type_symbol
 _atom_site_label
 _atom_site_symmetry_multiplicity
 _atom_site_fract_x
 _atom_site_fract_y
 _atom_site_fract_z
 _atom_site_occupancy
  Nd  Nd0  1  0.938433  0.561951  0.561951  1
  Nd  Nd1  1  0.556136  0.940097  0.940097  1
  Nd  Nd2  1  0.561951  0.938433  0.561951  1
  Nd  Nd3  1  0.940097  0.556136  0.940097  1
  Nd  Nd4  1  0.561951  0.561951  0.938433  1
  Nd  Nd5  1  0.940097  0.940097  0.556136  1
  Dy  Dy6  1  0.351011  0.351011  0.351011  1
  Dy  Dy7  1  0.347193  0.347193  0.954701  1
  Dy  Dy8  1  0.347193  0.954701  0.347193  1
  Dy  Dy9  1  0.954701  0.347193  0.347193  1
  Dy  Dy10  1  0.816433  0.187119  0.187119  1
  Dy  Dy11  1  0.184833  0.811172  0.811172  1
  Dy  Dy12  1  0.187119  0.816433  0.187119  1
  Dy  Dy13  1  0.811172  0.184833  0.811172  1
  Dy  Dy14  1  0.187119  0.187119  0.816433  1
  Dy  Dy15  1  0.811172  0.811172  0.184833  1
  Cd  Cd16  1  0.579183  0.579183  0.579183  1
  Cd  Cd17  1  0.579850  0.579850  0.259427  1
  Cd  Cd18  1  0.579850  0.259427  0.579850  1
  Cd  Cd19  1  0.259427  0.579850  0.579850  1
  Os  Os20  1  0.142728  0.142728  0.142728  1
  Pt  Pt21  1  0.143999  0.143999  0.574357  1
  Pt  Pt22  1  0.143999  0.574357  0.143999  1
  Pt  Pt23  1  0.574357  0.143999  0.143999  1
