# generated using pymatgen
data_Ta12CrGa8Cu3C4
_symmetry_space_group_name_H-M   'P 1'
_cell_length_a   8.23210383
_cell_length_b   8.29346164
_cell_length_c   8.23210300
_cell_angle_alpha   60.24443400
_cell_angle_beta   59.99999934
_cell_angle_gamma   60.24443881
_symmetry_Int_Tables_number   1
_chemical_formula_structural   Ta12CrGa8Cu3C4
_chemical_formula_sum   'Ta12 Cr1 Ga8 Cu3 C4'
_cell_volume   398.87535345
_cell_formula_units_Z   1
loop_
 _symmetry_equiv_pos_site_id
 _symmetry_equiv_pos_as_xyz
  1  'x, y, z'
loop_
 _atom_site_type_symbol
 _atom_site_label
 _atom_site_symmetry_multiplicity
 _atom_site_fract_x
 _atom_site_fract_y
 _atom_site_fract_z
 _atom_site_occupancy
  Ta  Ta0  1  0.566646  0.931793  0.566646  1
  Ta  Ta1  1  0.309719  0.681300  0.699261  1
  Ta  Ta2  1  0.683354  0.318207  0.315084  1
  Ta  Ta3  1  0.309719  0.681300  0.309719  1
  Ta  Ta4  1  0.699261  0.681300  0.309719  1
  Ta  Ta5  1  0.315084  0.318207  0.683354  1
  Ta  Ta6  1  0.550739  0.568700  0.940281  1
  Ta  Ta7  1  0.940281  0.568700  0.550739  1
  Ta  Ta8  1  0.566646  0.931793  0.934916  1
  Ta  Ta9  1  0.934916  0.931793  0.566646  1
  Ta  Ta10  1  0.683354  0.318207  0.683354  1
  Ta  Ta11  1  0.940281  0.568700  0.940281  1
  Cr  Cr12  1  0.125000  0.625000  0.125000  1
  Ga  Ga13  1  0.915682  0.918158  0.915682  1
  Ga  Ga14  1  0.999520  0.331842  0.334318  1
  Ga  Ga15  1  0.338509  0.984473  0.338509  1
  Ga  Ga16  1  0.334318  0.331842  0.999520  1
  Ga  Ga17  1  0.911491  0.265527  0.911491  1
  Ga  Ga18  1  0.915682  0.918158  0.250480  1
  Ga  Ga19  1  0.250480  0.918158  0.915682  1
  Ga  Ga20  1  0.334318  0.331842  0.334318  1
  Cu  Cu21  1  0.125000  0.125000  0.125000  1
  Cu  Cu22  1  0.625000  0.125000  0.125000  1
  Cu  Cu23  1  0.125000  0.125000  0.625000  1
  C  C24  1  0.625000  0.625000  0.625000  1
  C  C25  1  0.125000  0.625000  0.625000  1
  C  C26  1  0.625000  0.125000  0.625000  1
  C  C27  1  0.625000  0.625000  0.125000  1
