# generated using pymatgen
data_Er4AlGa5Os2
_symmetry_space_group_name_H-M   'P 1'
_cell_length_a   5.44942100
_cell_length_b   5.41429988
_cell_length_c   8.72986600
_cell_angle_alpha   90.00000000
_cell_angle_beta   90.00000000
_cell_angle_gamma   120.21480627
_symmetry_Int_Tables_number   1
_chemical_formula_structural   Er4AlGa5Os2
_chemical_formula_sum   'Er4 Al1 Ga5 Os2'
_cell_volume   222.58031751
_cell_formula_units_Z   1
loop_
 _symmetry_equiv_pos_site_id
 _symmetry_equiv_pos_as_xyz
  1  'x, y, z'
loop_
 _atom_site_type_symbol
 _atom_site_label
 _atom_site_symmetry_multiplicity
 _atom_site_fract_x
 _atom_site_fract_y
 _atom_site_fract_z
 _atom_site_occupancy
  Er  Er0  1  0.667505  0.335011  0.051863  1
  Er  Er1  1  0.667505  0.335011  0.448137  1
  Er  Er2  1  0.333620  0.667240  0.553754  1
  Er  Er3  1  0.333620  0.667240  0.946246  1
  Al  Al4  1  0.160607  0.321215  0.250000  1
  Ga  Ga5  1  0.163302  0.829590  0.250000  1
  Ga  Ga6  1  0.666288  0.829590  0.250000  1
  Ga  Ga7  1  0.331427  0.164979  0.750000  1
  Ga  Ga8  1  0.833551  0.164979  0.750000  1
  Ga  Ga9  1  0.834581  0.669161  0.750000  1
  Os  Os10  1  0.003997  0.007993  0.000335  1
  Os  Os11  1  0.003997  0.007993  0.499665  1
