# generated using pymatgen
data_Tb6Cd16Ag7Ge
_symmetry_space_group_name_H-M   'P 1'
_cell_length_a   9.72967909
_cell_length_b   9.72967972
_cell_length_c   9.72968000
_cell_angle_alpha   59.99999905
_cell_angle_beta   59.99999691
_cell_angle_gamma   59.99999616
_symmetry_Int_Tables_number   1
_chemical_formula_structural   Tb6Cd16Ag7Ge
_chemical_formula_sum   'Tb6 Cd16 Ag7 Ge1'
_cell_volume   651.29927408
_cell_formula_units_Z   1
loop_
 _symmetry_equiv_pos_site_id
 _symmetry_equiv_pos_as_xyz
  1  'x, y, z'
loop_
 _atom_site_type_symbol
 _atom_site_label
 _atom_site_symmetry_multiplicity
 _atom_site_fract_x
 _atom_site_fract_y
 _atom_site_fract_z
 _atom_site_occupancy
  Tb  Tb0  1  0.793370  0.793370  0.206630  1
  Tb  Tb1  1  0.206630  0.793370  0.206630  1
  Tb  Tb2  1  0.793370  0.206630  0.206630  1
  Tb  Tb3  1  0.206630  0.206630  0.793370  1
  Tb  Tb4  1  0.793370  0.206630  0.793370  1
  Tb  Tb5  1  0.206630  0.793370  0.793370  1
  Cd  Cd6  1  0.834942  0.834942  0.495172  1
  Cd  Cd7  1  0.834942  0.495172  0.834942  1
  Cd  Cd8  1  0.495172  0.834942  0.834942  1
  Cd  Cd9  1  0.834942  0.834942  0.834942  1
  Cd  Cd10  1  0.165058  0.165058  0.504828  1
  Cd  Cd11  1  0.165058  0.504828  0.165058  1
  Cd  Cd12  1  0.504828  0.165058  0.165058  1
  Cd  Cd13  1  0.165058  0.165058  0.165058  1
  Cd  Cd14  1  0.619858  0.619858  0.140423  1
  Cd  Cd15  1  0.619858  0.140423  0.619858  1
  Cd  Cd16  1  0.140423  0.619858  0.619858  1
  Cd  Cd17  1  0.619858  0.619858  0.619858  1
  Cd  Cd18  1  0.380142  0.380142  0.859577  1
  Cd  Cd19  1  0.380142  0.859577  0.380142  1
  Cd  Cd20  1  0.859577  0.380142  0.380142  1
  Cd  Cd21  1  0.380142  0.380142  0.380142  1
  Ag  Ag22  1  0.000000  0.000000  0.500000  1
  Ag  Ag23  1  0.500000  0.000000  0.500000  1
  Ag  Ag24  1  0.000000  0.500000  0.500000  1
  Ag  Ag25  1  0.500000  0.500000  0.000000  1
  Ag  Ag26  1  0.000000  0.500000  0.000000  1
  Ag  Ag27  1  0.500000  0.000000  0.000000  1
  Ag  Ag28  1  0.500000  0.500000  0.500000  1
  Ge  Ge29  1  0.000000  0.000000  0.000000  1
