# generated using pymatgen
data_TaMn(SiRu2)2
_symmetry_space_group_name_H-M   'P 1'
_cell_length_a   7.41293246
_cell_length_b   7.41293190
_cell_length_c   7.41293046
_cell_angle_alpha   33.47616333
_cell_angle_beta   33.47616755
_cell_angle_gamma   33.47617467
_symmetry_Int_Tables_number   1
_chemical_formula_structural   TaMn(SiRu2)2
_chemical_formula_sum   'Ta1 Mn1 Si2 Ru4'
_cell_volume   110.37937726
_cell_formula_units_Z   1
loop_
 _symmetry_equiv_pos_site_id
 _symmetry_equiv_pos_as_xyz
  1  'x, y, z'
loop_
 _atom_site_type_symbol
 _atom_site_label
 _atom_site_symmetry_multiplicity
 _atom_site_fract_x
 _atom_site_fract_y
 _atom_site_fract_z
 _atom_site_occupancy
  Ta  Ta0  1  0.500000  0.500000  0.500000  1
  Mn  Mn1  1  0.000000  0.000000  0.000000  1
  Si  Si2  1  0.253909  0.253909  0.253909  1
  Si  Si3  1  0.746091  0.746091  0.746091  1
  Ru  Ru4  1  0.624573  0.624573  0.624573  1
  Ru  Ru5  1  0.124481  0.124481  0.124481  1
  Ru  Ru6  1  0.875519  0.875519  0.875519  1
  Ru  Ru7  1  0.375427  0.375427  0.375427  1
