# generated using pymatgen
data_Y2Ho4Co9(P4Ru3)3
_symmetry_space_group_name_H-M   'P 1'
_cell_length_a   3.83203000
_cell_length_b   10.64724099
_cell_length_c   12.49146639
_cell_angle_alpha   89.73732880
_cell_angle_beta   90.00000000
_cell_angle_gamma   90.00000000
_symmetry_Int_Tables_number   1
_chemical_formula_structural   Y2Ho4Co9(P4Ru3)3
_chemical_formula_sum   'Y2 Ho4 Co9 P12 Ru9'
_cell_volume   509.65330452
_cell_formula_units_Z   1
loop_
 _symmetry_equiv_pos_site_id
 _symmetry_equiv_pos_as_xyz
  1  'x, y, z'
loop_
 _atom_site_type_symbol
 _atom_site_label
 _atom_site_symmetry_multiplicity
 _atom_site_fract_x
 _atom_site_fract_y
 _atom_site_fract_z
 _atom_site_occupancy
  Y  Y0  1  0.000000  0.500653  0.525150  1
  Y  Y1  1  0.500000  0.000676  0.472043  1
  Ho  Ho2  1  0.500000  0.820191  0.200888  1
  Ho  Ho3  1  0.500000  0.180883  0.200907  1
  Ho  Ho4  1  0.000000  0.678463  0.800064  1
  Ho  Ho5  1  0.000000  0.321625  0.799007  1
  Co  Co6  1  0.000000  0.498444  0.985817  1
  Co  Co7  1  0.500000  0.000245  0.016888  1
  Co  Co8  1  0.000000  0.374619  0.279431  1
  Co  Co9  1  0.500000  0.331233  0.989419  1
  Co  Co10  1  0.500000  0.665727  0.991364  1
  Co  Co11  1  0.000000  0.168156  0.012892  1
  Co  Co12  1  0.000000  0.832526  0.011435  1
  Co  Co13  1  0.500000  0.500470  0.703692  1
  Co  Co14  1  0.000000  0.001027  0.296458  1
  P  P15  1  0.500000  0.316132  0.616781  1
  P  P16  1  0.500000  0.686305  0.619083  1
  P  P17  1  0.000000  0.189471  0.377254  1
  P  P18  1  0.000000  0.813360  0.379916  1
  P  P19  1  0.500000  0.499275  0.882151  1
  P  P20  1  0.000000  0.999961  0.119385  1
  P  P21  1  0.500000  0.845118  0.902130  1
  P  P22  1  0.500000  0.154173  0.900586  1
  P  P23  1  0.000000  0.653473  0.099975  1
  P  P24  1  0.000000  0.345454  0.103539  1
  P  P25  1  0.500000  0.499494  0.338025  1
  P  P26  1  0.000000  0.001199  0.662464  1
  Ru  Ru27  1  0.500000  0.300873  0.422040  1
  Ru  Ru28  1  0.500000  0.702912  0.427266  1
  Ru  Ru29  1  0.000000  0.205014  0.568993  1
  Ru  Ru30  1  0.000000  0.798639  0.572316  1
  Ru  Ru31  1  0.500000  0.875572  0.720083  1
  Ru  Ru32  1  0.500000  0.126293  0.717739  1
  Ru  Ru33  1  0.000000  0.618746  0.281385  1
  Ru  Ru34  1  0.500000  0.491756  0.149183  1
  Ru  Ru35  1  0.000000  0.001840  0.854248  1
