# generated using pymatgen
data_Sm9Hf2Pa9Rh16
_symmetry_space_group_name_H-M   'P 1'
_cell_length_a   7.36976203
_cell_length_b   7.45255021
_cell_length_c   14.63030000
_cell_angle_alpha   90.00000000
_cell_angle_beta   90.00000000
_cell_angle_gamma   89.70199549
_symmetry_Int_Tables_number   1
_chemical_formula_structural   Sm9Hf2Pa9Rh16
_chemical_formula_sum   'Sm9 Hf2 Pa9 Rh16'
_cell_volume   803.53672921
_cell_formula_units_Z   1
loop_
 _symmetry_equiv_pos_site_id
 _symmetry_equiv_pos_as_xyz
  1  'x, y, z'
loop_
 _atom_site_type_symbol
 _atom_site_label
 _atom_site_symmetry_multiplicity
 _atom_site_fract_x
 _atom_site_fract_y
 _atom_site_fract_z
 _atom_site_occupancy
  Sm  Sm0  1  0.501350  0.673599  0.590405  1
  Sm  Sm1  1  0.001638  0.826629  0.912099  1
  Sm  Sm2  1  0.497386  0.324662  0.101148  1
  Sm  Sm3  1  0.996854  0.177311  0.399461  1
  Sm  Sm4  1  0.497386  0.324662  0.398852  1
  Sm  Sm5  1  0.996854  0.177311  0.100539  1
  Sm  Sm6  1  0.501350  0.673599  0.909595  1
  Sm  Sm7  1  0.001638  0.826629  0.587901  1
  Sm  Sm8  1  0.308939  0.967187  0.750000  1
  Hf  Hf9  1  0.184875  0.482573  0.250000  1
  Hf  Hf10  1  0.685273  0.019014  0.250000  1
  Pa  Pa11  1  0.653092  0.160967  0.617714  1
  Pa  Pa12  1  0.158496  0.334527  0.881953  1
  Pa  Pa13  1  0.345975  0.839876  0.123298  1
  Pa  Pa14  1  0.843690  0.660319  0.376139  1
  Pa  Pa15  1  0.345975  0.839876  0.376702  1
  Pa  Pa16  1  0.843690  0.660319  0.123861  1
  Pa  Pa17  1  0.653092  0.160967  0.882286  1
  Pa  Pa18  1  0.158496  0.334527  0.618047  1
  Pa  Pa19  1  0.808122  0.531049  0.750000  1
  Rh  Rh20  1  0.679114  0.951108  0.454053  1
  Rh  Rh21  1  0.175929  0.548766  0.047885  1
  Rh  Rh22  1  0.325325  0.054001  0.964344  1
  Rh  Rh23  1  0.826874  0.450629  0.540784  1
  Rh  Rh24  1  0.325325  0.054001  0.535656  1
  Rh  Rh25  1  0.826874  0.450629  0.959216  1
  Rh  Rh26  1  0.679114  0.951108  0.045947  1
  Rh  Rh27  1  0.175929  0.548766  0.452115  1
  Rh  Rh28  1  0.458820  0.362139  0.750000  1
  Rh  Rh29  1  0.938199  0.159955  0.750000  1
  Rh  Rh30  1  0.546248  0.646791  0.250000  1
  Rh  Rh31  1  0.046918  0.854372  0.250000  1
  Rh  Rh32  1  0.703096  0.862311  0.750000  1
  Rh  Rh33  1  0.162258  0.610633  0.750000  1
  Rh  Rh34  1  0.322685  0.124280  0.250000  1
  Rh  Rh35  1  0.823115  0.374914  0.250000  1
