# generated using pymatgen
data_KLiHoF5
_symmetry_space_group_name_H-M   'P 1'
_cell_length_a   11.85030800
_cell_length_b   6.34768769
_cell_length_c   6.52463413
_cell_angle_alpha   66.17432320
_cell_angle_beta   90.00000000
_cell_angle_gamma   90.00000000
_symmetry_Int_Tables_number   1
_chemical_formula_structural   KLiHoF5
_chemical_formula_sum   'K4 Li4 Ho4 F20'
_cell_volume   448.97009104
_cell_formula_units_Z   4
loop_
 _symmetry_equiv_pos_site_id
 _symmetry_equiv_pos_as_xyz
  1  'x, y, z'
loop_
 _atom_site_type_symbol
 _atom_site_label
 _atom_site_symmetry_multiplicity
 _atom_site_fract_x
 _atom_site_fract_y
 _atom_site_fract_z
 _atom_site_occupancy
  K  K0  1  0.848995  0.037480  0.947007  1
  K  K1  1  0.651005  0.537480  0.947007  1
  K  K2  1  0.348995  0.462520  0.052993  1
  K  K3  1  0.151005  0.962520  0.052993  1
  Li  Li4  1  0.745630  0.460855  0.442189  1
  Li  Li5  1  0.754370  0.960855  0.442189  1
  Li  Li6  1  0.254370  0.539145  0.557811  1
  Li  Li7  1  0.245630  0.039145  0.557811  1
  Ho  Ho8  1  0.997422  0.320239  0.317927  1
  Ho  Ho9  1  0.002578  0.679761  0.682073  1
  Ho  Ho10  1  0.502578  0.820239  0.317927  1
  Ho  Ho11  1  0.497422  0.179761  0.682073  1
  F  F12  1  0.673736  0.279412  0.710759  1
  F  F13  1  0.604563  0.965574  0.535097  1
  F  F14  1  0.326264  0.720588  0.289241  1
  F  F15  1  0.007341  0.327648  0.956141  1
  F  F16  1  0.173736  0.220588  0.289241  1
  F  F17  1  0.395437  0.034426  0.464903  1
  F  F18  1  0.895437  0.465574  0.535097  1
  F  F19  1  0.532035  0.452133  0.337153  1
  F  F20  1  0.805425  0.278157  0.278708  1
  F  F21  1  0.305425  0.221843  0.721292  1
  F  F22  1  0.467965  0.547867  0.662847  1
  F  F23  1  0.992659  0.672352  0.043859  1
  F  F24  1  0.194575  0.721843  0.721292  1
  F  F25  1  0.507341  0.172352  0.043859  1
  F  F26  1  0.967965  0.952133  0.337153  1
  F  F27  1  0.694575  0.778157  0.278708  1
  F  F28  1  0.032035  0.047867  0.662847  1
  F  F29  1  0.826264  0.779412  0.710759  1
  F  F30  1  0.104563  0.534426  0.464903  1
  F  F31  1  0.492659  0.827648  0.956141  1
