# generated using pymatgen
data_ErTh7(MnSi3)4
_symmetry_space_group_name_H-M   'P 1'
_cell_length_a   8.21491300
_cell_length_b   8.24723852
_cell_length_c   8.23690300
_cell_angle_alpha   90.00000000
_cell_angle_beta   90.00000000
_cell_angle_gamma   119.87043060
_symmetry_Int_Tables_number   1
_chemical_formula_structural   ErTh7(MnSi3)4
_chemical_formula_sum   'Er1 Th7 Mn4 Si12'
_cell_volume   483.91786331
_cell_formula_units_Z   1
loop_
 _symmetry_equiv_pos_site_id
 _symmetry_equiv_pos_as_xyz
  1  'x, y, z'
loop_
 _atom_site_type_symbol
 _atom_site_label
 _atom_site_symmetry_multiplicity
 _atom_site_fract_x
 _atom_site_fract_y
 _atom_site_fract_z
 _atom_site_occupancy
  Er  Er0  1  0.500681  0.001362  0.750000  1
  Th  Th1  1  0.000021  0.000041  0.250000  1
  Th  Th2  1  0.999969  0.999938  0.750000  1
  Th  Th3  1  0.499482  0.500509  0.250000  1
  Th  Th4  1  0.499524  0.999048  0.250000  1
  Th  Th5  1  0.001028  0.500509  0.250000  1
  Th  Th6  1  0.500613  0.499361  0.750000  1
  Th  Th7  1  0.998748  0.499361  0.750000  1
  Mn  Mn8  1  0.668031  0.336062  0.500938  1
  Mn  Mn9  1  0.668031  0.336062  0.999062  1
  Mn  Mn10  1  0.331950  0.663902  0.993401  1
  Mn  Mn11  1  0.331950  0.663902  0.506599  1
  Si  Si12  1  0.828493  0.167827  0.502238  1
  Si  Si13  1  0.832374  0.664749  0.498726  1
  Si  Si14  1  0.339333  0.167827  0.502238  1
  Si  Si15  1  0.828493  0.167827  0.997762  1
  Si  Si16  1  0.832374  0.664749  0.001274  1
  Si  Si17  1  0.339333  0.167827  0.997762  1
  Si  Si18  1  0.171524  0.832101  0.996814  1
  Si  Si19  1  0.660578  0.832101  0.996814  1
  Si  Si20  1  0.167683  0.335366  0.000356  1
  Si  Si21  1  0.171524  0.832101  0.503186  1
  Si  Si22  1  0.660578  0.832101  0.503186  1
  Si  Si23  1  0.167683  0.335366  0.499644  1
