# generated using pymatgen
data_Pr2NdEr3Ta2O14
_symmetry_space_group_name_H-M   'P 1'
_cell_length_a   6.53240875
_cell_length_b   6.53338022
_cell_length_c   7.64053900
_cell_angle_alpha   90.00000000
_cell_angle_beta   90.00000000
_cell_angle_gamma   109.22089235
_symmetry_Int_Tables_number   1
_chemical_formula_structural   Pr2NdEr3Ta2O14
_chemical_formula_sum   'Pr2 Nd1 Er3 Ta2 O14'
_cell_volume   307.91100738
_cell_formula_units_Z   1
loop_
 _symmetry_equiv_pos_site_id
 _symmetry_equiv_pos_as_xyz
  1  'x, y, z'
loop_
 _atom_site_type_symbol
 _atom_site_label
 _atom_site_symmetry_multiplicity
 _atom_site_fract_x
 _atom_site_fract_y
 _atom_site_fract_z
 _atom_site_occupancy
  Pr  Pr0  1  0.507039  0.507271  0.502227  1
  Pr  Pr1  1  0.507039  0.507271  0.997773  1
  Nd  Nd2  1  0.465885  0.001903  0.250000  1
  Er  Er3  1  0.002499  0.531020  0.250000  1
  Er  Er4  1  0.999103  0.466593  0.750000  1
  Er  Er5  1  0.533365  0.001009  0.750000  1
  Ta  Ta6  1  0.000959  0.000585  0.502552  1
  Ta  Ta7  1  0.000959  0.000585  0.997448  1
  O  O8  1  0.938951  0.070953  0.750000  1
  O  O9  1  0.056898  0.936959  0.250000  1
  O  O10  1  0.354465  0.633342  0.250000  1
  O  O11  1  0.647445  0.354864  0.750000  1
  O  O12  1  0.359823  0.637170  0.750000  1
  O  O13  1  0.646081  0.376681  0.250000  1
  O  O14  1  0.316524  0.069646  0.960858  1
  O  O15  1  0.676608  0.921585  0.479706  1
  O  O16  1  0.316524  0.069646  0.539142  1
  O  O17  1  0.676608  0.921585  0.020294  1
  O  O18  1  0.059185  0.314778  0.464160  1
  O  O19  1  0.937426  0.680888  0.966466  1
  O  O20  1  0.937426  0.680888  0.533534  1
  O  O21  1  0.059185  0.314778  0.035840  1
