# generated using pymatgen
data_NdLu2Mg3Sn2Au
_symmetry_space_group_name_H-M   'P 1'
_cell_length_a   7.55948951
_cell_length_b   7.55948962
_cell_length_c   4.44620300
_cell_angle_alpha   90.00000000
_cell_angle_beta   90.00000000
_cell_angle_gamma   120.56074556
_symmetry_Int_Tables_number   1
_chemical_formula_structural   NdLu2Mg3Sn2Au
_chemical_formula_sum   'Nd1 Lu2 Mg3 Sn2 Au1'
_cell_volume   218.78778372
_cell_formula_units_Z   1
loop_
 _symmetry_equiv_pos_site_id
 _symmetry_equiv_pos_as_xyz
  1  'x, y, z'
loop_
 _atom_site_type_symbol
 _atom_site_label
 _atom_site_symmetry_multiplicity
 _atom_site_fract_x
 _atom_site_fract_y
 _atom_site_fract_z
 _atom_site_occupancy
  Nd  Nd0  1  0.409273  0.409273  0.000000  1
  Lu  Lu1  1  0.596493  0.001947  0.000000  1
  Lu  Lu2  1  0.001947  0.596493  0.000000  1
  Mg  Mg3  1  0.235918  0.998628  0.500000  1
  Mg  Mg4  1  0.998628  0.235918  0.500000  1
  Mg  Mg5  1  0.763381  0.763381  0.500000  1
  Sn  Sn6  1  0.330068  0.672163  0.500000  1
  Sn  Sn7  1  0.672163  0.330068  0.500000  1
  Au  Au8  1  0.992129  0.992129  0.000000  1
