# generated using pymatgen
data_Y5Ho3Tc3B24Ru
_symmetry_space_group_name_H-M   'P 1'
_cell_length_a   3.67783600
_cell_length_b   9.15402843
_cell_length_c   11.54340105
_cell_angle_alpha   89.92737572
_cell_angle_beta   90.00000000
_cell_angle_gamma   90.00000000
_symmetry_Int_Tables_number   1
_chemical_formula_structural   Y5Ho3Tc3B24Ru
_chemical_formula_sum   'Y5 Ho3 Tc3 B24 Ru1'
_cell_volume   388.63154749
_cell_formula_units_Z   1
loop_
 _symmetry_equiv_pos_site_id
 _symmetry_equiv_pos_as_xyz
  1  'x, y, z'
loop_
 _atom_site_type_symbol
 _atom_site_label
 _atom_site_symmetry_multiplicity
 _atom_site_fract_x
 _atom_site_fract_y
 _atom_site_fract_z
 _atom_site_occupancy
  Y  Y0  1  0.000000  0.323661  0.413955  1
  Y  Y1  1  0.000000  0.675102  0.584159  1
  Y  Y2  1  0.000000  0.822982  0.087207  1
  Y  Y3  1  0.000000  0.178010  0.914513  1
  Y  Y4  1  0.000000  0.942751  0.370479  1
  Ho  Ho5  1  0.000000  0.057769  0.630867  1
  Ho  Ho6  1  0.000000  0.443036  0.130020  1
  Ho  Ho7  1  0.000000  0.557789  0.869134  1
  Tc  Tc8  1  0.000000  0.638127  0.320331  1
  Tc  Tc9  1  0.000000  0.361536  0.680113  1
  Tc  Tc10  1  0.000000  0.138399  0.178215  1
  B  B11  1  0.500000  0.553114  0.432652  1
  B  B12  1  0.500000  0.446520  0.566967  1
  B  B13  1  0.500000  0.053218  0.066982  1
  B  B14  1  0.500000  0.945955  0.932611  1
  B  B15  1  0.500000  0.748238  0.418644  1
  B  B16  1  0.500000  0.250736  0.581601  1
  B  B17  1  0.500000  0.249275  0.081380  1
  B  B18  1  0.500000  0.751451  0.918268  1
  B  B19  1  0.500000  0.791473  0.265554  1
  B  B20  1  0.500000  0.208479  0.734972  1
  B  B21  1  0.500000  0.291799  0.234367  1
  B  B22  1  0.500000  0.709300  0.765455  1
  B  B23  1  0.500000  0.630965  0.185607  1
  B  B24  1  0.500000  0.369142  0.814821  1
  B  B25  1  0.500000  0.130801  0.313888  1
  B  B26  1  0.500000  0.868893  0.685909  1
  B  B27  1  0.500000  0.982147  0.211702  1
  B  B28  1  0.500000  0.016441  0.788212  1
  B  B29  1  0.500000  0.482381  0.287735  1
  B  B30  1  0.500000  0.517449  0.711822  1
  B  B31  1  0.500000  0.602147  0.028051  1
  B  B32  1  0.500000  0.399500  0.971580  1
  B  B33  1  0.500000  0.101869  0.472294  1
  B  B34  1  0.500000  0.898068  0.529105  1
  Ru  Ru35  1  0.000000  0.861478  0.820825  1
