# generated using pymatgen
data_ThCd2Ir9
_symmetry_space_group_name_H-M   'P 1'
_cell_length_a   8.94934200
_cell_length_b   8.94934200
_cell_length_c   5.15388300
_cell_angle_alpha   90.00000000
_cell_angle_beta   90.00000000
_cell_angle_gamma   90.00000000
_symmetry_Int_Tables_number   1
_chemical_formula_structural   ThCd2Ir9
_chemical_formula_sum   'Th2 Cd4 Ir18'
_cell_volume   412.77821177
_cell_formula_units_Z   2
loop_
 _symmetry_equiv_pos_site_id
 _symmetry_equiv_pos_as_xyz
  1  'x, y, z'
loop_
 _atom_site_type_symbol
 _atom_site_label
 _atom_site_symmetry_multiplicity
 _atom_site_fract_x
 _atom_site_fract_y
 _atom_site_fract_z
 _atom_site_occupancy
  Th  Th0  1  0.500000  0.500000  0.000000  1
  Th  Th1  1  0.000000  0.000000  0.000000  1
  Cd  Cd2  1  0.116613  0.616613  0.000000  1
  Cd  Cd3  1  0.883387  0.383387  0.000000  1
  Cd  Cd4  1  0.383387  0.116613  0.000000  1
  Cd  Cd5  1  0.616613  0.883387  0.000000  1
  Ir  Ir6  1  0.318010  0.818010  0.757912  1
  Ir  Ir7  1  0.681990  0.181990  0.757912  1
  Ir  Ir8  1  0.181990  0.318010  0.757912  1
  Ir  Ir9  1  0.818010  0.681990  0.757912  1
  Ir  Ir10  1  0.681990  0.181990  0.242088  1
  Ir  Ir11  1  0.318010  0.818010  0.242088  1
  Ir  Ir12  1  0.818010  0.681990  0.242088  1
  Ir  Ir13  1  0.181990  0.318010  0.242088  1
  Ir  Ir14  1  0.555838  0.703146  0.500000  1
  Ir  Ir15  1  0.444162  0.296854  0.500000  1
  Ir  Ir16  1  0.944162  0.203146  0.500000  1
  Ir  Ir17  1  0.055838  0.796854  0.500000  1
  Ir  Ir18  1  0.703146  0.444162  0.500000  1
  Ir  Ir19  1  0.296854  0.555838  0.500000  1
  Ir  Ir20  1  0.203146  0.055838  0.500000  1
  Ir  Ir21  1  0.796854  0.944162  0.500000  1
  Ir  Ir22  1  0.000000  0.500000  0.500000  1
  Ir  Ir23  1  0.500000  0.000000  0.500000  1
