# generated using pymatgen
data_Er2Sc3Si10P2Ir19
_symmetry_space_group_name_H-M   'P 1'
_cell_length_a   12.77677026
_cell_length_b   12.77677185
_cell_length_c   3.92678800
_cell_angle_alpha   90.00000000
_cell_angle_beta   90.00000000
_cell_angle_gamma   120.20937564
_symmetry_Int_Tables_number   1
_chemical_formula_structural   Er2Sc3Si10P2Ir19
_chemical_formula_sum   'Er2 Sc3 Si10 P2 Ir19'
_cell_volume   553.97499577
_cell_formula_units_Z   1
loop_
 _symmetry_equiv_pos_site_id
 _symmetry_equiv_pos_as_xyz
  1  'x, y, z'
loop_
 _atom_site_type_symbol
 _atom_site_label
 _atom_site_symmetry_multiplicity
 _atom_site_fract_x
 _atom_site_fract_y
 _atom_site_fract_z
 _atom_site_occupancy
  Er  Er0  1  0.666385  0.333673  0.000000  1
  Er  Er1  1  0.333673  0.666385  0.000000  1
  Sc  Sc2  1  0.810981  0.810981  0.500000  1
  Sc  Sc3  1  0.187734  0.002043  0.500000  1
  Sc  Sc4  1  0.002043  0.187734  0.500000  1
  Si  Si5  1  0.686195  0.166443  0.500000  1
  Si  Si6  1  0.833212  0.519732  0.500000  1
  Si  Si7  1  0.479747  0.312658  0.500000  1
  Si  Si8  1  0.166443  0.686195  0.500000  1
  Si  Si9  1  0.519732  0.833212  0.500000  1
  Si  Si10  1  0.312658  0.479747  0.500000  1
  Si  Si11  1  0.634735  0.634735  0.000000  1
  Si  Si12  1  0.365857  0.000298  0.000000  1
  Si  Si13  1  0.000298  0.365857  0.000000  1
  Si  Si14  1  0.174790  0.174790  0.000000  1
  P  P15  1  0.823640  0.001741  0.000000  1
  P  P16  1  0.001741  0.823640  0.000000  1
  Ir  Ir17  1  0.809509  0.180220  0.000000  1
  Ir  Ir18  1  0.820792  0.630493  0.000000  1
  Ir  Ir19  1  0.372365  0.191042  0.000000  1
  Ir  Ir20  1  0.180220  0.809509  0.000000  1
  Ir  Ir21  1  0.630493  0.820792  0.000000  1
  Ir  Ir22  1  0.191042  0.372365  0.000000  1
  Ir  Ir23  1  0.447168  0.447168  0.000000  1
  Ir  Ir24  1  0.553031  0.999119  0.000000  1
  Ir  Ir25  1  0.999119  0.553031  0.000000  1
  Ir  Ir26  1  0.277723  0.277723  0.500000  1
  Ir  Ir27  1  0.724788  0.000479  0.500000  1
  Ir  Ir28  1  0.000479  0.724788  0.500000  1
  Ir  Ir29  1  0.871758  0.359319  0.500000  1
  Ir  Ir30  1  0.640826  0.513155  0.500000  1
  Ir  Ir31  1  0.487020  0.126492  0.500000  1
  Ir  Ir32  1  0.359319  0.871758  0.500000  1
  Ir  Ir33  1  0.513155  0.640826  0.500000  1
  Ir  Ir34  1  0.126492  0.487020  0.500000  1
  Ir  Ir35  1  0.994835  0.994835  0.000000  1
