# generated using pymatgen
data_TbY2In3CuPd2
_symmetry_space_group_name_H-M   'P 1'
_cell_length_a   7.64365510
_cell_length_b   7.64365579
_cell_length_c   3.90088700
_cell_angle_alpha   90.00000000
_cell_angle_beta   90.00000000
_cell_angle_gamma   119.71223688
_symmetry_Int_Tables_number   1
_chemical_formula_structural   TbY2In3CuPd2
_chemical_formula_sum   'Tb1 Y2 In3 Cu1 Pd2'
_cell_volume   197.94668669
_cell_formula_units_Z   1
loop_
 _symmetry_equiv_pos_site_id
 _symmetry_equiv_pos_as_xyz
  1  'x, y, z'
loop_
 _atom_site_type_symbol
 _atom_site_label
 _atom_site_symmetry_multiplicity
 _atom_site_fract_x
 _atom_site_fract_y
 _atom_site_fract_z
 _atom_site_occupancy
  Tb  Tb0  1  0.408732  0.408732  0.500000  1
  Y  Y1  1  0.591839  0.000049  0.500000  1
  Y  Y2  1  0.000049  0.591839  0.500000  1
  In  In3  1  0.749387  0.749387  0.000000  1
  In  In4  1  0.250844  0.999839  0.000000  1
  In  In5  1  0.999839  0.250844  0.000000  1
  Cu  Cu6  1  0.000073  0.000073  0.500000  1
  Pd  Pd7  1  0.665669  0.333568  0.000000  1
  Pd  Pd8  1  0.333568  0.665669  0.000000  1
