# generated using pymatgen
data_Th(AsPd2)2
_symmetry_space_group_name_H-M   'P 1'
_cell_length_a   7.79100900
_cell_length_b   7.79100900
_cell_length_c   4.13457500
_cell_angle_alpha   90.00000000
_cell_angle_beta   90.00000000
_cell_angle_gamma   90.00000000
_symmetry_Int_Tables_number   1
_chemical_formula_structural   Th(AsPd2)2
_chemical_formula_sum   'Th2 As4 Pd8'
_cell_volume   250.96796340
_cell_formula_units_Z   2
loop_
 _symmetry_equiv_pos_site_id
 _symmetry_equiv_pos_as_xyz
  1  'x, y, z'
loop_
 _atom_site_type_symbol
 _atom_site_label
 _atom_site_symmetry_multiplicity
 _atom_site_fract_x
 _atom_site_fract_y
 _atom_site_fract_z
 _atom_site_occupancy
  Th  Th0  1  0.500000  0.500000  0.000000  1
  Th  Th1  1  0.000000  0.000000  0.500000  1
  As  As2  1  0.782369  0.217631  0.000000  1
  As  As3  1  0.217631  0.782369  0.000000  1
  As  As4  1  0.282370  0.282370  0.500000  1
  As  As5  1  0.717630  0.717630  0.500000  1
  Pd  Pd6  1  0.340293  0.090564  0.000000  1
  Pd  Pd7  1  0.090564  0.340293  0.000000  1
  Pd  Pd8  1  0.909436  0.659708  0.000000  1
  Pd  Pd9  1  0.659708  0.909436  0.000000  1
  Pd  Pd10  1  0.590564  0.159708  0.500000  1
  Pd  Pd11  1  0.840292  0.409437  0.500000  1
  Pd  Pd12  1  0.159708  0.590564  0.500000  1
  Pd  Pd13  1  0.409437  0.840292  0.500000  1
