# generated using pymatgen
data_Pr2Sm9In9Rh4
_symmetry_space_group_name_H-M   'P 1'
_cell_length_a   13.35305896
_cell_length_b   13.35302130
_cell_length_c   3.79807100
_cell_angle_alpha   90.00000000
_cell_angle_beta   90.00000000
_cell_angle_gamma   112.37677186
_symmetry_Int_Tables_number   1
_chemical_formula_structural   Pr2Sm9In9Rh4
_chemical_formula_sum   'Pr2 Sm9 In9 Rh4'
_cell_volume   626.21642520
_cell_formula_units_Z   1
loop_
 _symmetry_equiv_pos_site_id
 _symmetry_equiv_pos_as_xyz
  1  'x, y, z'
loop_
 _atom_site_type_symbol
 _atom_site_label
 _atom_site_symmetry_multiplicity
 _atom_site_fract_x
 _atom_site_fract_y
 _atom_site_fract_z
 _atom_site_occupancy
  Pr  Pr0  1  0.341146  0.658862  0.500000  1
  Pr  Pr1  1  0.658854  0.341138  0.500000  1
  Sm  Sm2  1  0.500000  0.500000  0.500000  1
  Sm  Sm3  1  0.814067  0.814071  0.500000  1
  Sm  Sm4  1  0.185933  0.185929  0.500000  1
  Sm  Sm5  1  0.580188  0.919334  0.500000  1
  Sm  Sm6  1  0.419812  0.080666  0.500000  1
  Sm  Sm7  1  0.919332  0.580204  0.500000  1
  Sm  Sm8  1  0.080668  0.419796  0.500000  1
  Sm  Sm9  1  0.126182  0.873846  0.500000  1
  Sm  Sm10  1  0.873818  0.126154  0.500000  1
  In  In11  1  0.339007  0.867272  0.000000  1
  In  In12  1  0.660993  0.132728  0.000000  1
  In  In13  1  0.867275  0.339011  0.000000  1
  In  In14  1  0.132725  0.660989  0.000000  1
  In  In15  1  0.579876  0.720641  0.000000  1
  In  In16  1  0.420124  0.279359  0.000000  1
  In  In17  1  0.720627  0.579857  0.000000  1
  In  In18  1  0.279373  0.420143  0.000000  1
  In  In19  1  0.000000  0.000000  0.000000  1
  Rh  Rh20  1  0.748255  0.954339  0.000000  1
  Rh  Rh21  1  0.251745  0.045661  0.000000  1
  Rh  Rh22  1  0.954350  0.748313  0.000000  1
  Rh  Rh23  1  0.045650  0.251687  0.000000  1
