# generated using pymatgen
data_Pr6Nd4CdSi5
_symmetry_space_group_name_H-M   'P 1'
_cell_length_a   7.83776638
_cell_length_b   7.84308867
_cell_length_c   9.16874500
_cell_angle_alpha   115.27808322
_cell_angle_beta   115.25966596
_cell_angle_gamma   90.09329704
_symmetry_Int_Tables_number   1
_chemical_formula_structural   Pr6Nd4CdSi5
_chemical_formula_sum   'Pr6 Nd4 Cd1 Si5'
_cell_volume   449.12493577
_cell_formula_units_Z   1
loop_
 _symmetry_equiv_pos_site_id
 _symmetry_equiv_pos_as_xyz
  1  'x, y, z'
loop_
 _atom_site_type_symbol
 _atom_site_label
 _atom_site_symmetry_multiplicity
 _atom_site_fract_x
 _atom_site_fract_y
 _atom_site_fract_z
 _atom_site_occupancy
  Pr  Pr0  1  0.829960  0.306440  0.282277  1
  Pr  Pr1  1  0.452317  0.975837  0.282277  1
  Pr  Pr2  1  0.048507  0.195743  0.717913  1
  Pr  Pr3  1  0.669406  0.522169  0.717913  1
  Pr  Pr4  1  0.195128  0.670116  0.718174  1
  Pr  Pr5  1  0.523045  0.048058  0.718174  1
  Nd  Nd6  1  0.522628  0.522628  0.045255  1
  Nd  Nd7  1  0.979942  0.979942  0.959883  1
  Nd  Nd8  1  0.976613  0.827663  0.279794  1
  Nd  Nd9  1  0.303181  0.452131  0.279794  1
  Cd  Cd10  1  0.750769  0.750769  0.501536  1
  Si  Si11  1  0.246608  0.246608  0.493215  1
  Si  Si12  1  0.615963  0.885403  0.001265  1
  Si  Si13  1  0.385302  0.115861  0.001265  1
  Si  Si14  1  0.885921  0.385835  0.000632  1
  Si  Si15  1  0.114712  0.614798  0.000632  1
