# generated using pymatgen
data_Tb2Gd2Lu(SiB4)2
_symmetry_space_group_name_H-M   'P 1'
_cell_length_a   7.23736705
_cell_length_b   7.23714408
_cell_length_c   8.10113703
_cell_angle_alpha   89.98980293
_cell_angle_beta   89.99801260
_cell_angle_gamma   89.98691347
_symmetry_Int_Tables_number   1
_chemical_formula_structural   Tb2Gd2Lu(SiB4)2
_chemical_formula_sum   'Tb4 Gd4 Lu2 Si4 B16'
_cell_volume   424.32026861
_cell_formula_units_Z   2
loop_
 _symmetry_equiv_pos_site_id
 _symmetry_equiv_pos_as_xyz
  1  'x, y, z'
loop_
 _atom_site_type_symbol
 _atom_site_label
 _atom_site_symmetry_multiplicity
 _atom_site_fract_x
 _atom_site_fract_y
 _atom_site_fract_z
 _atom_site_occupancy
  Tb  Tb0  1  0.819620  0.680306  0.774794  1
  Tb  Tb1  1  0.680409  0.180374  0.774421  1
  Tb  Tb2  1  0.180278  0.319617  0.774626  1
  Tb  Tb3  1  0.180296  0.319645  0.224973  1
  Gd  Gd4  1  0.680588  0.180464  0.226819  1
  Gd  Gd5  1  0.319566  0.819634  0.773208  1
  Gd  Gd6  1  0.319582  0.819677  0.226730  1
  Gd  Gd7  1  0.819704  0.680290  0.226586  1
  Lu  Lu8  1  0.000026  0.999912  0.500213  1
  Lu  Lu9  1  0.499773  0.500051  0.500222  1
  Si  Si10  1  0.115726  0.614881  0.500775  1
  Si  Si11  1  0.884314  0.383588  0.500675  1
  Si  Si12  1  0.384063  0.116592  0.500673  1
  Si  Si13  1  0.615936  0.884823  0.500594  1
  B  B14  1  0.172482  0.039286  0.999523  1
  B  B15  1  0.827467  0.960924  0.999860  1
  B  B16  1  0.960699  0.172566  0.999672  1
  B  B17  1  0.327530  0.539133  0.999532  1
  B  B18  1  0.039197  0.827592  0.999708  1
  B  B19  1  0.672506  0.460656  0.999860  1
  B  B20  1  0.539173  0.672409  0.999692  1
  B  B21  1  0.460804  0.327448  0.999694  1
  B  B22  1  0.089894  0.589767  0.999651  1
  B  B23  1  0.910129  0.410022  0.999723  1
  B  B24  1  0.410063  0.090034  0.999616  1
  B  B25  1  0.589933  0.910205  0.999703  1
  B  B26  1  0.000110  0.000138  0.161436  1
  B  B27  1  0.999954  0.999999  0.837789  1
  B  B28  1  0.500179  0.499994  0.837790  1
  B  B29  1  0.500001  0.499973  0.161443  1
