# generated using pymatgen
data_Ta4FeGe(B2Ru5)2
_symmetry_space_group_name_H-M   'P 1'
_cell_length_a   9.30128200
_cell_length_b   9.30128200
_cell_length_c   2.99846800
_cell_angle_alpha   90.00000000
_cell_angle_beta   90.00000000
_cell_angle_gamma   90.00000000
_symmetry_Int_Tables_number   1
_chemical_formula_structural   Ta4FeGe(B2Ru5)2
_chemical_formula_sum   'Ta4 Fe1 Ge1 B4 Ru10'
_cell_volume   259.40900132
_cell_formula_units_Z   1
loop_
 _symmetry_equiv_pos_site_id
 _symmetry_equiv_pos_as_xyz
  1  'x, y, z'
loop_
 _atom_site_type_symbol
 _atom_site_label
 _atom_site_symmetry_multiplicity
 _atom_site_fract_x
 _atom_site_fract_y
 _atom_site_fract_z
 _atom_site_occupancy
  Ta  Ta0  1  0.824477  0.677876  0.000000  1
  Ta  Ta1  1  0.175523  0.322124  0.000000  1
  Ta  Ta2  1  0.322124  0.824477  0.000000  1
  Ta  Ta3  1  0.677876  0.175523  0.000000  1
  Fe  Fe4  1  0.000000  0.000000  0.000000  1
  Ge  Ge5  1  0.500000  0.500000  0.000000  1
  B  B6  1  0.624825  0.875406  0.000000  1
  B  B7  1  0.375175  0.124594  0.000000  1
  B  B8  1  0.124594  0.624825  0.000000  1
  B  B9  1  0.875406  0.375175  0.000000  1
  Ru  Ru10  1  0.569763  0.713998  0.500000  1
  Ru  Ru11  1  0.430237  0.286002  0.500000  1
  Ru  Ru12  1  0.069541  0.785554  0.500000  1
  Ru  Ru13  1  0.930459  0.214446  0.500000  1
  Ru  Ru14  1  0.286002  0.569763  0.500000  1
  Ru  Ru15  1  0.713998  0.430237  0.500000  1
  Ru  Ru16  1  0.214446  0.069541  0.500000  1
  Ru  Ru17  1  0.785554  0.930459  0.500000  1
  Ru  Ru18  1  0.500000  0.000000  0.500000  1
  Ru  Ru19  1  0.000000  0.500000  0.500000  1
