# generated using pymatgen
data_Ti8V11Si16Rh
_symmetry_space_group_name_H-M   'P 1'
_cell_length_a   6.48331667
_cell_length_b   6.49383633
_cell_length_c   11.96250187
_cell_angle_alpha   89.76823851
_cell_angle_beta   90.13648757
_cell_angle_gamma   90.01288964
_symmetry_Int_Tables_number   1
_chemical_formula_structural   Ti8V11Si16Rh
_chemical_formula_sum   'Ti8 V11 Si16 Rh1'
_cell_volume   503.63487599
_cell_formula_units_Z   1
loop_
 _symmetry_equiv_pos_site_id
 _symmetry_equiv_pos_as_xyz
  1  'x, y, z'
loop_
 _atom_site_type_symbol
 _atom_site_label
 _atom_site_symmetry_multiplicity
 _atom_site_fract_x
 _atom_site_fract_y
 _atom_site_fract_z
 _atom_site_occupancy
  Ti  Ti0  1  0.002246  0.336447  0.220445  1
  Ti  Ti1  1  0.165471  0.513465  0.466486  1
  Ti  Ti2  1  0.834693  0.495749  0.970524  1
  Ti  Ti3  1  0.510216  0.161196  0.530467  1
  Ti  Ti4  1  0.494546  0.836244  0.028863  1
  Ti  Ti5  1  0.993267  0.664617  0.723189  1
  Ti  Ti6  1  0.348185  0.003832  0.782692  1
  Ti  Ti7  1  0.660488  0.993274  0.279281  1
  V  V8  1  0.336178  0.492815  0.872765  1
  V  V9  1  0.655960  0.501861  0.373159  1
  V  V10  1  0.491586  0.343498  0.127636  1
  V  V11  1  0.506902  0.660530  0.628016  1
  V  V12  1  0.004370  0.842840  0.122830  1
  V  V13  1  0.154063  0.991400  0.375501  1
  V  V14  1  0.836521  0.003624  0.883035  1
  V  V15  1  0.162993  0.165619  0.999560  1
  V  V16  1  0.332396  0.664933  0.251224  1
  V  V17  1  0.664369  0.332379  0.751494  1
  V  V18  1  0.832682  0.827425  0.498667  1
  Si  Si19  1  0.033147  0.292485  0.812532  1
  Si  Si20  1  0.199050  0.538562  0.064824  1
  Si  Si21  1  0.798654  0.462518  0.564841  1
  Si  Si22  1  0.535964  0.204234  0.937029  1
  Si  Si23  1  0.461405  0.798368  0.435845  1
  Si  Si24  1  0.958648  0.700307  0.313379  1
  Si  Si25  1  0.297095  0.038502  0.185079  1
  Si  Si26  1  0.717794  0.967246  0.685842  1
  Si  Si27  1  0.300666  0.371210  0.676542  1
  Si  Si28  1  0.129407  0.792980  0.923640  1
  Si  Si29  1  0.868256  0.203844  0.421454  1
  Si  Si30  1  0.789947  0.131521  0.077645  1
  Si  Si31  1  0.204784  0.866947  0.575825  1
  Si  Si32  1  0.704740  0.630503  0.173976  1
  Si  Si33  1  0.367218  0.289446  0.326397  1
  Si  Si34  1  0.627648  0.706852  0.826078  1
  Rh  Rh35  1  0.018445  0.172727  0.613240  1
