# generated using pymatgen
data_CeHo(ReN3)2
_symmetry_space_group_name_H-M   'P 1'
_cell_length_a   5.44128800
_cell_length_b   5.63499100
_cell_length_c   7.73461100
_cell_angle_alpha   90.00000000
_cell_angle_beta   90.00000000
_cell_angle_gamma   90.00000000
_symmetry_Int_Tables_number   1
_chemical_formula_structural   CeHo(ReN3)2
_chemical_formula_sum   'Ce2 Ho2 Re4 N12'
_cell_volume   237.15561754
_cell_formula_units_Z   2
loop_
 _symmetry_equiv_pos_site_id
 _symmetry_equiv_pos_as_xyz
  1  'x, y, z'
loop_
 _atom_site_type_symbol
 _atom_site_label
 _atom_site_symmetry_multiplicity
 _atom_site_fract_x
 _atom_site_fract_y
 _atom_site_fract_z
 _atom_site_occupancy
  Ce  Ce0  1  0.478376  0.451347  0.250000  1
  Ce  Ce1  1  0.021624  0.951347  0.250000  1
  Ho  Ho2  1  0.500066  0.563922  0.750000  1
  Ho  Ho3  1  0.999934  0.063922  0.750000  1
  Re  Re4  1  0.509263  0.003872  0.503060  1
  Re  Re5  1  0.990737  0.503872  0.996940  1
  Re  Re6  1  0.990737  0.503872  0.503060  1
  Re  Re7  1  0.509263  0.003872  0.996940  1
  N  N8  1  0.700646  0.294170  0.543447  1
  N  N9  1  0.301385  0.698871  0.043144  1
  N  N10  1  0.198615  0.198871  0.043144  1
  N  N11  1  0.414618  0.977784  0.750000  1
  N  N12  1  0.927700  0.513121  0.250000  1
  N  N13  1  0.301385  0.698871  0.456856  1
  N  N14  1  0.799354  0.794170  0.956553  1
  N  N15  1  0.700646  0.294170  0.956553  1
  N  N16  1  0.799354  0.794170  0.543447  1
  N  N17  1  0.085382  0.477784  0.750000  1
  N  N18  1  0.198615  0.198871  0.456856  1
  N  N19  1  0.572300  0.013121  0.250000  1
