# generated using pymatgen
data_Tb7Tm7(Lu3Pb8)2
_symmetry_space_group_name_H-M   'P 1'
_cell_length_a   8.13187742
_cell_length_b   8.21956343
_cell_length_c   15.48626958
_cell_angle_alpha   89.97808540
_cell_angle_beta   90.13337031
_cell_angle_gamma   89.75955186
_symmetry_Int_Tables_number   1
_chemical_formula_structural   Tb7Tm7(Lu3Pb8)2
_chemical_formula_sum   'Tb7 Tm7 Lu6 Pb16'
_cell_volume   1035.09772903
_cell_formula_units_Z   1
loop_
 _symmetry_equiv_pos_site_id
 _symmetry_equiv_pos_as_xyz
  1  'x, y, z'
loop_
 _atom_site_type_symbol
 _atom_site_label
 _atom_site_symmetry_multiplicity
 _atom_site_fract_x
 _atom_site_fract_y
 _atom_site_fract_z
 _atom_site_occupancy
  Tb  Tb0  1  0.033498  0.178099  0.598626  1
  Tb  Tb1  1  0.466421  0.677268  0.402015  1
  Tb  Tb2  1  0.965659  0.822365  0.098125  1
  Tb  Tb3  1  0.466769  0.677410  0.097530  1
  Tb  Tb4  1  0.967814  0.821842  0.402876  1
  Tb  Tb5  1  0.532509  0.323767  0.598308  1
  Tb  Tb6  1  0.033345  0.177031  0.901385  1
  Tm  Tm7  1  0.627777  0.157424  0.377912  1
  Tm  Tm8  1  0.127314  0.342708  0.121223  1
  Tm  Tm9  1  0.625695  0.157982  0.121957  1
  Tm  Tm10  1  0.127838  0.342373  0.377861  1
  Tm  Tm11  1  0.373309  0.843216  0.623133  1
  Tm  Tm12  1  0.873529  0.656303  0.878142  1
  Tm  Tm13  1  0.536924  0.323969  0.900511  1
  Lu  Lu14  1  0.372066  0.843146  0.876581  1
  Lu  Lu15  1  0.870588  0.656480  0.622922  1
  Lu  Lu16  1  0.204941  0.505365  0.750368  1
  Lu  Lu17  1  0.704620  0.994505  0.750538  1
  Lu  Lu18  1  0.795011  0.494393  0.249917  1
  Lu  Lu19  1  0.294952  0.005457  0.249726  1
  Pb  Pb20  1  0.285905  0.034626  0.042770  1
  Pb  Pb21  1  0.786462  0.463115  0.457262  1
  Pb  Pb22  1  0.714243  0.963145  0.543937  1
  Pb  Pb23  1  0.217994  0.535366  0.955956  1
  Pb  Pb24  1  0.711692  0.963747  0.956284  1
  Pb  Pb25  1  0.211574  0.539152  0.543653  1
  Pb  Pb26  1  0.287089  0.036596  0.456972  1
  Pb  Pb27  1  0.784693  0.461988  0.042444  1
  Pb  Pb28  1  0.567341  0.625893  0.750406  1
  Pb  Pb29  1  0.066113  0.873111  0.749717  1
  Pb  Pb30  1  0.432705  0.374225  0.249879  1
  Pb  Pb31  1  0.932661  0.125973  0.249666  1
  Pb  Pb32  1  0.346319  0.157162  0.750994  1
  Pb  Pb33  1  0.844560  0.344299  0.750234  1
  Pb  Pb34  1  0.654920  0.844543  0.250174  1
  Pb  Pb35  1  0.155145  0.655958  0.249993  1
