# generated using pymatgen
data_Er16In6TcHg
_symmetry_space_group_name_H-M   'P 1'
_cell_length_a   10.47918000
_cell_length_b   10.47909609
_cell_length_c   6.92308600
_cell_angle_alpha   89.99999849
_cell_angle_beta   90.00214769
_cell_angle_gamma   119.99973121
_symmetry_Int_Tables_number   1
_chemical_formula_structural   Er16In6TcHg
_chemical_formula_sum   'Er16 In6 Tc1 Hg1'
_cell_volume   658.38913774
_cell_formula_units_Z   1
loop_
 _symmetry_equiv_pos_site_id
 _symmetry_equiv_pos_as_xyz
  1  'x, y, z'
loop_
 _atom_site_type_symbol
 _atom_site_label
 _atom_site_symmetry_multiplicity
 _atom_site_fract_x
 _atom_site_fract_y
 _atom_site_fract_z
 _atom_site_occupancy
  Er  Er0  1  0.520205  0.040399  0.801287  1
  Er  Er1  1  0.959608  0.479805  0.801267  1
  Er  Er2  1  0.520205  0.479806  0.801287  1
  Er  Er3  1  0.467569  0.935145  0.295374  1
  Er  Er4  1  0.064870  0.532434  0.295396  1
  Er  Er5  1  0.467569  0.532425  0.295374  1
  Er  Er6  1  0.829412  0.658889  0.503623  1
  Er  Er7  1  0.341152  0.170576  0.503599  1
  Er  Er8  1  0.829412  0.170524  0.503623  1
  Er  Er9  1  0.175566  0.351137  0.005097  1
  Er  Er10  1  0.648865  0.824433  0.005129  1
  Er  Er11  1  0.175566  0.824428  0.005097  1
  Er  Er12  1  0.666694  0.333346  0.142312  1
  Er  Er13  1  0.333326  0.666663  0.665900  1
  Er  Er14  1  0.000004  0.000002  0.775959  1
  Er  Er15  1  0.000019  0.000009  0.278527  1
  In  In16  1  0.835664  0.671408  0.035788  1
  In  In17  1  0.328657  0.164329  0.035696  1
  In  In18  1  0.835664  0.164256  0.035788  1
  In  In19  1  0.163170  0.326318  0.537087  1
  In  In20  1  0.673615  0.836807  0.537126  1
  In  In21  1  0.163170  0.836851  0.537087  1
  Tc  Tc22  1  0.333349  0.666675  0.065035  1
  Hg  Hg23  1  0.666670  0.333334  0.573450  1
