# generated using pymatgen
data_NdTmMn6P7Ir6
_symmetry_space_group_name_H-M   'P 1'
_cell_length_a   9.41793300
_cell_length_b   9.41793305
_cell_length_c   3.86522800
_cell_angle_alpha   90.00000000
_cell_angle_beta   90.00000000
_cell_angle_gamma   120.00000333
_symmetry_Int_Tables_number   1
_chemical_formula_structural   NdTmMn6P7Ir6
_chemical_formula_sum   'Nd1 Tm1 Mn6 P7 Ir6'
_cell_volume   296.90460219
_cell_formula_units_Z   1
loop_
 _symmetry_equiv_pos_site_id
 _symmetry_equiv_pos_as_xyz
  1  'x, y, z'
loop_
 _atom_site_type_symbol
 _atom_site_label
 _atom_site_symmetry_multiplicity
 _atom_site_fract_x
 _atom_site_fract_y
 _atom_site_fract_z
 _atom_site_occupancy
  Nd  Nd0  1  0.666667  0.333333  0.500000  1
  Tm  Tm1  1  0.000000  0.000000  0.000000  1
  Mn  Mn2  1  0.222581  0.397022  0.000000  1
  Mn  Mn3  1  0.602978  0.825560  0.000000  1
  Mn  Mn4  1  0.174440  0.777419  0.000000  1
  Mn  Mn5  1  0.452880  0.571171  0.500000  1
  Mn  Mn6  1  0.428829  0.881710  0.500000  1
  Mn  Mn7  1  0.118290  0.547120  0.500000  1
  P  P8  1  0.442956  0.368645  0.000000  1
  P  P9  1  0.631355  0.074311  0.000000  1
  P  P10  1  0.925689  0.557044  0.000000  1
  P  P11  1  0.053247  0.268651  0.500000  1
  P  P12  1  0.731349  0.784597  0.500000  1
  P  P13  1  0.215403  0.946753  0.500000  1
  P  P14  1  0.333333  0.666667  0.000000  1
  Ir  Ir15  1  0.696892  0.607284  0.000000  1
  Ir  Ir16  1  0.392716  0.089609  0.000000  1
  Ir  Ir17  1  0.910391  0.303108  0.000000  1
  Ir  Ir18  1  0.274733  0.223478  0.500000  1
  Ir  Ir19  1  0.776522  0.051254  0.500000  1
  Ir  Ir20  1  0.948746  0.725267  0.500000  1
