# generated using pymatgen
data_Y12AlSi4Sn
_symmetry_space_group_name_H-M   'P 1'
_cell_length_a   8.50281773
_cell_length_b   8.50281782
_cell_length_c   8.50281754
_cell_angle_alpha   111.95821686
_cell_angle_beta   111.20117812
_cell_angle_gamma   105.33284750
_symmetry_Int_Tables_number   1
_chemical_formula_structural   Y12AlSi4Sn
_chemical_formula_sum   'Y12 Al1 Si4 Sn1'
_cell_volume   471.36754774
_cell_formula_units_Z   1
loop_
 _symmetry_equiv_pos_site_id
 _symmetry_equiv_pos_as_xyz
  1  'x, y, z'
loop_
 _atom_site_type_symbol
 _atom_site_label
 _atom_site_symmetry_multiplicity
 _atom_site_fract_x
 _atom_site_fract_y
 _atom_site_fract_z
 _atom_site_occupancy
  Y  Y0  1  0.438594  0.237990  0.200605  1
  Y  Y1  1  0.561406  0.762010  0.799395  1
  Y  Y2  1  0.037386  0.237990  0.799395  1
  Y  Y3  1  0.962614  0.762010  0.200605  1
  Y  Y4  1  0.181200  0.271889  0.453088  1
  Y  Y5  1  0.818800  0.728111  0.546912  1
  Y  Y6  1  0.181200  0.728111  0.909311  1
  Y  Y7  1  0.818800  0.271889  0.090689  1
  Y  Y8  1  0.320282  0.618331  0.298049  1
  Y  Y9  1  0.679718  0.381669  0.701951  1
  Y  Y10  1  0.320282  0.022232  0.701951  1
  Y  Y11  1  0.679718  0.977768  0.298049  1
  Al  Al12  1  0.000000  0.000000  0.000000  1
  Si  Si13  1  0.366551  0.000000  0.366551  1
  Si  Si14  1  0.633449  0.000000  0.633449  1
  Si  Si15  1  0.115873  0.615873  0.500000  1
  Si  Si16  1  0.884127  0.384127  0.500000  1
  Sn  Sn17  1  0.500000  0.500000  0.000000  1
