# generated using pymatgen
data_CeY2Ho5(Si3Pd)4
_symmetry_space_group_name_H-M   'P 1'
_cell_length_a   8.15147819
_cell_length_b   8.14377504
_cell_length_c   8.11264100
_cell_angle_alpha   90.00000000
_cell_angle_beta   90.00000000
_cell_angle_gamma   119.96873408
_symmetry_Int_Tables_number   1
_chemical_formula_structural   CeY2Ho5(Si3Pd)4
_chemical_formula_sum   'Ce1 Y2 Ho5 Si12 Pd4'
_cell_volume   466.54309876
_cell_formula_units_Z   1
loop_
 _symmetry_equiv_pos_site_id
 _symmetry_equiv_pos_as_xyz
  1  'x, y, z'
loop_
 _atom_site_type_symbol
 _atom_site_label
 _atom_site_symmetry_multiplicity
 _atom_site_fract_x
 _atom_site_fract_y
 _atom_site_fract_z
 _atom_site_occupancy
  Ce  Ce0  1  0.999999  0.000000  0.250000  1
  Y  Y1  1  0.999836  0.499918  0.250000  1
  Y  Y2  1  0.999992  0.999996  0.750000  1
  Ho  Ho3  1  0.499944  0.500032  0.750000  1
  Ho  Ho4  1  0.500046  0.499939  0.250000  1
  Ho  Ho5  1  0.000076  0.500039  0.750000  1
  Ho  Ho6  1  0.499944  0.999912  0.750000  1
  Ho  Ho7  1  0.500046  0.000107  0.250000  1
  Si  Si8  1  0.834245  0.165776  0.999021  1
  Si  Si9  1  0.165754  0.834218  0.999143  1
  Si  Si10  1  0.331172  0.165587  0.999640  1
  Si  Si11  1  0.165754  0.834218  0.500857  1
  Si  Si12  1  0.668860  0.834430  0.999746  1
  Si  Si13  1  0.834245  0.165776  0.500979  1
  Si  Si14  1  0.834245  0.668469  0.999021  1
  Si  Si15  1  0.668860  0.834430  0.500254  1
  Si  Si16  1  0.165754  0.331537  0.999143  1
  Si  Si17  1  0.331172  0.165587  0.500360  1
  Si  Si18  1  0.165754  0.331537  0.500857  1
  Si  Si19  1  0.834245  0.668469  0.500979  1
  Pd  Pd20  1  0.665865  0.332932  0.997351  1
  Pd  Pd21  1  0.334162  0.667081  0.997077  1
  Pd  Pd22  1  0.334162  0.667081  0.502923  1
  Pd  Pd23  1  0.665865  0.332932  0.502649  1
