# generated using pymatgen
data_Lu3ZnCd3Au2
_symmetry_space_group_name_H-M   'P 1'
_cell_length_a   7.77994100
_cell_length_b   7.77994164
_cell_length_c   3.73705200
_cell_angle_alpha   90.00000000
_cell_angle_beta   90.00000000
_cell_angle_gamma   120.00000152
_symmetry_Int_Tables_number   1
_chemical_formula_structural   Lu3ZnCd3Au2
_chemical_formula_sum   'Lu3 Zn1 Cd3 Au2'
_cell_volume   195.89006435
_cell_formula_units_Z   1
loop_
 _symmetry_equiv_pos_site_id
 _symmetry_equiv_pos_as_xyz
  1  'x, y, z'
loop_
 _atom_site_type_symbol
 _atom_site_label
 _atom_site_symmetry_multiplicity
 _atom_site_fract_x
 _atom_site_fract_y
 _atom_site_fract_z
 _atom_site_occupancy
  Lu  Lu0  1  0.590590  0.000000  0.000000  1
  Lu  Lu1  1  0.000000  0.590590  0.000000  1
  Lu  Lu2  1  0.409410  0.409410  0.000000  1
  Zn  Zn3  1  0.000000  0.000000  0.000000  1
  Cd  Cd4  1  0.256268  0.000000  0.500000  1
  Cd  Cd5  1  0.000000  0.256268  0.500000  1
  Cd  Cd6  1  0.743732  0.743732  0.500000  1
  Au  Au7  1  0.333333  0.666667  0.500000  1
  Au  Au8  1  0.666667  0.333333  0.500000  1
