# generated using pymatgen
data_Pr3Sn3IrPtRh
_symmetry_space_group_name_H-M   'P 1'
_cell_length_a   7.62451000
_cell_length_b   7.62451143
_cell_length_c   4.14880400
_cell_angle_alpha   90.00000000
_cell_angle_beta   90.00000000
_cell_angle_gamma   119.99999381
_symmetry_Int_Tables_number   1
_chemical_formula_structural   Pr3Sn3IrPtRh
_chemical_formula_sum   'Pr3 Sn3 Ir1 Pt1 Rh1'
_cell_volume   208.87070615
_cell_formula_units_Z   1
loop_
 _symmetry_equiv_pos_site_id
 _symmetry_equiv_pos_as_xyz
  1  'x, y, z'
loop_
 _atom_site_type_symbol
 _atom_site_label
 _atom_site_symmetry_multiplicity
 _atom_site_fract_x
 _atom_site_fract_y
 _atom_site_fract_z
 _atom_site_occupancy
  Pr  Pr0  1  0.590566  0.005378  0.500000  1
  Pr  Pr1  1  0.414811  0.409434  0.500000  1
  Pr  Pr2  1  0.994622  0.585189  0.500000  1
  Sn  Sn3  1  0.251070  0.003612  0.000000  1
  Sn  Sn4  1  0.752542  0.748930  0.000000  1
  Sn  Sn5  1  0.996388  0.247458  0.000000  1
  Ir  Ir6  1  0.666667  0.333333  0.000000  1
  Pt  Pt7  1  0.333333  0.666667  0.000000  1
  Rh  Rh8  1  0.000000  0.000000  0.500000  1
