# generated using pymatgen
data_Tb8Tc13B12
_symmetry_space_group_name_H-M   'P 1'
_cell_length_a   7.77580681
_cell_length_b   7.77580824
_cell_length_c   7.77580722
_cell_angle_alpha   86.67612487
_cell_angle_beta   86.67612472
_cell_angle_gamma   86.67613094
_symmetry_Int_Tables_number   1
_chemical_formula_structural   Tb8Tc13B12
_chemical_formula_sum   'Tb8 Tc13 B12'
_cell_volume   467.86539706
_cell_formula_units_Z   1
loop_
 _symmetry_equiv_pos_site_id
 _symmetry_equiv_pos_as_xyz
  1  'x, y, z'
loop_
 _atom_site_type_symbol
 _atom_site_label
 _atom_site_symmetry_multiplicity
 _atom_site_fract_x
 _atom_site_fract_y
 _atom_site_fract_z
 _atom_site_occupancy
  Tb  Tb0  1  0.641753  0.641753  0.641753  1
  Tb  Tb1  1  0.358247  0.358247  0.358247  1
  Tb  Tb2  1  0.187035  0.187035  0.687217  1
  Tb  Tb3  1  0.687217  0.187035  0.187035  1
  Tb  Tb4  1  0.187035  0.687217  0.187035  1
  Tb  Tb5  1  0.812965  0.812965  0.312783  1
  Tb  Tb6  1  0.312783  0.812965  0.812965  1
  Tb  Tb7  1  0.812965  0.312783  0.812965  1
  Tc  Tc8  1  0.000000  0.000000  0.000000  1
  Tc  Tc9  1  0.595232  0.064326  0.595232  1
  Tc  Tc10  1  0.595232  0.595232  0.064326  1
  Tc  Tc11  1  0.064326  0.595232  0.595232  1
  Tc  Tc12  1  0.404768  0.935674  0.404768  1
  Tc  Tc13  1  0.404768  0.404768  0.935674  1
  Tc  Tc14  1  0.935674  0.404768  0.404768  1
  Tc  Tc15  1  0.922942  0.922942  0.670443  1
  Tc  Tc16  1  0.670443  0.922942  0.922942  1
  Tc  Tc17  1  0.922942  0.670443  0.922942  1
  Tc  Tc18  1  0.077058  0.077058  0.329557  1
  Tc  Tc19  1  0.329557  0.077058  0.077058  1
  Tc  Tc20  1  0.077058  0.329557  0.077058  1
  B  B21  1  0.152094  0.847906  0.500000  1
  B  B22  1  0.500000  0.152094  0.847906  1
  B  B23  1  0.847906  0.500000  0.152094  1
  B  B24  1  0.500000  0.847906  0.152094  1
  B  B25  1  0.152094  0.500000  0.847906  1
  B  B26  1  0.847906  0.152094  0.500000  1
  B  B27  1  0.671249  0.500000  0.328751  1
  B  B28  1  0.328751  0.671249  0.500000  1
  B  B29  1  0.500000  0.328751  0.671249  1
  B  B30  1  0.328751  0.500000  0.671249  1
  B  B31  1  0.671249  0.328751  0.500000  1
  B  B32  1  0.500000  0.671249  0.328751  1
