# generated using pymatgen
data_Tb12FeCoI17
_symmetry_space_group_name_H-M   'P 1'
_cell_length_a   9.76551505
_cell_length_b   11.67988740
_cell_length_c   11.72430907
_cell_angle_alpha   93.34857940
_cell_angle_beta   104.89088030
_cell_angle_gamma   114.36499838
_symmetry_Int_Tables_number   1
_chemical_formula_structural   Tb12FeCoI17
_chemical_formula_sum   'Tb12 Fe1 Co1 I17'
_cell_volume   1156.54607376
_cell_formula_units_Z   1
loop_
 _symmetry_equiv_pos_site_id
 _symmetry_equiv_pos_as_xyz
  1  'x, y, z'
loop_
 _atom_site_type_symbol
 _atom_site_label
 _atom_site_symmetry_multiplicity
 _atom_site_fract_x
 _atom_site_fract_y
 _atom_site_fract_z
 _atom_site_occupancy
  Tb  Tb0  1  0.051194  0.501565  0.319341  1
  Tb  Tb1  1  0.993053  0.809343  0.587202  1
  Tb  Tb2  1  0.653419  0.241573  0.281809  1
  Tb  Tb3  1  0.006667  0.191429  0.410643  1
  Tb  Tb4  1  0.219318  0.670876  0.983093  1
  Tb  Tb5  1  0.255086  0.978150  0.889243  1
  Tb  Tb6  1  0.348055  0.758422  0.717646  1
  Tb  Tb7  1  0.947111  0.496253  0.679420  1
  Tb  Tb8  1  0.746620  0.023660  0.112465  1
  Tb  Tb9  1  0.143594  0.286592  0.154116  1
  Tb  Tb10  1  0.781464  0.328359  0.018457  1
  Tb  Tb11  1  0.855383  0.713018  0.846790  1
  Fe  Fe12  1  0.895784  0.262009  0.214548  1
  Co  Co13  1  0.104138  0.737885  0.785098  1
  I  I14  1  0.783693  0.530034  0.418668  1
  I  I15  1  0.642772  0.419311  0.760011  1
  I  I16  1  0.843854  0.893575  0.327798  1
  I  I17  1  0.328313  0.212830  0.370097  1
  I  I18  1  0.156552  0.104492  0.674600  1
  I  I19  1  0.585458  0.052739  0.841790  1
  I  I20  1  0.757298  0.187119  0.540699  1
  I  I21  1  0.550637  0.707942  0.953365  1
  I  I22  1  0.357745  0.582718  0.238043  1
  I  I23  1  0.216694  0.471352  0.583650  1
  I  I24  1  0.056452  0.367888  0.895775  1
  I  I25  1  0.447295  0.289351  0.044339  1
  I  I26  1  0.999640  0.999084  0.998905  1
  I  I27  1  0.244459  0.815270  0.461667  1
  I  I28  1  0.410913  0.945115  0.156394  1
  I  I29  1  0.671885  0.787587  0.631075  1
  I  I30  1  0.945454  0.634463  0.103252  1
