# generated using pymatgen
data_La2Tb4TcSb2
_symmetry_space_group_name_H-M   'P 1'
_cell_length_a   8.31488406
_cell_length_b   8.46608329
_cell_length_c   4.33698900
_cell_angle_alpha   90.00000000
_cell_angle_beta   90.00000000
_cell_angle_gamma   120.60338168
_symmetry_Int_Tables_number   1
_chemical_formula_structural   La2Tb4TcSb2
_chemical_formula_sum   'La2 Tb4 Tc1 Sb2'
_cell_volume   262.77551989
_cell_formula_units_Z   1
loop_
 _symmetry_equiv_pos_site_id
 _symmetry_equiv_pos_as_xyz
  1  'x, y, z'
loop_
 _atom_site_type_symbol
 _atom_site_label
 _atom_site_symmetry_multiplicity
 _atom_site_fract_x
 _atom_site_fract_y
 _atom_site_fract_z
 _atom_site_occupancy
  La  La0  1  0.599474  0.004517  0.500000  1
  La  La1  1  0.400526  0.405042  0.500000  1
  Tb  Tb2  1  0.238779  0.002431  0.000000  1
  Tb  Tb3  1  0.761221  0.763651  0.000000  1
  Tb  Tb4  1  0.000000  0.225835  0.000000  1
  Tb  Tb5  1  0.000000  0.604759  0.500000  1
  Tc  Tc6  1  0.000000  0.984453  0.500000  1
  Sb  Sb7  1  0.319965  0.664639  0.000000  1
  Sb  Sb8  1  0.680035  0.344673  0.000000  1
