# generated using pymatgen
data_HoPa3In2CoNi3
_symmetry_space_group_name_H-M   'P 1'
_cell_length_a   7.49138425
_cell_length_b   7.44584318
_cell_length_c   3.52434100
_cell_angle_alpha   90.00000000
_cell_angle_beta   90.00000000
_cell_angle_gamma   91.81142049
_symmetry_Int_Tables_number   1
_chemical_formula_structural   HoPa3In2CoNi3
_chemical_formula_sum   'Ho1 Pa3 In2 Co1 Ni3'
_cell_volume   196.48834767
_cell_formula_units_Z   1
loop_
 _symmetry_equiv_pos_site_id
 _symmetry_equiv_pos_as_xyz
  1  'x, y, z'
loop_
 _atom_site_type_symbol
 _atom_site_label
 _atom_site_symmetry_multiplicity
 _atom_site_fract_x
 _atom_site_fract_y
 _atom_site_fract_z
 _atom_site_occupancy
  Ho  Ho0  1  0.829365  0.673672  0.500000  1
  Pa  Pa1  1  0.670434  0.170042  0.500000  1
  Pa  Pa2  1  0.319256  0.819824  0.500000  1
  Pa  Pa3  1  0.171171  0.337656  0.500000  1
  In  In4  1  0.509131  0.503408  0.000000  1
  In  In5  1  0.995841  0.997311  0.000000  1
  Co  Co6  1  0.153406  0.617371  0.000000  1
  Ni  Ni7  1  0.877199  0.360988  0.000000  1
  Ni  Ni8  1  0.608903  0.890020  0.000000  1
  Ni  Ni9  1  0.365297  0.129705  0.000000  1
