# generated using pymatgen
data_ScNb8FeSe16
_symmetry_space_group_name_H-M   'P 1'
_cell_length_a   7.00166400
_cell_length_b   7.00166409
_cell_length_c   13.15526700
_cell_angle_alpha   90.00000000
_cell_angle_beta   90.00000000
_cell_angle_gamma   119.99999956
_symmetry_Int_Tables_number   1
_chemical_formula_structural   ScNb8FeSe16
_chemical_formula_sum   'Sc1 Nb8 Fe1 Se16'
_cell_volume   558.51242335
_cell_formula_units_Z   1
loop_
 _symmetry_equiv_pos_site_id
 _symmetry_equiv_pos_as_xyz
  1  'x, y, z'
loop_
 _atom_site_type_symbol
 _atom_site_label
 _atom_site_symmetry_multiplicity
 _atom_site_fract_x
 _atom_site_fract_y
 _atom_site_fract_z
 _atom_site_occupancy
  Sc  Sc0  1  0.000000  0.000000  0.500000  1
  Nb  Nb1  1  0.000000  0.000000  0.244320  1
  Nb  Nb2  1  0.000000  0.000000  0.755680  1
  Nb  Nb3  1  0.507338  0.014676  0.243528  1
  Nb  Nb4  1  0.985324  0.492662  0.243528  1
  Nb  Nb5  1  0.507338  0.492662  0.243528  1
  Nb  Nb6  1  0.492662  0.985324  0.756472  1
  Nb  Nb7  1  0.014676  0.507338  0.756472  1
  Nb  Nb8  1  0.492662  0.507338  0.756472  1
  Fe  Fe9  1  0.000000  0.000000  0.000000  1
  Se  Se10  1  0.333333  0.666667  0.886796  1
  Se  Se11  1  0.666667  0.333333  0.113204  1
  Se  Se12  1  0.666667  0.333333  0.375942  1
  Se  Se13  1  0.333333  0.666667  0.624058  1
  Se  Se14  1  0.169671  0.830329  0.370580  1
  Se  Se15  1  0.169671  0.339340  0.370580  1
  Se  Se16  1  0.660660  0.830329  0.370580  1
  Se  Se17  1  0.830329  0.169671  0.629420  1
  Se  Se18  1  0.830329  0.660660  0.629420  1
  Se  Se19  1  0.339340  0.169671  0.629420  1
  Se  Se20  1  0.832020  0.167980  0.882129  1
  Se  Se21  1  0.832020  0.664040  0.882129  1
  Se  Se22  1  0.335960  0.167980  0.882129  1
  Se  Se23  1  0.167980  0.832020  0.117871  1
  Se  Se24  1  0.167980  0.335960  0.117871  1
  Se  Se25  1  0.664040  0.832020  0.117871  1
