# generated using pymatgen
data_Y(BeB14)2
_symmetry_space_group_name_H-M   'P 1'
_cell_length_a   7.18527347
_cell_length_b   7.18527265
_cell_length_c   5.72655434
_cell_angle_alpha   66.63567534
_cell_angle_beta   66.63568442
_cell_angle_gamma   92.05455957
_symmetry_Int_Tables_number   1
_chemical_formula_structural   Y(BeB14)2
_chemical_formula_sum   'Y1 Be2 B28'
_cell_volume   242.52289181
_cell_formula_units_Z   1
loop_
 _symmetry_equiv_pos_site_id
 _symmetry_equiv_pos_as_xyz
  1  'x, y, z'
loop_
 _atom_site_type_symbol
 _atom_site_label
 _atom_site_symmetry_multiplicity
 _atom_site_fract_x
 _atom_site_fract_y
 _atom_site_fract_z
 _atom_site_occupancy
  Y  Y0  1  0.883746  0.883746  0.372485  1
  Be  Be1  1  0.530828  0.530828  0.444285  1
  Be  Be2  1  0.247980  0.247980  0.307523  1
  B  B3  1  0.415485  0.732306  0.182959  1
  B  B4  1  0.578555  0.255120  0.837080  1
  B  B5  1  0.255120  0.578555  0.837080  1
  B  B6  1  0.732306  0.415485  0.182959  1
  B  B7  1  0.692202  0.858460  0.981155  1
  B  B8  1  0.301617  0.129273  0.040081  1
  B  B9  1  0.129273  0.301617  0.040081  1
  B  B10  1  0.858460  0.692202  0.981155  1
  B  B11  1  0.527698  0.868626  0.310438  1
  B  B12  1  0.466823  0.118352  0.219612  1
  B  B13  1  0.118352  0.466823  0.219612  1
  B  B14  1  0.868626  0.527698  0.310438  1
  B  B15  1  0.460302  0.116769  0.717712  1
  B  B16  1  0.528529  0.866561  0.804755  1
  B  B17  1  0.866561  0.528529  0.804755  1
  B  B18  1  0.116769  0.460302  0.717712  1
  B  B19  1  0.719263  0.097337  0.008332  1
  B  B20  1  0.274347  0.889590  0.336266  1
  B  B21  1  0.889590  0.274347  0.336266  1
  B  B22  1  0.097337  0.719263  0.008332  1
  B  B23  1  0.273478  0.889942  0.015123  1
  B  B24  1  0.716935  0.096419  0.690560  1
  B  B25  1  0.096419  0.716935  0.690560  1
  B  B26  1  0.889942  0.273478  0.015123  1
  B  B27  1  0.283245  0.465113  0.390848  1
  B  B28  1  0.698048  0.517052  0.652932  1
  B  B29  1  0.517052  0.698048  0.652932  1
  B  B30  1  0.465113  0.283245  0.390848  1
