# generated using pymatgen
data_La4GaCu3I2
_symmetry_space_group_name_H-M   'P 1'
_cell_length_a   4.31605600
_cell_length_b   4.31605588
_cell_length_c   17.22869200
_cell_angle_alpha   90.00000000
_cell_angle_beta   90.00000000
_cell_angle_gamma   120.00000093
_symmetry_Int_Tables_number   1
_chemical_formula_structural   La4GaCu3I2
_chemical_formula_sum   'La4 Ga1 Cu3 I2'
_cell_volume   277.94384709
_cell_formula_units_Z   1
loop_
 _symmetry_equiv_pos_site_id
 _symmetry_equiv_pos_as_xyz
  1  'x, y, z'
loop_
 _atom_site_type_symbol
 _atom_site_label
 _atom_site_symmetry_multiplicity
 _atom_site_fract_x
 _atom_site_fract_y
 _atom_site_fract_z
 _atom_site_occupancy
  La  La0  1  0.000000  0.000000  0.107373  1
  La  La1  1  0.000000  0.000000  0.892759  1
  La  La2  1  0.000000  0.000000  0.610510  1
  La  La3  1  0.000000  0.000000  0.389190  1
  Ga  Ga4  1  0.333333  0.666667  0.501225  1
  Cu  Cu5  1  0.666667  0.333333  0.499892  1
  Cu  Cu6  1  0.666667  0.333333  0.000786  1
  Cu  Cu7  1  0.333333  0.666667  0.999231  1
  I  I8  1  0.333333  0.666667  0.250940  1
  I  I9  1  0.666667  0.333333  0.748094  1
