# generated using pymatgen
data_Lu12Fe3Bi2
_symmetry_space_group_name_H-M   'P 1'
_cell_length_a   8.23516610
_cell_length_b   8.23516666
_cell_length_c   8.23516684
_cell_angle_alpha   108.04520029
_cell_angle_beta   108.04519804
_cell_angle_gamma   112.36253131
_symmetry_Int_Tables_number   1
_chemical_formula_structural   Lu12Fe3Bi2
_chemical_formula_sum   'Lu12 Fe3 Bi2'
_cell_volume   429.10191789
_cell_formula_units_Z   1
loop_
 _symmetry_equiv_pos_site_id
 _symmetry_equiv_pos_as_xyz
  1  'x, y, z'
loop_
 _atom_site_type_symbol
 _atom_site_label
 _atom_site_symmetry_multiplicity
 _atom_site_fract_x
 _atom_site_fract_y
 _atom_site_fract_z
 _atom_site_occupancy
  Lu  Lu0  1  0.308206  0.308206  0.616411  1
  Lu  Lu1  1  0.691794  0.691794  0.383589  1
  Lu  Lu2  1  0.691794  0.308206  0.000000  1
  Lu  Lu3  1  0.308206  0.691794  0.000000  1
  Lu  Lu4  1  0.194538  0.425307  0.230768  1
  Lu  Lu5  1  0.805462  0.574693  0.769232  1
  Lu  Lu6  1  0.194538  0.963769  0.769232  1
  Lu  Lu7  1  0.963769  0.194538  0.769232  1
  Lu  Lu8  1  0.805462  0.036231  0.230768  1
  Lu  Lu9  1  0.036231  0.805462  0.230768  1
  Lu  Lu10  1  0.425307  0.194538  0.230768  1
  Lu  Lu11  1  0.574693  0.805462  0.769232  1
  Fe  Fe12  1  0.381969  0.381969  0.000000  1
  Fe  Fe13  1  0.618031  0.618031  0.000000  1
  Fe  Fe14  1  0.000000  0.000000  0.000000  1
  Bi  Bi15  1  0.000000  0.500000  0.500000  1
  Bi  Bi16  1  0.500000  0.000000  0.500000  1
