# generated using pymatgen
data_Tb4Ho8Tc3Rh
_symmetry_space_group_name_H-M   'P 1'
_cell_length_a   6.29473904
_cell_length_b   7.39553338
_cell_length_c   9.14173200
_cell_angle_alpha   90.00000000
_cell_angle_beta   90.00000000
_cell_angle_gamma   89.90721337
_symmetry_Int_Tables_number   1
_chemical_formula_structural   Tb4Ho8Tc3Rh
_chemical_formula_sum   'Tb4 Ho8 Tc3 Rh1'
_cell_volume   425.57405928
_cell_formula_units_Z   1
loop_
 _symmetry_equiv_pos_site_id
 _symmetry_equiv_pos_as_xyz
  1  'x, y, z'
loop_
 _atom_site_type_symbol
 _atom_site_label
 _atom_site_symmetry_multiplicity
 _atom_site_fract_x
 _atom_site_fract_y
 _atom_site_fract_z
 _atom_site_occupancy
  Tb  Tb0  1  0.873462  0.541985  0.250000  1
  Tb  Tb1  1  0.624311  0.038885  0.250000  1
  Tb  Tb2  1  0.131581  0.456719  0.750000  1
  Tb  Tb3  1  0.371129  0.958867  0.750000  1
  Ho  Ho4  1  0.332621  0.676201  0.066109  1
  Ho  Ho5  1  0.162425  0.176497  0.436242  1
  Ho  Ho6  1  0.663729  0.321740  0.561736  1
  Ho  Ho7  1  0.837759  0.826155  0.938134  1
  Ho  Ho8  1  0.663729  0.321740  0.938264  1
  Ho  Ho9  1  0.837759  0.826155  0.561866  1
  Ho  Ho10  1  0.332621  0.676201  0.433891  1
  Ho  Ho11  1  0.162425  0.176497  0.063758  1
  Tc  Tc12  1  0.039702  0.884174  0.250000  1
  Tc  Tc13  1  0.462320  0.386553  0.250000  1
  Tc  Tc14  1  0.958799  0.116266  0.750000  1
  Rh  Rh15  1  0.545629  0.615362  0.750000  1
