# generated using pymatgen
data_CeHo9(SiB4)4
_symmetry_space_group_name_H-M   'P 1'
_cell_length_a   7.21227372
_cell_length_b   7.21227372
_cell_length_c   8.08657700
_cell_angle_alpha   89.99755052
_cell_angle_beta   89.99755052
_cell_angle_gamma   90.05128776
_symmetry_Int_Tables_number   1
_chemical_formula_structural   CeHo9(SiB4)4
_chemical_formula_sum   'Ce1 Ho9 Si4 B16'
_cell_volume   420.63843554
_cell_formula_units_Z   1
loop_
 _symmetry_equiv_pos_site_id
 _symmetry_equiv_pos_as_xyz
  1  'x, y, z'
loop_
 _atom_site_type_symbol
 _atom_site_label
 _atom_site_symmetry_multiplicity
 _atom_site_fract_x
 _atom_site_fract_y
 _atom_site_fract_z
 _atom_site_occupancy
  Ce  Ce0  1  0.682110  0.182110  0.231718  1
  Ho  Ho1  1  0.318693  0.818693  0.777437  1
  Ho  Ho2  1  0.319525  0.819525  0.222308  1
  Ho  Ho3  1  0.819546  0.680490  0.222100  1
  Ho  Ho4  1  0.819689  0.680811  0.777704  1
  Ho  Ho5  1  0.680684  0.180684  0.777041  1
  Ho  Ho6  1  0.180811  0.319689  0.777704  1
  Ho  Ho7  1  0.180490  0.319546  0.222100  1
  Ho  Ho8  1  0.000795  0.998954  0.500528  1
  Ho  Ho9  1  0.498954  0.500795  0.500528  1
  Si  Si10  1  0.116286  0.616286  0.501849  1
  Si  Si11  1  0.885993  0.385993  0.500978  1
  Si  Si12  1  0.383892  0.114483  0.500181  1
  Si  Si13  1  0.614483  0.883892  0.500181  1
  B  B14  1  0.172806  0.038848  0.998783  1
  B  B15  1  0.827780  0.960630  0.999535  1
  B  B16  1  0.960950  0.171762  0.999342  1
  B  B17  1  0.327128  0.539783  0.998990  1
  B  B18  1  0.039783  0.827128  0.998990  1
  B  B19  1  0.671762  0.460950  0.999342  1
  B  B20  1  0.538848  0.672806  0.998783  1
  B  B21  1  0.460630  0.327780  0.999535  1
  B  B22  1  0.089893  0.589893  0.999208  1
  B  B23  1  0.909867  0.409867  0.000939  1
  B  B24  1  0.409929  0.089586  0.998994  1
  B  B25  1  0.589586  0.909929  0.998994  1
  B  B26  1  0.000046  0.999108  0.161862  1
  B  B27  1  0.000230  0.999703  0.836243  1
  B  B28  1  0.499703  0.500230  0.836243  1
  B  B29  1  0.499108  0.500046  0.161862  1
