# generated using pymatgen
data_SmInCuPt3
_symmetry_space_group_name_H-M   'P 1'
_cell_length_a   5.49025672
_cell_length_b   5.49025679
_cell_length_c   5.24315204
_cell_angle_alpha   58.42834319
_cell_angle_beta   58.42833825
_cell_angle_gamma   59.99999982
_symmetry_Int_Tables_number   1
_chemical_formula_structural   SmInCuPt3
_chemical_formula_sum   'Sm1 In1 Cu1 Pt3'
_cell_volume   109.02511754
_cell_formula_units_Z   1
loop_
 _symmetry_equiv_pos_site_id
 _symmetry_equiv_pos_as_xyz
  1  'x, y, z'
loop_
 _atom_site_type_symbol
 _atom_site_label
 _atom_site_symmetry_multiplicity
 _atom_site_fract_x
 _atom_site_fract_y
 _atom_site_fract_z
 _atom_site_occupancy
  Sm  Sm0  1  0.002515  0.002515  0.992456  1
  In  In1  1  0.253811  0.253811  0.238568  1
  Cu  Cu2  1  0.623637  0.623637  0.129088  1
  Pt  Pt3  1  0.622765  0.124506  0.629962  1
  Pt  Pt4  1  0.124506  0.622765  0.629962  1
  Pt  Pt5  1  0.622765  0.622765  0.629962  1
