# generated using pymatgen
data_TbSmFe3Co9P7
_symmetry_space_group_name_H-M   'P 1'
_cell_length_a   9.02920000
_cell_length_b   9.02920000
_cell_length_c   3.63406400
_cell_angle_alpha   90.00000000
_cell_angle_beta   90.00000000
_cell_angle_gamma   120.00000732
_symmetry_Int_Tables_number   1
_chemical_formula_structural   TbSmFe3Co9P7
_chemical_formula_sum   'Tb1 Sm1 Fe3 Co9 P7'
_cell_volume   256.57935969
_cell_formula_units_Z   1
loop_
 _symmetry_equiv_pos_site_id
 _symmetry_equiv_pos_as_xyz
  1  'x, y, z'
loop_
 _atom_site_type_symbol
 _atom_site_label
 _atom_site_symmetry_multiplicity
 _atom_site_fract_x
 _atom_site_fract_y
 _atom_site_fract_z
 _atom_site_occupancy
  Tb  Tb0  1  0.666667  0.333333  0.500000  1
  Sm  Sm1  1  0.333333  0.666667  0.000000  1
  Fe  Fe2  1  0.216328  0.122131  0.500000  1
  Fe  Fe3  1  0.877869  0.094199  0.500000  1
  Fe  Fe4  1  0.905801  0.783672  0.500000  1
  Co  Co5  1  0.430972  0.370412  0.000000  1
  Co  Co6  1  0.629588  0.060561  0.000000  1
  Co  Co7  1  0.939439  0.569028  0.000000  1
  Co  Co8  1  0.155810  0.882813  0.000000  1
  Co  Co9  1  0.117187  0.272997  0.000000  1
  Co  Co10  1  0.727003  0.844190  0.000000  1
  Co  Co11  1  0.384116  0.952201  0.500000  1
  Co  Co12  1  0.047799  0.431914  0.500000  1
  Co  Co13  1  0.568086  0.615884  0.500000  1
  P  P14  1  0.408783  0.111624  0.000000  1
  P  P15  1  0.888376  0.297158  0.000000  1
  P  P16  1  0.702842  0.591217  0.000000  1
  P  P17  1  0.108768  0.709731  0.500000  1
  P  P18  1  0.290269  0.399036  0.500000  1
  P  P19  1  0.600964  0.891232  0.500000  1
  P  P20  1  0.000000  0.000000  0.000000  1
