# generated using pymatgen
data_Tb4VMoOs6
_symmetry_space_group_name_H-M   'P 1'
_cell_length_a   5.22459785
_cell_length_b   5.22459699
_cell_length_c   8.98256000
_cell_angle_alpha   90.00000000
_cell_angle_beta   90.00000000
_cell_angle_gamma   115.89874430
_symmetry_Int_Tables_number   1
_chemical_formula_structural   Tb4VMoOs6
_chemical_formula_sum   'Tb4 V1 Mo1 Os6'
_cell_volume   220.56646102
_cell_formula_units_Z   1
loop_
 _symmetry_equiv_pos_site_id
 _symmetry_equiv_pos_as_xyz
  1  'x, y, z'
loop_
 _atom_site_type_symbol
 _atom_site_label
 _atom_site_symmetry_multiplicity
 _atom_site_fract_x
 _atom_site_fract_y
 _atom_site_fract_z
 _atom_site_occupancy
  Tb  Tb0  1  0.330222  0.669778  0.434789  1
  Tb  Tb1  1  0.670328  0.329672  0.563171  1
  Tb  Tb2  1  0.670328  0.329672  0.936829  1
  Tb  Tb3  1  0.330222  0.669778  0.065211  1
  V  V4  1  0.837817  0.162183  0.250000  1
  Mo  Mo5  1  0.161242  0.838758  0.750000  1
  Os  Os6  1  0.000284  0.999716  0.496321  1
  Os  Os7  1  0.000284  0.999716  0.003679  1
  Os  Os8  1  0.823340  0.649173  0.250000  1
  Os  Os9  1  0.350827  0.176660  0.250000  1
  Os  Os10  1  0.174198  0.349094  0.750000  1
  Os  Os11  1  0.650906  0.825802  0.750000  1
