# generated using pymatgen
data_Ba3BSbO3
_symmetry_space_group_name_H-M   'P 1'
_cell_length_a   5.64810900
_cell_length_b   5.64810936
_cell_length_c   14.81533500
_cell_angle_alpha   90.00000000
_cell_angle_beta   90.00000000
_cell_angle_gamma   120.00000377
_symmetry_Int_Tables_number   1
_chemical_formula_structural   Ba3BSbO3
_chemical_formula_sum   'Ba6 B2 Sb2 O6'
_cell_volume   409.30613794
_cell_formula_units_Z   2
loop_
 _symmetry_equiv_pos_site_id
 _symmetry_equiv_pos_as_xyz
  1  'x, y, z'
loop_
 _atom_site_type_symbol
 _atom_site_label
 _atom_site_symmetry_multiplicity
 _atom_site_fract_x
 _atom_site_fract_y
 _atom_site_fract_z
 _atom_site_occupancy
  Ba  Ba0  1  0.333333  0.666667  0.390863  1
  Ba  Ba1  1  0.000000  0.000000  0.250000  1
  Ba  Ba2  1  0.000000  0.000000  0.750000  1
  Ba  Ba3  1  0.666667  0.333333  0.890863  1
  Ba  Ba4  1  0.666667  0.333333  0.609137  1
  Ba  Ba5  1  0.333333  0.666667  0.109137  1
  B  B6  1  0.666667  0.333333  0.250000  1
  B  B7  1  0.333333  0.666667  0.750000  1
  Sb  Sb8  1  0.000000  0.000000  0.000000  1
  Sb  Sb9  1  0.000000  0.000000  0.500000  1
  O  O10  1  0.476674  0.953349  0.750000  1
  O  O11  1  0.523326  0.476674  0.250000  1
  O  O12  1  0.523326  0.046651  0.250000  1
  O  O13  1  0.046651  0.523326  0.750000  1
  O  O14  1  0.476674  0.523326  0.750000  1
  O  O15  1  0.953349  0.476674  0.250000  1
