# generated using pymatgen
data_LaPr3In2(Sn7Rh4)2
_symmetry_space_group_name_H-M   'P 1'
_cell_length_a   4.57593200
_cell_length_b   7.20216320
_cell_length_c   18.76218752
_cell_angle_alpha   90.02702491
_cell_angle_beta   90.00000000
_cell_angle_gamma   90.00000000
_symmetry_Int_Tables_number   1
_chemical_formula_structural   LaPr3In2(Sn7Rh4)2
_chemical_formula_sum   'La1 Pr3 In2 Sn14 Rh8'
_cell_volume   618.33801043
_cell_formula_units_Z   1
loop_
 _symmetry_equiv_pos_site_id
 _symmetry_equiv_pos_as_xyz
  1  'x, y, z'
loop_
 _atom_site_type_symbol
 _atom_site_label
 _atom_site_symmetry_multiplicity
 _atom_site_fract_x
 _atom_site_fract_y
 _atom_site_fract_z
 _atom_site_occupancy
  La  La0  1  0.250000  0.999834  0.858767  1
  Pr  Pr1  1  0.250000  0.499772  0.358655  1
  Pr  Pr2  1  0.750000  0.998250  0.140917  1
  Pr  Pr3  1  0.750000  0.501614  0.641040  1
  In  In4  1  0.250000  0.303259  0.181547  1
  In  In5  1  0.250000  0.196730  0.681308  1
  Sn  Sn6  1  0.750000  0.694066  0.818638  1
  Sn  Sn7  1  0.750000  0.804592  0.318972  1
  Sn  Sn8  1  0.250000  0.720455  0.194878  1
  Sn  Sn9  1  0.250000  0.779156  0.694581  1
  Sn  Sn10  1  0.750000  0.279016  0.801238  1
  Sn  Sn11  1  0.750000  0.222465  0.301262  1
  Sn  Sn12  1  0.250000  0.863855  0.031976  1
  Sn  Sn13  1  0.250000  0.635375  0.531618  1
  Sn  Sn14  1  0.750000  0.135764  0.968675  1
  Sn  Sn15  1  0.750000  0.365526  0.468157  1
  Sn  Sn16  1  0.250000  0.518860  0.931647  1
  Sn  Sn17  1  0.250000  0.980279  0.431845  1
  Sn  Sn18  1  0.750000  0.477756  0.070520  1
  Sn  Sn19  1  0.750000  0.022845  0.570484  1
  Rh  Rh20  1  0.250000  0.251382  0.033707  1
  Rh  Rh21  1  0.250000  0.249104  0.533411  1
  Rh  Rh22  1  0.750000  0.745834  0.966639  1
  Rh  Rh23  1  0.750000  0.754187  0.466472  1
  Rh  Rh24  1  0.250000  0.013992  0.286843  1
  Rh  Rh25  1  0.250000  0.485831  0.786261  1
  Rh  Rh26  1  0.750000  0.973781  0.714777  1
  Rh  Rh27  1  0.750000  0.526421  0.215164  1
