# generated using pymatgen
data_Y7Er3(Sn3Cl)2
_symmetry_space_group_name_H-M   'P 1'
_cell_length_a   9.09625500
_cell_length_b   9.09625569
_cell_length_c   6.53845600
_cell_angle_alpha   90.00000000
_cell_angle_beta   90.00000000
_cell_angle_gamma   119.99999384
_symmetry_Int_Tables_number   1
_chemical_formula_structural   Y7Er3(Sn3Cl)2
_chemical_formula_sum   'Y7 Er3 Sn6 Cl2'
_cell_volume   468.52325375
_cell_formula_units_Z   1
loop_
 _symmetry_equiv_pos_site_id
 _symmetry_equiv_pos_as_xyz
  1  'x, y, z'
loop_
 _atom_site_type_symbol
 _atom_site_label
 _atom_site_symmetry_multiplicity
 _atom_site_fract_x
 _atom_site_fract_y
 _atom_site_fract_z
 _atom_site_occupancy
  Y  Y0  1  0.666667  0.333333  0.000000  1
  Y  Y1  1  0.738007  0.999910  0.749904  1
  Y  Y2  1  0.738007  0.738097  0.250096  1
  Y  Y3  1  0.000090  0.261993  0.250096  1
  Y  Y4  1  0.000090  0.738097  0.749904  1
  Y  Y5  1  0.261903  0.261993  0.749904  1
  Y  Y6  1  0.261903  0.999910  0.250096  1
  Er  Er7  1  0.333333  0.666667  0.500000  1
  Er  Er8  1  0.666667  0.333333  0.500000  1
  Er  Er9  1  0.333333  0.666667  0.000000  1
  Sn  Sn10  1  0.609376  0.609747  0.749691  1
  Sn  Sn11  1  0.000371  0.609747  0.250309  1
  Sn  Sn12  1  0.609376  0.999629  0.250309  1
  Sn  Sn13  1  0.390253  0.999629  0.749691  1
  Sn  Sn14  1  0.000371  0.390624  0.749691  1
  Sn  Sn15  1  0.390253  0.390624  0.250309  1
  Cl  Cl16  1  0.000000  0.000000  0.500000  1
  Cl  Cl17  1  0.000000  0.000000  0.000000  1
