# generated using pymatgen
data_Tb11Nd5Cd4Ni3Os
_symmetry_space_group_name_H-M   'P 1'
_cell_length_a   9.72519683
_cell_length_b   9.72449386
_cell_length_c   9.72449387
_cell_angle_alpha   59.66633042
_cell_angle_beta   59.61635737
_cell_angle_gamma   59.61636311
_symmetry_Int_Tables_number   1
_chemical_formula_structural   Tb11Nd5Cd4Ni3Os
_chemical_formula_sum   'Tb11 Nd5 Cd4 Ni3 Os1'
_cell_volume   644.88198580
_cell_formula_units_Z   1
loop_
 _symmetry_equiv_pos_site_id
 _symmetry_equiv_pos_as_xyz
  1  'x, y, z'
loop_
 _atom_site_type_symbol
 _atom_site_label
 _atom_site_symmetry_multiplicity
 _atom_site_fract_x
 _atom_site_fract_y
 _atom_site_fract_z
 _atom_site_occupancy
  Tb  Tb0  1  0.597351  0.598024  0.598024  1
  Tb  Tb1  1  0.598753  0.599412  0.208750  1
  Tb  Tb2  1  0.598753  0.208750  0.599412  1
  Tb  Tb3  1  0.208037  0.599762  0.599762  1
  Tb  Tb4  1  0.062134  0.436821  0.436821  1
  Tb  Tb5  1  0.435373  0.061136  0.061136  1
  Tb  Tb6  1  0.435885  0.061436  0.438258  1
  Tb  Tb7  1  0.061646  0.435840  0.060598  1
  Tb  Tb8  1  0.435885  0.438258  0.061436  1
  Tb  Tb9  1  0.061646  0.060598  0.435840  1
  Tb  Tb10  1  0.189443  0.811751  0.811751  1
  Nd  Nd11  1  0.803978  0.191133  0.191133  1
  Nd  Nd12  1  0.814883  0.186895  0.813411  1
  Nd  Nd13  1  0.190834  0.804106  0.189285  1
  Nd  Nd14  1  0.814883  0.813411  0.186895  1
  Nd  Nd15  1  0.190834  0.189285  0.804106  1
  Cd  Cd16  1  0.831195  0.829242  0.829242  1
  Cd  Cd17  1  0.828405  0.829048  0.510812  1
  Cd  Cd18  1  0.828405  0.510812  0.829048  1
  Cd  Cd19  1  0.508777  0.828701  0.828701  1
  Ni  Ni20  1  0.392092  0.394676  0.826090  1
  Ni  Ni21  1  0.392092  0.826090  0.394676  1
  Ni  Ni22  1  0.826503  0.392452  0.392452  1
  Os  Os23  1  0.392213  0.392362  0.392362  1
