# generated using pymatgen
data_Er12IrPd3
_symmetry_space_group_name_H-M   'P 1'
_cell_length_a   6.40811400
_cell_length_b   7.02980800
_cell_length_c   9.45954800
_cell_angle_alpha   90.00000000
_cell_angle_beta   90.00000000
_cell_angle_gamma   89.99879331
_symmetry_Int_Tables_number   1
_chemical_formula_structural   Er12IrPd3
_chemical_formula_sum   'Er12 Ir1 Pd3'
_cell_volume   426.13193099
_cell_formula_units_Z   1
loop_
 _symmetry_equiv_pos_site_id
 _symmetry_equiv_pos_as_xyz
  1  'x, y, z'
loop_
 _atom_site_type_symbol
 _atom_site_label
 _atom_site_symmetry_multiplicity
 _atom_site_fract_x
 _atom_site_fract_y
 _atom_site_fract_z
 _atom_site_occupancy
  Er  Er0  1  0.327736  0.682056  0.055879  1
  Er  Er1  1  0.172453  0.180284  0.440688  1
  Er  Er2  1  0.673004  0.322697  0.562411  1
  Er  Er3  1  0.821376  0.815702  0.937713  1
  Er  Er4  1  0.673004  0.322697  0.937589  1
  Er  Er5  1  0.821376  0.815702  0.562287  1
  Er  Er6  1  0.327736  0.682056  0.444121  1
  Er  Er7  1  0.172453  0.180284  0.059312  1
  Er  Er8  1  0.868636  0.523569  0.250000  1
  Er  Er9  1  0.632794  0.026572  0.250000  1
  Er  Er10  1  0.136844  0.477392  0.750000  1
  Er  Er11  1  0.372963  0.967080  0.750000  1
  Ir  Ir12  1  0.550989  0.614608  0.750000  1
  Pd  Pd13  1  0.055978  0.886795  0.250000  1
  Pd  Pd14  1  0.443016  0.389761  0.250000  1
  Pd  Pd15  1  0.949644  0.112745  0.750000  1
