# generated using pymatgen
data_SmBi3Mo4F28
_symmetry_space_group_name_H-M   'P 1'
_cell_length_a   5.83128128
_cell_length_b   9.30579747
_cell_length_c   12.42010400
_cell_angle_alpha   61.89909385
_cell_angle_beta   89.96205357
_cell_angle_gamma   90.01406875
_symmetry_Int_Tables_number   1
_chemical_formula_structural   SmBi3Mo4F28
_chemical_formula_sum   'Sm1 Bi3 Mo4 F28'
_cell_volume   594.52485993
_cell_formula_units_Z   1
loop_
 _symmetry_equiv_pos_site_id
 _symmetry_equiv_pos_as_xyz
  1  'x, y, z'
loop_
 _atom_site_type_symbol
 _atom_site_label
 _atom_site_symmetry_multiplicity
 _atom_site_fract_x
 _atom_site_fract_y
 _atom_site_fract_z
 _atom_site_occupancy
  Sm  Sm0  1  0.763577  0.805559  0.765974  1
  Bi  Bi1  1  0.728711  0.819412  0.258898  1
  Bi  Bi2  1  0.231208  0.181807  0.240706  1
  Bi  Bi3  1  0.264870  0.177598  0.735112  1
  Mo  Mo4  1  0.741684  0.271865  0.457764  1
  Mo  Mo5  1  0.243389  0.724909  0.043108  1
  Mo  Mo6  1  0.259308  0.726741  0.543973  1
  Mo  Mo7  1  0.756221  0.275039  0.957090  1
  F  F8  1  0.451829  0.712482  0.921562  1
  F  F9  1  0.941308  0.287149  0.580432  1
  F  F10  1  0.549508  0.294783  0.074837  1
  F  F11  1  0.056776  0.712647  0.423371  1
  F  F12  1  0.451145  0.282950  0.549150  1
  F  F13  1  0.960001  0.718932  0.947144  1
  F  F14  1  0.544779  0.720774  0.448516  1
  F  F15  1  0.034909  0.286793  0.045949  1
  F  F16  1  0.754847  0.523166  0.856075  1
  F  F17  1  0.268678  0.490047  0.643295  1
  F  F18  1  0.236011  0.486233  0.139300  1
  F  F19  1  0.736887  0.510140  0.361517  1
  F  F20  1  0.761698  0.024859  0.058271  1
  F  F21  1  0.258219  0.971240  0.444465  1
  F  F22  1  0.246865  0.967170  0.946385  1
  F  F23  1  0.744296  0.031351  0.555914  1
  F  F24  1  0.986516  0.735726  0.644948  1
  F  F25  1  0.493090  0.264096  0.860225  1
  F  F26  1  0.020793  0.265997  0.357828  1
  F  F27  1  0.518312  0.728976  0.145252  1
  F  F28  1  0.042570  0.744858  0.164062  1
  F  F29  1  0.547279  0.248902  0.334686  1
  F  F30  1  0.960090  0.254229  0.837136  1
  F  F31  1  0.462294  0.754583  0.662669  1
  F  F32  1  0.412149  0.973082  0.228460  1
  F  F33  1  0.914264  0.030729  0.269212  1
  F  F34  1  0.573014  0.022207  0.766548  1
  F  F35  1  0.082902  0.972972  0.730168  1
