# generated using pymatgen
data_Tb8Ga12Ir3Au
_symmetry_space_group_name_H-M   'P 1'
_cell_length_a   7.15506200
_cell_length_b   8.89899138
_cell_length_c   8.89899200
_cell_angle_alpha   119.99999488
_cell_angle_beta   90.00000000
_cell_angle_gamma   90.00000000
_symmetry_Int_Tables_number   1
_chemical_formula_structural   Tb8Ga12Ir3Au
_chemical_formula_sum   'Tb8 Ga12 Ir3 Au1'
_cell_volume   490.71084682
_cell_formula_units_Z   1
loop_
 _symmetry_equiv_pos_site_id
 _symmetry_equiv_pos_as_xyz
  1  'x, y, z'
loop_
 _atom_site_type_symbol
 _atom_site_label
 _atom_site_symmetry_multiplicity
 _atom_site_fract_x
 _atom_site_fract_y
 _atom_site_fract_z
 _atom_site_occupancy
  Tb  Tb0  1  0.757632  0.000000  0.000000  1
  Tb  Tb1  1  0.251181  0.000000  0.000000  1
  Tb  Tb2  1  0.748363  0.472250  0.527750  1
  Tb  Tb3  1  0.244131  0.518217  0.481783  1
  Tb  Tb4  1  0.748363  0.055501  0.527750  1
  Tb  Tb5  1  0.244131  0.963565  0.481783  1
  Tb  Tb6  1  0.748363  0.472250  0.944499  1
  Tb  Tb7  1  0.244131  0.518217  0.036435  1
  Ga  Ga8  1  0.948418  0.829016  0.170984  1
  Ga  Ga9  1  0.046736  0.169032  0.830968  1
  Ga  Ga10  1  0.948418  0.341969  0.170984  1
  Ga  Ga11  1  0.452018  0.168905  0.831095  1
  Ga  Ga12  1  0.046736  0.661935  0.830968  1
  Ga  Ga13  1  0.548312  0.835919  0.164081  1
  Ga  Ga14  1  0.948418  0.829016  0.658031  1
  Ga  Ga15  1  0.452018  0.662189  0.831095  1
  Ga  Ga16  1  0.046736  0.169032  0.338065  1
  Ga  Ga17  1  0.548312  0.328161  0.164081  1
  Ga  Ga18  1  0.452018  0.168905  0.337811  1
  Ga  Ga19  1  0.548312  0.835919  0.671839  1
  Ir  Ir20  1  0.981201  0.666667  0.333333  1
  Ir  Ir21  1  0.032454  0.333333  0.666667  1
  Ir  Ir22  1  0.467072  0.333333  0.666667  1
  Au  Au23  1  0.546522  0.666667  0.333333  1
