# generated using pymatgen
data_Eu(AuF4)3
_symmetry_space_group_name_H-M   'P 1'
_cell_length_a   8.28191164
_cell_length_b   8.28191211
_cell_length_c   8.28191300
_cell_angle_alpha   80.00774097
_cell_angle_beta   80.00774039
_cell_angle_gamma   80.00774539
_symmetry_Int_Tables_number   1
_chemical_formula_structural   Eu(AuF4)3
_chemical_formula_sum   'Eu2 Au6 F24'
_cell_volume   544.89831263
_cell_formula_units_Z   2
loop_
 _symmetry_equiv_pos_site_id
 _symmetry_equiv_pos_as_xyz
  1  'x, y, z'
loop_
 _atom_site_type_symbol
 _atom_site_label
 _atom_site_symmetry_multiplicity
 _atom_site_fract_x
 _atom_site_fract_y
 _atom_site_fract_z
 _atom_site_occupancy
  Eu  Eu0  1  0.250000  0.250000  0.250000  1
  Eu  Eu1  1  0.750000  0.750000  0.750000  1
  Au  Au2  1  0.161520  0.338480  0.750000  1
  Au  Au3  1  0.250000  0.838480  0.661520  1
  Au  Au4  1  0.661520  0.250000  0.838480  1
  Au  Au5  1  0.838480  0.661520  0.250000  1
  Au  Au6  1  0.338480  0.750000  0.161520  1
  Au  Au7  1  0.750000  0.161520  0.338480  1
  F  F8  1  0.506587  0.195800  0.373517  1
  F  F9  1  0.373517  0.506587  0.195800  1
  F  F10  1  0.195800  0.373517  0.506587  1
  F  F11  1  0.993413  0.126483  0.304200  1
  F  F12  1  0.304200  0.993413  0.126483  1
  F  F13  1  0.126483  0.304200  0.993413  1
  F  F14  1  0.493413  0.804200  0.626483  1
  F  F15  1  0.626483  0.493413  0.804200  1
  F  F16  1  0.024435  0.475565  0.250000  1
  F  F17  1  0.475565  0.250000  0.024435  1
  F  F18  1  0.250000  0.024435  0.475565  1
  F  F19  1  0.975565  0.524435  0.750000  1
  F  F20  1  0.524435  0.750000  0.975565  1
  F  F21  1  0.750000  0.975565  0.524435  1
  F  F22  1  0.656890  0.843110  0.250000  1
  F  F23  1  0.843110  0.250000  0.656890  1
  F  F24  1  0.250000  0.656890  0.843110  1
  F  F25  1  0.343110  0.156890  0.750000  1
  F  F26  1  0.156890  0.750000  0.343110  1
  F  F27  1  0.750000  0.343110  0.156890  1
  F  F28  1  0.873517  0.695800  0.006587  1
  F  F29  1  0.695800  0.006587  0.873517  1
  F  F30  1  0.006587  0.873517  0.695800  1
  F  F31  1  0.804200  0.626483  0.493413  1
