# generated using pymatgen
data_Ca20Tl2InHg9
_symmetry_space_group_name_H-M   'P 1'
_cell_length_a   8.28013500
_cell_length_b   8.28013500
_cell_length_c   14.88453500
_cell_angle_alpha   90.00000000
_cell_angle_beta   90.00000000
_cell_angle_gamma   90.00000000
_symmetry_Int_Tables_number   1
_chemical_formula_structural   Ca20Tl2InHg9
_chemical_formula_sum   'Ca20 Tl2 In1 Hg9'
_cell_volume   1020.49318048
_cell_formula_units_Z   1
loop_
 _symmetry_equiv_pos_site_id
 _symmetry_equiv_pos_as_xyz
  1  'x, y, z'
loop_
 _atom_site_type_symbol
 _atom_site_label
 _atom_site_symmetry_multiplicity
 _atom_site_fract_x
 _atom_site_fract_y
 _atom_site_fract_z
 _atom_site_occupancy
  Ca  Ca0  1  0.667814  0.160504  0.101166  1
  Ca  Ca1  1  0.164224  0.664921  0.602430  1
  Ca  Ca2  1  0.332186  0.839496  0.101166  1
  Ca  Ca3  1  0.835776  0.335079  0.602430  1
  Ca  Ca4  1  0.839496  0.667814  0.101166  1
  Ca  Ca5  1  0.335079  0.164224  0.602430  1
  Ca  Ca6  1  0.160504  0.332186  0.101166  1
  Ca  Ca7  1  0.664921  0.835776  0.602430  1
  Ca  Ca8  1  0.839496  0.332186  0.898834  1
  Ca  Ca9  1  0.335079  0.835776  0.397570  1
  Ca  Ca10  1  0.160504  0.667814  0.898834  1
  Ca  Ca11  1  0.664921  0.164224  0.397570  1
  Ca  Ca12  1  0.667814  0.839496  0.898834  1
  Ca  Ca13  1  0.164224  0.335079  0.397570  1
  Ca  Ca14  1  0.332186  0.160504  0.898834  1
  Ca  Ca15  1  0.835776  0.664921  0.397570  1
  Ca  Ca16  1  0.500000  0.500000  0.752966  1
  Ca  Ca17  1  0.000000  0.000000  0.253096  1
  Ca  Ca18  1  0.000000  0.000000  0.746904  1
  Ca  Ca19  1  0.500000  0.500000  0.247034  1
  Tl  Tl20  1  0.500000  0.500000  0.500000  1
  Tl  Tl21  1  0.500000  0.500000  0.000000  1
  In  In22  1  0.000000  0.000000  0.500000  1
  Hg  Hg23  1  0.633378  0.134031  0.751809  1
  Hg  Hg24  1  0.134031  0.633378  0.248191  1
  Hg  Hg25  1  0.865969  0.366622  0.248191  1
  Hg  Hg26  1  0.366622  0.865969  0.751809  1
  Hg  Hg27  1  0.865969  0.633378  0.751809  1
  Hg  Hg28  1  0.366622  0.134031  0.248191  1
  Hg  Hg29  1  0.134031  0.366622  0.751809  1
  Hg  Hg30  1  0.633378  0.865969  0.248191  1
  Hg  Hg31  1  0.000000  0.000000  0.000000  1
