# generated using pymatgen
data_Ca2ScMoO6
_symmetry_space_group_name_H-M   'P 1'
_cell_length_a   5.70554000
_cell_length_b   5.50319290
_cell_length_c   9.63693842
_cell_angle_alpha   55.65604806
_cell_angle_beta   90.00000000
_cell_angle_gamma   90.00000000
_symmetry_Int_Tables_number   1
_chemical_formula_structural   Ca2ScMoO6
_chemical_formula_sum   'Ca4 Sc2 Mo2 O12'
_cell_volume   249.83590523
_cell_formula_units_Z   2
loop_
 _symmetry_equiv_pos_site_id
 _symmetry_equiv_pos_as_xyz
  1  'x, y, z'
loop_
 _atom_site_type_symbol
 _atom_site_label
 _atom_site_symmetry_multiplicity
 _atom_site_fract_x
 _atom_site_fract_y
 _atom_site_fract_z
 _atom_site_occupancy
  Ca  Ca0  1  0.946571  0.239258  0.751045  1
  Ca  Ca1  1  0.553429  0.239258  0.251045  1
  Ca  Ca2  1  0.053429  0.760742  0.248955  1
  Ca  Ca3  1  0.446571  0.760742  0.748955  1
  Sc  Sc4  1  0.000000  0.500000  0.000000  1
  Sc  Sc5  1  0.500000  0.500000  0.500000  1
  Mo  Mo6  1  0.000000  0.000000  0.500000  1
  Mo  Mo7  1  0.500000  0.000000  0.000000  1
  O  O8  1  0.534200  0.342161  0.754831  1
  O  O9  1  0.965800  0.342161  0.254831  1
  O  O10  1  0.465800  0.657839  0.245169  1
  O  O11  1  0.034200  0.657839  0.745169  1
  O  O12  1  0.690255  0.759079  0.953794  1
  O  O13  1  0.809745  0.759079  0.453794  1
  O  O14  1  0.309745  0.240921  0.046206  1
  O  O15  1  0.190255  0.240921  0.546206  1
  O  O16  1  0.794725  0.141436  0.053709  1
  O  O17  1  0.705275  0.141436  0.553709  1
  O  O18  1  0.205275  0.858564  0.946291  1
  O  O19  1  0.294725  0.858564  0.446291  1
