# generated using pymatgen
data_Co2Ni4As2P
_symmetry_space_group_name_H-M   'P 1'
_cell_length_a   6.05056252
_cell_length_b   6.05142078
_cell_length_c   3.32697900
_cell_angle_alpha   90.00000000
_cell_angle_beta   90.00000000
_cell_angle_gamma   120.00469436
_symmetry_Int_Tables_number   1
_chemical_formula_structural   Co2Ni4As2P
_chemical_formula_sum   'Co2 Ni4 As2 P1'
_cell_volume   105.49047575
_cell_formula_units_Z   1
loop_
 _symmetry_equiv_pos_site_id
 _symmetry_equiv_pos_as_xyz
  1  'x, y, z'
loop_
 _atom_site_type_symbol
 _atom_site_label
 _atom_site_symmetry_multiplicity
 _atom_site_fract_x
 _atom_site_fract_y
 _atom_site_fract_z
 _atom_site_occupancy
  Co  Co0  1  0.748694  0.748656  0.000000  1
  Co  Co1  1  0.251306  0.999962  0.000000  1
  Ni  Ni2  1  0.621053  0.009108  0.500000  1
  Ni  Ni3  1  0.378947  0.388055  0.500000  1
  Ni  Ni4  1  0.000000  0.605365  0.500000  1
  Ni  Ni5  1  0.000000  0.251376  0.000000  1
  As  As6  1  0.661476  0.334546  0.000000  1
  As  As7  1  0.338524  0.673071  0.000000  1
  P  P8  1  0.000000  0.989858  0.500000  1
