# generated using pymatgen
data_Sr3Sn4Sb
_symmetry_space_group_name_H-M   'P 1'
_cell_length_a   9.02135859
_cell_length_b   9.02135810
_cell_length_c   9.02135915
_cell_angle_alpha   120.29251655
_cell_angle_beta   120.29251059
_cell_angle_gamma   89.49409033
_symmetry_Int_Tables_number   1
_chemical_formula_structural   Sr3Sn4Sb
_chemical_formula_sum   'Sr6 Sn8 Sb2'
_cell_volume   516.84234272
_cell_formula_units_Z   2
loop_
 _symmetry_equiv_pos_site_id
 _symmetry_equiv_pos_as_xyz
  1  'x, y, z'
loop_
 _atom_site_type_symbol
 _atom_site_label
 _atom_site_symmetry_multiplicity
 _atom_site_fract_x
 _atom_site_fract_y
 _atom_site_fract_z
 _atom_site_occupancy
  Sr  Sr0  1  0.250000  0.250000  0.000000  1
  Sr  Sr1  1  0.750000  0.750000  0.000000  1
  Sr  Sr2  1  0.163137  0.663137  0.826274  1
  Sr  Sr3  1  0.836863  0.336863  0.173726  1
  Sr  Sr4  1  0.663137  0.836863  0.500000  1
  Sr  Sr5  1  0.336863  0.163137  0.500000  1
  Sn  Sn6  1  0.830380  0.330380  0.785366  1
  Sn  Sn7  1  0.169620  0.669620  0.214634  1
  Sn  Sn8  1  0.545014  0.045014  0.214634  1
  Sn  Sn9  1  0.330380  0.545014  0.500000  1
  Sn  Sn10  1  0.954986  0.169620  0.500000  1
  Sn  Sn11  1  0.454986  0.954986  0.785366  1
  Sn  Sn12  1  0.669620  0.454986  0.500000  1
  Sn  Sn13  1  0.045014  0.830380  0.500000  1
  Sb  Sb14  1  0.000000  0.000000  0.000000  1
  Sb  Sb15  1  0.500000  0.500000  0.000000  1
