# generated using pymatgen
data_Lu4Zn2ReRu5
_symmetry_space_group_name_H-M   'P 1'
_cell_length_a   5.20583419
_cell_length_b   5.38131356
_cell_length_c   8.79579300
_cell_angle_alpha   90.00000000
_cell_angle_beta   90.00000000
_cell_angle_gamma   120.98259036
_symmetry_Int_Tables_number   1
_chemical_formula_structural   Lu4Zn2ReRu5
_chemical_formula_sum   'Lu4 Zn2 Re1 Ru5'
_cell_volume   211.25086188
_cell_formula_units_Z   1
loop_
 _symmetry_equiv_pos_site_id
 _symmetry_equiv_pos_as_xyz
  1  'x, y, z'
loop_
 _atom_site_type_symbol
 _atom_site_label
 _atom_site_symmetry_multiplicity
 _atom_site_fract_x
 _atom_site_fract_y
 _atom_site_fract_z
 _atom_site_occupancy
  Lu  Lu0  1  0.657157  0.328317  0.556229  1
  Lu  Lu1  1  0.337181  0.668609  0.433642  1
  Lu  Lu2  1  0.337181  0.668609  0.066358  1
  Lu  Lu3  1  0.657157  0.328317  0.943771  1
  Zn  Zn4  1  0.180251  0.342634  0.750000  1
  Zn  Zn5  1  0.178502  0.837773  0.750000  1
  Re  Re6  1  0.336046  0.167238  0.250000  1
  Ru  Ru7  1  0.000759  0.001317  0.500825  1
  Ru  Ru8  1  0.000759  0.001317  0.999175  1
  Ru  Ru9  1  0.672605  0.837052  0.750000  1
  Ru  Ru10  1  0.820888  0.655237  0.250000  1
  Ru  Ru11  1  0.821512  0.163580  0.250000  1
