# generated using pymatgen
data_Sc3MnBe2(B2Ir5)2
_symmetry_space_group_name_H-M   'P 1'
_cell_length_a   9.29653921
_cell_length_b   9.29653921
_cell_length_c   2.94591700
_cell_angle_alpha   90.00000000
_cell_angle_beta   90.00000000
_cell_angle_gamma   89.41726122
_symmetry_Int_Tables_number   1
_chemical_formula_structural   Sc3MnBe2(B2Ir5)2
_chemical_formula_sum   'Sc3 Mn1 Be2 B4 Ir10'
_cell_volume   254.58959741
_cell_formula_units_Z   1
loop_
 _symmetry_equiv_pos_site_id
 _symmetry_equiv_pos_as_xyz
  1  'x, y, z'
loop_
 _atom_site_type_symbol
 _atom_site_label
 _atom_site_symmetry_multiplicity
 _atom_site_fract_x
 _atom_site_fract_y
 _atom_site_fract_z
 _atom_site_occupancy
  Sc  Sc0  1  0.677586  0.176607  0.000000  1
  Sc  Sc1  1  0.323393  0.822414  0.000000  1
  Sc  Sc2  1  0.174325  0.325675  0.000000  1
  Mn  Mn3  1  0.821251  0.678749  0.000000  1
  Be  Be4  1  0.002572  0.003508  0.000000  1
  Be  Be5  1  0.496492  0.497428  0.000000  1
  B  B6  1  0.126979  0.628993  0.000000  1
  B  B7  1  0.871007  0.373021  0.000000  1
  B  B8  1  0.633296  0.866704  0.000000  1
  B  B9  1  0.372956  0.127044  0.000000  1
  Ir  Ir10  1  0.209377  0.067516  0.500000  1
  Ir  Ir11  1  0.796275  0.929714  0.500000  1
  Ir  Ir12  1  0.064652  0.792963  0.500000  1
  Ir  Ir13  1  0.707037  0.435348  0.500000  1
  Ir  Ir14  1  0.933036  0.209974  0.500000  1
  Ir  Ir15  1  0.290026  0.566964  0.500000  1
  Ir  Ir16  1  0.570286  0.703725  0.500000  1
  Ir  Ir17  1  0.432484  0.290623  0.500000  1
  Ir  Ir18  1  0.502382  0.997618  0.500000  1
  Ir  Ir19  1  0.994588  0.505412  0.500000  1
