# generated using pymatgen
data_Sm5YEr2(Si3Rh)4
_symmetry_space_group_name_H-M   'P 1'
_cell_length_a   8.21264487
_cell_length_b   8.21264483
_cell_length_c   8.06571800
_cell_angle_alpha   90.00000000
_cell_angle_beta   90.00000000
_cell_angle_gamma   120.05285838
_symmetry_Int_Tables_number   1
_chemical_formula_structural   Sm5YEr2(Si3Rh)4
_chemical_formula_sum   'Sm5 Y1 Er2 Si12 Rh4'
_cell_volume   470.87776484
_cell_formula_units_Z   1
loop_
 _symmetry_equiv_pos_site_id
 _symmetry_equiv_pos_as_xyz
  1  'x, y, z'
loop_
 _atom_site_type_symbol
 _atom_site_label
 _atom_site_symmetry_multiplicity
 _atom_site_fract_x
 _atom_site_fract_y
 _atom_site_fract_z
 _atom_site_occupancy
  Sm  Sm0  1  0.000028  0.999972  0.250000  1
  Sm  Sm1  1  0.999939  0.000061  0.750000  1
  Sm  Sm2  1  0.495066  0.504934  0.250000  1
  Sm  Sm3  1  0.495076  0.990196  0.250000  1
  Sm  Sm4  1  0.009804  0.504924  0.250000  1
  Y  Y5  1  0.507534  0.492466  0.750000  1
  Er  Er6  1  0.985381  0.492588  0.750000  1
  Er  Er7  1  0.507412  0.014619  0.750000  1
  Si  Si8  1  0.833501  0.166499  0.504872  1
  Si  Si9  1  0.833641  0.666972  0.504089  1
  Si  Si10  1  0.333028  0.166359  0.504089  1
  Si  Si11  1  0.833501  0.166499  0.995128  1
  Si  Si12  1  0.833641  0.666972  0.995911  1
  Si  Si13  1  0.333028  0.166359  0.995911  1
  Si  Si14  1  0.167852  0.832148  0.997188  1
  Si  Si15  1  0.664046  0.832115  0.997596  1
  Si  Si16  1  0.167885  0.335954  0.997596  1
  Si  Si17  1  0.167852  0.832148  0.502812  1
  Si  Si18  1  0.664046  0.832115  0.502404  1
  Si  Si19  1  0.167885  0.335954  0.502404  1
  Rh  Rh20  1  0.667014  0.332986  0.488636  1
  Rh  Rh21  1  0.667014  0.332986  0.011364  1
  Rh  Rh22  1  0.332913  0.667087  0.959690  1
  Rh  Rh23  1  0.332913  0.667087  0.540310  1
