# generated using pymatgen
data_UTe3(PO5)4
_symmetry_space_group_name_H-M   'P 1'
_cell_length_a   6.72613900
_cell_length_b   7.72893730
_cell_length_c   7.78522095
_cell_angle_alpha   88.01641004
_cell_angle_beta   90.00000000
_cell_angle_gamma   90.00000000
_symmetry_Int_Tables_number   1
_chemical_formula_structural   UTe3(PO5)4
_chemical_formula_sum   'U1 Te3 P4 O20'
_cell_volume   404.47925250
_cell_formula_units_Z   1
loop_
 _symmetry_equiv_pos_site_id
 _symmetry_equiv_pos_as_xyz
  1  'x, y, z'
loop_
 _atom_site_type_symbol
 _atom_site_label
 _atom_site_symmetry_multiplicity
 _atom_site_fract_x
 _atom_site_fract_y
 _atom_site_fract_z
 _atom_site_occupancy
  U  U0  1  0.250000  0.131063  0.748684  1
  Te  Te1  1  0.750000  0.369953  0.240608  1
  Te  Te2  1  0.250000  0.631461  0.759065  1
  Te  Te3  1  0.750000  0.868583  0.250724  1
  P  P4  1  0.750000  0.124707  0.608847  1
  P  P5  1  0.250000  0.378057  0.135489  1
  P  P6  1  0.750000  0.629385  0.879973  1
  P  P7  1  0.250000  0.869400  0.374471  1
  O  O8  1  0.250000  0.032364  0.488707  1
  O  O9  1  0.750000  0.138580  0.165473  1
  O  O10  1  0.569144  0.132809  0.728702  1
  O  O11  1  0.930856  0.132809  0.728702  1
  O  O12  1  0.250000  0.224258  0.012220  1
  O  O13  1  0.750000  0.292679  0.489859  1
  O  O14  1  0.062752  0.365291  0.255650  1
  O  O15  1  0.437248  0.365291  0.255650  1
  O  O16  1  0.250000  0.366314  0.667221  1
  O  O17  1  0.750000  0.453388  0.992537  1
  O  O18  1  0.250000  0.551428  0.031169  1
  O  O19  1  0.750000  0.598491  0.322437  1
  O  O20  1  0.566987  0.626566  0.761556  1
  O  O21  1  0.933013  0.626566  0.761556  1
  O  O22  1  0.250000  0.704718  0.494583  1
  O  O23  1  0.750000  0.792052  0.990097  1
  O  O24  1  0.066146  0.872614  0.255528  1
  O  O25  1  0.433854  0.872614  0.255528  1
  O  O26  1  0.250000  0.893231  0.833181  1
  O  O27  1  0.750000  0.955328  0.511780  1
