# generated using pymatgen
data_AlRe7Si13Ru
_symmetry_space_group_name_H-M   'P 1'
_cell_length_a   3.16337106
_cell_length_b   8.39848679
_cell_length_c   11.70300998
_cell_angle_alpha   92.97691710
_cell_angle_beta   97.76741684
_cell_angle_gamma   90.00000110
_symmetry_Int_Tables_number   1
_chemical_formula_structural   AlRe7Si13Ru
_chemical_formula_sum   'Al1 Re7 Si13 Ru1'
_cell_volume   307.64386836
_cell_formula_units_Z   1
loop_
 _symmetry_equiv_pos_site_id
 _symmetry_equiv_pos_as_xyz
  1  'x, y, z'
loop_
 _atom_site_type_symbol
 _atom_site_label
 _atom_site_symmetry_multiplicity
 _atom_site_fract_x
 _atom_site_fract_y
 _atom_site_fract_z
 _atom_site_occupancy
  Al  Al0  1  0.177802  0.884914  0.355606  1
  Re  Re1  1  0.273046  0.485703  0.546094  1
  Re  Re2  1  0.398142  0.367014  0.796282  1
  Re  Re3  1  0.522525  0.223711  0.045051  1
  Re  Re4  1  0.651561  0.117187  0.303122  1
  Re  Re5  1  0.769711  0.972568  0.539424  1
  Re  Re6  1  0.898688  0.850845  0.797376  1
  Re  Re7  1  0.024813  0.716452  0.049626  1
  Si  Si8  1  0.315064  0.788605  0.630127  1
  Si  Si9  1  0.442071  0.656402  0.884143  1
  Si  Si10  1  0.568215  0.522925  0.136431  1
  Si  Si11  1  0.692333  0.391883  0.384666  1
  Si  Si12  1  0.830783  0.219773  0.661564  1
  Si  Si13  1  0.995571  0.000767  0.991141  1
  Si  Si14  1  0.105127  0.294170  0.210252  1
  Si  Si15  1  0.235187  0.182491  0.470375  1
  Si  Si16  1  0.730406  0.686469  0.460814  1
  Si  Si17  1  0.854830  0.560255  0.709660  1
  Si  Si18  1  0.981085  0.422992  0.962168  1
  Si  Si19  1  0.576729  0.907263  0.153459  1
  Si  Si20  1  0.415169  0.080718  0.830337  1
  Ru  Ru21  1  0.149010  0.580288  0.298021  1
