# generated using pymatgen
data_La4Y12CdHg3Pt4
_symmetry_space_group_name_H-M   'P 1'
_cell_length_a   9.84467002
_cell_length_b   9.86674930
_cell_length_c   9.86674900
_cell_angle_alpha   60.00000436
_cell_angle_beta   59.92578652
_cell_angle_gamma   59.92578863
_symmetry_Int_Tables_number   1
_chemical_formula_structural   La4Y12CdHg3Pt4
_chemical_formula_sum   'La4 Y12 Cd1 Hg3 Pt4'
_cell_volume   676.93393334
_cell_formula_units_Z   1
loop_
 _symmetry_equiv_pos_site_id
 _symmetry_equiv_pos_as_xyz
  1  'x, y, z'
loop_
 _atom_site_type_symbol
 _atom_site_label
 _atom_site_symmetry_multiplicity
 _atom_site_fract_x
 _atom_site_fract_y
 _atom_site_fract_z
 _atom_site_occupancy
  La  La0  1  0.355696  0.354798  0.354798  1
  La  La1  1  0.355696  0.354798  0.934708  1
  La  La2  1  0.355696  0.934708  0.354798  1
  La  La3  1  0.931946  0.356018  0.356018  1
  Y  Y4  1  0.812071  0.187746  0.187746  1
  Y  Y5  1  0.186642  0.812862  0.812862  1
  Y  Y6  1  0.186642  0.812862  0.187636  1
  Y  Y7  1  0.812071  0.187746  0.812438  1
  Y  Y8  1  0.186642  0.187636  0.812862  1
  Y  Y9  1  0.812071  0.812438  0.187746  1
  Y  Y10  1  0.932635  0.566828  0.566828  1
  Y  Y11  1  0.565877  0.933796  0.933796  1
  Y  Y12  1  0.565877  0.933796  0.566530  1
  Y  Y13  1  0.932635  0.566828  0.933707  1
  Y  Y14  1  0.565877  0.566530  0.933796  1
  Y  Y15  1  0.932635  0.933707  0.566828  1
  Cd  Cd16  1  0.249328  0.583557  0.583557  1
  Hg  Hg17  1  0.586870  0.589475  0.589475  1
  Hg  Hg18  1  0.586870  0.589475  0.234178  1
  Hg  Hg19  1  0.586870  0.234178  0.589475  1
  Pt  Pt20  1  0.141081  0.141332  0.141332  1
  Pt  Pt21  1  0.141081  0.141332  0.576256  1
  Pt  Pt22  1  0.141081  0.576256  0.141332  1
  Pt  Pt23  1  0.576111  0.141296  0.141296  1
