# generated using pymatgen
data_Hf8In4FeCu6Rh
_symmetry_space_group_name_H-M   'P 1'
_cell_length_a   7.24186234
_cell_length_b   7.24186159
_cell_length_c   6.75393772
_cell_angle_alpha   90.17189694
_cell_angle_beta   90.17189813
_cell_angle_gamma   90.25597225
_symmetry_Int_Tables_number   1
_chemical_formula_structural   Hf8In4FeCu6Rh
_chemical_formula_sum   'Hf8 In4 Fe1 Cu6 Rh1'
_cell_volume   354.20058610
_cell_formula_units_Z   1
loop_
 _symmetry_equiv_pos_site_id
 _symmetry_equiv_pos_as_xyz
  1  'x, y, z'
loop_
 _atom_site_type_symbol
 _atom_site_label
 _atom_site_symmetry_multiplicity
 _atom_site_fract_x
 _atom_site_fract_y
 _atom_site_fract_z
 _atom_site_occupancy
  Hf  Hf0  1  0.148563  0.148563  0.005612  1
  Hf  Hf1  1  0.842622  0.842622  0.988897  1
  Hf  Hf2  1  0.654070  0.355822  0.507288  1
  Hf  Hf3  1  0.355822  0.654070  0.507288  1
  Hf  Hf4  1  0.683417  0.324073  0.996487  1
  Hf  Hf5  1  0.324073  0.683417  0.996487  1
  Hf  Hf6  1  0.804023  0.804023  0.509798  1
  Hf  Hf7  1  0.191026  0.191026  0.495933  1
  In  In8  1  0.503979  0.000398  0.248155  1
  In  In9  1  0.499226  0.998407  0.752473  1
  In  In10  1  0.000398  0.503979  0.248155  1
  In  In11  1  0.998407  0.499226  0.752473  1
  Fe  Fe12  1  0.622139  0.622139  0.769010  1
  Cu  Cu13  1  0.631129  0.631129  0.205551  1
  Cu  Cu14  1  0.877766  0.123170  0.707535  1
  Cu  Cu15  1  0.874740  0.121006  0.292295  1
  Cu  Cu16  1  0.369727  0.369727  0.793498  1
  Cu  Cu17  1  0.121006  0.874740  0.292295  1
  Cu  Cu18  1  0.123170  0.877766  0.707535  1
  Rh  Rh19  1  0.374698  0.374698  0.223236  1
