# generated using pymatgen
data_Sm2DyAlC3
_symmetry_space_group_name_H-M   'P 1'
_cell_length_a   3.65181300
_cell_length_b   7.25734831
_cell_length_c   10.04409153
_cell_angle_alpha   89.57525768
_cell_angle_beta   90.00000000
_cell_angle_gamma   90.00000000
_symmetry_Int_Tables_number   1
_chemical_formula_structural   Sm2DyAlC3
_chemical_formula_sum   'Sm4 Dy2 Al2 C6'
_cell_volume   266.18600975
_cell_formula_units_Z   2
loop_
 _symmetry_equiv_pos_site_id
 _symmetry_equiv_pos_as_xyz
  1  'x, y, z'
loop_
 _atom_site_type_symbol
 _atom_site_label
 _atom_site_symmetry_multiplicity
 _atom_site_fract_x
 _atom_site_fract_y
 _atom_site_fract_z
 _atom_site_occupancy
  Sm  Sm0  1  0.500000  0.512603  0.194273  1
  Sm  Sm1  1  0.500000  0.487397  0.805727  1
  Sm  Sm2  1  0.000000  0.750386  0.460123  1
  Sm  Sm3  1  0.000000  0.249614  0.539877  1
  Dy  Dy4  1  0.500000  0.987921  0.200257  1
  Dy  Dy5  1  0.500000  0.012079  0.799743  1
  Al  Al6  1  0.000000  0.767607  0.006238  1
  Al  Al7  1  0.000000  0.232393  0.993762  1
  C  C8  1  0.500000  0.507542  0.565559  1
  C  C9  1  0.500000  0.492458  0.434441  1
  C  C10  1  0.500000  0.991988  0.565574  1
  C  C11  1  0.500000  0.008012  0.434426  1
  C  C12  1  0.000000  0.756131  0.207378  1
  C  C13  1  0.000000  0.243869  0.792622  1
