# generated using pymatgen
data_Gd2VAsO8
_symmetry_space_group_name_H-M   'P 1'
_cell_length_a   6.05714079
_cell_length_b   6.05714126
_cell_length_c   6.05714164
_cell_angle_alpha   106.33877141
_cell_angle_beta   106.33877218
_cell_angle_gamma   115.93605099
_symmetry_Int_Tables_number   1
_chemical_formula_structural   Gd2VAsO8
_chemical_formula_sum   'Gd2 V1 As1 O8'
_cell_volume   169.42141936
_cell_formula_units_Z   1
loop_
 _symmetry_equiv_pos_site_id
 _symmetry_equiv_pos_as_xyz
  1  'x, y, z'
loop_
 _atom_site_type_symbol
 _atom_site_label
 _atom_site_symmetry_multiplicity
 _atom_site_fract_x
 _atom_site_fract_y
 _atom_site_fract_z
 _atom_site_occupancy
  Gd  Gd0  1  0.250000  0.750000  0.500000  1
  Gd  Gd1  1  0.000000  0.000000  0.000000  1
  V  V2  1  0.500000  0.500000  0.000000  1
  As  As3  1  0.750000  0.250000  0.500000  1
  O  O4  1  0.492567  0.675457  0.817111  1
  O  O5  1  0.324543  0.507433  0.182889  1
  O  O6  1  0.324543  0.141655  0.817111  1
  O  O7  1  0.858345  0.675457  0.182889  1
  O  O8  1  0.395791  0.076151  0.319640  1
  O  O9  1  0.923849  0.604209  0.680360  1
  O  O10  1  0.923849  0.243488  0.319640  1
  O  O11  1  0.756512  0.076151  0.680360  1
