# generated using pymatgen
data_Gd2DySi2Ag3Sn
_symmetry_space_group_name_H-M   'P 1'
_cell_length_a   7.23235011
_cell_length_b   7.23254386
_cell_length_c   4.33569800
_cell_angle_alpha   90.00000000
_cell_angle_beta   90.00000000
_cell_angle_gamma   120.00090551
_symmetry_Int_Tables_number   1
_chemical_formula_structural   Gd2DySi2Ag3Sn
_chemical_formula_sum   'Gd2 Dy1 Si2 Ag3 Sn1'
_cell_volume   196.40666030
_cell_formula_units_Z   1
loop_
 _symmetry_equiv_pos_site_id
 _symmetry_equiv_pos_as_xyz
  1  'x, y, z'
loop_
 _atom_site_type_symbol
 _atom_site_label
 _atom_site_symmetry_multiplicity
 _atom_site_fract_x
 _atom_site_fract_y
 _atom_site_fract_z
 _atom_site_occupancy
  Gd  Gd0  1  0.432048  0.432124  0.500000  1
  Gd  Gd1  1  0.567952  0.000076  0.500000  1
  Dy  Dy2  1  0.000000  0.567935  0.500000  1
  Si  Si3  1  0.667982  0.334092  0.000000  1
  Si  Si4  1  0.332018  0.666110  0.000000  1
  Ag  Ag5  1  0.736070  0.735704  0.000000  1
  Ag  Ag6  1  0.263930  0.999633  0.000000  1
  Ag  Ag7  1  0.000000  0.265217  0.000000  1
  Sn  Sn8  1  0.000000  0.999109  0.500000  1
