# generated using pymatgen
data_Zr12AsSe3
_symmetry_space_group_name_H-M   'P 1'
_cell_length_a   11.00829400
_cell_length_b   11.01038809
_cell_length_c   5.51004800
_cell_angle_alpha   90.00000000
_cell_angle_beta   90.00000000
_cell_angle_gamma   89.99152804
_symmetry_Int_Tables_number   1
_chemical_formula_structural   Zr12AsSe3
_chemical_formula_sum   'Zr24 As2 Se6'
_cell_volume   667.84860713
_cell_formula_units_Z   2
loop_
 _symmetry_equiv_pos_site_id
 _symmetry_equiv_pos_as_xyz
  1  'x, y, z'
loop_
 _atom_site_type_symbol
 _atom_site_label
 _atom_site_symmetry_multiplicity
 _atom_site_fract_x
 _atom_site_fract_y
 _atom_site_fract_z
 _atom_site_occupancy
  Zr  Zr0  1  0.897508  0.586094  0.041714  1
  Zr  Zr1  1  0.102492  0.413906  0.041714  1
  Zr  Zr2  1  0.914937  0.396136  0.547270  1
  Zr  Zr3  1  0.085063  0.603864  0.547270  1
  Zr  Zr4  1  0.602700  0.914577  0.455119  1
  Zr  Zr5  1  0.397300  0.085423  0.455119  1
  Zr  Zr6  1  0.585195  0.102578  0.956119  1
  Zr  Zr7  1  0.414805  0.897422  0.956119  1
  Zr  Zr8  1  0.859391  0.025592  0.717078  1
  Zr  Zr9  1  0.140609  0.974408  0.717078  1
  Zr  Zr10  1  0.474876  0.359596  0.216067  1
  Zr  Zr11  1  0.525124  0.640404  0.216067  1
  Zr  Zr12  1  0.640584  0.475004  0.783371  1
  Zr  Zr13  1  0.359416  0.524996  0.783371  1
  Zr  Zr14  1  0.025603  0.140937  0.284026  1
  Zr  Zr15  1  0.974397  0.859063  0.284026  1
  Zr  Zr16  1  0.285047  0.181943  0.983262  1
  Zr  Zr17  1  0.714953  0.818057  0.983262  1
  Zr  Zr18  1  0.318419  0.785294  0.484310  1
  Zr  Zr19  1  0.681581  0.214706  0.484310  1
  Zr  Zr20  1  0.214124  0.318104  0.515769  1
  Zr  Zr21  1  0.785876  0.681896  0.515769  1
  Zr  Zr22  1  0.182027  0.714991  0.015731  1
  Zr  Zr23  1  0.817973  0.285009  0.015731  1
  As  As24  1  0.037896  0.205022  0.789055  1
  As  As25  1  0.962104  0.794978  0.789055  1
  Se  Se26  1  0.793313  0.037769  0.211440  1
  Se  Se27  1  0.206687  0.962231  0.211440  1
  Se  Se28  1  0.462387  0.293092  0.711205  1
  Se  Se29  1  0.537613  0.706908  0.711205  1
  Se  Se30  1  0.707538  0.462413  0.288464  1
  Se  Se31  1  0.292462  0.537587  0.288464  1
