# generated using pymatgen
data_HoTmPd2F14
_symmetry_space_group_name_H-M   'P 1'
_cell_length_a   5.49692725
_cell_length_b   8.80595693
_cell_length_c   11.88980900
_cell_angle_alpha   62.50459473
_cell_angle_beta   90.08637740
_cell_angle_gamma   90.00136668
_symmetry_Int_Tables_number   1
_chemical_formula_structural   HoTmPd2F14
_chemical_formula_sum   'Ho2 Tm2 Pd4 F28'
_cell_volume   510.52599209
_cell_formula_units_Z   2
loop_
 _symmetry_equiv_pos_site_id
 _symmetry_equiv_pos_as_xyz
  1  'x, y, z'
loop_
 _atom_site_type_symbol
 _atom_site_label
 _atom_site_symmetry_multiplicity
 _atom_site_fract_x
 _atom_site_fract_y
 _atom_site_fract_z
 _atom_site_occupancy
  Ho  Ho0  1  0.762302  0.184650  0.236040  1
  Ho  Ho1  1  0.237698  0.815350  0.763960  1
  Tm  Tm2  1  0.263133  0.813702  0.264031  1
  Tm  Tm3  1  0.736867  0.186298  0.735969  1
  Pd  Pd4  1  0.759747  0.728426  0.043834  1
  Pd  Pd5  1  0.240253  0.271574  0.956166  1
  Pd  Pd6  1  0.259293  0.273972  0.457554  1
  Pd  Pd7  1  0.740707  0.726028  0.542446  1
  F  F8  1  0.935223  0.702245  0.414929  1
  F  F9  1  0.064777  0.297755  0.585071  1
  F  F10  1  0.434775  0.296350  0.083445  1
  F  F11  1  0.565225  0.703650  0.916555  1
  F  F12  1  0.465686  0.726795  0.136058  1
  F  F13  1  0.534314  0.273205  0.863942  1
  F  F14  1  0.964819  0.275056  0.365833  1
  F  F15  1  0.035181  0.724944  0.634167  1
  F  F16  1  0.950344  0.746230  0.176459  1
  F  F17  1  0.049656  0.253770  0.823541  1
  F  F18  1  0.448103  0.256904  0.324299  1
  F  F19  1  0.551897  0.743096  0.675701  1
  F  F20  1  0.773704  0.479238  0.142718  1
  F  F21  1  0.226296  0.520762  0.857282  1
  F  F22  1  0.273816  0.523185  0.358512  1
  F  F23  1  0.726184  0.476815  0.641488  1
  F  F24  1  0.939758  0.279167  0.041064  1
  F  F25  1  0.060242  0.720833  0.958936  1
  F  F26  1  0.438895  0.720279  0.456977  1
  F  F27  1  0.561105  0.279721  0.543023  1
  F  F28  1  0.744208  0.974351  0.450384  1
  F  F29  1  0.255792  0.025649  0.549616  1
  F  F30  1  0.243282  0.023243  0.049846  1
  F  F31  1  0.756718  0.976757  0.950154  1
  F  F32  1  0.585055  0.967746  0.232061  1
  F  F33  1  0.414945  0.032254  0.767939  1
  F  F34  1  0.088488  0.027637  0.268190  1
  F  F35  1  0.911512  0.972363  0.731810  1
