# generated using pymatgen
data_Tm20Si4Bi3Sb5
_symmetry_space_group_name_H-M   'P 1'
_cell_length_a   7.89560449
_cell_length_b   9.01551013
_cell_length_c   11.76861460
_cell_angle_alpha   89.99195698
_cell_angle_beta   90.03593615
_cell_angle_gamma   89.98232800
_symmetry_Int_Tables_number   1
_chemical_formula_structural   Tm20Si4Bi3Sb5
_chemical_formula_sum   'Tm20 Si4 Bi3 Sb5'
_cell_volume   837.72392960
_cell_formula_units_Z   1
loop_
 _symmetry_equiv_pos_site_id
 _symmetry_equiv_pos_as_xyz
  1  'x, y, z'
loop_
 _atom_site_type_symbol
 _atom_site_label
 _atom_site_symmetry_multiplicity
 _atom_site_fract_x
 _atom_site_fract_y
 _atom_site_fract_z
 _atom_site_occupancy
  Tm  Tm0  1  0.680656  0.946875  0.434363  1
  Tm  Tm1  1  0.818579  0.552906  0.934021  1
  Tm  Tm2  1  0.318966  0.446642  0.566311  1
  Tm  Tm3  1  0.181651  0.052552  0.064121  1
  Tm  Tm4  1  0.320152  0.053770  0.564020  1
  Tm  Tm5  1  0.182022  0.445935  0.060487  1
  Tm  Tm6  1  0.681359  0.554359  0.439158  1
  Tm  Tm7  1  0.816627  0.946812  0.938416  1
  Tm  Tm8  1  0.333033  0.757360  0.285663  1
  Tm  Tm9  1  0.169580  0.745765  0.785676  1
  Tm  Tm10  1  0.664743  0.253883  0.715216  1
  Tm  Tm11  1  0.833115  0.242711  0.213525  1
  Tm  Tm12  1  0.038805  0.749535  0.498068  1
  Tm  Tm13  1  0.460924  0.752736  0.996353  1
  Tm  Tm14  1  0.961256  0.250169  0.502529  1
  Tm  Tm15  1  0.537625  0.247874  0.000631  1
  Tm  Tm16  1  0.861650  0.755940  0.206069  1
  Tm  Tm17  1  0.635814  0.747201  0.707277  1
  Tm  Tm18  1  0.141880  0.253094  0.794396  1
  Tm  Tm19  1  0.361689  0.243774  0.293991  1
  Si  Si20  1  0.087526  0.749745  0.021155  1
  Si  Si21  1  0.411490  0.750148  0.521447  1
  Si  Si22  1  0.911809  0.249696  0.977788  1
  Si  Si23  1  0.588152  0.250282  0.478808  1
  Bi  Bi24  1  0.068824  0.488695  0.323721  1
  Bi  Bi25  1  0.568275  0.510993  0.174945  1
  Bi  Bi26  1  0.931090  0.988802  0.675923  1
  Sb  Sb27  1  0.567513  0.988974  0.172292  1
  Sb  Sb28  1  0.932229  0.511236  0.673118  1
  Sb  Sb29  1  0.432715  0.489216  0.827816  1
  Sb  Sb30  1  0.067842  0.011244  0.327765  1
  Sb  Sb31  1  0.432411  0.011077  0.824932  1
