# generated using pymatgen
data_Nd16Dy3ScPb16
_symmetry_space_group_name_H-M   'P 1'
_cell_length_a   8.37812359
_cell_length_b   16.10244663
_cell_length_c   8.47377100
_cell_angle_alpha   90.05198536
_cell_angle_beta   89.95494640
_cell_angle_gamma   89.99952494
_symmetry_Int_Tables_number   1
_chemical_formula_structural   Nd16Dy3ScPb16
_chemical_formula_sum   'Nd16 Dy3 Sc1 Pb16'
_cell_volume   1143.18111415
_cell_formula_units_Z   1
loop_
 _symmetry_equiv_pos_site_id
 _symmetry_equiv_pos_as_xyz
  1  'x, y, z'
loop_
 _atom_site_type_symbol
 _atom_site_label
 _atom_site_symmetry_multiplicity
 _atom_site_fract_x
 _atom_site_fract_y
 _atom_site_fract_z
 _atom_site_occupancy
  Nd  Nd0  1  0.624577  0.620346  0.158544  1
  Nd  Nd1  1  0.122864  0.879567  0.343205  1
  Nd  Nd2  1  0.375822  0.119541  0.841836  1
  Nd  Nd3  1  0.876025  0.381145  0.657863  1
  Nd  Nd4  1  0.375946  0.380384  0.841826  1
  Nd  Nd5  1  0.876165  0.118840  0.657756  1
  Nd  Nd6  1  0.624762  0.879665  0.158391  1
  Nd  Nd7  1  0.122955  0.620376  0.343234  1
  Nd  Nd8  1  0.467555  0.600408  0.677300  1
  Nd  Nd9  1  0.966845  0.899602  0.821319  1
  Nd  Nd10  1  0.532779  0.099315  0.322153  1
  Nd  Nd11  1  0.032774  0.400098  0.177348  1
  Nd  Nd12  1  0.532608  0.400681  0.322147  1
  Nd  Nd13  1  0.032620  0.099927  0.177495  1
  Nd  Nd14  1  0.467501  0.899621  0.677121  1
  Nd  Nd15  1  0.966631  0.600462  0.821366  1
  Dy  Dy16  1  0.292693  0.750002  0.003698  1
  Dy  Dy17  1  0.207582  0.250005  0.503894  1
  Dy  Dy18  1  0.707437  0.250014  0.995904  1
  Sc  Sc19  1  0.791107  0.749985  0.495417  1
  Pb  Pb20  1  0.717941  0.454822  0.968678  1
  Pb  Pb21  1  0.218174  0.045162  0.531558  1
  Pb  Pb22  1  0.281804  0.953911  0.032114  1
  Pb  Pb23  1  0.781652  0.548202  0.469569  1
  Pb  Pb24  1  0.281736  0.546028  0.031927  1
  Pb  Pb25  1  0.781658  0.951782  0.469489  1
  Pb  Pb26  1  0.717818  0.045248  0.968561  1
  Pb  Pb27  1  0.218136  0.454868  0.531652  1
  Pb  Pb28  1  0.433796  0.749973  0.378347  1
  Pb  Pb29  1  0.927900  0.750075  0.127200  1
  Pb  Pb30  1  0.571422  0.249872  0.624172  1
  Pb  Pb31  1  0.070376  0.249917  0.874915  1
  Pb  Pb32  1  0.660580  0.750028  0.841488  1
  Pb  Pb33  1  0.155302  0.750044  0.651913  1
  Pb  Pb34  1  0.342803  0.249994  0.153365  1
  Pb  Pb35  1  0.841653  0.250087  0.347233  1
