# generated using pymatgen
data_Hf4Al7Pd
_symmetry_space_group_name_H-M   'P 1'
_cell_length_a   5.29110500
_cell_length_b   5.23338124
_cell_length_c   8.66675600
_cell_angle_alpha   90.00000000
_cell_angle_beta   90.00000000
_cell_angle_gamma   120.36553605
_symmetry_Int_Tables_number   1
_chemical_formula_structural   Hf4Al7Pd
_chemical_formula_sum   'Hf4 Al7 Pd1'
_cell_volume   207.06393757
_cell_formula_units_Z   1
loop_
 _symmetry_equiv_pos_site_id
 _symmetry_equiv_pos_as_xyz
  1  'x, y, z'
loop_
 _atom_site_type_symbol
 _atom_site_label
 _atom_site_symmetry_multiplicity
 _atom_site_fract_x
 _atom_site_fract_y
 _atom_site_fract_z
 _atom_site_occupancy
  Hf  Hf0  1  0.335210  0.670421  0.431957  1
  Hf  Hf1  1  0.666701  0.333402  0.935496  1
  Hf  Hf2  1  0.666701  0.333402  0.564504  1
  Hf  Hf3  1  0.335210  0.670421  0.068043  1
  Al  Al4  1  0.829817  0.170919  0.250000  1
  Al  Al5  1  0.341103  0.170919  0.250000  1
  Al  Al6  1  0.649279  0.819499  0.750000  1
  Al  Al7  1  0.004622  0.009243  0.993670  1
  Al  Al8  1  0.004622  0.009243  0.506330  1
  Al  Al9  1  0.830396  0.660790  0.250000  1
  Al  Al10  1  0.170219  0.819499  0.750000  1
  Pd  Pd11  1  0.166120  0.332241  0.750000  1
