# generated using pymatgen
data_La8Y11HoSi16
_symmetry_space_group_name_H-M   'P 1'
_cell_length_a   7.59242401
_cell_length_b   7.88091101
_cell_length_c   14.98641200
_cell_angle_alpha   90.00000000
_cell_angle_beta   90.00000000
_cell_angle_gamma   90.00558394
_symmetry_Int_Tables_number   1
_chemical_formula_structural   La8Y11HoSi16
_chemical_formula_sum   'La8 Y11 Ho1 Si16'
_cell_volume   896.71522420
_cell_formula_units_Z   1
loop_
 _symmetry_equiv_pos_site_id
 _symmetry_equiv_pos_as_xyz
  1  'x, y, z'
loop_
 _atom_site_type_symbol
 _atom_site_label
 _atom_site_symmetry_multiplicity
 _atom_site_fract_x
 _atom_site_fract_y
 _atom_site_fract_z
 _atom_site_occupancy
  La  La0  1  0.976767  0.821617  0.097930  1
  La  La1  1  0.476801  0.678418  0.402070  1
  La  La2  1  0.523184  0.321479  0.901960  1
  La  La3  1  0.023346  0.178289  0.598029  1
  La  La4  1  0.023346  0.178289  0.901971  1
  La  La5  1  0.523184  0.321479  0.598040  1
  La  La6  1  0.476801  0.678418  0.097930  1
  La  La7  1  0.976767  0.821617  0.402070  1
  Y  Y8  1  0.649964  0.990208  0.250000  1
  Y  Y9  1  0.149941  0.509788  0.250000  1
  Y  Y10  1  0.850038  0.490208  0.750000  1
  Y  Y11  1  0.681059  0.822491  0.876577  1
  Y  Y12  1  0.181256  0.677694  0.623416  1
  Y  Y13  1  0.818812  0.322453  0.123340  1
  Y  Y14  1  0.318840  0.177541  0.376669  1
  Y  Y15  1  0.318840  0.177541  0.123331  1
  Y  Y16  1  0.818812  0.322453  0.376660  1
  Y  Y17  1  0.181256  0.677694  0.876584  1
  Y  Y18  1  0.681059  0.822491  0.623423  1
  Ho  Ho19  1  0.349982  0.009880  0.750000  1
  Si  Si20  1  0.769640  0.619439  0.250000  1
  Si  Si21  1  0.269638  0.880579  0.250000  1
  Si  Si22  1  0.729955  0.119382  0.750000  1
  Si  Si23  1  0.230381  0.380183  0.750000  1
  Si  Si24  1  0.024138  0.114120  0.250000  1
  Si  Si25  1  0.524143  0.385876  0.250000  1
  Si  Si26  1  0.475871  0.614283  0.750000  1
  Si  Si27  1  0.976246  0.885964  0.750000  1
  Si  Si28  1  0.857473  0.530633  0.960185  1
  Si  Si29  1  0.357463  0.969432  0.539936  1
  Si  Si30  1  0.642522  0.030625  0.039794  1
  Si  Si31  1  0.142509  0.469373  0.460197  1
  Si  Si32  1  0.142509  0.469373  0.039803  1
  Si  Si33  1  0.642522  0.030625  0.460206  1
  Si  Si34  1  0.357463  0.969432  0.960064  1
  Si  Si35  1  0.857473  0.530633  0.539815  1
