# generated using pymatgen
data_Tb4Al18OsPt5
_symmetry_space_group_name_H-M   'P 1'
_cell_length_a   7.62134169
_cell_length_b   7.62134049
_cell_length_c   9.47450401
_cell_angle_alpha   90.06174791
_cell_angle_beta   90.06175083
_cell_angle_gamma   119.74021806
_symmetry_Int_Tables_number   1
_chemical_formula_structural   Tb4Al18OsPt5
_chemical_formula_sum   'Tb4 Al18 Os1 Pt5'
_cell_volume   477.83707008
_cell_formula_units_Z   1
loop_
 _symmetry_equiv_pos_site_id
 _symmetry_equiv_pos_as_xyz
  1  'x, y, z'
loop_
 _atom_site_type_symbol
 _atom_site_label
 _atom_site_symmetry_multiplicity
 _atom_site_fract_x
 _atom_site_fract_y
 _atom_site_fract_z
 _atom_site_occupancy
  Tb  Tb0  1  0.995505  0.669329  0.248891  1
  Tb  Tb1  1  0.005120  0.330455  0.751073  1
  Tb  Tb2  1  0.669545  0.994880  0.248927  1
  Tb  Tb3  1  0.330671  0.004495  0.751109  1
  Al  Al4  1  0.128984  0.130523  0.249320  1
  Al  Al5  1  0.869477  0.871016  0.750680  1
  Al  Al6  1  0.995579  0.333873  0.074513  1
  Al  Al7  1  0.995142  0.659921  0.925770  1
  Al  Al8  1  0.998998  0.666515  0.577454  1
  Al  Al9  1  0.333485  0.001002  0.422546  1
  Al  Al10  1  0.000842  0.334630  0.423333  1
  Al  Al11  1  0.665370  0.999158  0.576667  1
  Al  Al12  1  0.666127  0.004421  0.925487  1
  Al  Al13  1  0.340079  0.004858  0.074230  1
  Al  Al14  1  0.333916  0.334639  0.560898  1
  Al  Al15  1  0.665361  0.666084  0.439102  1
  Al  Al16  1  0.667581  0.661585  0.054429  1
  Al  Al17  1  0.338415  0.332419  0.945571  1
  Al  Al18  1  0.336720  0.544877  0.249261  1
  Al  Al19  1  0.661390  0.452973  0.753874  1
  Al  Al20  1  0.547027  0.338610  0.246126  1
  Al  Al21  1  0.455123  0.663280  0.750739  1
  Os  Os22  1  0.671969  0.328031  0.000000  1
  Pt  Pt23  1  0.328046  0.671954  0.000000  1
  Pt  Pt24  1  0.327286  0.672714  0.500000  1
  Pt  Pt25  1  0.671945  0.328055  0.500000  1
  Pt  Pt26  1  0.000578  0.999422  0.000000  1
  Pt  Pt27  1  0.999720  0.000280  0.500000  1
