# generated using pymatgen
data_PrLu5(ThSb10)2
_symmetry_space_group_name_H-M   'P 1'
_cell_length_a   4.24034200
_cell_length_b   13.21380952
_cell_length_c   14.52406200
_cell_angle_alpha   78.66475201
_cell_angle_beta   90.00000000
_cell_angle_gamma   90.00000000
_symmetry_Int_Tables_number   1
_chemical_formula_structural   PrLu5(ThSb10)2
_chemical_formula_sum   'Pr1 Lu5 Th2 Sb20'
_cell_volume   797.92473907
_cell_formula_units_Z   1
loop_
 _symmetry_equiv_pos_site_id
 _symmetry_equiv_pos_as_xyz
  1  'x, y, z'
loop_
 _atom_site_type_symbol
 _atom_site_label
 _atom_site_symmetry_multiplicity
 _atom_site_fract_x
 _atom_site_fract_y
 _atom_site_fract_z
 _atom_site_occupancy
  Pr  Pr0  1  0.250000  0.952880  0.356757  1
  Lu  Lu1  1  0.250000  0.397042  0.773014  1
  Lu  Lu2  1  0.750000  0.606929  0.227179  1
  Lu  Lu3  1  0.250000  0.658828  0.857577  1
  Lu  Lu4  1  0.750000  0.342845  0.140050  1
  Lu  Lu5  1  0.250000  0.667402  0.575242  1
  Th  Th6  1  0.750000  0.332060  0.427570  1
  Th  Th7  1  0.750000  0.045339  0.647055  1
  Sb  Sb8  1  0.250000  0.146632  0.780758  1
  Sb  Sb9  1  0.750000  0.851521  0.219778  1
  Sb  Sb10  1  0.250000  0.142565  0.484491  1
  Sb  Sb11  1  0.750000  0.851741  0.523942  1
  Sb  Sb12  1  0.250000  0.157196  0.157599  1
  Sb  Sb13  1  0.750000  0.842046  0.837186  1
  Sb  Sb14  1  0.250000  0.421658  0.976559  1
  Sb  Sb15  1  0.750000  0.579403  0.022669  1
  Sb  Sb16  1  0.750000  0.029167  0.909508  1
  Sb  Sb17  1  0.250000  0.964940  0.089390  1
  Sb  Sb18  1  0.750000  0.146221  0.305071  1
  Sb  Sb19  1  0.250000  0.850399  0.685606  1
  Sb  Sb20  1  0.750000  0.280023  0.937323  1
  Sb  Sb21  1  0.250000  0.720371  0.063119  1
  Sb  Sb22  1  0.750000  0.290180  0.659415  1
  Sb  Sb23  1  0.250000  0.711164  0.342978  1
  Sb  Sb24  1  0.750000  0.577273  0.735016  1
  Sb  Sb25  1  0.250000  0.425879  0.262278  1
  Sb  Sb26  1  0.750000  0.574895  0.447096  1
  Sb  Sb27  1  0.250000  0.433402  0.555770  1
