# generated using pymatgen
data_LaPrP7Ru12
_symmetry_space_group_name_H-M   'P 1'
_cell_length_a   9.49971100
_cell_length_b   9.49971020
_cell_length_c   3.98954200
_cell_angle_alpha   90.00000000
_cell_angle_beta   90.00000000
_cell_angle_gamma   119.99999836
_symmetry_Int_Tables_number   1
_chemical_formula_structural   LaPrP7Ru12
_chemical_formula_sum   'La1 Pr1 P7 Ru12'
_cell_volume   311.79879373
_cell_formula_units_Z   1
loop_
 _symmetry_equiv_pos_site_id
 _symmetry_equiv_pos_as_xyz
  1  'x, y, z'
loop_
 _atom_site_type_symbol
 _atom_site_label
 _atom_site_symmetry_multiplicity
 _atom_site_fract_x
 _atom_site_fract_y
 _atom_site_fract_z
 _atom_site_occupancy
  La  La0  1  0.333333  0.666667  0.000000  1
  Pr  Pr1  1  0.666667  0.333333  0.500000  1
  P  P2  1  0.607115  0.717441  0.500000  1
  P  P3  1  0.000000  0.000000  0.000000  1
  P  P4  1  0.282559  0.889674  0.500000  1
  P  P5  1  0.110326  0.392885  0.500000  1
  P  P6  1  0.891377  0.575403  0.000000  1
  P  P7  1  0.424597  0.315973  0.000000  1
  P  P8  1  0.684027  0.108623  0.000000  1
  Ru  Ru9  1  0.559376  0.952363  0.500000  1
  Ru  Ru10  1  0.392987  0.440624  0.500000  1
  Ru  Ru11  1  0.914609  0.118944  0.500000  1
  Ru  Ru12  1  0.204334  0.085391  0.500000  1
  Ru  Ru13  1  0.881056  0.795666  0.500000  1
  Ru  Ru14  1  0.730344  0.892978  0.000000  1
  Ru  Ru15  1  0.107022  0.837365  0.000000  1
  Ru  Ru16  1  0.162635  0.269656  0.000000  1
  Ru  Ru17  1  0.419364  0.066248  0.000000  1
  Ru  Ru18  1  0.933752  0.353119  0.000000  1
  Ru  Ru19  1  0.646881  0.580636  0.000000  1
  Ru  Ru20  1  0.047637  0.607013  0.500000  1
