# generated using pymatgen
data_Mg2Fe3Co7Ni2P7
_symmetry_space_group_name_H-M   'P 1'
_cell_length_a   8.96908690
_cell_length_b   8.94330142
_cell_length_c   3.53058500
_cell_angle_alpha   90.00000000
_cell_angle_beta   90.00000000
_cell_angle_gamma   120.15968555
_symmetry_Int_Tables_number   1
_chemical_formula_structural   Mg2Fe3Co7Ni2P7
_chemical_formula_sum   'Mg2 Fe3 Co7 Ni2 P7'
_cell_volume   244.86252844
_cell_formula_units_Z   1
loop_
 _symmetry_equiv_pos_site_id
 _symmetry_equiv_pos_as_xyz
  1  'x, y, z'
loop_
 _atom_site_type_symbol
 _atom_site_label
 _atom_site_symmetry_multiplicity
 _atom_site_fract_x
 _atom_site_fract_y
 _atom_site_fract_z
 _atom_site_occupancy
  Mg  Mg0  1  0.001462  0.002017  0.000000  1
  Mg  Mg1  1  0.333268  0.665819  0.500000  1
  Fe  Fe2  1  0.887900  0.427839  0.500000  1
  Fe  Fe3  1  0.540849  0.113556  0.500000  1
  Fe  Fe4  1  0.571698  0.458006  0.500000  1
  Co  Co5  1  0.390863  0.215647  0.000000  1
  Co  Co6  1  0.784750  0.172295  0.000000  1
  Co  Co7  1  0.827038  0.611729  0.000000  1
  Co  Co8  1  0.603339  0.708155  0.000000  1
  Co  Co9  1  0.290002  0.895773  0.000000  1
  Co  Co10  1  0.103447  0.395747  0.000000  1
  Co  Co11  1  0.226173  0.276963  0.500000  1
  Ni  Ni12  1  0.051159  0.775252  0.500000  1
  Ni  Ni13  1  0.723439  0.948831  0.500000  1
  P  P14  1  0.263753  0.047523  0.500000  1
  P  P15  1  0.959544  0.220971  0.500000  1
  P  P16  1  0.779013  0.735268  0.500000  1
  P  P17  1  0.372362  0.451484  0.000000  1
  P  P18  1  0.543254  0.920589  0.000000  1
  P  P19  1  0.078725  0.623551  0.000000  1
  P  P20  1  0.667965  0.332984  0.000000  1
