# generated using pymatgen
data_Ho10Tl8Ir3Au
_symmetry_space_group_name_H-M   'P 1'
_cell_length_a   3.62942800
_cell_length_b   8.12995822
_cell_length_c   18.25968200
_cell_angle_alpha   89.92363340
_cell_angle_beta   90.00000000
_cell_angle_gamma   90.00000000
_symmetry_Int_Tables_number   1
_chemical_formula_structural   Ho10Tl8Ir3Au
_chemical_formula_sum   'Ho10 Tl8 Ir3 Au1'
_cell_volume   538.78974778
_cell_formula_units_Z   1
loop_
 _symmetry_equiv_pos_site_id
 _symmetry_equiv_pos_as_xyz
  1  'x, y, z'
loop_
 _atom_site_type_symbol
 _atom_site_label
 _atom_site_symmetry_multiplicity
 _atom_site_fract_x
 _atom_site_fract_y
 _atom_site_fract_z
 _atom_site_occupancy
  Ho  Ho0  1  0.000000  0.498825  0.501716  1
  Ho  Ho1  1  0.000000  0.000414  0.999011  1
  Ho  Ho2  1  0.000000  0.720804  0.278093  1
  Ho  Ho3  1  0.000000  0.258550  0.722121  1
  Ho  Ho4  1  0.000000  0.758289  0.777833  1
  Ho  Ho5  1  0.000000  0.259767  0.217260  1
  Ho  Ho6  1  0.000000  0.612564  0.086971  1
  Ho  Ho7  1  0.000000  0.387401  0.908562  1
  Ho  Ho8  1  0.000000  0.888772  0.591664  1
  Ho  Ho9  1  0.000000  0.117091  0.417470  1
  Tl  Tl10  1  0.500000  0.707584  0.934176  1
  Tl  Tl11  1  0.500000  0.291927  0.063940  1
  Tl  Tl12  1  0.500000  0.791052  0.436802  1
  Tl  Tl13  1  0.500000  0.207737  0.567117  1
  Tl  Tl14  1  0.500000  0.576352  0.647651  1
  Tl  Tl15  1  0.500000  0.419843  0.353675  1
  Tl  Tl16  1  0.500000  0.917320  0.146397  1
  Tl  Tl17  1  0.500000  0.075138  0.851855  1
  Ir  Ir18  1  0.500000  0.522162  0.195241  1
  Ir  Ir19  1  0.500000  0.482846  0.803205  1
  Ir  Ir20  1  0.500000  0.982837  0.697208  1
  Au  Au21  1  0.500000  0.022723  0.302032  1
