# generated using pymatgen
data_TbDy11Tc3Pt
_symmetry_space_group_name_H-M   'P 1'
_cell_length_a   6.30695437
_cell_length_b   7.39967661
_cell_length_c   9.21823100
_cell_angle_alpha   90.00000000
_cell_angle_beta   90.00000000
_cell_angle_gamma   90.00005780
_symmetry_Int_Tables_number   1
_chemical_formula_structural   TbDy11Tc3Pt
_chemical_formula_sum   'Tb1 Dy11 Tc3 Pt1'
_cell_volume   430.20951915
_cell_formula_units_Z   1
loop_
 _symmetry_equiv_pos_site_id
 _symmetry_equiv_pos_as_xyz
  1  'x, y, z'
loop_
 _atom_site_type_symbol
 _atom_site_label
 _atom_site_symmetry_multiplicity
 _atom_site_fract_x
 _atom_site_fract_y
 _atom_site_fract_z
 _atom_site_occupancy
  Tb  Tb0  1  0.871462  0.543137  0.250000  1
  Dy  Dy1  1  0.328875  0.675817  0.067287  1
  Dy  Dy2  1  0.165593  0.177386  0.435882  1
  Dy  Dy3  1  0.668593  0.318695  0.559312  1
  Dy  Dy4  1  0.836606  0.827419  0.939413  1
  Dy  Dy5  1  0.668593  0.318695  0.940688  1
  Dy  Dy6  1  0.836606  0.827419  0.560587  1
  Dy  Dy7  1  0.328875  0.675817  0.432713  1
  Dy  Dy8  1  0.165593  0.177386  0.064118  1
  Dy  Dy9  1  0.624382  0.038662  0.250000  1
  Dy  Dy10  1  0.129654  0.455458  0.750000  1
  Dy  Dy11  1  0.369857  0.964601  0.750000  1
  Tc  Tc12  1  0.038506  0.886128  0.250000  1
  Tc  Tc13  1  0.463127  0.387158  0.250000  1
  Tc  Tc14  1  0.957003  0.113277  0.750000  1
  Pt  Pt15  1  0.546671  0.612943  0.750000  1
