# generated using pymatgen
data_Li8La7NdBi8
_symmetry_space_group_name_H-M   'P 1'
_cell_length_a   9.91080000
_cell_length_b   9.91079900
_cell_length_c   7.65888600
_cell_angle_alpha   90.00000000
_cell_angle_beta   90.00000000
_cell_angle_gamma   119.99999665
_symmetry_Int_Tables_number   1
_chemical_formula_structural   Li8La7NdBi8
_chemical_formula_sum   'Li8 La7 Nd1 Bi8'
_cell_volume   651.49881831
_cell_formula_units_Z   1
loop_
 _symmetry_equiv_pos_site_id
 _symmetry_equiv_pos_as_xyz
  1  'x, y, z'
loop_
 _atom_site_type_symbol
 _atom_site_label
 _atom_site_symmetry_multiplicity
 _atom_site_fract_x
 _atom_site_fract_y
 _atom_site_fract_z
 _atom_site_occupancy
  Li  Li0  1  0.166791  0.833209  0.291448  1
  Li  Li1  1  0.666417  0.833209  0.291448  1
  Li  Li2  1  0.166791  0.333583  0.291448  1
  Li  Li3  1  0.834886  0.165114  0.802053  1
  Li  Li4  1  0.330229  0.165114  0.802053  1
  Li  Li5  1  0.834886  0.669771  0.802053  1
  Li  Li6  1  0.333333  0.666667  0.689860  1
  Li  Li7  1  0.666667  0.333333  0.198650  1
  La  La8  1  0.512753  0.487247  0.508675  1
  La  La9  1  0.974496  0.487247  0.508675  1
  La  La10  1  0.512753  0.025504  0.508675  1
  La  La11  1  0.488991  0.511009  0.008044  1
  La  La12  1  0.022017  0.511009  0.008044  1
  La  La13  1  0.488991  0.977983  0.008044  1
  La  La14  1  0.000000  0.000000  0.516369  1
  Nd  Nd15  1  0.000000  0.000000  0.016900  1
  Bi  Bi16  1  0.166726  0.833274  0.750972  1
  Bi  Bi17  1  0.666548  0.833274  0.750972  1
  Bi  Bi18  1  0.166726  0.333452  0.750972  1
  Bi  Bi19  1  0.834163  0.165837  0.246371  1
  Bi  Bi20  1  0.331673  0.165837  0.246371  1
  Bi  Bi21  1  0.834163  0.668327  0.246371  1
  Bi  Bi22  1  0.333333  0.666667  0.281481  1
  Bi  Bi23  1  0.666667  0.333333  0.784039  1
