# generated using pymatgen
data_Nd2Al(Zn6Ag)3
_symmetry_space_group_name_H-M   'P 1'
_cell_length_a   8.38722422
_cell_length_b   8.34432016
_cell_length_c   8.33143900
_cell_angle_alpha   99.63208579
_cell_angle_beta   99.90551363
_cell_angle_gamma   131.05812205
_symmetry_Int_Tables_number   1
_chemical_formula_structural   Nd2Al(Zn6Ag)3
_chemical_formula_sum   'Nd2 Al1 Zn18 Ag3'
_cell_volume   401.09154414
_cell_formula_units_Z   1
loop_
 _symmetry_equiv_pos_site_id
 _symmetry_equiv_pos_as_xyz
  1  'x, y, z'
loop_
 _atom_site_type_symbol
 _atom_site_label
 _atom_site_symmetry_multiplicity
 _atom_site_fract_x
 _atom_site_fract_y
 _atom_site_fract_z
 _atom_site_occupancy
  Nd  Nd0  1  0.248835  0.750785  0.502116  1
  Nd  Nd1  1  0.000327  0.998726  0.000962  1
  Al  Al2  1  0.424442  0.095858  0.915794  1
  Zn  Zn3  1  0.626164  0.377461  0.746770  1
  Zn  Zn4  1  0.123358  0.373425  0.744197  1
  Zn  Zn5  1  0.627206  0.378265  0.253725  1
  Zn  Zn6  1  0.629429  0.876665  0.251495  1
  Zn  Zn7  1  0.179322  0.095635  0.669864  1
  Zn  Zn8  1  0.758587  0.931077  0.588352  1
  Zn  Zn9  1  0.344849  0.175216  0.415539  1
  Zn  Zn10  1  0.432377  0.513601  0.332170  1
  Zn  Zn11  1  0.908497  0.821028  0.328442  1
  Zn  Zn12  1  0.490876  0.576279  0.670403  1
  Zn  Zn13  1  0.070520  0.243315  0.408834  1
  Zn  Zn14  1  0.829774  0.658303  0.586478  1
  Zn  Zn15  1  0.067634  0.651776  0.829223  1
  Zn  Zn16  1  0.488719  0.813590  0.913254  1
  Zn  Zn17  1  0.901962  0.575502  0.083967  1
  Zn  Zn18  1  0.817854  0.235723  0.171625  1
  Zn  Zn19  1  0.343726  0.933418  0.176375  1
  Zn  Zn20  1  0.755382  0.170115  0.826048  1
  Ag  Ag21  1  0.179365  0.507441  0.087421  1
  Ag  Ag22  1  0.501722  0.498060  0.996787  1
  Ag  Ag23  1  0.749072  0.248734  0.500158  1
