# generated using pymatgen
data_Th8Al(Si4Pd)3
_symmetry_space_group_name_H-M   'P 1'
_cell_length_a   8.27208200
_cell_length_b   8.27208360
_cell_length_c   8.49210500
_cell_angle_alpha   90.00000000
_cell_angle_beta   90.00000000
_cell_angle_gamma   119.99999361
_symmetry_Int_Tables_number   1
_chemical_formula_structural   Th8Al(Si4Pd)3
_chemical_formula_sum   'Th8 Al1 Si12 Pd3'
_cell_volume   503.24070335
_cell_formula_units_Z   1
loop_
 _symmetry_equiv_pos_site_id
 _symmetry_equiv_pos_as_xyz
  1  'x, y, z'
loop_
 _atom_site_type_symbol
 _atom_site_label
 _atom_site_symmetry_multiplicity
 _atom_site_fract_x
 _atom_site_fract_y
 _atom_site_fract_z
 _atom_site_occupancy
  Th  Th0  1  0.500277  0.499723  0.754590  1
  Th  Th1  1  0.501077  0.498923  0.245244  1
  Th  Th2  1  0.999445  0.499723  0.754590  1
  Th  Th3  1  0.997847  0.498923  0.245244  1
  Th  Th4  1  0.500277  0.000555  0.754590  1
  Th  Th5  1  0.501077  0.002153  0.245244  1
  Th  Th6  1  0.000000  0.000000  0.750788  1
  Th  Th7  1  0.000000  0.000000  0.249304  1
  Al  Al8  1  0.666667  0.333333  0.998056  1
  Si  Si9  1  0.834322  0.165678  0.000349  1
  Si  Si10  1  0.165692  0.834308  0.999764  1
  Si  Si11  1  0.331358  0.165678  0.000349  1
  Si  Si12  1  0.165584  0.834416  0.499318  1
  Si  Si13  1  0.668616  0.834308  0.999764  1
  Si  Si14  1  0.834309  0.165691  0.500588  1
  Si  Si15  1  0.834322  0.668642  0.000349  1
  Si  Si16  1  0.668830  0.834416  0.499318  1
  Si  Si17  1  0.165692  0.331384  0.999764  1
  Si  Si18  1  0.331384  0.165691  0.500588  1
  Si  Si19  1  0.165584  0.331170  0.499318  1
  Si  Si20  1  0.834309  0.668616  0.500588  1
  Pd  Pd21  1  0.333333  0.666667  0.001775  1
  Pd  Pd22  1  0.333333  0.666667  0.499313  1
  Pd  Pd23  1  0.666667  0.333333  0.501203  1
