# generated using pymatgen
data_Ho8Ga12AgRh3
_symmetry_space_group_name_H-M   'P 1'
_cell_length_a   7.07340400
_cell_length_b   8.87350856
_cell_length_c   8.87350900
_cell_angle_alpha   119.99999790
_cell_angle_beta   90.00000000
_cell_angle_gamma   90.00000000
_symmetry_Int_Tables_number   1
_chemical_formula_structural   Ho8Ga12AgRh3
_chemical_formula_sum   'Ho8 Ga12 Ag1 Rh3'
_cell_volume   482.33621548
_cell_formula_units_Z   1
loop_
 _symmetry_equiv_pos_site_id
 _symmetry_equiv_pos_as_xyz
  1  'x, y, z'
loop_
 _atom_site_type_symbol
 _atom_site_label
 _atom_site_symmetry_multiplicity
 _atom_site_fract_x
 _atom_site_fract_y
 _atom_site_fract_z
 _atom_site_occupancy
  Ho  Ho0  1  0.756938  0.000000  0.000000  1
  Ho  Ho1  1  0.250984  0.000000  0.000000  1
  Ho  Ho2  1  0.748974  0.471040  0.528960  1
  Ho  Ho3  1  0.243917  0.517586  0.482414  1
  Ho  Ho4  1  0.748974  0.057921  0.528960  1
  Ho  Ho5  1  0.243917  0.964828  0.482414  1
  Ho  Ho6  1  0.748974  0.471040  0.942079  1
  Ho  Ho7  1  0.243917  0.517586  0.035172  1
  Ga  Ga8  1  0.947616  0.829053  0.170947  1
  Ga  Ga9  1  0.045401  0.168513  0.831487  1
  Ga  Ga10  1  0.947616  0.341895  0.170947  1
  Ga  Ga11  1  0.452160  0.168377  0.831623  1
  Ga  Ga12  1  0.045401  0.662971  0.831487  1
  Ga  Ga13  1  0.544549  0.836367  0.163633  1
  Ga  Ga14  1  0.947616  0.829053  0.658105  1
  Ga  Ga15  1  0.452160  0.663246  0.831623  1
  Ga  Ga16  1  0.045401  0.168513  0.337029  1
  Ga  Ga17  1  0.544549  0.327264  0.163633  1
  Ga  Ga18  1  0.452160  0.168377  0.336754  1
  Ga  Ga19  1  0.544549  0.836367  0.672736  1
  Ag  Ag20  1  0.560483  0.666667  0.333333  1
  Rh  Rh21  1  0.985605  0.666667  0.333333  1
  Rh  Rh22  1  0.030478  0.333333  0.666667  1
  Rh  Rh23  1  0.467659  0.333333  0.666667  1
