# generated using pymatgen
data_SrTbIO6
_symmetry_space_group_name_H-M   'P 1'
_cell_length_a   5.59285800
_cell_length_b   5.59285841
_cell_length_c   10.56983600
_cell_angle_alpha   90.00000000
_cell_angle_beta   90.00000000
_cell_angle_gamma   120.00000942
_symmetry_Int_Tables_number   1
_chemical_formula_structural   SrTbIO6
_chemical_formula_sum   'Sr2 Tb2 I2 O12'
_cell_volume   286.32973862
_cell_formula_units_Z   2
loop_
 _symmetry_equiv_pos_site_id
 _symmetry_equiv_pos_as_xyz
  1  'x, y, z'
loop_
 _atom_site_type_symbol
 _atom_site_label
 _atom_site_symmetry_multiplicity
 _atom_site_fract_x
 _atom_site_fract_y
 _atom_site_fract_z
 _atom_site_occupancy
  Sr  Sr0  1  0.000000  0.000000  0.000000  1
  Sr  Sr1  1  0.000000  0.000000  0.500000  1
  Tb  Tb2  1  0.666667  0.333333  0.250000  1
  Tb  Tb3  1  0.333333  0.666667  0.750000  1
  I  I4  1  0.333333  0.666667  0.250000  1
  I  I5  1  0.666667  0.333333  0.750000  1
  O  O6  1  0.656557  0.606843  0.646398  1
  O  O7  1  0.656557  0.049714  0.853602  1
  O  O8  1  0.950286  0.606843  0.853602  1
  O  O9  1  0.393157  0.343443  0.853602  1
  O  O10  1  0.049714  0.393157  0.353602  1
  O  O11  1  0.393157  0.049714  0.646398  1
  O  O12  1  0.343443  0.950286  0.353602  1
  O  O13  1  0.343443  0.393157  0.146398  1
  O  O14  1  0.950286  0.343443  0.646398  1
  O  O15  1  0.606843  0.950286  0.146398  1
  O  O16  1  0.049714  0.656557  0.146398  1
  O  O17  1  0.606843  0.656557  0.353602  1
