# generated using pymatgen
data_Y3Hf(Al8Pt3)3
_symmetry_space_group_name_H-M   'P 1'
_cell_length_a   7.52822327
_cell_length_b   7.53391278
_cell_length_c   13.11536177
_cell_angle_alpha   84.53952548
_cell_angle_beta   79.02958037
_cell_angle_gamma   59.88768355
_symmetry_Int_Tables_number   1
_chemical_formula_structural   Y3Hf(Al8Pt3)3
_chemical_formula_sum   'Y3 Hf1 Al24 Pt9'
_cell_volume   631.71533228
_cell_formula_units_Z   1
loop_
 _symmetry_equiv_pos_site_id
 _symmetry_equiv_pos_as_xyz
  1  'x, y, z'
loop_
 _atom_site_type_symbol
 _atom_site_label
 _atom_site_symmetry_multiplicity
 _atom_site_fract_x
 _atom_site_fract_y
 _atom_site_fract_z
 _atom_site_occupancy
  Y  Y0  1  0.606611  0.832140  0.190950  1
  Y  Y1  1  0.733579  0.498750  0.808189  1
  Y  Y2  1  0.267008  0.501143  0.191077  1
  Hf  Hf3  1  0.393797  0.168289  0.807475  1
  Al  Al4  1  0.681300  0.837308  0.941314  1
  Al  Al5  1  0.316421  0.166354  0.052855  1
  Al  Al6  1  0.146333  0.832804  0.562735  1
  Al  Al7  1  0.852904  0.167037  0.438610  1
  Al  Al8  1  0.480080  0.166745  0.560596  1
  Al  Al9  1  0.519178  0.833839  0.441653  1
  Al  Al10  1  0.217082  0.165467  0.330367  1
  Al  Al11  1  0.779439  0.836736  0.673811  1
  Al  Al12  1  0.435769  0.504477  0.674277  1
  Al  Al13  1  0.562354  0.493703  0.329435  1
  Al  Al14  1  0.110819  0.159611  0.673099  1
  Al  Al15  1  0.890176  0.839731  0.330677  1
  Al  Al16  1  0.353955  0.495781  0.941228  1
  Al  Al17  1  0.648485  0.499612  0.054879  1
  Al  Al18  1  0.019882  0.168037  0.949338  1
  Al  Al19  1  0.984994  0.833276  0.045608  1
  Al  Al20  1  0.186726  0.499381  0.441667  1
  Al  Al21  1  0.813662  0.500198  0.559168  1
  Al  Al22  1  0.734184  0.163934  0.183586  1
  Al  Al23  1  0.265530  0.841790  0.816430  1
  Al  Al24  1  0.066460  0.626424  0.815131  1
  Al  Al25  1  0.939507  0.368154  0.184449  1
  Al  Al26  1  0.850162  0.041249  0.815605  1
  Al  Al27  1  0.144631  0.958716  0.183924  1
  Pt  Pt28  1  0.120956  0.489943  0.639961  1
  Pt  Pt29  1  0.878849  0.507897  0.361986  1
  Pt  Pt30  1  0.657777  0.171826  0.998407  1
  Pt  Pt31  1  0.343624  0.827825  0.998827  1
  Pt  Pt32  1  0.537685  0.166655  0.362251  1
  Pt  Pt33  1  0.462916  0.833810  0.639907  1
  Pt  Pt34  1  0.777456  0.175986  0.638360  1
  Pt  Pt35  1  0.219831  0.825161  0.363770  1
  Pt  Pt36  1  0.999879  0.500211  0.998399  1
