# generated using pymatgen
data_Tb2Y14MgIn3Pd4
_symmetry_space_group_name_H-M   'P 1'
_cell_length_a   9.78844860
_cell_length_b   9.77012697
_cell_length_c   9.79460900
_cell_angle_alpha   59.91707736
_cell_angle_beta   59.97918233
_cell_angle_gamma   59.93936012
_symmetry_Int_Tables_number   1
_chemical_formula_structural   Tb2Y14MgIn3Pd4
_chemical_formula_sum   'Tb2 Y14 Mg1 In3 Pd4'
_cell_volume   661.52440230
_cell_formula_units_Z   1
loop_
 _symmetry_equiv_pos_site_id
 _symmetry_equiv_pos_as_xyz
  1  'x, y, z'
loop_
 _atom_site_type_symbol
 _atom_site_label
 _atom_site_symmetry_multiplicity
 _atom_site_fract_x
 _atom_site_fract_y
 _atom_site_fract_z
 _atom_site_occupancy
  Tb  Tb0  1  0.351396  0.351102  0.351421  1
  Tb  Tb1  1  0.351396  0.351102  0.946082  1
  Y  Y2  1  0.352687  0.943002  0.352156  1
  Y  Y3  1  0.939494  0.353170  0.353669  1
  Y  Y4  1  0.808672  0.191468  0.190944  1
  Y  Y5  1  0.188666  0.811445  0.810795  1
  Y  Y6  1  0.188666  0.811445  0.189095  1
  Y  Y7  1  0.808672  0.191468  0.808916  1
  Y  Y8  1  0.188424  0.189101  0.811238  1
  Y  Y9  1  0.808934  0.808872  0.191097  1
  Y  Y10  1  0.935264  0.564711  0.565084  1
  Y  Y11  1  0.564223  0.935589  0.935877  1
  Y  Y12  1  0.564223  0.935589  0.564309  1
  Y  Y13  1  0.935264  0.564711  0.934940  1
  Y  Y14  1  0.564539  0.564184  0.935638  1
  Y  Y15  1  0.935233  0.935476  0.564645  1
  Mg  Mg16  1  0.266546  0.577873  0.577790  1
  In  In17  1  0.582761  0.583900  0.583422  1
  In  In18  1  0.582761  0.583900  0.249915  1
  In  In19  1  0.582641  0.250538  0.583410  1
  Pd  Pd20  1  0.143827  0.144548  0.143802  1
  Pd  Pd21  1  0.143827  0.144548  0.567823  1
  Pd  Pd22  1  0.143436  0.567947  0.144309  1
  Pd  Pd23  1  0.568447  0.144310  0.143622  1
