# generated using pymatgen
data_Ho4UCo5
_symmetry_space_group_name_H-M   'P 1'
_cell_length_a   5.61058764
_cell_length_b   5.61058718
_cell_length_c   7.01408162
_cell_angle_alpha   87.06083935
_cell_angle_beta   92.93916263
_cell_angle_gamma   121.93598792
_symmetry_Int_Tables_number   1
_chemical_formula_structural   Ho4UCo5
_chemical_formula_sum   'Ho4 U1 Co5'
_cell_volume   187.05214253
_cell_formula_units_Z   1
loop_
 _symmetry_equiv_pos_site_id
 _symmetry_equiv_pos_as_xyz
  1  'x, y, z'
loop_
 _atom_site_type_symbol
 _atom_site_label
 _atom_site_symmetry_multiplicity
 _atom_site_fract_x
 _atom_site_fract_y
 _atom_site_fract_z
 _atom_site_occupancy
  Ho  Ho0  1  0.833204  0.166795  0.113395  1
  Ho  Ho1  1  0.334079  0.665920  0.412443  1
  Ho  Ho2  1  0.665920  0.334079  0.587556  1
  Ho  Ho3  1  0.166795  0.833204  0.886605  1
  U  U4  1  0.499999  0.499999  0.000000  1
  Co  Co5  1  0.335062  0.164313  0.244397  1
  Co  Co6  1  0.835686  0.664937  0.244397  1
  Co  Co7  1  0.000000  0.000000  0.499999  1
  Co  Co8  1  0.164313  0.335062  0.755603  1
  Co  Co9  1  0.664937  0.835686  0.755603  1
