# generated using pymatgen
data_Yb2Pd3O8
_symmetry_space_group_name_H-M   'P 1'
_cell_length_a   6.22053414
_cell_length_b   6.22053234
_cell_length_c   6.22053298
_cell_angle_alpha   59.78610921
_cell_angle_beta   59.78611877
_cell_angle_gamma   59.78610721
_symmetry_Int_Tables_number   1
_chemical_formula_structural   Yb2Pd3O8
_chemical_formula_sum   'Yb2 Pd3 O8'
_cell_volume   169.37675839
_cell_formula_units_Z   1
loop_
 _symmetry_equiv_pos_site_id
 _symmetry_equiv_pos_as_xyz
  1  'x, y, z'
loop_
 _atom_site_type_symbol
 _atom_site_label
 _atom_site_symmetry_multiplicity
 _atom_site_fract_x
 _atom_site_fract_y
 _atom_site_fract_z
 _atom_site_occupancy
  Yb  Yb0  1  0.853184  0.853184  0.853184  1
  Yb  Yb1  1  0.146816  0.146816  0.146816  1
  Pd  Pd2  1  0.000000  0.500000  0.500000  1
  Pd  Pd3  1  0.500000  0.000000  0.500000  1
  Pd  Pd4  1  0.500000  0.500000  0.000000  1
  O  O5  1  0.601368  0.601368  0.601368  1
  O  O6  1  0.398632  0.398632  0.398632  1
  O  O7  1  0.110243  0.110243  0.560045  1
  O  O8  1  0.560045  0.110243  0.110243  1
  O  O9  1  0.110243  0.560045  0.110243  1
  O  O10  1  0.439955  0.889757  0.889757  1
  O  O11  1  0.889757  0.889757  0.439955  1
  O  O12  1  0.889757  0.439955  0.889757  1
