# generated using pymatgen
data_LiAl11(IrRh)6
_symmetry_space_group_name_H-M   'P 1'
_cell_length_a   4.25444800
_cell_length_b   5.96455900
_cell_length_c   12.83118000
_cell_angle_alpha   90.00000000
_cell_angle_beta   89.99973137
_cell_angle_gamma   90.00000000
_symmetry_Int_Tables_number   1
_chemical_formula_structural   LiAl11(IrRh)6
_chemical_formula_sum   'Li1 Al11 Ir6 Rh6'
_cell_volume   325.60281894
_cell_formula_units_Z   1
loop_
 _symmetry_equiv_pos_site_id
 _symmetry_equiv_pos_as_xyz
  1  'x, y, z'
loop_
 _atom_site_type_symbol
 _atom_site_label
 _atom_site_symmetry_multiplicity
 _atom_site_fract_x
 _atom_site_fract_y
 _atom_site_fract_z
 _atom_site_occupancy
  Li  Li0  1  0.500001  0.249772  0.000000  1
  Al  Al1  1  0.500001  0.749811  0.000000  1
  Al  Al2  1  0.000087  0.250152  0.161251  1
  Al  Al3  1  0.000083  0.749930  0.164550  1
  Al  Al4  1  0.500088  0.249803  0.331928  1
  Al  Al5  1  0.500083  0.750235  0.331129  1
  Al  Al6  1  0.000000  0.250191  0.500000  1
  Al  Al7  1  0.000000  0.749764  0.500000  1
  Al  Al8  1  0.499912  0.249803  0.668072  1
  Al  Al9  1  0.499917  0.750235  0.668871  1
  Al  Al10  1  0.999912  0.250152  0.838750  1
  Al  Al11  1  0.999916  0.749930  0.835451  1
  Ir  Ir12  1  0.000000  0.504627  0.000000  1
  Ir  Ir13  1  0.500085  0.998360  0.169149  1
  Ir  Ir14  1  0.000078  0.499637  0.334095  1
  Ir  Ir15  1  0.500001  0.999692  0.500000  1
  Ir  Ir16  1  0.999924  0.499637  0.665905  1
  Ir  Ir17  1  0.499915  0.998360  0.830851  1
  Rh  Rh18  1  0.000000  0.999609  0.000000  1
  Rh  Rh19  1  0.500077  0.499544  0.168742  1
  Rh  Rh20  1  0.000080  0.000449  0.334463  1
  Rh  Rh21  1  0.500001  0.500310  0.500000  1
  Rh  Rh22  1  0.999920  0.000449  0.665538  1
  Rh  Rh23  1  0.499923  0.499544  0.831258  1
