# generated using pymatgen
data_Sc3In4CoIr
_symmetry_space_group_name_H-M   'P 1'
_cell_length_a   7.82055000
_cell_length_b   7.82054952
_cell_length_c   3.37881600
_cell_angle_alpha   90.00000000
_cell_angle_beta   90.00000000
_cell_angle_gamma   120.00000820
_symmetry_Int_Tables_number   1
_chemical_formula_structural   Sc3In4CoIr
_chemical_formula_sum   'Sc3 In4 Co1 Ir1'
_cell_volume   178.96565962
_cell_formula_units_Z   1
loop_
 _symmetry_equiv_pos_site_id
 _symmetry_equiv_pos_as_xyz
  1  'x, y, z'
loop_
 _atom_site_type_symbol
 _atom_site_label
 _atom_site_symmetry_multiplicity
 _atom_site_fract_x
 _atom_site_fract_y
 _atom_site_fract_z
 _atom_site_occupancy
  Sc  Sc0  1  0.037847  0.295163  0.500000  1
  Sc  Sc1  1  0.704837  0.742683  0.500000  1
  Sc  Sc2  1  0.257317  0.962153  0.500000  1
  In  In3  1  0.662686  0.070876  0.000000  1
  In  In4  1  0.929124  0.591811  0.000000  1
  In  In5  1  0.408189  0.337314  0.000000  1
  In  In6  1  0.333333  0.666667  0.000000  1
  Co  Co7  1  0.666667  0.333333  0.500000  1
  Ir  Ir8  1  0.000000  0.000000  0.000000  1
