# generated using pymatgen
data_Nd7Lu3(Ga2Sn)2
_symmetry_space_group_name_H-M   'P 1'
_cell_length_a   9.03243532
_cell_length_b   9.03243641
_cell_length_c   9.05138070
_cell_angle_alpha   127.58164740
_cell_angle_beta   127.58165079
_cell_angle_gamma   77.06068697
_symmetry_Int_Tables_number   1
_chemical_formula_structural   Nd7Lu3(Ga2Sn)2
_chemical_formula_sum   'Nd7 Lu3 Ga4 Sn2'
_cell_volume   450.70409174
_cell_formula_units_Z   1
loop_
 _symmetry_equiv_pos_site_id
 _symmetry_equiv_pos_as_xyz
  1  'x, y, z'
loop_
 _atom_site_type_symbol
 _atom_site_label
 _atom_site_symmetry_multiplicity
 _atom_site_fract_x
 _atom_site_fract_y
 _atom_site_fract_z
 _atom_site_occupancy
  Nd  Nd0  1  0.188164  0.688164  0.165780  1
  Nd  Nd1  1  0.025608  0.186526  0.500506  1
  Nd  Nd2  1  0.686526  0.525608  0.500506  1
  Nd  Nd3  1  0.476941  0.976941  0.167716  1
  Nd  Nd4  1  0.813039  0.313039  0.836504  1
  Nd  Nd5  1  0.977781  0.811188  0.499734  1
  Nd  Nd6  1  0.311188  0.477781  0.499734  1
  Lu  Lu7  1  0.498263  0.495764  0.997815  1
  Lu  Lu8  1  0.995764  0.998263  0.997815  1
  Lu  Lu9  1  0.526858  0.026858  0.831181  1
  Ga  Ga10  1  0.868452  0.368452  0.239530  1
  Ga  Ga11  1  0.126291  0.626291  0.753675  1
  Ga  Ga12  1  0.374774  0.127511  0.505777  1
  Ga  Ga13  1  0.627511  0.874774  0.505777  1
  Sn  Sn14  1  0.255889  0.246951  0.998975  1
  Sn  Sn15  1  0.746951  0.755889  0.998975  1
