# generated using pymatgen
data_PaOsF10
_symmetry_space_group_name_H-M   'P 1'
_cell_length_a   9.17606823
_cell_length_b   9.17606799
_cell_length_c   5.56139279
_cell_angle_alpha   87.79854320
_cell_angle_beta   87.79854559
_cell_angle_gamma   111.15447499
_symmetry_Int_Tables_number   1
_chemical_formula_structural   PaOsF10
_chemical_formula_sum   'Pa2 Os2 F20'
_cell_volume   435.70473166
_cell_formula_units_Z   2
loop_
 _symmetry_equiv_pos_site_id
 _symmetry_equiv_pos_as_xyz
  1  'x, y, z'
loop_
 _atom_site_type_symbol
 _atom_site_label
 _atom_site_symmetry_multiplicity
 _atom_site_fract_x
 _atom_site_fract_y
 _atom_site_fract_z
 _atom_site_occupancy
  Pa  Pa0  1  0.745094  0.745094  0.736549  1
  Pa  Pa1  1  0.254906  0.254906  0.263451  1
  Os  Os2  1  0.799072  0.200928  0.000000  1
  Os  Os3  1  0.200928  0.799072  0.000000  1
  F  F4  1  0.861704  0.861704  0.422710  1
  F  F5  1  0.138296  0.138296  0.577290  1
  F  F6  1  0.651415  0.651415  0.072892  1
  F  F7  1  0.348585  0.348585  0.927108  1
  F  F8  1  0.532486  0.731620  0.622363  1
  F  F9  1  0.268380  0.467514  0.377637  1
  F  F10  1  0.467514  0.268380  0.377637  1
  F  F11  1  0.731620  0.532486  0.622363  1
  F  F12  1  0.782259  0.989523  0.882764  1
  F  F13  1  0.010477  0.217741  0.117236  1
  F  F14  1  0.217741  0.010477  0.117236  1
  F  F15  1  0.989523  0.782259  0.882764  1
  F  F16  1  0.902455  0.291160  0.699814  1
  F  F17  1  0.708840  0.097545  0.300186  1
  F  F18  1  0.097545  0.708840  0.300186  1
  F  F19  1  0.291160  0.902455  0.699814  1
  F  F20  1  0.602791  0.173177  0.886396  1
  F  F21  1  0.826823  0.397209  0.113604  1
  F  F22  1  0.397209  0.826823  0.113604  1
  F  F23  1  0.173177  0.602791  0.886396  1
