# generated using pymatgen
data_Ca20Al3Zn8In
_symmetry_space_group_name_H-M   'P 1'
_cell_length_a   8.01951900
_cell_length_b   8.01951900
_cell_length_c   14.95248000
_cell_angle_alpha   90.00000000
_cell_angle_beta   90.00000000
_cell_angle_gamma   90.00000000
_symmetry_Int_Tables_number   1
_chemical_formula_structural   Ca20Al3Zn8In
_chemical_formula_sum   'Ca20 Al3 Zn8 In1'
_cell_volume   961.63413608
_cell_formula_units_Z   1
loop_
 _symmetry_equiv_pos_site_id
 _symmetry_equiv_pos_as_xyz
  1  'x, y, z'
loop_
 _atom_site_type_symbol
 _atom_site_label
 _atom_site_symmetry_multiplicity
 _atom_site_fract_x
 _atom_site_fract_y
 _atom_site_fract_z
 _atom_site_occupancy
  Ca  Ca0  1  0.668824  0.174146  0.102778  1
  Ca  Ca1  1  0.173450  0.671149  0.602528  1
  Ca  Ca2  1  0.331176  0.825854  0.102778  1
  Ca  Ca3  1  0.826550  0.328851  0.602528  1
  Ca  Ca4  1  0.825854  0.668824  0.102778  1
  Ca  Ca5  1  0.328851  0.173450  0.602528  1
  Ca  Ca6  1  0.174146  0.331176  0.102778  1
  Ca  Ca7  1  0.671149  0.826550  0.602528  1
  Ca  Ca8  1  0.825854  0.331176  0.897222  1
  Ca  Ca9  1  0.328851  0.826550  0.397472  1
  Ca  Ca10  1  0.174146  0.668824  0.897222  1
  Ca  Ca11  1  0.671149  0.173450  0.397472  1
  Ca  Ca12  1  0.668824  0.825854  0.897222  1
  Ca  Ca13  1  0.173450  0.328851  0.397472  1
  Ca  Ca14  1  0.331176  0.174146  0.897222  1
  Ca  Ca15  1  0.826550  0.671149  0.397472  1
  Ca  Ca16  1  0.500000  0.500000  0.751359  1
  Ca  Ca17  1  0.000000  0.000000  0.252220  1
  Ca  Ca18  1  0.000000  0.000000  0.747780  1
  Ca  Ca19  1  0.500000  0.500000  0.248641  1
  Al  Al20  1  0.500000  0.500000  0.500000  1
  Al  Al21  1  0.500000  0.500000  0.000000  1
  Al  Al22  1  0.000000  0.000000  0.500000  1
  Zn  Zn23  1  0.615379  0.114849  0.749892  1
  Zn  Zn24  1  0.114849  0.615379  0.250108  1
  Zn  Zn25  1  0.885151  0.384621  0.250108  1
  Zn  Zn26  1  0.384621  0.885151  0.749892  1
  Zn  Zn27  1  0.885151  0.615379  0.749892  1
  Zn  Zn28  1  0.384621  0.114849  0.250108  1
  Zn  Zn29  1  0.114849  0.384621  0.749892  1
  Zn  Zn30  1  0.615379  0.885151  0.250108  1
  In  In31  1  0.000000  0.000000  0.000000  1
