# generated using pymatgen
data_Zr5Sc4(FeGe)10
_symmetry_space_group_name_H-M   'P 1'
_cell_length_a   9.70241158
_cell_length_b   9.69603045
_cell_length_c   9.69498833
_cell_angle_alpha   148.88554077
_cell_angle_beta   96.27620787
_cell_angle_gamma   91.97340975
_symmetry_Int_Tables_number   1
_chemical_formula_structural   Zr5Sc4(FeGe)10
_chemical_formula_sum   'Zr5 Sc4 Fe10 Ge10'
_cell_volume   453.69293726
_cell_formula_units_Z   1
loop_
 _symmetry_equiv_pos_site_id
 _symmetry_equiv_pos_as_xyz
  1  'x, y, z'
loop_
 _atom_site_type_symbol
 _atom_site_label
 _atom_site_symmetry_multiplicity
 _atom_site_fract_x
 _atom_site_fract_y
 _atom_site_fract_z
 _atom_site_occupancy
  Zr  Zr0  1  0.499926  0.999990  0.500054  1
  Zr  Zr1  1  0.782797  0.999976  0.782761  1
  Zr  Zr2  1  0.217143  0.999915  0.217192  1
  Zr  Zr3  1  0.194625  0.194646  0.000046  1
  Zr  Zr4  1  0.805500  0.805537  0.000043  1
  Sc  Sc5  1  0.989433  0.634943  0.354453  1
  Sc  Sc6  1  0.010640  0.365041  0.645597  1
  Sc  Sc7  1  0.719337  0.365037  0.354294  1
  Sc  Sc8  1  0.280593  0.634981  0.645616  1
  Fe  Fe9  1  0.406141  0.406127  0.999956  1
  Fe  Fe10  1  0.593810  0.593696  0.999732  1
  Fe  Fe11  1  0.203530  0.099229  0.605969  1
  Fe  Fe12  1  0.796582  0.402581  0.895955  1
  Fe  Fe13  1  0.506648  0.900881  0.104207  1
  Fe  Fe14  1  0.493347  0.597597  0.394032  1
  Fe  Fe15  1  0.796445  0.900547  0.393890  1
  Fe  Fe16  1  0.203612  0.597546  0.104381  1
  Fe  Fe17  1  0.493396  0.099424  0.895908  1
  Fe  Fe18  1  0.506707  0.402651  0.606019  1
  Ge  Ge19  1  0.999986  0.752694  0.752710  1
  Ge  Ge20  1  0.999994  0.247282  0.247292  1
  Ge  Ge21  1  0.679984  0.499746  0.179782  1
  Ge  Ge22  1  0.319995  0.499763  0.819793  1
  Ge  Ge23  1  0.286720  0.786929  0.500003  1
  Ge  Ge24  1  0.713035  0.213325  0.500223  1
  Ge  Ge25  1  0.997179  0.205748  0.791401  1
  Ge  Ge26  1  0.002888  0.794268  0.208641  1
  Ge  Ge27  1  0.585644  0.794211  0.791466  1
  Ge  Ge28  1  0.414363  0.205691  0.208583  1
