# generated using pymatgen
data_Ba3TmInO6
_symmetry_space_group_name_H-M   'P 1'
_cell_length_a   7.28542601
_cell_length_b   7.28542630
_cell_length_c   7.28542713
_cell_angle_alpha   93.17038973
_cell_angle_beta   93.17038981
_cell_angle_gamma   93.17040325
_symmetry_Int_Tables_number   1
_chemical_formula_structural   Ba3TmInO6
_chemical_formula_sum   'Ba6 Tm2 In2 O12'
_cell_volume   384.84780294
_cell_formula_units_Z   2
loop_
 _symmetry_equiv_pos_site_id
 _symmetry_equiv_pos_as_xyz
  1  'x, y, z'
loop_
 _atom_site_type_symbol
 _atom_site_label
 _atom_site_symmetry_multiplicity
 _atom_site_fract_x
 _atom_site_fract_y
 _atom_site_fract_z
 _atom_site_occupancy
  Ba  Ba0  1  0.250000  0.887857  0.612143  1
  Ba  Ba1  1  0.887857  0.612143  0.250000  1
  Ba  Ba2  1  0.750000  0.112143  0.387857  1
  Ba  Ba3  1  0.387857  0.750000  0.112143  1
  Ba  Ba4  1  0.112143  0.387857  0.750000  1
  Ba  Ba5  1  0.612143  0.250000  0.887857  1
  Tm  Tm6  1  0.750000  0.750000  0.750000  1
  Tm  Tm7  1  0.250000  0.250000  0.250000  1
  In  In8  1  0.500000  0.500000  0.500000  1
  In  In9  1  0.000000  0.000000  0.000000  1
  O  O10  1  0.600397  0.790805  0.470983  1
  O  O11  1  0.470983  0.600397  0.790805  1
  O  O12  1  0.790805  0.470983  0.600397  1
  O  O13  1  0.899603  0.029017  0.709195  1
  O  O14  1  0.709195  0.899603  0.029017  1
  O  O15  1  0.029017  0.709195  0.899603  1
  O  O16  1  0.399603  0.209195  0.529017  1
  O  O17  1  0.529017  0.399603  0.209195  1
  O  O18  1  0.209195  0.529017  0.399603  1
  O  O19  1  0.100397  0.970983  0.290805  1
  O  O20  1  0.970983  0.290805  0.100397  1
  O  O21  1  0.290805  0.100397  0.970983  1
