# generated using pymatgen
data_Y6CrFe13(CoP3)4
_symmetry_space_group_name_H-M   'P 1'
_cell_length_a   3.71995400
_cell_length_b   10.50671600
_cell_length_c   12.20712200
_cell_angle_alpha   90.00000000
_cell_angle_beta   90.00000000
_cell_angle_gamma   90.00000000
_symmetry_Int_Tables_number   1
_chemical_formula_structural   Y6CrFe13(CoP3)4
_chemical_formula_sum   'Y6 Cr1 Fe13 Co4 P12'
_cell_volume   477.10926239
_cell_formula_units_Z   1
loop_
 _symmetry_equiv_pos_site_id
 _symmetry_equiv_pos_as_xyz
  1  'x, y, z'
loop_
 _atom_site_type_symbol
 _atom_site_label
 _atom_site_symmetry_multiplicity
 _atom_site_fract_x
 _atom_site_fract_y
 _atom_site_fract_z
 _atom_site_occupancy
  Y  Y0  1  0.000000  0.500000  0.524258  1
  Y  Y1  1  0.500000  0.000000  0.474827  1
  Y  Y2  1  0.500000  0.820314  0.207174  1
  Y  Y3  1  0.500000  0.179686  0.207174  1
  Y  Y4  1  0.000000  0.679875  0.793421  1
  Y  Y5  1  0.000000  0.320125  0.793421  1
  Cr  Cr6  1  0.500000  0.500000  0.151973  1
  Fe  Fe7  1  0.000000  0.000000  0.847218  1
  Fe  Fe8  1  0.000000  0.500000  0.988176  1
  Fe  Fe9  1  0.500000  0.000000  0.010319  1
  Fe  Fe10  1  0.500000  0.326367  0.996717  1
  Fe  Fe11  1  0.500000  0.673633  0.996717  1
  Fe  Fe12  1  0.000000  0.171158  0.002991  1
  Fe  Fe13  1  0.000000  0.828842  0.002991  1
  Fe  Fe14  1  0.500000  0.298026  0.429806  1
  Fe  Fe15  1  0.500000  0.701974  0.429806  1
  Fe  Fe16  1  0.000000  0.200843  0.570527  1
  Fe  Fe17  1  0.000000  0.799157  0.570527  1
  Fe  Fe18  1  0.500000  0.882860  0.709026  1
  Fe  Fe19  1  0.500000  0.117140  0.709026  1
  Co  Co20  1  0.500000  0.500000  0.700616  1
  Co  Co21  1  0.000000  0.000000  0.299103  1
  Co  Co22  1  0.000000  0.619108  0.290775  1
  Co  Co23  1  0.000000  0.380892  0.290775  1
  P  P24  1  0.500000  0.500000  0.885678  1
  P  P25  1  0.000000  0.000000  0.114556  1
  P  P26  1  0.500000  0.500000  0.344360  1
  P  P27  1  0.000000  0.000000  0.659835  1
  P  P28  1  0.500000  0.305835  0.614216  1
  P  P29  1  0.500000  0.694165  0.614216  1
  P  P30  1  0.000000  0.193335  0.386816  1
  P  P31  1  0.000000  0.806665  0.386816  1
  P  P32  1  0.500000  0.850628  0.888671  1
  P  P33  1  0.500000  0.149372  0.888671  1
  P  P34  1  0.000000  0.650745  0.109403  1
  P  P35  1  0.000000  0.349255  0.109403  1
