# generated using pymatgen
data_SmY2In3CuHgPd
_symmetry_space_group_name_H-M   'P 1'
_cell_length_a   7.83915168
_cell_length_b   7.83865821
_cell_length_c   3.89869500
_cell_angle_alpha   90.00000000
_cell_angle_beta   90.00000000
_cell_angle_gamma   120.07705349
_symmetry_Int_Tables_number   1
_chemical_formula_structural   SmY2In3CuHgPd
_chemical_formula_sum   'Sm1 Y2 In3 Cu1 Hg1 Pd1'
_cell_volume   207.31129287
_cell_formula_units_Z   1
loop_
 _symmetry_equiv_pos_site_id
 _symmetry_equiv_pos_as_xyz
  1  'x, y, z'
loop_
 _atom_site_type_symbol
 _atom_site_label
 _atom_site_symmetry_multiplicity
 _atom_site_fract_x
 _atom_site_fract_y
 _atom_site_fract_z
 _atom_site_occupancy
  Sm  Sm0  1  0.394378  0.412160  0.500000  1
  Y  Y1  1  0.588585  0.981805  0.500000  1
  Y  Y2  1  0.018598  0.607073  0.500000  1
  In  In3  1  0.750714  0.754327  0.000000  1
  In  In4  1  0.246154  0.995122  0.000000  1
  In  In5  1  0.001916  0.249297  0.000000  1
  Cu  Cu6  1  0.999063  0.998929  0.500000  1
  Hg  Hg7  1  0.668032  0.332710  0.000000  1
  Pd  Pd8  1  0.332559  0.668575  0.000000  1
