# generated using pymatgen
data_CaLaB4RuRh4
_symmetry_space_group_name_H-M   'P 1'
_cell_length_a   7.53833377
_cell_length_b   6.33829603
_cell_length_c   5.66563613
_cell_angle_alpha   77.58002216
_cell_angle_beta   55.19820399
_cell_angle_gamma   47.22296615
_symmetry_Int_Tables_number   1
_chemical_formula_structural   CaLaB4RuRh4
_chemical_formula_sum   'Ca1 La1 B4 Ru1 Rh4'
_cell_volume   156.32886398
_cell_formula_units_Z   1
loop_
 _symmetry_equiv_pos_site_id
 _symmetry_equiv_pos_as_xyz
  1  'x, y, z'
loop_
 _atom_site_type_symbol
 _atom_site_label
 _atom_site_symmetry_multiplicity
 _atom_site_fract_x
 _atom_site_fract_y
 _atom_site_fract_z
 _atom_site_occupancy
  Ca  Ca0  1  0.147460  0.147460  0.852540  1
  La  La1  1  0.859393  0.859393  0.140607  1
  B  B2  1  0.785646  0.475482  0.537917  1
  B  B3  1  0.199177  0.534978  0.477411  1
  B  B4  1  0.534978  0.199177  0.788434  1
  B  B5  1  0.475482  0.785646  0.200954  1
  Ru  Ru6  1  0.747952  0.747952  0.752048  1
  Rh  Rh7  1  0.501792  0.501792  0.498208  1
  Rh  Rh8  1  0.498902  0.498902  0.001098  1
  Rh  Rh9  1  0.001112  0.001112  0.498888  1
  Rh  Rh10  1  0.248105  0.248105  0.251895  1
