# generated using pymatgen
data_Y2Co3Si4Rh3
_symmetry_space_group_name_H-M   'P 1'
_cell_length_a   6.46862292
_cell_length_b   6.53191784
_cell_length_c   6.46862282
_cell_angle_alpha   131.36222022
_cell_angle_beta   114.20009807
_cell_angle_gamma   85.61490434
_symmetry_Int_Tables_number   1
_chemical_formula_structural   Y2Co3Si4Rh3
_chemical_formula_sum   'Y2 Co3 Si4 Rh3'
_cell_volume   179.40415698
_cell_formula_units_Z   1
loop_
 _symmetry_equiv_pos_site_id
 _symmetry_equiv_pos_as_xyz
  1  'x, y, z'
loop_
 _atom_site_type_symbol
 _atom_site_label
 _atom_site_symmetry_multiplicity
 _atom_site_fract_x
 _atom_site_fract_y
 _atom_site_fract_z
 _atom_site_occupancy
  Y  Y0  1  0.253974  0.534134  0.283971  1
  Y  Y1  1  0.749837  0.465866  0.719840  1
  Co  Co2  1  0.718412  0.000000  0.718412  1
  Co  Co3  1  0.219088  0.500000  0.719088  1
  Co  Co4  1  0.279616  0.000000  0.279616  1
  Si  Si5  1  0.076938  0.877095  0.809025  1
  Si  Si6  1  0.931930  0.122905  0.199843  1
  Si  Si7  1  0.565182  0.777661  0.200366  1
  Si  Si8  1  0.422705  0.222339  0.787521  1
  Rh  Rh9  1  0.782382  0.500000  0.282382  1
  Rh  Rh10  1  0.001074  0.009566  0.508427  1
  Rh  Rh11  1  0.498861  0.990434  0.991509  1
