# generated using pymatgen
data_Dy2Si2RuRh
_symmetry_space_group_name_H-M   'P 1'
_cell_length_a   4.34076200
_cell_length_b   6.97242006
_cell_length_c   7.14765116
_cell_angle_alpha   89.81588388
_cell_angle_beta   90.00000000
_cell_angle_gamma   90.00000000
_symmetry_Int_Tables_number   1
_chemical_formula_structural   Dy2Si2RuRh
_chemical_formula_sum   'Dy4 Si4 Ru2 Rh2'
_cell_volume   216.32694885
_cell_formula_units_Z   2
loop_
 _symmetry_equiv_pos_site_id
 _symmetry_equiv_pos_as_xyz
  1  'x, y, z'
loop_
 _atom_site_type_symbol
 _atom_site_label
 _atom_site_symmetry_multiplicity
 _atom_site_fract_x
 _atom_site_fract_y
 _atom_site_fract_z
 _atom_site_occupancy
  Dy  Dy0  1  0.250000  0.984763  0.812898  1
  Dy  Dy1  1  0.750000  0.015237  0.187102  1
  Dy  Dy2  1  0.250000  0.490502  0.685257  1
  Dy  Dy3  1  0.750000  0.509498  0.314743  1
  Si  Si4  1  0.250000  0.303180  0.099838  1
  Si  Si5  1  0.750000  0.696820  0.900162  1
  Si  Si6  1  0.250000  0.800580  0.385402  1
  Si  Si7  1  0.750000  0.199420  0.614598  1
  Ru  Ru8  1  0.750000  0.346581  0.931639  1
  Ru  Ru9  1  0.250000  0.653419  0.068361  1
  Rh  Rh10  1  0.750000  0.846735  0.567670  1
  Rh  Rh11  1  0.250000  0.153265  0.432330  1
