# generated using pymatgen
data_YSn6IrRu3
_symmetry_space_group_name_H-M   'P 1'
_cell_length_a   6.96027833
_cell_length_b   6.96090447
_cell_length_c   6.96145160
_cell_angle_alpha   120.37816405
_cell_angle_beta   120.37521221
_cell_angle_gamma   89.34162066
_symmetry_Int_Tables_number   1
_chemical_formula_structural   YSn6IrRu3
_chemical_formula_sum   'Y1 Sn6 Ir1 Ru3'
_cell_volume   237.13395278
_cell_formula_units_Z   1
loop_
 _symmetry_equiv_pos_site_id
 _symmetry_equiv_pos_as_xyz
  1  'x, y, z'
loop_
 _atom_site_type_symbol
 _atom_site_label
 _atom_site_symmetry_multiplicity
 _atom_site_fract_x
 _atom_site_fract_y
 _atom_site_fract_z
 _atom_site_occupancy
  Y  Y0  1  0.000074  0.998665  0.000000  1
  Sn  Sn1  1  0.876653  0.532391  0.000000  1
  Sn  Sn2  1  0.536103  0.881118  0.000000  1
  Sn  Sn3  1  0.120268  0.114971  0.649084  1
  Sn  Sn4  1  0.000747  0.499742  0.495246  1
  Sn  Sn5  1  0.471184  0.465887  0.350916  1
  Sn  Sn6  1  0.505501  0.004496  0.504754  1
  Ir  Ir7  1  0.243480  0.600080  0.000000  1
  Ru  Ru8  1  0.401679  0.403959  0.653153  1
  Ru  Ru9  1  0.595786  0.247885  0.000000  1
  Ru  Ru10  1  0.748526  0.750806  0.346847  1
