# generated using pymatgen
data_Ta16FeCo4Ir3N4
_symmetry_space_group_name_H-M   'P 1'
_cell_length_a   8.27452019
_cell_length_b   8.27452084
_cell_length_c   8.27452024
_cell_angle_alpha   60.40246957
_cell_angle_beta   60.40247606
_cell_angle_gamma   60.40246995
_symmetry_Int_Tables_number   1
_chemical_formula_structural   Ta16FeCo4Ir3N4
_chemical_formula_sum   'Ta16 Fe1 Co4 Ir3 N4'
_cell_volume   404.24847660
_cell_formula_units_Z   1
loop_
 _symmetry_equiv_pos_site_id
 _symmetry_equiv_pos_as_xyz
  1  'x, y, z'
loop_
 _atom_site_type_symbol
 _atom_site_label
 _atom_site_symmetry_multiplicity
 _atom_site_fract_x
 _atom_site_fract_y
 _atom_site_fract_z
 _atom_site_occupancy
  Ta  Ta0  1  0.098668  0.631914  0.631914  1
  Ta  Ta1  1  0.631914  0.098668  0.631914  1
  Ta  Ta2  1  0.631914  0.631914  0.098668  1
  Ta  Ta3  1  0.636004  0.636004  0.636004  1
  Ta  Ta4  1  0.811803  0.811803  0.187401  1
  Ta  Ta5  1  0.188698  0.188698  0.810378  1
  Ta  Ta6  1  0.811803  0.187401  0.811803  1
  Ta  Ta7  1  0.188698  0.810378  0.188698  1
  Ta  Ta8  1  0.187401  0.811803  0.811803  1
  Ta  Ta9  1  0.810378  0.188698  0.188698  1
  Ta  Ta10  1  0.434861  0.434861  0.070836  1
  Ta  Ta11  1  0.065195  0.065195  0.435277  1
  Ta  Ta12  1  0.434861  0.070836  0.434861  1
  Ta  Ta13  1  0.065195  0.435277  0.065195  1
  Ta  Ta14  1  0.070836  0.434861  0.434861  1
  Ta  Ta15  1  0.435277  0.065195  0.065195  1
  Fe  Fe16  1  0.418310  0.418310  0.418310  1
  Co  Co17  1  0.461824  0.846652  0.846652  1
  Co  Co18  1  0.846652  0.461824  0.846652  1
  Co  Co19  1  0.846652  0.846652  0.461824  1
  Co  Co20  1  0.843268  0.843268  0.843268  1
  Ir  Ir21  1  0.746804  0.416745  0.416745  1
  Ir  Ir22  1  0.416745  0.746804  0.416745  1
  Ir  Ir23  1  0.416745  0.416745  0.746804  1
  N  N24  1  0.627269  0.124036  0.124036  1
  N  N25  1  0.124036  0.627269  0.124036  1
  N  N26  1  0.124036  0.124036  0.627269  1
  N  N27  1  0.124155  0.124155  0.124155  1
