# generated using pymatgen
data_KRb7Zr6BI20
_symmetry_space_group_name_H-M   'P 1'
_cell_length_a   12.86906587
_cell_length_b   12.86906557
_cell_length_c   12.86906457
_cell_angle_alpha   60.04616352
_cell_angle_beta   60.04616576
_cell_angle_gamma   60.04616533
_symmetry_Int_Tables_number   1
_chemical_formula_structural   KRb7Zr6BI20
_chemical_formula_sum   'K1 Rb7 Zr6 B1 I20'
_cell_volume   1508.62122552
_cell_formula_units_Z   1
loop_
 _symmetry_equiv_pos_site_id
 _symmetry_equiv_pos_as_xyz
  1  'x, y, z'
loop_
 _atom_site_type_symbol
 _atom_site_label
 _atom_site_symmetry_multiplicity
 _atom_site_fract_x
 _atom_site_fract_y
 _atom_site_fract_z
 _atom_site_occupancy
  K  K0  1  0.362322  0.362322  0.362322  1
  Rb  Rb1  1  0.638371  0.638371  0.638371  1
  Rb  Rb2  1  0.361217  0.361217  0.916239  1
  Rb  Rb3  1  0.361217  0.916239  0.361217  1
  Rb  Rb4  1  0.638193  0.638193  0.084358  1
  Rb  Rb5  1  0.638193  0.084358  0.638193  1
  Rb  Rb6  1  0.916239  0.361217  0.361217  1
  Rb  Rb7  1  0.084358  0.638193  0.638193  1
  Zr  Zr8  1  0.869890  0.130223  0.130223  1
  Zr  Zr9  1  0.129987  0.869702  0.869702  1
  Zr  Zr10  1  0.130223  0.869890  0.130223  1
  Zr  Zr11  1  0.869702  0.129987  0.869702  1
  Zr  Zr12  1  0.130223  0.130223  0.869890  1
  Zr  Zr13  1  0.869702  0.869702  0.129987  1
  B  B14  1  0.000048  0.000048  0.000048  1
  I  I15  1  0.318592  0.000455  0.000455  1
  I  I16  1  0.681655  0.999613  0.999613  1
  I  I17  1  0.999796  0.317723  0.682252  1
  I  I18  1  0.999796  0.682252  0.317723  1
  I  I19  1  0.000455  0.318592  0.000455  1
  I  I20  1  0.682252  0.999796  0.317723  1
  I  I21  1  0.999613  0.681655  0.999613  1
  I  I22  1  0.317723  0.999796  0.682252  1
  I  I23  1  0.000455  0.000455  0.318592  1
  I  I24  1  0.999613  0.999613  0.681655  1
  I  I25  1  0.682252  0.317723  0.999796  1
  I  I26  1  0.317723  0.682252  0.999796  1
  I  I27  1  0.685893  0.309723  0.309723  1
  I  I28  1  0.308778  0.690951  0.690951  1
  I  I29  1  0.309723  0.685893  0.309723  1
  I  I30  1  0.690951  0.308778  0.690951  1
  I  I31  1  0.309723  0.309723  0.685893  1
  I  I32  1  0.690951  0.690951  0.308778  1
  I  I33  1  0.253990  0.253990  0.253990  1
  I  I34  1  0.750185  0.750185  0.750185  1
