# generated using pymatgen
data_Nd6ZrNi17P12
_symmetry_space_group_name_H-M   'P 1'
_cell_length_a   3.87338700
_cell_length_b   10.70387700
_cell_length_c   12.54951500
_cell_angle_alpha   90.00000000
_cell_angle_beta   90.00000000
_cell_angle_gamma   90.00000000
_symmetry_Int_Tables_number   1
_chemical_formula_structural   Nd6ZrNi17P12
_chemical_formula_sum   'Nd6 Zr1 Ni17 P12'
_cell_volume   520.30612994
_cell_formula_units_Z   1
loop_
 _symmetry_equiv_pos_site_id
 _symmetry_equiv_pos_as_xyz
  1  'x, y, z'
loop_
 _atom_site_type_symbol
 _atom_site_label
 _atom_site_symmetry_multiplicity
 _atom_site_fract_x
 _atom_site_fract_y
 _atom_site_fract_z
 _atom_site_occupancy
  Nd  Nd0  1  0.000000  0.500000  0.525507  1
  Nd  Nd1  1  0.500000  0.000000  0.482732  1
  Nd  Nd2  1  0.500000  0.818080  0.207050  1
  Nd  Nd3  1  0.500000  0.181920  0.207050  1
  Nd  Nd4  1  0.000000  0.686599  0.796024  1
  Nd  Nd5  1  0.000000  0.313401  0.796024  1
  Zr  Zr6  1  0.500000  0.500000  0.148266  1
  Ni  Ni7  1  0.000000  0.000000  0.840364  1
  Ni  Ni8  1  0.500000  0.500000  0.701568  1
  Ni  Ni9  1  0.000000  0.000000  0.301853  1
  Ni  Ni10  1  0.000000  0.500000  0.979399  1
  Ni  Ni11  1  0.500000  0.000000  0.018348  1
  Ni  Ni12  1  0.500000  0.322820  0.988141  1
  Ni  Ni13  1  0.500000  0.677180  0.988141  1
  Ni  Ni14  1  0.000000  0.157452  0.001589  1
  Ni  Ni15  1  0.000000  0.842548  0.001589  1
  Ni  Ni16  1  0.500000  0.299588  0.429256  1
  Ni  Ni17  1  0.500000  0.700412  0.429256  1
  Ni  Ni18  1  0.000000  0.198859  0.573471  1
  Ni  Ni19  1  0.000000  0.801141  0.573471  1
  Ni  Ni20  1  0.500000  0.882355  0.712183  1
  Ni  Ni21  1  0.500000  0.117645  0.712183  1
  Ni  Ni22  1  0.000000  0.618727  0.293273  1
  Ni  Ni23  1  0.000000  0.381273  0.293273  1
  P  P24  1  0.500000  0.500000  0.881567  1
  P  P25  1  0.000000  0.000000  0.122438  1
  P  P26  1  0.500000  0.500000  0.352824  1
  P  P27  1  0.000000  0.000000  0.660308  1
  P  P28  1  0.500000  0.307937  0.615061  1
  P  P29  1  0.500000  0.692063  0.615061  1
  P  P30  1  0.000000  0.189633  0.389306  1
  P  P31  1  0.000000  0.810367  0.389306  1
  P  P32  1  0.500000  0.856138  0.892169  1
  P  P33  1  0.500000  0.143862  0.892169  1
  P  P34  1  0.000000  0.662722  0.094891  1
  P  P35  1  0.000000  0.337278  0.094891  1
