# generated using pymatgen
data_DyAl4(GaFe3)2
_symmetry_space_group_name_H-M   'P 1'
_cell_length_a   4.96532494
_cell_length_b   6.57609259
_cell_length_c   6.57609302
_cell_angle_alpha   80.95194941
_cell_angle_beta   67.81931804
_cell_angle_gamma   67.81931966
_symmetry_Int_Tables_number   1
_chemical_formula_structural   DyAl4(GaFe3)2
_chemical_formula_sum   'Dy1 Al4 Ga2 Fe6'
_cell_volume   184.09391920
_cell_formula_units_Z   1
loop_
 _symmetry_equiv_pos_site_id
 _symmetry_equiv_pos_as_xyz
  1  'x, y, z'
loop_
 _atom_site_type_symbol
 _atom_site_label
 _atom_site_symmetry_multiplicity
 _atom_site_fract_x
 _atom_site_fract_y
 _atom_site_fract_z
 _atom_site_occupancy
  Dy  Dy0  1  0.000000  0.000000  0.000000  1
  Al  Al1  1  0.000000  0.663347  0.336653  1
  Al  Al2  1  0.000000  0.336653  0.663347  1
  Al  Al3  1  0.347450  0.652550  0.652550  1
  Al  Al4  1  0.652550  0.347450  0.347450  1
  Ga  Ga5  1  0.311386  0.188614  0.188614  1
  Ga  Ga6  1  0.688614  0.811386  0.811386  1
  Fe  Fe7  1  0.500000  0.242906  0.757094  1
  Fe  Fe8  1  0.500000  0.757094  0.242906  1
  Fe  Fe9  1  0.000000  0.500000  0.000000  1
  Fe  Fe10  1  0.500000  0.500000  0.000000  1
  Fe  Fe11  1  0.000000  0.000000  0.500000  1
  Fe  Fe12  1  0.500000  0.000000  0.500000  1
