# generated using pymatgen
data_Tb3(SiRu)2
_symmetry_space_group_name_H-M   'P 1'
_cell_length_a   5.61311400
_cell_length_b   7.62948900
_cell_length_c   13.35900900
_cell_angle_alpha   90.00000000
_cell_angle_beta   90.00000000
_cell_angle_gamma   90.00000000
_symmetry_Int_Tables_number   1
_chemical_formula_structural   Tb3(SiRu)2
_chemical_formula_sum   'Tb12 Si8 Ru8'
_cell_volume   572.10211893
_cell_formula_units_Z   4
loop_
 _symmetry_equiv_pos_site_id
 _symmetry_equiv_pos_as_xyz
  1  'x, y, z'
loop_
 _atom_site_type_symbol
 _atom_site_label
 _atom_site_symmetry_multiplicity
 _atom_site_fract_x
 _atom_site_fract_y
 _atom_site_fract_z
 _atom_site_occupancy
  Tb  Tb0  1  0.147376  0.402220  0.600657  1
  Tb  Tb1  1  0.852624  0.597780  0.100657  1
  Tb  Tb2  1  0.147376  0.097780  0.399343  1
  Tb  Tb3  1  0.852624  0.902220  0.899343  1
  Tb  Tb4  1  0.852624  0.597780  0.399343  1
  Tb  Tb5  1  0.147376  0.402220  0.899343  1
  Tb  Tb6  1  0.852624  0.902220  0.600657  1
  Tb  Tb7  1  0.147376  0.097780  0.100657  1
  Tb  Tb8  1  0.631031  0.260929  0.750000  1
  Tb  Tb9  1  0.368969  0.739071  0.250000  1
  Tb  Tb10  1  0.631031  0.239071  0.250000  1
  Tb  Tb11  1  0.368969  0.760929  0.750000  1
  Si  Si12  1  0.139171  0.109602  0.750000  1
  Si  Si13  1  0.860829  0.890398  0.250000  1
  Si  Si14  1  0.139171  0.390398  0.250000  1
  Si  Si15  1  0.860829  0.609602  0.750000  1
  Si  Si16  1  0.608517  0.250000  0.500000  1
  Si  Si17  1  0.391483  0.750000  0.000000  1
  Si  Si18  1  0.391483  0.750000  0.500000  1
  Si  Si19  1  0.608517  0.250000  0.000000  1
  Ru  Ru20  1  0.351720  0.031802  0.590498  1
  Ru  Ru21  1  0.648280  0.968198  0.090498  1
  Ru  Ru22  1  0.351720  0.468198  0.409502  1
  Ru  Ru23  1  0.648280  0.531802  0.909502  1
  Ru  Ru24  1  0.648280  0.968198  0.409502  1
  Ru  Ru25  1  0.351720  0.031802  0.909502  1
  Ru  Ru26  1  0.648280  0.531802  0.590498  1
  Ru  Ru27  1  0.351720  0.468198  0.090498  1
