# generated using pymatgen
data_HoLu15MgCo4Ag3
_symmetry_space_group_name_H-M   'P 1'
_cell_length_a   9.23596099
_cell_length_b   9.23190265
_cell_length_c   9.24475801
_cell_angle_alpha   59.95778158
_cell_angle_beta   59.97109075
_cell_angle_gamma   59.91043580
_symmetry_Int_Tables_number   1
_chemical_formula_structural   HoLu15MgCo4Ag3
_chemical_formula_sum   'Ho1 Lu15 Mg1 Co4 Ag3'
_cell_volume   556.70570111
_cell_formula_units_Z   1
loop_
 _symmetry_equiv_pos_site_id
 _symmetry_equiv_pos_as_xyz
  1  'x, y, z'
loop_
 _atom_site_type_symbol
 _atom_site_label
 _atom_site_symmetry_multiplicity
 _atom_site_fract_x
 _atom_site_fract_y
 _atom_site_fract_z
 _atom_site_occupancy
  Ho  Ho0  1  0.935452  0.938514  0.563003  1
  Lu  Lu1  1  0.346518  0.345551  0.344920  1
  Lu  Lu2  1  0.346541  0.345561  0.962982  1
  Lu  Lu3  1  0.346833  0.963801  0.344702  1
  Lu  Lu4  1  0.952920  0.349642  0.348742  1
  Lu  Lu5  1  0.809964  0.189035  0.188187  1
  Lu  Lu6  1  0.186205  0.813631  0.814458  1
  Lu  Lu7  1  0.186203  0.813596  0.185735  1
  Lu  Lu8  1  0.809991  0.189024  0.812804  1
  Lu  Lu9  1  0.185985  0.186428  0.813767  1
  Lu  Lu10  1  0.810137  0.812394  0.188745  1
  Lu  Lu11  1  0.935215  0.561745  0.562814  1
  Lu  Lu12  1  0.561391  0.937217  0.937939  1
  Lu  Lu13  1  0.561395  0.937207  0.563460  1
  Lu  Lu14  1  0.935214  0.561763  0.940209  1
  Lu  Lu15  1  0.562562  0.563559  0.936928  1
  Mg  Mg16  1  0.285811  0.571083  0.571541  1
  Co  Co17  1  0.138534  0.143293  0.142025  1
  Co  Co18  1  0.138521  0.143305  0.576169  1
  Co  Co19  1  0.138443  0.575750  0.142909  1
  Co  Co20  1  0.576075  0.141345  0.141296  1
  Ag  Ag21  1  0.583740  0.583124  0.583272  1
  Ag  Ag22  1  0.583736  0.583109  0.249880  1
  Ag  Ag23  1  0.582613  0.250327  0.583515  1
