# generated using pymatgen
data_YHo2ZnIn3Pt2
_symmetry_space_group_name_H-M   'P 1'
_cell_length_a   7.67745300
_cell_length_b   7.71547581
_cell_length_c   3.85172700
_cell_angle_alpha   90.00000000
_cell_angle_beta   90.00000000
_cell_angle_gamma   119.83711678
_symmetry_Int_Tables_number   1
_chemical_formula_structural   YHo2ZnIn3Pt2
_chemical_formula_sum   'Y1 Ho2 Zn1 In3 Pt2'
_cell_volume   197.91398728
_cell_formula_units_Z   1
loop_
 _symmetry_equiv_pos_site_id
 _symmetry_equiv_pos_as_xyz
  1  'x, y, z'
loop_
 _atom_site_type_symbol
 _atom_site_label
 _atom_site_symmetry_multiplicity
 _atom_site_fract_x
 _atom_site_fract_y
 _atom_site_fract_z
 _atom_site_occupancy
  Y  Y0  1  0.592112  0.000000  0.500000  1
  Ho  Ho1  1  0.408399  0.408534  0.500000  1
  Ho  Ho2  1  0.999866  0.591466  0.500000  1
  Zn  Zn3  1  0.000283  0.000000  0.500000  1
  In  In4  1  0.740937  0.740506  0.000000  1
  In  In5  1  0.000431  0.259494  0.000000  1
  In  In6  1  0.258973  0.000000  0.000000  1
  Pt  Pt7  1  0.331940  0.664880  0.000000  1
  Pt  Pt8  1  0.667060  0.335120  0.000000  1
