# generated using pymatgen
data_Tm4Al14Ga(SiRh2)3
_symmetry_space_group_name_H-M   'P 1'
_cell_length_a   7.49161134
_cell_length_b   7.51610401
_cell_length_c   9.29114900
_cell_angle_alpha   90.00000000
_cell_angle_beta   90.00000000
_cell_angle_gamma   119.66056506
_symmetry_Int_Tables_number   1
_chemical_formula_structural   Tm4Al14Ga(SiRh2)3
_chemical_formula_sum   'Tm4 Al14 Ga1 Si3 Rh6'
_cell_volume   454.61460769
_cell_formula_units_Z   1
loop_
 _symmetry_equiv_pos_site_id
 _symmetry_equiv_pos_as_xyz
  1  'x, y, z'
loop_
 _atom_site_type_symbol
 _atom_site_label
 _atom_site_symmetry_multiplicity
 _atom_site_fract_x
 _atom_site_fract_y
 _atom_site_fract_z
 _atom_site_occupancy
  Tm  Tm0  1  0.003151  0.673990  0.250000  1
  Tm  Tm1  1  0.998599  0.322825  0.750000  1
  Tm  Tm2  1  0.663859  0.989589  0.250000  1
  Tm  Tm3  1  0.332394  0.011575  0.750000  1
  Al  Al4  1  0.997021  0.331986  0.076313  1
  Al  Al5  1  0.003376  0.666130  0.922133  1
  Al  Al6  1  0.003376  0.666130  0.577867  1
  Al  Al7  1  0.335787  0.004060  0.426097  1
  Al  Al8  1  0.997021  0.331986  0.423687  1
  Al  Al9  1  0.662194  0.996259  0.576108  1
  Al  Al10  1  0.662194  0.996259  0.923892  1
  Al  Al11  1  0.335787  0.004060  0.073903  1
  Al  Al12  1  0.333492  0.336597  0.559277  1
  Al  Al13  1  0.669201  0.666643  0.439240  1
  Al  Al14  1  0.669201  0.666643  0.060760  1
  Al  Al15  1  0.333492  0.336597  0.940723  1
  Al  Al16  1  0.555232  0.341869  0.250000  1
  Al  Al17  1  0.444825  0.660449  0.750000  1
  Ga  Ga18  1  0.121340  0.124423  0.250000  1
  Si  Si19  1  0.874807  0.869967  0.750000  1
  Si  Si20  1  0.336856  0.544971  0.250000  1
  Si  Si21  1  0.667218  0.455672  0.750000  1
  Rh  Rh22  1  0.672074  0.331786  0.992267  1
  Rh  Rh23  1  0.329301  0.670293  0.006979  1
  Rh  Rh24  1  0.329301  0.670293  0.493021  1
  Rh  Rh25  1  0.672074  0.331786  0.507733  1
  Rh  Rh26  1  0.998414  0.998582  0.990052  1
  Rh  Rh27  1  0.998414  0.998582  0.509948  1
