# generated using pymatgen
data_Na3Cd2AuO6
_symmetry_space_group_name_H-M   'P 1'
_cell_length_a   5.78365609
_cell_length_b   5.78365632
_cell_length_c   5.79332742
_cell_angle_alpha   79.97763430
_cell_angle_beta   79.97763467
_cell_angle_gamma   119.65806928
_symmetry_Int_Tables_number   1
_chemical_formula_structural   Na3Cd2AuO6
_chemical_formula_sum   'Na3 Cd2 Au1 O6'
_cell_volume   157.98425743
_cell_formula_units_Z   1
loop_
 _symmetry_equiv_pos_site_id
 _symmetry_equiv_pos_as_xyz
  1  'x, y, z'
loop_
 _atom_site_type_symbol
 _atom_site_label
 _atom_site_symmetry_multiplicity
 _atom_site_fract_x
 _atom_site_fract_y
 _atom_site_fract_z
 _atom_site_occupancy
  Na  Na0  1  0.500000  0.500000  0.500000  1
  Na  Na1  1  0.163222  0.836778  0.500000  1
  Na  Na2  1  0.836778  0.163222  0.500000  1
  Cd  Cd3  1  0.333065  0.666935  0.000000  1
  Cd  Cd4  1  0.666935  0.333065  0.000000  1
  Au  Au5  1  0.000000  0.000000  0.000000  1
  O  O6  1  0.225170  0.225170  0.208220  1
  O  O7  1  0.774830  0.774830  0.791780  1
  O  O8  1  0.632690  0.928789  0.218427  1
  O  O9  1  0.071211  0.367310  0.781573  1
  O  O10  1  0.928789  0.632690  0.218427  1
  O  O11  1  0.367310  0.071211  0.781573  1
