# generated using pymatgen
data_Er4Al18CuRh5
_symmetry_space_group_name_H-M   'P 1'
_cell_length_a   7.54822515
_cell_length_b   7.54822437
_cell_length_c   9.40318354
_cell_angle_alpha   90.07720221
_cell_angle_beta   90.07719629
_cell_angle_gamma   119.60398435
_symmetry_Int_Tables_number   1
_chemical_formula_structural   Er4Al18CuRh5
_chemical_formula_sum   'Er4 Al18 Cu1 Rh5'
_cell_volume   465.81438671
_cell_formula_units_Z   1
loop_
 _symmetry_equiv_pos_site_id
 _symmetry_equiv_pos_as_xyz
  1  'x, y, z'
loop_
 _atom_site_type_symbol
 _atom_site_label
 _atom_site_symmetry_multiplicity
 _atom_site_fract_x
 _atom_site_fract_y
 _atom_site_fract_z
 _atom_site_occupancy
  Er  Er0  1  0.994815  0.672132  0.749853  1
  Er  Er1  1  0.005185  0.327868  0.250147  1
  Er  Er2  1  0.672132  0.994815  0.749853  1
  Er  Er3  1  0.327868  0.005185  0.250147  1
  Al  Al4  1  0.128320  0.128320  0.751166  1
  Al  Al5  1  0.871680  0.871680  0.248834  1
  Al  Al6  1  0.999834  0.338206  0.578141  1
  Al  Al7  1  0.000166  0.661794  0.421859  1
  Al  Al8  1  0.000586  0.665349  0.074913  1
  Al  Al9  1  0.334651  0.999414  0.925087  1
  Al  Al10  1  0.999414  0.334651  0.925087  1
  Al  Al11  1  0.665349  0.000586  0.074913  1
  Al  Al12  1  0.661794  0.000166  0.421859  1
  Al  Al13  1  0.338206  0.999834  0.578141  1
  Al  Al14  1  0.332834  0.332834  0.052042  1
  Al  Al15  1  0.667166  0.667166  0.947958  1
  Al  Al16  1  0.664669  0.664669  0.554051  1
  Al  Al17  1  0.335331  0.335331  0.445949  1
  Al  Al18  1  0.338965  0.549829  0.750771  1
  Al  Al19  1  0.661035  0.450171  0.249229  1
  Al  Al20  1  0.549829  0.338965  0.750771  1
  Al  Al21  1  0.450171  0.661035  0.249229  1
  Cu  Cu22  1  0.000000  0.000000  0.500000  1
  Rh  Rh23  1  0.671676  0.328324  0.500000  1
  Rh  Rh24  1  0.328324  0.671676  0.500000  1
  Rh  Rh25  1  0.327401  0.672599  0.000000  1
  Rh  Rh26  1  0.672599  0.327401  0.000000  1
  Rh  Rh27  1  0.000000  0.000000  0.000000  1
