# generated using pymatgen
data_Pa2BIr5Rh
_symmetry_space_group_name_H-M   'P 1'
_cell_length_a   5.89359055
_cell_length_b   5.89359098
_cell_length_c   5.87482300
_cell_angle_alpha   60.10528012
_cell_angle_beta   60.10527770
_cell_angle_gamma   59.78943523
_symmetry_Int_Tables_number   1
_chemical_formula_structural   Pa2BIr5Rh
_chemical_formula_sum   'Pa2 B1 Ir5 Rh1'
_cell_volume   144.28824092
_cell_formula_units_Z   1
loop_
 _symmetry_equiv_pos_site_id
 _symmetry_equiv_pos_as_xyz
  1  'x, y, z'
loop_
 _atom_site_type_symbol
 _atom_site_label
 _atom_site_symmetry_multiplicity
 _atom_site_fract_x
 _atom_site_fract_y
 _atom_site_fract_z
 _atom_site_occupancy
  Pa  Pa0  1  0.750003  0.750003  0.749997  1
  Pa  Pa1  1  0.250003  0.250003  0.249997  1
  B  B2  1  0.999144  0.999144  0.000856  1
  Ir  Ir3  1  0.256351  0.743882  0.256118  1
  Ir  Ir4  1  0.743882  0.256351  0.256118  1
  Ir  Ir5  1  0.256922  0.256922  0.743078  1
  Ir  Ir6  1  0.743882  0.256351  0.743649  1
  Ir  Ir7  1  0.256351  0.743882  0.743649  1
  Rh  Rh8  1  0.743460  0.743460  0.256540  1
