# generated using pymatgen
data_Pm2Te3Pt
_symmetry_space_group_name_H-M   'P 1'
_cell_length_a   4.19634200
_cell_length_b   8.51829221
_cell_length_c   9.38652737
_cell_angle_alpha   92.60744785
_cell_angle_beta   90.00000000
_cell_angle_gamma   90.00000000
_symmetry_Int_Tables_number   1
_chemical_formula_structural   Pm2Te3Pt
_chemical_formula_sum   'Pm4 Te6 Pt2'
_cell_volume   335.18030140
_cell_formula_units_Z   2
loop_
 _symmetry_equiv_pos_site_id
 _symmetry_equiv_pos_as_xyz
  1  'x, y, z'
loop_
 _atom_site_type_symbol
 _atom_site_label
 _atom_site_symmetry_multiplicity
 _atom_site_fract_x
 _atom_site_fract_y
 _atom_site_fract_z
 _atom_site_occupancy
  Pm  Pm0  1  0.250084  0.139543  0.235825  1
  Pm  Pm1  1  0.750084  0.360457  0.764175  1
  Pm  Pm2  1  0.750030  0.865983  0.760839  1
  Pm  Pm3  1  0.250030  0.634017  0.239161  1
  Te  Te4  1  0.249838  0.929626  0.501680  1
  Te  Te5  1  0.749838  0.570374  0.498320  1
  Te  Te6  1  0.250112  0.118196  0.878861  1
  Te  Te7  1  0.750112  0.381804  0.121139  1
  Te  Te8  1  0.750060  0.878742  0.125113  1
  Te  Te9  1  0.250060  0.621258  0.874887  1
  Pt  Pt10  1  0.749875  0.142324  0.503075  1
  Pt  Pt11  1  0.249875  0.357676  0.496925  1
