# generated using pymatgen
data_Ho3In3IrRh2
_symmetry_space_group_name_H-M   'P 1'
_cell_length_a   7.55089300
_cell_length_b   7.55089348
_cell_length_c   3.88026800
_cell_angle_alpha   90.00000000
_cell_angle_beta   90.00000000
_cell_angle_gamma   119.99999352
_symmetry_Int_Tables_number   1
_chemical_formula_structural   Ho3In3IrRh2
_chemical_formula_sum   'Ho3 In3 Ir1 Rh2'
_cell_volume   191.59714883
_cell_formula_units_Z   1
loop_
 _symmetry_equiv_pos_site_id
 _symmetry_equiv_pos_as_xyz
  1  'x, y, z'
loop_
 _atom_site_type_symbol
 _atom_site_label
 _atom_site_symmetry_multiplicity
 _atom_site_fract_x
 _atom_site_fract_y
 _atom_site_fract_z
 _atom_site_occupancy
  Ho  Ho0  1  0.589684  0.593353  0.000000  1
  Ho  Ho1  1  0.406647  0.996331  0.000000  1
  Ho  Ho2  1  0.003669  0.410316  0.000000  1
  In  In3  1  0.999067  0.741301  0.500000  1
  In  In4  1  0.258699  0.257766  0.500000  1
  In  In5  1  0.742234  0.000933  0.500000  1
  Ir  Ir6  1  0.333333  0.666667  0.500000  1
  Rh  Rh7  1  0.000000  0.000000  0.000000  1
  Rh  Rh8  1  0.666667  0.333333  0.500000  1
