# generated using pymatgen
data_Mn3Be8Cr
_symmetry_space_group_name_H-M   'P 1'
_cell_length_a   4.17829400
_cell_length_b   4.17829472
_cell_length_c   6.82869600
_cell_angle_alpha   90.00000000
_cell_angle_beta   90.00000000
_cell_angle_gamma   120.00001015
_symmetry_Int_Tables_number   1
_chemical_formula_structural   Mn3Be8Cr
_chemical_formula_sum   'Mn3 Be8 Cr1'
_cell_volume   103.24438262
_cell_formula_units_Z   1
loop_
 _symmetry_equiv_pos_site_id
 _symmetry_equiv_pos_as_xyz
  1  'x, y, z'
loop_
 _atom_site_type_symbol
 _atom_site_label
 _atom_site_symmetry_multiplicity
 _atom_site_fract_x
 _atom_site_fract_y
 _atom_site_fract_z
 _atom_site_occupancy
  Mn  Mn0  1  0.333333  0.666667  0.443162  1
  Mn  Mn1  1  0.666667  0.333333  0.934562  1
  Mn  Mn2  1  0.333333  0.666667  0.060317  1
  Be  Be3  1  0.170198  0.340394  0.751685  1
  Be  Be4  1  0.170198  0.829802  0.751685  1
  Be  Be5  1  0.339893  0.169947  0.248655  1
  Be  Be6  1  0.830053  0.660107  0.248655  1
  Be  Be7  1  0.000000  0.000000  0.000670  1
  Be  Be8  1  0.659606  0.829802  0.751685  1
  Be  Be9  1  0.830053  0.169947  0.248655  1
  Be  Be10  1  0.000000  0.000000  0.499108  1
  Cr  Cr11  1  0.666667  0.333333  0.561163  1
