# generated using pymatgen
data_Nd7Lu13Si15Sn
_symmetry_space_group_name_H-M   'P 1'
_cell_length_a   7.73084142
_cell_length_b   7.75086651
_cell_length_c   14.33157800
_cell_angle_alpha   89.87755588
_cell_angle_beta   89.86201581
_cell_angle_gamma   90.17386458
_symmetry_Int_Tables_number   1
_chemical_formula_structural   Nd7Lu13Si15Sn
_chemical_formula_sum   'Nd7 Lu13 Si15 Sn1'
_cell_volume   858.75005134
_cell_formula_units_Z   1
loop_
 _symmetry_equiv_pos_site_id
 _symmetry_equiv_pos_as_xyz
  1  'x, y, z'
loop_
 _atom_site_type_symbol
 _atom_site_label
 _atom_site_symmetry_multiplicity
 _atom_site_fract_x
 _atom_site_fract_y
 _atom_site_fract_z
 _atom_site_occupancy
  Nd  Nd0  1  0.358717  0.006796  0.960062  1
  Nd  Nd1  1  0.989074  0.639012  0.541170  1
  Nd  Nd2  1  0.491715  0.856908  0.208716  1
  Nd  Nd3  1  0.515578  0.150154  0.713724  1
  Nd  Nd4  1  0.861012  0.492753  0.794632  1
  Nd  Nd5  1  0.139208  0.504900  0.290240  1
  Nd  Nd6  1  0.007257  0.356872  0.042102  1
  Lu  Lu7  1  0.492213  0.358431  0.124235  1
  Lu  Lu8  1  0.981355  0.147540  0.629298  1
  Lu  Lu9  1  0.861029  0.007732  0.875981  1
  Lu  Lu10  1  0.137318  0.993076  0.369593  1
  Lu  Lu11  1  0.514149  0.634522  0.624114  1
  Lu  Lu12  1  0.359635  0.492189  0.876802  1
  Lu  Lu13  1  0.643640  0.506519  0.373932  1
  Lu  Lu14  1  0.005186  0.860050  0.126485  1
  Lu  Lu15  1  0.643911  0.999026  0.451707  1
  Lu  Lu16  1  0.316494  0.327821  0.496624  1
  Lu  Lu17  1  0.182457  0.816384  0.755856  1
  Lu  Lu18  1  0.815668  0.181405  0.249622  1
  Lu  Lu19  1  0.681624  0.681215  0.000833  1
  Si  Si20  1  0.711008  0.060840  0.062728  1
  Si  Si21  1  0.936195  0.285927  0.436280  1
  Si  Si22  1  0.441304  0.207838  0.313230  1
  Si  Si23  1  0.562225  0.788051  0.812843  1
  Si  Si24  1  0.212486  0.440489  0.687549  1
  Si  Si25  1  0.786602  0.561533  0.186826  1
  Si  Si26  1  0.061989  0.710565  0.940125  1
  Si  Si27  1  0.800015  0.846206  0.692439  1
  Si  Si28  1  0.202924  0.150113  0.187109  1
  Si  Si29  1  0.844524  0.802010  0.313226  1
  Si  Si30  1  0.353974  0.698354  0.430099  1
  Si  Si31  1  0.650390  0.295898  0.938902  1
  Si  Si32  1  0.695999  0.341250  0.555688  1
  Si  Si33  1  0.296660  0.650369  0.062094  1
  Si  Si34  1  0.153497  0.201181  0.811548  1
  Sn  Sn35  1  0.292966  0.946071  0.563587  1
