# generated using pymatgen
data_Tb12Si11Os
_symmetry_space_group_name_H-M   'P 1'
_cell_length_a   3.86023300
_cell_length_b   5.74283044
_cell_length_c   24.14390996
_cell_angle_alpha   82.40851515
_cell_angle_beta   90.00000000
_cell_angle_gamma   90.00000000
_symmetry_Int_Tables_number   1
_chemical_formula_structural   Tb12Si11Os
_chemical_formula_sum   'Tb12 Si11 Os1'
_cell_volume   530.54695309
_cell_formula_units_Z   1
loop_
 _symmetry_equiv_pos_site_id
 _symmetry_equiv_pos_as_xyz
  1  'x, y, z'
loop_
 _atom_site_type_symbol
 _atom_site_label
 _atom_site_symmetry_multiplicity
 _atom_site_fract_x
 _atom_site_fract_y
 _atom_site_fract_z
 _atom_site_occupancy
  Tb  Tb0  1  0.750000  0.348598  0.064593  1
  Tb  Tb1  1  0.250000  0.659512  0.939520  1
  Tb  Tb2  1  0.750000  0.522570  0.224281  1
  Tb  Tb3  1  0.250000  0.469114  0.773004  1
  Tb  Tb4  1  0.750000  0.166863  0.393892  1
  Tb  Tb5  1  0.250000  0.827275  0.606079  1
  Tb  Tb6  1  0.750000  0.351869  0.559678  1
  Tb  Tb7  1  0.250000  0.643350  0.439845  1
  Tb  Tb8  1  0.750000  0.993949  0.726499  1
  Tb  Tb9  1  0.250000  0.996571  0.273848  1
  Tb  Tb10  1  0.750000  0.168872  0.892442  1
  Tb  Tb11  1  0.250000  0.829865  0.107306  1
  Si  Si12  1  0.750000  0.878202  0.011763  1
  Si  Si13  1  0.250000  0.143902  0.986729  1
  Si  Si14  1  0.750000  0.057530  0.178622  1
  Si  Si15  1  0.250000  0.955227  0.820779  1
  Si  Si16  1  0.750000  0.701986  0.346120  1
  Si  Si17  1  0.250000  0.290570  0.653564  1
  Si  Si18  1  0.750000  0.864357  0.511720  1
  Si  Si19  1  0.250000  0.132984  0.487623  1
  Si  Si20  1  0.750000  0.531555  0.678780  1
  Si  Si21  1  0.250000  0.463661  0.321830  1
  Si  Si22  1  0.750000  0.683598  0.845343  1
  Os  Os23  1  0.250000  0.318021  0.156138  1
