# generated using pymatgen
data_Tb7Sc(Si4W3)4
_symmetry_space_group_name_H-M   'P 1'
_cell_length_a   6.77748504
_cell_length_b   6.93518593
_cell_length_c   12.90810744
_cell_angle_alpha   90.10920568
_cell_angle_beta   89.96706412
_cell_angle_gamma   90.05474882
_symmetry_Int_Tables_number   1
_chemical_formula_structural   Tb7Sc(Si4W3)4
_chemical_formula_sum   'Tb7 Sc1 Si16 W12'
_cell_volume   606.71982980
_cell_formula_units_Z   1
loop_
 _symmetry_equiv_pos_site_id
 _symmetry_equiv_pos_as_xyz
  1  'x, y, z'
loop_
 _atom_site_type_symbol
 _atom_site_label
 _atom_site_symmetry_multiplicity
 _atom_site_fract_x
 _atom_site_fract_y
 _atom_site_fract_z
 _atom_site_occupancy
  Tb  Tb0  1  0.495237  0.667867  0.593249  1
  Tb  Tb1  1  0.995504  0.832670  0.906885  1
  Tb  Tb2  1  0.504625  0.332729  0.093391  1
  Tb  Tb3  1  0.004002  0.167041  0.408525  1
  Tb  Tb4  1  0.503961  0.331890  0.407985  1
  Tb  Tb5  1  0.004507  0.167403  0.093363  1
  Tb  Tb6  1  0.495216  0.667949  0.904942  1
  Sc  Sc7  1  0.992430  0.830390  0.595089  1
  Si  Si8  1  0.663245  0.956460  0.454936  1
  Si  Si9  1  0.161590  0.542876  0.046788  1
  Si  Si10  1  0.339450  0.043606  0.952102  1
  Si  Si11  1  0.840797  0.462022  0.547741  1
  Si  Si12  1  0.331614  0.039055  0.547790  1
  Si  Si13  1  0.838380  0.456404  0.952516  1
  Si  Si14  1  0.661133  0.956593  0.046926  1
  Si  Si15  1  0.160749  0.546406  0.455189  1
  Si  Si16  1  0.463302  0.369715  0.749579  1
  Si  Si17  1  0.964294  0.125659  0.747496  1
  Si  Si18  1  0.537644  0.629768  0.250615  1
  Si  Si19  1  0.037195  0.870788  0.250296  1
  Si  Si20  1  0.701091  0.866383  0.747798  1
  Si  Si21  1  0.192978  0.636206  0.747268  1
  Si  Si22  1  0.303112  0.132947  0.250549  1
  Si  Si23  1  0.803877  0.368033  0.250969  1
  W  W24  1  0.668091  0.162300  0.625175  1
  W  W25  1  0.166135  0.335781  0.872688  1
  W  W26  1  0.333021  0.836722  0.125622  1
  W  W27  1  0.834079  0.665434  0.375811  1
  W  W28  1  0.332897  0.836505  0.374500  1
  W  W29  1  0.833236  0.664109  0.126143  1
  W  W30  1  0.668796  0.162368  0.873309  1
  W  W31  1  0.167642  0.336387  0.625559  1
  W  W32  1  0.834175  0.499415  0.749053  1
  W  W33  1  0.333556  0.999601  0.748442  1
  W  W34  1  0.166439  0.502000  0.250610  1
  W  W35  1  0.666003  0.998516  0.251098  1
