# generated using pymatgen
data_KTa6TiSe12
_symmetry_space_group_name_H-M   'P 1'
_cell_length_a   6.06766200
_cell_length_b   6.06766299
_cell_length_c   14.46326000
_cell_angle_alpha   90.00000000
_cell_angle_beta   90.00000000
_cell_angle_gamma   120.00000550
_symmetry_Int_Tables_number   1
_chemical_formula_structural   KTa6TiSe12
_chemical_formula_sum   'K1 Ta6 Ti1 Se12'
_cell_volume   461.14726009
_cell_formula_units_Z   1
loop_
 _symmetry_equiv_pos_site_id
 _symmetry_equiv_pos_as_xyz
  1  'x, y, z'
loop_
 _atom_site_type_symbol
 _atom_site_label
 _atom_site_symmetry_multiplicity
 _atom_site_fract_x
 _atom_site_fract_y
 _atom_site_fract_z
 _atom_site_occupancy
  K  K0  1  0.333333  0.666667  0.250000  1
  Ta  Ta1  1  0.000000  0.000000  0.530962  1
  Ta  Ta2  1  0.000000  0.000000  0.969038  1
  Ta  Ta3  1  0.333333  0.666667  0.970308  1
  Ta  Ta4  1  0.666667  0.333333  0.967980  1
  Ta  Ta5  1  0.666667  0.333333  0.532020  1
  Ta  Ta6  1  0.333333  0.666667  0.529692  1
  Ti  Ti7  1  0.666667  0.333333  0.750000  1
  Se  Se8  1  0.333777  0.328378  0.416421  1
  Se  Se9  1  0.671622  0.005399  0.416421  1
  Se  Se10  1  0.994601  0.666223  0.416421  1
  Se  Se11  1  0.327329  0.334237  0.645947  1
  Se  Se12  1  0.006909  0.672671  0.645947  1
  Se  Se13  1  0.665763  0.993091  0.645947  1
  Se  Se14  1  0.665763  0.672671  0.854053  1
  Se  Se15  1  0.327329  0.993091  0.854053  1
  Se  Se16  1  0.006909  0.334237  0.854053  1
  Se  Se17  1  0.671622  0.666223  0.083579  1
  Se  Se18  1  0.994601  0.328378  0.083579  1
  Se  Se19  1  0.333777  0.005399  0.083579  1
