# generated using pymatgen
data_Nd3HoMg2Ir3
_symmetry_space_group_name_H-M   'P 1'
_cell_length_a   7.57590900
_cell_length_b   7.58608106
_cell_length_c   4.18977300
_cell_angle_alpha   90.00000000
_cell_angle_beta   90.00000000
_cell_angle_gamma   119.95564943
_symmetry_Int_Tables_number   1
_chemical_formula_structural   Nd3HoMg2Ir3
_chemical_formula_sum   'Nd3 Ho1 Mg2 Ir3'
_cell_volume   208.62544169
_cell_formula_units_Z   1
loop_
 _symmetry_equiv_pos_site_id
 _symmetry_equiv_pos_as_xyz
  1  'x, y, z'
loop_
 _atom_site_type_symbol
 _atom_site_label
 _atom_site_symmetry_multiplicity
 _atom_site_fract_x
 _atom_site_fract_y
 _atom_site_fract_z
 _atom_site_occupancy
  Nd  Nd0  1  0.394185  0.000000  0.500000  1
  Nd  Nd1  1  0.015271  0.431634  0.500000  1
  Nd  Nd2  1  0.583637  0.568366  0.500000  1
  Ho  Ho3  1  0.753537  0.000000  0.000000  1
  Mg  Mg4  1  0.244552  0.244987  0.000000  1
  Mg  Mg5  1  0.999564  0.755013  0.000000  1
  Ir  Ir6  1  0.670303  0.330504  0.000000  1
  Ir  Ir7  1  0.339801  0.669496  0.000000  1
  Ir  Ir8  1  0.999150  0.000000  0.500000  1
