# generated using pymatgen
data_Yb11Ho(SiAg)12
_symmetry_space_group_name_H-M   'P 1'
_cell_length_a   4.47887600
_cell_length_b   7.72050038
_cell_length_c   21.38977355
_cell_angle_alpha   89.87956924
_cell_angle_beta   90.00000000
_cell_angle_gamma   90.00000000
_symmetry_Int_Tables_number   1
_chemical_formula_structural   Yb11Ho(SiAg)12
_chemical_formula_sum   'Yb11 Ho1 Si12 Ag12'
_cell_volume   739.63885048
_cell_formula_units_Z   1
loop_
 _symmetry_equiv_pos_site_id
 _symmetry_equiv_pos_as_xyz
  1  'x, y, z'
loop_
 _atom_site_type_symbol
 _atom_site_label
 _atom_site_symmetry_multiplicity
 _atom_site_fract_x
 _atom_site_fract_y
 _atom_site_fract_z
 _atom_site_occupancy
  Yb  Yb0  1  0.250000  0.220385  0.000336  1
  Yb  Yb1  1  0.250000  0.281347  0.499834  1
  Yb  Yb2  1  0.750000  0.777170  0.001251  1
  Yb  Yb3  1  0.750000  0.718173  0.500537  1
  Yb  Yb4  1  0.250000  0.203562  0.333566  1
  Yb  Yb5  1  0.250000  0.290547  0.832463  1
  Yb  Yb6  1  0.750000  0.794619  0.666173  1
  Yb  Yb7  1  0.750000  0.704350  0.166528  1
  Yb  Yb8  1  0.250000  0.209950  0.666264  1
  Yb  Yb9  1  0.250000  0.292127  0.167083  1
  Yb  Yb10  1  0.750000  0.792875  0.333044  1
  Ho  Ho11  1  0.750000  0.710642  0.833526  1
  Si  Si12  1  0.250000  0.582504  0.727425  1
  Si  Si13  1  0.250000  0.918269  0.223895  1
  Si  Si14  1  0.750000  0.418160  0.276033  1
  Si  Si15  1  0.750000  0.076931  0.775737  1
  Si  Si16  1  0.250000  0.913028  0.106368  1
  Si  Si17  1  0.250000  0.587257  0.607795  1
  Si  Si18  1  0.750000  0.085133  0.893182  1
  Si  Si19  1  0.750000  0.413178  0.393525  1
  Si  Si20  1  0.250000  0.595141  0.917574  1
  Si  Si21  1  0.250000  0.908362  0.428378  1
  Si  Si22  1  0.750000  0.409522  0.070460  1
  Si  Si23  1  0.750000  0.092005  0.572228  1
  Ag  Ag24  1  0.250000  0.912687  0.761825  1
  Ag  Ag25  1  0.250000  0.587616  0.262272  1
  Ag  Ag26  1  0.750000  0.088277  0.238042  1
  Ag  Ag27  1  0.750000  0.411403  0.738559  1
  Ag  Ag28  1  0.250000  0.922802  0.906310  1
  Ag  Ag29  1  0.250000  0.581784  0.405670  1
  Ag  Ag30  1  0.750000  0.081982  0.094306  1
  Ag  Ag31  1  0.750000  0.418520  0.594720  1
  Ag  Ag32  1  0.250000  0.916107  0.565475  1
  Ag  Ag33  1  0.250000  0.583183  0.067950  1
  Ag  Ag34  1  0.750000  0.083520  0.434795  1
  Ag  Ag35  1  0.750000  0.416878  0.936872  1
