# generated using pymatgen
data_Ga4Ir3RhS12
_symmetry_space_group_name_H-M   'P 1'
_cell_length_a   3.66668900
_cell_length_b   9.79136626
_cell_length_c   12.08707416
_cell_angle_alpha   89.63599099
_cell_angle_beta   90.00000000
_cell_angle_gamma   90.00000000
_symmetry_Int_Tables_number   1
_chemical_formula_structural   Ga4Ir3RhS12
_chemical_formula_sum   'Ga4 Ir3 Rh1 S12'
_cell_volume   433.94010914
_cell_formula_units_Z   1
loop_
 _symmetry_equiv_pos_site_id
 _symmetry_equiv_pos_as_xyz
  1  'x, y, z'
loop_
 _atom_site_type_symbol
 _atom_site_label
 _atom_site_symmetry_multiplicity
 _atom_site_fract_x
 _atom_site_fract_y
 _atom_site_fract_z
 _atom_site_occupancy
  Ga  Ga0  1  0.750000  0.260523  0.799682  1
  Ga  Ga1  1  0.250000  0.740337  0.199002  1
  Ga  Ga2  1  0.750000  0.759639  0.698798  1
  Ga  Ga3  1  0.250000  0.240616  0.300968  1
  Ir  Ir4  1  0.750000  0.591338  0.391400  1
  Ir  Ir5  1  0.250000  0.908740  0.890920  1
  Ir  Ir6  1  0.750000  0.091971  0.108602  1
  Rh  Rh7  1  0.250000  0.407417  0.609305  1
  S  S8  1  0.250000  0.937365  0.087463  1
  S  S9  1  0.750000  0.063614  0.911666  1
  S  S10  1  0.250000  0.436307  0.412015  1
  S  S11  1  0.750000  0.564115  0.588206  1
  S  S12  1  0.750000  0.096164  0.308410  1
  S  S13  1  0.250000  0.904186  0.691371  1
  S  S14  1  0.750000  0.596167  0.191700  1
  S  S15  1  0.250000  0.403267  0.810878  1
  S  S16  1  0.250000  0.252644  0.110263  1
  S  S17  1  0.750000  0.747797  0.889547  1
  S  S18  1  0.250000  0.752203  0.389348  1
  S  S19  1  0.750000  0.245591  0.610456  1
