# generated using pymatgen
data_Pr8CdHgPd2
_symmetry_space_group_name_H-M   'P 1'
_cell_length_a   10.09033301
_cell_length_b   10.09033305
_cell_length_c   10.11701000
_cell_angle_alpha   59.91250478
_cell_angle_beta   59.91250464
_cell_angle_gamma   59.87605476
_symmetry_Int_Tables_number   1
_chemical_formula_structural   Pr8CdHgPd2
_chemical_formula_sum   'Pr16 Cd2 Hg2 Pd4'
_cell_volume   726.71676352
_cell_formula_units_Z   2
loop_
 _symmetry_equiv_pos_site_id
 _symmetry_equiv_pos_as_xyz
  1  'x, y, z'
loop_
 _atom_site_type_symbol
 _atom_site_label
 _atom_site_symmetry_multiplicity
 _atom_site_fract_x
 _atom_site_fract_y
 _atom_site_fract_z
 _atom_site_occupancy
  Pr  Pr0  1  0.351643  0.351643  0.350817  1
  Pr  Pr1  1  0.351643  0.351643  0.945898  1
  Pr  Pr2  1  0.354548  0.939258  0.353098  1
  Pr  Pr3  1  0.939258  0.354548  0.353098  1
  Pr  Pr4  1  0.808578  0.191150  0.193059  1
  Pr  Pr5  1  0.191150  0.808578  0.807214  1
  Pr  Pr6  1  0.191150  0.808578  0.193059  1
  Pr  Pr7  1  0.808578  0.191150  0.807214  1
  Pr  Pr8  1  0.191065  0.191065  0.808935  1
  Pr  Pr9  1  0.806399  0.806399  0.193601  1
  Pr  Pr10  1  0.937371  0.562914  0.565905  1
  Pr  Pr11  1  0.562914  0.937371  0.933810  1
  Pr  Pr12  1  0.562914  0.937371  0.565905  1
  Pr  Pr13  1  0.937371  0.562914  0.933810  1
  Pr  Pr14  1  0.563756  0.563756  0.936244  1
  Pr  Pr15  1  0.934931  0.934931  0.565069  1
  Cd  Cd16  1  0.578964  0.259845  0.580595  1
  Cd  Cd17  1  0.259845  0.578964  0.580595  1
  Hg  Hg18  1  0.583549  0.583549  0.586385  1
  Hg  Hg19  1  0.583549  0.583549  0.246516  1
  Pd  Pd20  1  0.144065  0.144065  0.144702  1
  Pd  Pd21  1  0.144065  0.144065  0.567168  1
  Pd  Pd22  1  0.143368  0.569326  0.143653  1
  Pd  Pd23  1  0.569326  0.143368  0.143653  1
