# generated using pymatgen
data_Tm5GaCoBi
_symmetry_space_group_name_H-M   'P 1'
_cell_length_a   8.49002565
_cell_length_b   8.49002560
_cell_length_c   8.69803920
_cell_angle_alpha   125.74932648
_cell_angle_beta   125.74933261
_cell_angle_gamma   78.63204372
_symmetry_Int_Tables_number   1
_chemical_formula_structural   Tm5GaCoBi
_chemical_formula_sum   'Tm10 Ga2 Co2 Bi2'
_cell_volume   402.93341278
_cell_formula_units_Z   2
loop_
 _symmetry_equiv_pos_site_id
 _symmetry_equiv_pos_as_xyz
  1  'x, y, z'
loop_
 _atom_site_type_symbol
 _atom_site_label
 _atom_site_symmetry_multiplicity
 _atom_site_fract_x
 _atom_site_fract_y
 _atom_site_fract_z
 _atom_site_occupancy
  Tm  Tm0  1  0.000000  0.000000  0.000000  1
  Tm  Tm1  1  0.500000  0.500000  0.000000  1
  Tm  Tm2  1  0.777238  0.277238  0.787054  1
  Tm  Tm3  1  0.222762  0.722762  0.212946  1
  Tm  Tm4  1  0.490185  0.990185  0.212946  1
  Tm  Tm5  1  0.310433  0.453819  0.500000  1
  Tm  Tm6  1  0.046181  0.189567  0.500000  1
  Tm  Tm7  1  0.509815  0.009815  0.787054  1
  Tm  Tm8  1  0.689567  0.546181  0.500000  1
  Tm  Tm9  1  0.953819  0.810433  0.500000  1
  Ga  Ga10  1  0.136769  0.636769  0.773539  1
  Ga  Ga11  1  0.863231  0.363231  0.226461  1
  Co  Co12  1  0.632135  0.867865  0.500000  1
  Co  Co13  1  0.367865  0.132135  0.500000  1
  Bi  Bi14  1  0.250000  0.250000  0.000000  1
  Bi  Bi15  1  0.750000  0.750000  0.000000  1
