# generated using pymatgen
data_NdMgCdPt3
_symmetry_space_group_name_H-M   'P 1'
_cell_length_a   5.58375945
_cell_length_b   5.58375975
_cell_length_c   5.34769753
_cell_angle_alpha   58.52870388
_cell_angle_beta   58.52870345
_cell_angle_gamma   60.00000500
_symmetry_Int_Tables_number   1
_chemical_formula_structural   NdMgCdPt3
_chemical_formula_sum   'Nd1 Mg1 Cd1 Pt3'
_cell_volume   115.20739633
_cell_formula_units_Z   1
loop_
 _symmetry_equiv_pos_site_id
 _symmetry_equiv_pos_as_xyz
  1  'x, y, z'
loop_
 _atom_site_type_symbol
 _atom_site_label
 _atom_site_symmetry_multiplicity
 _atom_site_fract_x
 _atom_site_fract_y
 _atom_site_fract_z
 _atom_site_occupancy
  Nd  Nd0  1  0.242637  0.242637  0.272088  1
  Mg  Mg1  1  0.628790  0.628790  0.113631  1
  Cd  Cd2  1  0.995964  0.995964  0.012110  1
  Pt  Pt3  1  0.627811  0.126985  0.617391  1
  Pt  Pt4  1  0.627811  0.627811  0.617391  1
  Pt  Pt5  1  0.126985  0.627811  0.617391  1
