# generated using pymatgen
data_MnMo2F12
_symmetry_space_group_name_H-M   'P 1'
_cell_length_a   5.40138080
_cell_length_b   5.68413267
_cell_length_c   9.33221383
_cell_angle_alpha   73.02838812
_cell_angle_beta   88.30457916
_cell_angle_gamma   61.92104970
_symmetry_Int_Tables_number   1
_chemical_formula_structural   MnMo2F12
_chemical_formula_sum   'Mn1 Mo2 F12'
_cell_volume   239.80528575
_cell_formula_units_Z   1
loop_
 _symmetry_equiv_pos_site_id
 _symmetry_equiv_pos_as_xyz
  1  'x, y, z'
loop_
 _atom_site_type_symbol
 _atom_site_label
 _atom_site_symmetry_multiplicity
 _atom_site_fract_x
 _atom_site_fract_y
 _atom_site_fract_z
 _atom_site_occupancy
  Mn  Mn0  1  0.500000  0.500000  0.500000  1
  Mo  Mo1  1  0.771210  0.007423  0.240680  1
  Mo  Mo2  1  0.228790  0.992577  0.759320  1
  F  F3  1  0.958288  0.219978  0.208361  1
  F  F4  1  0.041712  0.780022  0.791639  1
  F  F5  1  0.018340  0.771084  0.134479  1
  F  F6  1  0.463523  0.762785  0.629818  1
  F  F7  1  0.536477  0.237215  0.370182  1
  F  F8  1  0.947454  0.241086  0.574990  1
  F  F9  1  0.052546  0.758914  0.425010  1
  F  F10  1  0.400959  0.239400  0.683739  1
  F  F11  1  0.599041  0.760600  0.316261  1
  F  F12  1  0.517461  0.786681  0.920037  1
  F  F13  1  0.482539  0.213319  0.079963  1
  F  F14  1  0.981660  0.228916  0.865521  1
