# generated using pymatgen
data_Li2MnCr2Ni9As7
_symmetry_space_group_name_H-M   'P 1'
_cell_length_a   9.46331904
_cell_length_b   9.47556653
_cell_length_c   3.68441000
_cell_angle_alpha   90.00000000
_cell_angle_beta   90.00000000
_cell_angle_gamma   119.94736917
_symmetry_Int_Tables_number   1
_chemical_formula_structural   Li2MnCr2Ni9As7
_chemical_formula_sum   'Li2 Mn1 Cr2 Ni9 As7'
_cell_volume   286.27098473
_cell_formula_units_Z   1
loop_
 _symmetry_equiv_pos_site_id
 _symmetry_equiv_pos_as_xyz
  1  'x, y, z'
loop_
 _atom_site_type_symbol
 _atom_site_label
 _atom_site_symmetry_multiplicity
 _atom_site_fract_x
 _atom_site_fract_y
 _atom_site_fract_z
 _atom_site_occupancy
  Li  Li0  1  0.333648  0.666549  0.000000  1
  Li  Li1  1  0.999949  0.999996  0.500000  1
  Mn  Mn2  1  0.764431  0.561727  0.500000  1
  Cr  Cr3  1  0.439645  0.203791  0.500000  1
  Cr  Cr4  1  0.796587  0.236193  0.500000  1
  Ni  Ni5  1  0.282153  0.382952  0.500000  1
  Ni  Ni6  1  0.617096  0.899344  0.500000  1
  Ni  Ni7  1  0.100296  0.717517  0.500000  1
  Ni  Ni8  1  0.506018  0.452382  0.000000  1
  Ni  Ni9  1  0.547092  0.052320  0.000000  1
  Ni  Ni10  1  0.947183  0.495034  0.000000  1
  Ni  Ni11  1  0.722178  0.764357  0.000000  1
  Ni  Ni12  1  0.235731  0.957882  0.000000  1
  Ni  Ni13  1  0.041212  0.277407  0.000000  1
  As  As14  1  0.961462  0.754888  0.000000  1
  As  As15  1  0.245813  0.207112  0.000000  1
  As  As16  1  0.792528  0.038432  0.000000  1
  As  As17  1  0.666196  0.332259  0.000000  1
  As  As18  1  0.537627  0.625148  0.500000  1
  As  As19  1  0.374616  0.911818  0.500000  1
  As  As20  1  0.088540  0.462892  0.500000  1
