# generated using pymatgen
data_Hf2Zr2Mn3Si4Pd
_symmetry_space_group_name_H-M   'P 1'
_cell_length_a   3.75761000
_cell_length_b   6.59627145
_cell_length_c   7.64200553
_cell_angle_alpha   89.95752737
_cell_angle_beta   90.00000000
_cell_angle_gamma   90.00000000
_symmetry_Int_Tables_number   1
_chemical_formula_structural   Hf2Zr2Mn3Si4Pd
_chemical_formula_sum   'Hf2 Zr2 Mn3 Si4 Pd1'
_cell_volume   189.41634432
_cell_formula_units_Z   1
loop_
 _symmetry_equiv_pos_site_id
 _symmetry_equiv_pos_as_xyz
  1  'x, y, z'
loop_
 _atom_site_type_symbol
 _atom_site_label
 _atom_site_symmetry_multiplicity
 _atom_site_fract_x
 _atom_site_fract_y
 _atom_site_fract_z
 _atom_site_occupancy
  Hf  Hf0  1  0.250000  0.030530  0.820171  1
  Hf  Hf1  1  0.750000  0.976263  0.182723  1
  Zr  Zr2  1  0.250000  0.526200  0.677756  1
  Zr  Zr3  1  0.750000  0.470384  0.325425  1
  Mn  Mn4  1  0.750000  0.864148  0.561064  1
  Mn  Mn5  1  0.250000  0.134567  0.436462  1
  Mn  Mn6  1  0.750000  0.352025  0.935229  1
  Si  Si7  1  0.250000  0.264978  0.127007  1
  Si  Si8  1  0.750000  0.735473  0.870184  1
  Si  Si9  1  0.250000  0.771911  0.381006  1
  Si  Si10  1  0.750000  0.228319  0.620895  1
  Pd  Pd11  1  0.250000  0.645202  0.062077  1
