# generated using pymatgen
data_Ba4Sr2(VH9)3
_symmetry_space_group_name_H-M   'P 1'
_cell_length_a   9.19437000
_cell_length_b   9.09888438
_cell_length_c   5.32472400
_cell_angle_alpha   90.00000000
_cell_angle_beta   90.00000000
_cell_angle_gamma   120.34777177
_symmetry_Int_Tables_number   1
_chemical_formula_structural   Ba4Sr2(VH9)3
_chemical_formula_sum   'Ba4 Sr2 V3 H27'
_cell_volume   384.41934290
_cell_formula_units_Z   1
loop_
 _symmetry_equiv_pos_site_id
 _symmetry_equiv_pos_as_xyz
  1  'x, y, z'
loop_
 _atom_site_type_symbol
 _atom_site_label
 _atom_site_symmetry_multiplicity
 _atom_site_fract_x
 _atom_site_fract_y
 _atom_site_fract_z
 _atom_site_occupancy
  Ba  Ba0  1  0.266207  0.000000  0.500000  1
  Ba  Ba1  1  0.998502  0.590717  0.000000  1
  Ba  Ba2  1  0.407785  0.409283  0.000000  1
  Ba  Ba3  1  0.597927  0.000000  0.000000  1
  Sr  Sr4  1  0.998672  0.264066  0.500000  1
  Sr  Sr5  1  0.734606  0.735934  0.500000  1
  V  V6  1  0.674235  0.339321  0.500000  1
  V  V7  1  0.334913  0.660679  0.500000  1
  V  V8  1  0.990822  0.000000  0.000000  1
  H  H9  1  0.794450  0.312907  0.732363  1
  H  H10  1  0.695407  0.484694  0.733269  1
  H  H11  1  0.537128  0.224075  0.744401  1
  H  H12  1  0.210711  0.515306  0.266731  1
  H  H13  1  0.537128  0.224075  0.255599  1
  H  H14  1  0.794450  0.312907  0.267637  1
  H  H15  1  0.695407  0.484694  0.266731  1
  H  H16  1  0.313051  0.775925  0.744401  1
  H  H17  1  0.481543  0.687093  0.732363  1
  H  H18  1  0.179262  0.000000  0.000000  1
  H  H19  1  0.799699  0.810951  0.000000  1
  H  H20  1  0.988748  0.189049  0.000000  1
  H  H21  1  0.860100  0.000000  0.234841  1
  H  H22  1  0.127562  0.138679  0.775340  1
  H  H23  1  0.988883  0.861321  0.775340  1
  H  H24  1  0.988883  0.861321  0.224660  1
  H  H25  1  0.127562  0.138679  0.224660  1
  H  H26  1  0.860100  0.000000  0.765159  1
  H  H27  1  0.140396  0.640148  0.500000  1
  H  H28  1  0.501815  0.863778  0.500000  1
  H  H29  1  0.359277  0.488097  0.500000  1
  H  H30  1  0.500248  0.359852  0.500000  1
  H  H31  1  0.871180  0.511903  0.500000  1
  H  H32  1  0.638037  0.136222  0.500000  1
  H  H33  1  0.210711  0.515306  0.733269  1
  H  H34  1  0.313051  0.775925  0.255599  1
  H  H35  1  0.481543  0.687093  0.267637  1
