# generated using pymatgen
data_Ac4La4SiPd24
_symmetry_space_group_name_H-M   'P 1'
_cell_length_a   8.59748223
_cell_length_b   8.62411645
_cell_length_c   8.62411700
_cell_angle_alpha   90.02978357
_cell_angle_beta   89.89949638
_cell_angle_gamma   89.89949377
_symmetry_Int_Tables_number   1
_chemical_formula_structural   Ac4La4SiPd24
_chemical_formula_sum   'Ac4 La4 Si1 Pd24'
_cell_volume   639.43903235
_cell_formula_units_Z   1
loop_
 _symmetry_equiv_pos_site_id
 _symmetry_equiv_pos_as_xyz
  1  'x, y, z'
loop_
 _atom_site_type_symbol
 _atom_site_label
 _atom_site_symmetry_multiplicity
 _atom_site_fract_x
 _atom_site_fract_y
 _atom_site_fract_z
 _atom_site_occupancy
  Ac  Ac0  1  0.252893  0.252703  0.252703  1
  Ac  Ac1  1  0.746578  0.746978  0.746978  1
  Ac  Ac2  1  0.746865  0.746663  0.252630  1
  Ac  Ac3  1  0.746865  0.252630  0.746663  1
  La  La4  1  0.254242  0.254714  0.746018  1
  La  La5  1  0.254242  0.746018  0.254714  1
  La  La6  1  0.253839  0.745567  0.745567  1
  La  La7  1  0.745665  0.254824  0.254824  1
  Si  Si8  1  0.001799  0.999915  0.999915  1
  Pd  Pd9  1  0.256698  0.501614  0.998754  1
  Pd  Pd10  1  0.742435  0.498218  0.001292  1
  Pd  Pd11  1  0.000601  0.256980  0.500097  1
  Pd  Pd12  1  0.499915  0.257104  0.000100  1
  Pd  Pd13  1  0.003141  0.743111  0.499945  1
  Pd  Pd14  1  0.496357  0.742822  0.999940  1
  Pd  Pd15  1  0.499915  0.000100  0.257104  1
  Pd  Pd16  1  0.256698  0.998754  0.501614  1
  Pd  Pd17  1  0.496357  0.999940  0.742822  1
  Pd  Pd18  1  0.742435  0.001292  0.498218  1
  Pd  Pd19  1  0.000601  0.500097  0.256980  1
  Pd  Pd20  1  0.003141  0.499945  0.743111  1
  Pd  Pd21  1  0.251895  0.501356  0.501356  1
  Pd  Pd22  1  0.748113  0.498656  0.498656  1
  Pd  Pd23  1  0.499490  0.251888  0.500015  1
  Pd  Pd24  1  0.496680  0.748196  0.500042  1
  Pd  Pd25  1  0.499490  0.500015  0.251888  1
  Pd  Pd26  1  0.496680  0.500042  0.748196  1
  Pd  Pd27  1  0.281144  0.998447  0.998447  1
  Pd  Pd28  1  0.719237  0.001625  0.001625  1
  Pd  Pd29  1  0.999884  0.280564  0.000019  1
  Pd  Pd30  1  0.003113  0.719308  0.999894  1
  Pd  Pd31  1  0.999884  0.000019  0.280564  1
  Pd  Pd32  1  0.003113  0.999894  0.719308  1
