# generated using pymatgen
data_NpPa2(Co3B2)3
_symmetry_space_group_name_H-M   'P 1'
_cell_length_a   5.86085539
_cell_length_b   5.86085533
_cell_length_c   5.86085500
_cell_angle_alpha   94.39528263
_cell_angle_beta   94.39528258
_cell_angle_gamma   94.39527808
_symmetry_Int_Tables_number   1
_chemical_formula_structural   NpPa2(Co3B2)3
_chemical_formula_sum   'Np1 Pa2 Co9 B6'
_cell_volume   199.44527057
_cell_formula_units_Z   1
loop_
 _symmetry_equiv_pos_site_id
 _symmetry_equiv_pos_as_xyz
  1  'x, y, z'
loop_
 _atom_site_type_symbol
 _atom_site_label
 _atom_site_symmetry_multiplicity
 _atom_site_fract_x
 _atom_site_fract_y
 _atom_site_fract_z
 _atom_site_occupancy
  Np  Np0  1  0.000000  0.000000  0.000000  1
  Pa  Pa1  1  0.678926  0.678926  0.678926  1
  Pa  Pa2  1  0.321074  0.321074  0.321074  1
  Co  Co3  1  0.500000  0.000000  0.000000  1
  Co  Co4  1  0.000000  0.500000  0.000000  1
  Co  Co5  1  0.000000  0.000000  0.500000  1
  Co  Co6  1  0.661973  0.166660  0.661973  1
  Co  Co7  1  0.661973  0.661973  0.166660  1
  Co  Co8  1  0.166660  0.661973  0.661973  1
  Co  Co9  1  0.338027  0.833340  0.338027  1
  Co  Co10  1  0.338027  0.338027  0.833340  1
  Co  Co11  1  0.833340  0.338027  0.338027  1
  B  B12  1  0.329015  0.000000  0.670985  1
  B  B13  1  0.670985  0.329015  0.000000  1
  B  B14  1  0.000000  0.670985  0.329015  1
  B  B15  1  0.670985  0.000000  0.329015  1
  B  B16  1  0.329015  0.670985  0.000000  1
  B  B17  1  0.000000  0.329015  0.670985  1
