# generated using pymatgen
data_Tb2NdDyB10
_symmetry_space_group_name_H-M   'P 1'
_cell_length_a   7.16985100
_cell_length_b   7.15842121
_cell_length_c   7.19351300
_cell_angle_alpha   77.13880616
_cell_angle_beta   90.00000000
_cell_angle_gamma   90.00000000
_symmetry_Int_Tables_number   1
_chemical_formula_structural   Tb2NdDyB10
_chemical_formula_sum   'Tb4 Nd2 Dy2 B20'
_cell_volume   359.94314505
_cell_formula_units_Z   2
loop_
 _symmetry_equiv_pos_site_id
 _symmetry_equiv_pos_as_xyz
  1  'x, y, z'
loop_
 _atom_site_type_symbol
 _atom_site_label
 _atom_site_symmetry_multiplicity
 _atom_site_fract_x
 _atom_site_fract_y
 _atom_site_fract_z
 _atom_site_occupancy
  Tb  Tb0  1  0.315278  0.756019  0.255469  1
  Tb  Tb1  1  0.815278  0.243981  0.244531  1
  Tb  Tb2  1  0.684132  0.245703  0.745751  1
  Tb  Tb3  1  0.184132  0.754297  0.754249  1
  Nd  Nd4  1  0.689433  0.776556  0.624878  1
  Nd  Nd5  1  0.189433  0.223444  0.875122  1
  Dy  Dy6  1  0.306652  0.236399  0.370372  1
  Dy  Dy7  1  0.806652  0.763601  0.129628  1
  B  B8  1  0.503366  0.314148  0.041880  1
  B  B9  1  0.003366  0.685852  0.458120  1
  B  B10  1  0.497454  0.684525  0.962911  1
  B  B11  1  0.997454  0.315475  0.537089  1
  B  B12  1  0.493045  0.922796  0.933289  1
  B  B13  1  0.993045  0.077204  0.566711  1
  B  B14  1  0.514308  0.074257  0.077567  1
  B  B15  1  0.014308  0.925743  0.422433  1
  B  B16  1  0.326361  0.496645  0.040737  1
  B  B17  1  0.826361  0.503355  0.459263  1
  B  B18  1  0.672613  0.503156  0.961310  1
  B  B19  1  0.172613  0.496844  0.538690  1
  B  B20  1  0.909876  0.500423  0.910129  1
  B  B21  1  0.409876  0.499577  0.589871  1
  B  B22  1  0.088848  0.502143  0.089263  1
  B  B23  1  0.588848  0.497857  0.410737  1
  B  B24  1  0.960963  0.497605  0.672366  1
  B  B25  1  0.460963  0.502395  0.827634  1
  B  B26  1  0.037672  0.503920  0.325172  1
  B  B27  1  0.537672  0.496080  0.174828  1
