# generated using pymatgen
data_Ho5Zr3(As3Pd4)4
_symmetry_space_group_name_H-M   'P 1'
_cell_length_a   13.55228300
_cell_length_b   13.55228294
_cell_length_c   4.08963700
_cell_angle_alpha   90.00000000
_cell_angle_beta   90.00000000
_cell_angle_gamma   120.00000259
_symmetry_Int_Tables_number   1
_chemical_formula_structural   Ho5Zr3(As3Pd4)4
_chemical_formula_sum   'Ho5 Zr3 As12 Pd16'
_cell_volume   650.48951980
_cell_formula_units_Z   1
loop_
 _symmetry_equiv_pos_site_id
 _symmetry_equiv_pos_as_xyz
  1  'x, y, z'
loop_
 _atom_site_type_symbol
 _atom_site_label
 _atom_site_symmetry_multiplicity
 _atom_site_fract_x
 _atom_site_fract_y
 _atom_site_fract_z
 _atom_site_occupancy
  Ho  Ho0  1  0.189565  0.189565  0.500000  1
  Ho  Ho1  1  0.810435  0.000000  0.500000  1
  Ho  Ho2  1  0.000000  0.810435  0.500000  1
  Ho  Ho3  1  0.333333  0.666667  0.000000  1
  Ho  Ho4  1  0.666667  0.333333  0.000000  1
  Zr  Zr5  1  0.556303  0.556303  0.000000  1
  Zr  Zr6  1  0.443697  0.000000  0.000000  1
  Zr  Zr7  1  0.000000  0.443697  0.000000  1
  As  As8  1  0.826275  0.826275  0.000000  1
  As  As9  1  0.173725  0.000000  0.000000  1
  As  As10  1  0.000000  0.173725  0.000000  1
  As  As11  1  0.167229  0.483690  0.500000  1
  As  As12  1  0.516310  0.683539  0.500000  1
  As  As13  1  0.316461  0.832771  0.500000  1
  As  As14  1  0.683539  0.516310  0.500000  1
  As  As15  1  0.832771  0.316461  0.500000  1
  As  As16  1  0.483690  0.167229  0.500000  1
  As  As17  1  0.357865  0.357865  0.000000  1
  As  As18  1  0.642135  0.000000  0.000000  1
  As  As19  1  0.000000  0.642135  0.000000  1
  Pd  Pd20  1  0.722028  0.722028  0.500000  1
  Pd  Pd21  1  0.277972  0.000000  0.500000  1
  Pd  Pd22  1  0.000000  0.277972  0.500000  1
  Pd  Pd23  1  0.181733  0.372409  0.000000  1
  Pd  Pd24  1  0.627591  0.809324  0.000000  1
  Pd  Pd25  1  0.190676  0.818267  0.000000  1
  Pd  Pd26  1  0.809324  0.627591  0.000000  1
  Pd  Pd27  1  0.818267  0.190676  0.000000  1
  Pd  Pd28  1  0.372409  0.181733  0.000000  1
  Pd  Pd29  1  0.356991  0.485824  0.500000  1
  Pd  Pd30  1  0.514176  0.871167  0.500000  1
  Pd  Pd31  1  0.128833  0.643009  0.500000  1
  Pd  Pd32  1  0.871167  0.514176  0.500000  1
  Pd  Pd33  1  0.643009  0.128833  0.500000  1
  Pd  Pd34  1  0.485824  0.356991  0.500000  1
  Pd  Pd35  1  0.000000  0.000000  0.000000  1
