# generated using pymatgen
data_Cs3Rb(NO3)8
_symmetry_space_group_name_H-M   'P 1'
_cell_length_a   8.61420791
_cell_length_b   8.61420779
_cell_length_c   8.61420700
_cell_angle_alpha   89.90470662
_cell_angle_beta   89.90470662
_cell_angle_gamma   89.90470789
_symmetry_Int_Tables_number   1
_chemical_formula_structural   Cs3Rb(NO3)8
_chemical_formula_sum   'Cs3 Rb1 N8 O24'
_cell_volume   639.21093652
_cell_formula_units_Z   1
loop_
 _symmetry_equiv_pos_site_id
 _symmetry_equiv_pos_as_xyz
  1  'x, y, z'
loop_
 _atom_site_type_symbol
 _atom_site_label
 _atom_site_symmetry_multiplicity
 _atom_site_fract_x
 _atom_site_fract_y
 _atom_site_fract_z
 _atom_site_occupancy
  Cs  Cs0  1  0.500000  0.000000  0.000000  1
  Cs  Cs1  1  0.000000  0.000000  0.500000  1
  Cs  Cs2  1  0.000000  0.500000  0.000000  1
  Rb  Rb3  1  0.500000  0.500000  0.500000  1
  N  N4  1  0.617961  0.863312  0.380258  1
  N  N5  1  0.382039  0.136688  0.619742  1
  N  N6  1  0.113414  0.113414  0.113414  1
  N  N7  1  0.863312  0.380258  0.617961  1
  N  N8  1  0.380258  0.617961  0.863312  1
  N  N9  1  0.886586  0.886586  0.886586  1
  N  N10  1  0.136688  0.619742  0.382039  1
  N  N11  1  0.619742  0.382039  0.136688  1
  O  O12  1  0.993986  0.169210  0.177102  1
  O  O13  1  0.794355  0.489109  0.686996  1
  O  O14  1  0.334915  0.664941  0.994219  1
  O  O15  1  0.006014  0.830790  0.822898  1
  O  O16  1  0.205645  0.510891  0.313004  1
  O  O17  1  0.665085  0.335059  0.005781  1
  O  O18  1  0.177102  0.993986  0.169210  1
  O  O19  1  0.801599  0.316381  0.502059  1
  O  O20  1  0.489109  0.686996  0.794355  1
  O  O21  1  0.822898  0.006014  0.830790  1
  O  O22  1  0.198401  0.683619  0.497941  1
  O  O23  1  0.510891  0.313004  0.205645  1
  O  O24  1  0.169210  0.177102  0.993986  1
  O  O25  1  0.994219  0.334915  0.664941  1
  O  O26  1  0.316381  0.502059  0.801599  1
  O  O27  1  0.830790  0.822898  0.006014  1
  O  O28  1  0.005781  0.665085  0.335059  1
  O  O29  1  0.683619  0.497941  0.198401  1
  O  O30  1  0.664941  0.994219  0.334915  1
  O  O31  1  0.686996  0.794355  0.489109  1
  O  O32  1  0.502059  0.801599  0.316381  1
  O  O33  1  0.335059  0.005781  0.665085  1
  O  O34  1  0.313004  0.205645  0.510891  1
  O  O35  1  0.497941  0.198401  0.683619  1
