# generated using pymatgen
data_Er8Si12IrRh3
_symmetry_space_group_name_H-M   'P 1'
_cell_length_a   8.13553000
_cell_length_b   8.13552943
_cell_length_c   7.81340100
_cell_angle_alpha   90.00000000
_cell_angle_beta   90.00000000
_cell_angle_gamma   120.00000230
_symmetry_Int_Tables_number   1
_chemical_formula_structural   Er8Si12IrRh3
_chemical_formula_sum   'Er8 Si12 Ir1 Rh3'
_cell_volume   447.86013532
_cell_formula_units_Z   1
loop_
 _symmetry_equiv_pos_site_id
 _symmetry_equiv_pos_as_xyz
  1  'x, y, z'
loop_
 _atom_site_type_symbol
 _atom_site_label
 _atom_site_symmetry_multiplicity
 _atom_site_fract_x
 _atom_site_fract_y
 _atom_site_fract_z
 _atom_site_occupancy
  Er  Er0  1  0.982191  0.491096  0.249978  1
  Er  Er1  1  0.508904  0.491096  0.249978  1
  Er  Er2  1  0.490662  0.981324  0.750047  1
  Er  Er3  1  0.018676  0.509338  0.750047  1
  Er  Er4  1  0.490662  0.509338  0.750047  1
  Er  Er5  1  0.508904  0.017809  0.249978  1
  Er  Er6  1  0.000000  0.000000  0.749660  1
  Er  Er7  1  0.000000  0.000000  0.250630  1
  Si  Si8  1  0.166798  0.833202  0.500015  1
  Si  Si9  1  0.166798  0.333596  0.500015  1
  Si  Si10  1  0.666404  0.833202  0.500015  1
  Si  Si11  1  0.334083  0.167042  0.999719  1
  Si  Si12  1  0.833143  0.666286  0.500352  1
  Si  Si13  1  0.832958  0.167042  0.999719  1
  Si  Si14  1  0.832958  0.665917  0.999719  1
  Si  Si15  1  0.166476  0.332951  0.000597  1
  Si  Si16  1  0.667049  0.833524  0.000597  1
  Si  Si17  1  0.333714  0.166857  0.500352  1
  Si  Si18  1  0.833143  0.166857  0.500352  1
  Si  Si19  1  0.166476  0.833524  0.000597  1
  Ir  Ir20  1  0.333333  0.666667  0.032742  1
  Rh  Rh21  1  0.666667  0.333333  0.966209  1
  Rh  Rh22  1  0.666667  0.333333  0.534253  1
  Rh  Rh23  1  0.333333  0.666667  0.464386  1
