# generated using pymatgen
data_Y5ErHg10
_symmetry_space_group_name_H-M   'P 1'
_cell_length_a   6.38837860
_cell_length_b   6.38837730
_cell_length_c   10.15849100
_cell_angle_alpha   90.00000000
_cell_angle_beta   90.00000000
_cell_angle_gamma   104.55982464
_symmetry_Int_Tables_number   1
_chemical_formula_structural   Y5ErHg10
_chemical_formula_sum   'Y5 Er1 Hg10'
_cell_volume   401.26794589
_cell_formula_units_Z   1
loop_
 _symmetry_equiv_pos_site_id
 _symmetry_equiv_pos_as_xyz
  1  'x, y, z'
loop_
 _atom_site_type_symbol
 _atom_site_label
 _atom_site_symmetry_multiplicity
 _atom_site_fract_x
 _atom_site_fract_y
 _atom_site_fract_z
 _atom_site_occupancy
  Y  Y0  1  0.573100  0.573100  0.250000  1
  Y  Y1  1  0.211556  0.786439  0.500074  1
  Y  Y2  1  0.211556  0.786439  0.999926  1
  Y  Y3  1  0.786439  0.211556  0.500074  1
  Y  Y4  1  0.786439  0.211556  0.999926  1
  Er  Er5  1  0.428399  0.428399  0.750000  1
  Hg  Hg6  1  0.968731  0.968731  0.250000  1
  Hg  Hg7  1  0.034320  0.034320  0.750000  1
  Hg  Hg8  1  0.293807  0.293807  0.030731  1
  Hg  Hg9  1  0.704694  0.704694  0.967695  1
  Hg  Hg10  1  0.293807  0.293807  0.469269  1
  Hg  Hg11  1  0.704694  0.704694  0.532305  1
  Hg  Hg12  1  0.475262  0.038541  0.250000  1
  Hg  Hg13  1  0.963518  0.525136  0.750000  1
  Hg  Hg14  1  0.525136  0.963518  0.750000  1
  Hg  Hg15  1  0.038541  0.475262  0.250000  1
