# generated using pymatgen
data_Li2Er3AgSn2Pb
_symmetry_space_group_name_H-M   'P 1'
_cell_length_a   7.29871000
_cell_length_b   7.29435149
_cell_length_c   4.58947000
_cell_angle_alpha   90.00000000
_cell_angle_beta   90.00000000
_cell_angle_gamma   120.01976772
_symmetry_Int_Tables_number   1
_chemical_formula_structural   Li2Er3AgSn2Pb
_chemical_formula_sum   'Li2 Er3 Ag1 Sn2 Pb1'
_cell_volume   211.56285501
_cell_formula_units_Z   1
loop_
 _symmetry_equiv_pos_site_id
 _symmetry_equiv_pos_as_xyz
  1  'x, y, z'
loop_
 _atom_site_type_symbol
 _atom_site_label
 _atom_site_symmetry_multiplicity
 _atom_site_fract_x
 _atom_site_fract_y
 _atom_site_fract_z
 _atom_site_occupancy
  Li  Li0  1  0.004597  0.234652  0.500000  1
  Li  Li1  1  0.769945  0.765348  0.500000  1
  Er  Er2  1  0.001652  0.566400  0.000000  1
  Er  Er3  1  0.435252  0.433600  0.000000  1
  Er  Er4  1  0.552045  0.000000  0.000000  1
  Ag  Ag5  1  0.241700  0.000000  0.500000  1
  Sn  Sn6  1  0.673282  0.338844  0.500000  1
  Sn  Sn7  1  0.334437  0.661156  0.500000  1
  Pb  Pb8  1  0.987089  0.000000  0.000000  1
