# generated using pymatgen
data_Er17Lu3(Bi2Sb)4
_symmetry_space_group_name_H-M   'P 1'
_cell_length_a   8.14506091
_cell_length_b   9.39844719
_cell_length_c   11.93250000
_cell_angle_alpha   89.99932331
_cell_angle_beta   90.04844606
_cell_angle_gamma   89.98862488
_symmetry_Int_Tables_number   1
_chemical_formula_structural   Er17Lu3(Bi2Sb)4
_chemical_formula_sum   'Er17 Lu3 Bi8 Sb4'
_cell_volume   913.44356562
_cell_formula_units_Z   1
loop_
 _symmetry_equiv_pos_site_id
 _symmetry_equiv_pos_as_xyz
  1  'x, y, z'
loop_
 _atom_site_type_symbol
 _atom_site_label
 _atom_site_symmetry_multiplicity
 _atom_site_fract_x
 _atom_site_fract_y
 _atom_site_fract_z
 _atom_site_occupancy
  Er  Er0  1  0.353503  0.749657  0.214158  1
  Er  Er1  1  0.853278  0.749795  0.285857  1
  Er  Er2  1  0.645731  0.249113  0.786139  1
  Er  Er3  1  0.146924  0.249502  0.714379  1
  Er  Er4  1  0.811870  0.436385  0.558051  1
  Er  Er5  1  0.310937  0.437106  0.941990  1
  Er  Er6  1  0.810972  0.063030  0.558183  1
  Er  Er7  1  0.689163  0.937130  0.058024  1
  Er  Er8  1  0.188819  0.563146  0.441980  1
  Er  Er9  1  0.472549  0.249686  0.488155  1
  Er  Er10  1  0.973285  0.249990  0.011744  1
  Er  Er11  1  0.526431  0.750025  0.511717  1
  Er  Er12  1  0.026736  0.749702  0.988385  1
  Er  Er13  1  0.316419  0.249594  0.217126  1
  Er  Er14  1  0.816395  0.249875  0.282490  1
  Er  Er15  1  0.683579  0.749718  0.782820  1
  Er  Er16  1  0.183389  0.750218  0.717194  1
  Lu  Lu17  1  0.688122  0.565589  0.058012  1
  Lu  Lu18  1  0.188642  0.934666  0.441772  1
  Lu  Lu19  1  0.311759  0.065360  0.942133  1
  Bi  Bi20  1  0.565893  0.995876  0.325260  1
  Bi  Bi21  1  0.066322  0.503827  0.174513  1
  Bi  Bi22  1  0.433694  0.495893  0.674816  1
  Bi  Bi23  1  0.934032  0.003753  0.825489  1
  Bi  Bi24  1  0.433531  0.003916  0.674629  1
  Bi  Bi25  1  0.933887  0.495696  0.825675  1
  Bi  Bi26  1  0.566579  0.503943  0.325326  1
  Bi  Bi27  1  0.066464  0.995582  0.174468  1
  Sb  Sb28  1  0.405777  0.752049  0.958209  1
  Sb  Sb29  1  0.906663  0.750603  0.541403  1
  Sb  Sb30  1  0.594250  0.252128  0.041924  1
  Sb  Sb31  1  0.094406  0.247446  0.457978  1
