# generated using pymatgen
data_YbEu3Sc8O16
_symmetry_space_group_name_H-M   'P 1'
_cell_length_a   3.18931800
_cell_length_b   9.61873021
_cell_length_c   11.29550938
_cell_angle_alpha   89.98380639
_cell_angle_beta   90.00000000
_cell_angle_gamma   90.00000000
_symmetry_Int_Tables_number   1
_chemical_formula_structural   YbEu3Sc8O16
_chemical_formula_sum   'Yb1 Eu3 Sc8 O16'
_cell_volume   346.51446673
_cell_formula_units_Z   1
loop_
 _symmetry_equiv_pos_site_id
 _symmetry_equiv_pos_as_xyz
  1  'x, y, z'
loop_
 _atom_site_type_symbol
 _atom_site_label
 _atom_site_symmetry_multiplicity
 _atom_site_fract_x
 _atom_site_fract_y
 _atom_site_fract_z
 _atom_site_occupancy
  Yb  Yb0  1  0.250000  0.243748  0.347649  1
  Eu  Eu1  1  0.750000  0.255794  0.844541  1
  Eu  Eu2  1  0.250000  0.745792  0.154023  1
  Eu  Eu3  1  0.750000  0.755002  0.653367  1
  Sc  Sc4  1  0.250000  0.578258  0.893870  1
  Sc  Sc5  1  0.750000  0.418440  0.109448  1
  Sc  Sc6  1  0.250000  0.081200  0.603775  1
  Sc  Sc7  1  0.750000  0.923402  0.392206  1
  Sc  Sc8  1  0.750000  0.931469  0.890075  1
  Sc  Sc9  1  0.250000  0.073931  0.114331  1
  Sc  Sc10  1  0.750000  0.427898  0.607099  1
  Sc  Sc11  1  0.250000  0.565822  0.386768  1
  O  O12  1  0.250000  0.575921  0.572080  1
  O  O13  1  0.750000  0.414890  0.421706  1
  O  O14  1  0.250000  0.079036  0.926762  1
  O  O15  1  0.750000  0.925325  0.076236  1
  O  O16  1  0.250000  0.475117  0.217351  1
  O  O17  1  0.750000  0.520600  0.783035  1
  O  O18  1  0.250000  0.981522  0.284098  1
  O  O19  1  0.750000  0.023552  0.714887  1
  O  O20  1  0.250000  0.881833  0.521065  1
  O  O21  1  0.750000  0.124427  0.472632  1
  O  O22  1  0.250000  0.377531  0.980005  1
  O  O23  1  0.750000  0.619040  0.022668  1
  O  O24  1  0.750000  0.706345  0.335157  1
  O  O25  1  0.250000  0.292344  0.662712  1
  O  O26  1  0.750000  0.209126  0.175982  1
  O  O27  1  0.250000  0.792635  0.836474  1
