# generated using pymatgen
data_Li2GeS3
_symmetry_space_group_name_H-M   'P 1'
_cell_length_a   6.81391730
_cell_length_b   6.81391771
_cell_length_c   6.23634100
_cell_angle_alpha   90.00000000
_cell_angle_beta   90.00000000
_cell_angle_gamma   119.90231619
_symmetry_Int_Tables_number   1
_chemical_formula_structural   Li2GeS3
_chemical_formula_sum   'Li4 Ge2 S6'
_cell_volume   251.00413456
_cell_formula_units_Z   2
loop_
 _symmetry_equiv_pos_site_id
 _symmetry_equiv_pos_as_xyz
  1  'x, y, z'
loop_
 _atom_site_type_symbol
 _atom_site_label
 _atom_site_symmetry_multiplicity
 _atom_site_fract_x
 _atom_site_fract_y
 _atom_site_fract_z
 _atom_site_occupancy
  Li  Li0  1  0.982430  0.313612  0.985784  1
  Li  Li1  1  0.313612  0.982430  0.985784  1
  Li  Li2  1  0.017570  0.686388  0.485784  1
  Li  Li3  1  0.686388  0.017570  0.485784  1
  Ge  Ge4  1  0.663726  0.663726  0.964140  1
  Ge  Ge5  1  0.336274  0.336274  0.464140  1
  S  S6  1  0.034771  0.349970  0.370717  1
  S  S7  1  0.349970  0.034771  0.370717  1
  S  S8  1  0.965229  0.650030  0.870717  1
  S  S9  1  0.650030  0.965229  0.870717  1
  S  S10  1  0.654298  0.654298  0.339860  1
  S  S11  1  0.345702  0.345702  0.839860  1
