# generated using pymatgen
data_Na3Ca(DyTe2)4
_symmetry_space_group_name_H-M   'P 1'
_cell_length_a   8.89019103
_cell_length_b   8.97122816
_cell_length_c   8.89019100
_cell_angle_alpha   60.29835860
_cell_angle_beta   59.99999640
_cell_angle_gamma   60.29835978
_symmetry_Int_Tables_number   1
_chemical_formula_structural   Na3Ca(DyTe2)4
_chemical_formula_sum   'Na3 Ca1 Dy4 Te8'
_cell_volume   503.61999380
_cell_formula_units_Z   1
loop_
 _symmetry_equiv_pos_site_id
 _symmetry_equiv_pos_as_xyz
  1  'x, y, z'
loop_
 _atom_site_type_symbol
 _atom_site_label
 _atom_site_symmetry_multiplicity
 _atom_site_fract_x
 _atom_site_fract_y
 _atom_site_fract_z
 _atom_site_occupancy
  Na  Na0  1  0.125000  0.125000  0.625000  1
  Na  Na1  1  0.625000  0.125000  0.125000  1
  Na  Na2  1  0.125000  0.125000  0.125000  1
  Ca  Ca3  1  0.125000  0.625000  0.125000  1
  Dy  Dy4  1  0.625000  0.125000  0.625000  1
  Dy  Dy5  1  0.625000  0.625000  0.625000  1
  Dy  Dy6  1  0.125000  0.625000  0.625000  1
  Dy  Dy7  1  0.625000  0.625000  0.125000  1
  Te  Te8  1  0.380089  0.859732  0.380089  1
  Te  Te9  1  0.869911  0.390268  0.869911  1
  Te  Te10  1  0.871819  0.870974  0.385386  1
  Te  Te11  1  0.871819  0.870974  0.871819  1
  Te  Te12  1  0.864614  0.379026  0.378181  1
  Te  Te13  1  0.378181  0.379026  0.864614  1
  Te  Te14  1  0.378181  0.379026  0.378181  1
  Te  Te15  1  0.385386  0.870974  0.871819  1
