# generated using pymatgen
data_Nd8Tc3RuC8
_symmetry_space_group_name_H-M   'P 1'
_cell_length_a   5.34750100
_cell_length_b   6.68944688
_cell_length_c   10.21013996
_cell_angle_alpha   89.90662323
_cell_angle_beta   90.00000000
_cell_angle_gamma   90.00000000
_symmetry_Int_Tables_number   1
_chemical_formula_structural   Nd8Tc3RuC8
_chemical_formula_sum   'Nd8 Tc3 Ru1 C8'
_cell_volume   365.23484321
_cell_formula_units_Z   1
loop_
 _symmetry_equiv_pos_site_id
 _symmetry_equiv_pos_as_xyz
  1  'x, y, z'
loop_
 _atom_site_type_symbol
 _atom_site_label
 _atom_site_symmetry_multiplicity
 _atom_site_fract_x
 _atom_site_fract_y
 _atom_site_fract_z
 _atom_site_occupancy
  Nd  Nd0  1  0.750000  0.525467  0.786351  1
  Nd  Nd1  1  0.250000  0.973657  0.287231  1
  Nd  Nd2  1  0.750000  0.687159  0.447803  1
  Nd  Nd3  1  0.250000  0.812206  0.948443  1
  Nd  Nd4  1  0.750000  0.185412  0.051184  1
  Nd  Nd5  1  0.250000  0.312524  0.551776  1
  Nd  Nd6  1  0.250000  0.475120  0.212994  1
  Nd  Nd7  1  0.750000  0.024899  0.714226  1
  Tc  Tc8  1  0.250000  0.270473  0.857946  1
  Tc  Tc9  1  0.250000  0.770657  0.642190  1
  Tc  Tc10  1  0.750000  0.229583  0.356626  1
  Ru  Ru11  1  0.750000  0.729704  0.142400  1
  C  C12  1  0.250000  0.687483  0.462496  1
  C  C13  1  0.250000  0.534430  0.757562  1
  C  C14  1  0.750000  0.466455  0.243502  1
  C  C15  1  0.750000  0.813876  0.963562  1
  C  C16  1  0.250000  0.034476  0.742734  1
  C  C17  1  0.250000  0.187608  0.037906  1
  C  C18  1  0.750000  0.312700  0.535980  1
  C  C19  1  0.750000  0.966110  0.257088  1
