# generated using pymatgen
data_Nd11SmCo2(Si4Ni)2
_symmetry_space_group_name_H-M   'P 1'
_cell_length_a   4.20825100
_cell_length_b   11.64152267
_cell_length_c   11.74735717
_cell_angle_alpha   90.09704225
_cell_angle_beta   90.00000000
_cell_angle_gamma   90.00000000
_symmetry_Int_Tables_number   1
_chemical_formula_structural   Nd11SmCo2(Si4Ni)2
_chemical_formula_sum   'Nd11 Sm1 Co2 Si8 Ni2'
_cell_volume   575.50748215
_cell_formula_units_Z   1
loop_
 _symmetry_equiv_pos_site_id
 _symmetry_equiv_pos_as_xyz
  1  'x, y, z'
loop_
 _atom_site_type_symbol
 _atom_site_label
 _atom_site_symmetry_multiplicity
 _atom_site_fract_x
 _atom_site_fract_y
 _atom_site_fract_z
 _atom_site_occupancy
  Nd  Nd0  1  0.250000  0.376669  0.558192  1
  Nd  Nd1  1  0.750000  0.559350  0.115035  1
  Nd  Nd2  1  0.750000  0.197513  0.787654  1
  Nd  Nd3  1  0.250000  0.699583  0.713255  1
  Nd  Nd4  1  0.750000  0.626502  0.440068  1
  Nd  Nd5  1  0.750000  0.873994  0.940447  1
  Nd  Nd6  1  0.250000  0.801919  0.213648  1
  Nd  Nd7  1  0.250000  0.442443  0.883370  1
  Nd  Nd8  1  0.750000  0.300900  0.287871  1
  Nd  Nd9  1  0.250000  0.122334  0.059300  1
  Nd  Nd10  1  0.750000  0.940370  0.615142  1
  Sm  Sm11  1  0.250000  0.056297  0.385394  1
  Co  Co12  1  0.750000  0.864789  0.368920  1
  Co  Co13  1  0.750000  0.636673  0.868141  1
  Si  Si14  1  0.250000  0.491706  0.300559  1
  Si  Si15  1  0.250000  0.817072  0.468467  1
  Si  Si16  1  0.250000  0.683747  0.968658  1
  Si  Si17  1  0.750000  0.993050  0.204528  1
  Si  Si18  1  0.750000  0.509584  0.701350  1
  Si  Si19  1  0.250000  0.007804  0.800613  1
  Si  Si20  1  0.750000  0.185027  0.530035  1
  Si  Si21  1  0.750000  0.313106  0.030744  1
  Ni  Ni22  1  0.250000  0.134725  0.629073  1
  Ni  Ni23  1  0.250000  0.364840  0.129534  1
