# generated using pymatgen
data_DyY4Er7Os4
_symmetry_space_group_name_H-M   'P 1'
_cell_length_a   6.29852098
_cell_length_b   7.40523967
_cell_length_c   9.02129802
_cell_angle_alpha   89.98135417
_cell_angle_beta   90.11939715
_cell_angle_gamma   90.02596383
_symmetry_Int_Tables_number   1
_chemical_formula_structural   DyY4Er7Os4
_chemical_formula_sum   'Dy1 Y4 Er7 Os4'
_cell_volume   420.77092141
_cell_formula_units_Z   1
loop_
 _symmetry_equiv_pos_site_id
 _symmetry_equiv_pos_as_xyz
  1  'x, y, z'
loop_
 _atom_site_type_symbol
 _atom_site_label
 _atom_site_symmetry_multiplicity
 _atom_site_fract_x
 _atom_site_fract_y
 _atom_site_fract_z
 _atom_site_occupancy
  Dy  Dy0  1  0.332771  0.675529  0.062718  1
  Y  Y1  1  0.870271  0.537948  0.250465  1
  Y  Y2  1  0.629518  0.038226  0.250237  1
  Y  Y3  1  0.129219  0.461809  0.749502  1
  Y  Y4  1  0.370858  0.962072  0.749530  1
  Er  Er5  1  0.167031  0.175339  0.437035  1
  Er  Er6  1  0.667276  0.324731  0.562955  1
  Er  Er7  1  0.832742  0.825199  0.936744  1
  Er  Er8  1  0.667619  0.324479  0.936671  1
  Er  Er9  1  0.832988  0.824909  0.562895  1
  Er  Er10  1  0.332757  0.674903  0.437471  1
  Er  Er11  1  0.166906  0.175064  0.062997  1
  Os  Os12  1  0.043358  0.883573  0.250689  1
  Os  Os13  1  0.456121  0.382540  0.250720  1
  Os  Os14  1  0.955891  0.116967  0.750249  1
  Os  Os15  1  0.544671  0.616714  0.749124  1
