# generated using pymatgen
data_Yb4CuSi4Pt7
_symmetry_space_group_name_H-M   'P 1'
_cell_length_a   5.54102669
_cell_length_b   6.88453965
_cell_length_c   7.34631865
_cell_angle_alpha   90.62795759
_cell_angle_beta   90.41233954
_cell_angle_gamma   89.61175118
_symmetry_Int_Tables_number   1
_chemical_formula_structural   Yb4CuSi4Pt7
_chemical_formula_sum   'Yb4 Cu1 Si4 Pt7'
_cell_volume   280.21271417
_cell_formula_units_Z   1
loop_
 _symmetry_equiv_pos_site_id
 _symmetry_equiv_pos_as_xyz
  1  'x, y, z'
loop_
 _atom_site_type_symbol
 _atom_site_label
 _atom_site_symmetry_multiplicity
 _atom_site_fract_x
 _atom_site_fract_y
 _atom_site_fract_z
 _atom_site_occupancy
  Yb  Yb0  1  0.133773  0.747107  0.477201  1
  Yb  Yb1  1  0.364786  0.744938  0.979041  1
  Yb  Yb2  1  0.632926  0.251162  0.020684  1
  Yb  Yb3  1  0.866303  0.247674  0.524602  1
  Cu  Cu4  1  0.093774  0.045784  0.172572  1
  Si  Si5  1  0.132904  0.258127  0.873346  1
  Si  Si6  1  0.371711  0.256553  0.375225  1
  Si  Si7  1  0.631784  0.751731  0.626168  1
  Si  Si8  1  0.865400  0.748641  0.124787  1
  Pt  Pt9  1  0.096794  0.425768  0.171276  1
  Pt  Pt10  1  0.400801  0.049441  0.675280  1
  Pt  Pt11  1  0.400650  0.448221  0.672030  1
  Pt  Pt12  1  0.607045  0.555684  0.330509  1
  Pt  Pt13  1  0.588581  0.954193  0.319527  1
  Pt  Pt14  1  0.899419  0.558497  0.828495  1
  Pt  Pt15  1  0.913349  0.956480  0.829255  1
