# generated using pymatgen
data_Lu12Fe2TcSn2
_symmetry_space_group_name_H-M   'P 1'
_cell_length_a   8.19604426
_cell_length_b   8.19604524
_cell_length_c   8.19604408
_cell_angle_alpha   108.77143907
_cell_angle_beta   108.77143239
_cell_angle_gamma   110.88003355
_symmetry_Int_Tables_number   1
_chemical_formula_structural   Lu12Fe2TcSn2
_chemical_formula_sum   'Lu12 Fe2 Tc1 Sn2'
_cell_volume   423.63668622
_cell_formula_units_Z   1
loop_
 _symmetry_equiv_pos_site_id
 _symmetry_equiv_pos_as_xyz
  1  'x, y, z'
loop_
 _atom_site_type_symbol
 _atom_site_label
 _atom_site_symmetry_multiplicity
 _atom_site_fract_x
 _atom_site_fract_y
 _atom_site_fract_z
 _atom_site_occupancy
  Lu  Lu0  1  0.307918  0.307918  0.615838  1
  Lu  Lu1  1  0.692082  0.692082  0.384162  1
  Lu  Lu2  1  0.692082  0.307918  0.000000  1
  Lu  Lu3  1  0.307918  0.692082  0.000000  1
  Lu  Lu4  1  0.193653  0.431090  0.237437  1
  Lu  Lu5  1  0.806347  0.568910  0.762563  1
  Lu  Lu6  1  0.193653  0.956215  0.762563  1
  Lu  Lu7  1  0.956215  0.193653  0.762563  1
  Lu  Lu8  1  0.806347  0.043785  0.237437  1
  Lu  Lu9  1  0.043785  0.806347  0.237437  1
  Lu  Lu10  1  0.431090  0.193653  0.237437  1
  Lu  Lu11  1  0.568910  0.806347  0.762563  1
  Fe  Fe12  1  0.382576  0.382576  0.000000  1
  Fe  Fe13  1  0.617424  0.617424  0.000000  1
  Tc  Tc14  1  0.000000  0.000000  0.000000  1
  Sn  Sn15  1  0.000000  0.500000  0.500000  1
  Sn  Sn16  1  0.500000  0.000000  0.500000  1
