# generated using pymatgen
data_Dy4TmSn3Sb
_symmetry_space_group_name_H-M   'P 1'
_cell_length_a   8.08035074
_cell_length_b   8.14959310
_cell_length_c   15.44371300
_cell_angle_alpha   89.77790570
_cell_angle_beta   90.88996087
_cell_angle_gamma   90.13617672
_symmetry_Int_Tables_number   1
_chemical_formula_structural   Dy4TmSn3Sb
_chemical_formula_sum   'Dy16 Tm4 Sn12 Sb4'
_cell_volume   1016.85970790
_cell_formula_units_Z   4
loop_
 _symmetry_equiv_pos_site_id
 _symmetry_equiv_pos_as_xyz
  1  'x, y, z'
loop_
 _atom_site_type_symbol
 _atom_site_label
 _atom_site_symmetry_multiplicity
 _atom_site_fract_x
 _atom_site_fract_y
 _atom_site_fract_z
 _atom_site_occupancy
  Dy  Dy0  1  0.046574  0.168573  0.393868  1
  Dy  Dy1  1  0.373971  0.837944  0.121511  1
  Dy  Dy2  1  0.120414  0.338909  0.620268  1
  Dy  Dy3  1  0.469804  0.674840  0.899959  1
  Dy  Dy4  1  0.872122  0.661636  0.123272  1
  Dy  Dy5  1  0.126586  0.338783  0.877278  1
  Dy  Dy6  1  0.455524  0.674464  0.606124  1
  Dy  Dy7  1  0.619780  0.159957  0.620597  1
  Dy  Dy8  1  0.881236  0.660284  0.380209  1
  Dy  Dy9  1  0.029167  0.178967  0.100780  1
  Dy  Dy10  1  0.965166  0.822426  0.898987  1
  Dy  Dy11  1  0.627296  0.162245  0.878533  1
  Dy  Dy12  1  0.534318  0.328023  0.101767  1
  Dy  Dy13  1  0.379366  0.839763  0.379828  1
  Dy  Dy14  1  0.958917  0.831604  0.605844  1
  Dy  Dy15  1  0.539599  0.322646  0.395896  1
  Tm  Tm16  1  0.206605  0.501107  0.247205  1
  Tm  Tm17  1  0.706568  0.998367  0.246559  1
  Tm  Tm18  1  0.293250  0.001625  0.749170  1
  Tm  Tm19  1  0.793144  0.499023  0.752988  1
  Sn  Sn20  1  0.656651  0.853277  0.750552  1
  Sn  Sn21  1  0.842505  0.352686  0.251421  1
  Sn  Sn22  1  0.788008  0.467284  0.957191  1
  Sn  Sn23  1  0.571337  0.623639  0.252930  1
  Sn  Sn24  1  0.213384  0.532160  0.042608  1
  Sn  Sn25  1  0.428903  0.376050  0.748854  1
  Sn  Sn26  1  0.156995  0.647251  0.750305  1
  Sn  Sn27  1  0.927609  0.123946  0.749237  1
  Sn  Sn28  1  0.277779  0.026723  0.544339  1
  Sn  Sn29  1  0.716527  0.967766  0.043355  1
  Sn  Sn30  1  0.343340  0.146545  0.249082  1
  Sn  Sn31  1  0.072145  0.875918  0.251044  1
  Sb  Sb32  1  0.773180  0.478527  0.546796  1
  Sb  Sb33  1  0.724957  0.975491  0.453806  1
  Sb  Sb34  1  0.224869  0.522078  0.453137  1
  Sb  Sb35  1  0.282405  0.029472  0.954698  1
