# generated using pymatgen
data_Ho9ThCo4
_symmetry_space_group_name_H-M   'P 1'
_cell_length_a   6.27472493
_cell_length_b   6.85139809
_cell_length_c   8.60630800
_cell_angle_alpha   95.51228326
_cell_angle_beta   112.05874880
_cell_angle_gamma   91.00972434
_symmetry_Int_Tables_number   1
_chemical_formula_structural   Ho9ThCo4
_chemical_formula_sum   'Ho9 Th1 Co4'
_cell_volume   340.74263290
_cell_formula_units_Z   1
loop_
 _symmetry_equiv_pos_site_id
 _symmetry_equiv_pos_as_xyz
  1  'x, y, z'
loop_
 _atom_site_type_symbol
 _atom_site_label
 _atom_site_symmetry_multiplicity
 _atom_site_fract_x
 _atom_site_fract_y
 _atom_site_fract_z
 _atom_site_occupancy
  Ho  Ho0  1  0.795693  0.584257  0.808116  1
  Ho  Ho1  1  0.012350  0.086737  0.809910  1
  Ho  Ho2  1  0.204489  0.414202  0.188277  1
  Ho  Ho3  1  0.645931  0.815569  0.431542  1
  Ho  Ho4  1  0.218640  0.682423  0.570089  1
  Ho  Ho5  1  0.354220  0.185076  0.572952  1
  Ho  Ho6  1  0.783619  0.316215  0.430940  1
  Ho  Ho7  1  0.428087  0.748417  0.997317  1
  Ho  Ho8  1  0.569958  0.250295  0.001055  1
  Th  Th9  1  0.995683  0.907348  0.191125  1
  Co  Co10  1  0.828465  0.586064  0.220659  1
  Co  Co11  1  0.605542  0.929741  0.785450  1
  Co  Co12  1  0.174378  0.426183  0.772435  1
  Co  Co13  1  0.382946  0.067471  0.220133  1
