# generated using pymatgen
data_NdDy15MgAg3Rh4
_symmetry_space_group_name_H-M   'P 1'
_cell_length_a   9.53187715
_cell_length_b   9.57714896
_cell_length_c   9.57714893
_cell_angle_alpha   60.35885759
_cell_angle_beta   60.38294865
_cell_angle_gamma   60.38295582
_symmetry_Int_Tables_number   1
_chemical_formula_structural   NdDy15MgAg3Rh4
_chemical_formula_sum   'Nd1 Dy15 Mg1 Ag3 Rh4'
_cell_volume   623.45223618
_cell_formula_units_Z   1
loop_
 _symmetry_equiv_pos_site_id
 _symmetry_equiv_pos_as_xyz
  1  'x, y, z'
loop_
 _atom_site_type_symbol
 _atom_site_label
 _atom_site_symmetry_multiplicity
 _atom_site_fract_x
 _atom_site_fract_y
 _atom_site_fract_z
 _atom_site_occupancy
  Nd  Nd0  1  0.064538  0.433982  0.433982  1
  Dy  Dy1  1  0.649375  0.049055  0.651747  1
  Dy  Dy2  1  0.813300  0.814608  0.186360  1
  Dy  Dy3  1  0.434439  0.064816  0.064816  1
  Dy  Dy4  1  0.438635  0.434890  0.062530  1
  Dy  Dy5  1  0.189535  0.188162  0.812403  1
  Dy  Dy6  1  0.814367  0.187347  0.187347  1
  Dy  Dy7  1  0.066459  0.435471  0.060443  1
  Dy  Dy8  1  0.438635  0.062530  0.434890  1
  Dy  Dy9  1  0.062386  0.645933  0.645933  1
  Dy  Dy10  1  0.189132  0.811860  0.811860  1
  Dy  Dy11  1  0.649375  0.651747  0.049055  1
  Dy  Dy12  1  0.189535  0.812403  0.188162  1
  Dy  Dy13  1  0.066459  0.060443  0.435471  1
  Dy  Dy14  1  0.813300  0.186360  0.814608  1
  Dy  Dy15  1  0.648364  0.651701  0.651701  1
  Mg  Mg16  1  0.713940  0.428110  0.428110  1
  Ag  Ag17  1  0.417294  0.414470  0.751173  1
  Ag  Ag18  1  0.421106  0.414930  0.414930  1
  Ag  Ag19  1  0.417294  0.751173  0.414470  1
  Rh  Rh20  1  0.857025  0.429048  0.858256  1
  Rh  Rh21  1  0.427650  0.856786  0.856786  1
  Rh  Rh22  1  0.857025  0.858256  0.429048  1
  Rh  Rh23  1  0.860836  0.855918  0.855918  1
