# generated using pymatgen
data_Nd20Sn15Te
_symmetry_space_group_name_H-M   'P 1'
_cell_length_a   8.35504184
_cell_length_b   8.45156591
_cell_length_c   16.00085647
_cell_angle_alpha   89.80089961
_cell_angle_beta   90.70784941
_cell_angle_gamma   90.01638812
_symmetry_Int_Tables_number   1
_chemical_formula_structural   Nd20Sn15Te
_chemical_formula_sum   'Nd20 Sn15 Te1'
_cell_volume   1129.77838794
_cell_formula_units_Z   1
loop_
 _symmetry_equiv_pos_site_id
 _symmetry_equiv_pos_as_xyz
  1  'x, y, z'
loop_
 _atom_site_type_symbol
 _atom_site_label
 _atom_site_symmetry_multiplicity
 _atom_site_fract_x
 _atom_site_fract_y
 _atom_site_fract_z
 _atom_site_occupancy
  Nd  Nd0  1  0.030175  0.169543  0.395835  1
  Nd  Nd1  1  0.368008  0.835994  0.121136  1
  Nd  Nd2  1  0.129463  0.337137  0.618145  1
  Nd  Nd3  1  0.482828  0.681072  0.900382  1
  Nd  Nd4  1  0.867490  0.662100  0.121519  1
  Nd  Nd5  1  0.133114  0.337796  0.878016  1
  Nd  Nd6  1  0.199747  0.501699  0.250084  1
  Nd  Nd7  1  0.700068  0.998445  0.248339  1
  Nd  Nd8  1  0.470308  0.681054  0.602614  1
  Nd  Nd9  1  0.299711  0.001629  0.751656  1
  Nd  Nd10  1  0.625703  0.159838  0.619738  1
  Nd  Nd11  1  0.800317  0.499051  0.756311  1
  Nd  Nd12  1  0.872818  0.662604  0.381325  1
  Nd  Nd13  1  0.016866  0.181551  0.099447  1
  Nd  Nd14  1  0.983053  0.820051  0.900523  1
  Nd  Nd15  1  0.633471  0.163022  0.878364  1
  Nd  Nd16  1  0.517799  0.320326  0.099511  1
  Nd  Nd17  1  0.373322  0.837083  0.380068  1
  Nd  Nd18  1  0.978237  0.826739  0.601341  1
  Nd  Nd19  1  0.518140  0.316826  0.397625  1
  Sn  Sn20  1  0.716037  0.968040  0.457219  1
  Sn  Sn21  1  0.674754  0.857432  0.748780  1
  Sn  Sn22  1  0.216739  0.532900  0.456784  1
  Sn  Sn23  1  0.291562  0.038098  0.958699  1
  Sn  Sn24  1  0.824542  0.357310  0.251221  1
  Sn  Sn25  1  0.791721  0.463495  0.958741  1
  Sn  Sn26  1  0.569920  0.617288  0.251598  1
  Sn  Sn27  1  0.208761  0.537164  0.041232  1
  Sn  Sn28  1  0.431372  0.381970  0.746741  1
  Sn  Sn29  1  0.174229  0.642889  0.748987  1
  Sn  Sn30  1  0.931751  0.118857  0.747197  1
  Sn  Sn31  1  0.287630  0.033063  0.543354  1
  Sn  Sn32  1  0.708789  0.962747  0.041340  1
  Sn  Sn33  1  0.324393  0.141918  0.248745  1
  Sn  Sn34  1  0.068667  0.880469  0.250236  1
  Te  Te35  1  0.778494  0.472798  0.547145  1
