# generated using pymatgen
data_U3Bi(PO5)4
_symmetry_space_group_name_H-M   'P 1'
_cell_length_a   5.53598231
_cell_length_b   8.87581239
_cell_length_c   9.35944634
_cell_angle_alpha   100.94050510
_cell_angle_beta   103.85534451
_cell_angle_gamma   97.61947693
_symmetry_Int_Tables_number   1
_chemical_formula_structural   U3Bi(PO5)4
_chemical_formula_sum   'U3 Bi1 P4 O20'
_cell_volume   430.67803744
_cell_formula_units_Z   1
loop_
 _symmetry_equiv_pos_site_id
 _symmetry_equiv_pos_as_xyz
  1  'x, y, z'
loop_
 _atom_site_type_symbol
 _atom_site_label
 _atom_site_symmetry_multiplicity
 _atom_site_fract_x
 _atom_site_fract_y
 _atom_site_fract_z
 _atom_site_occupancy
  U  U0  1  0.648614  0.703716  0.956062  1
  U  U1  1  0.336864  0.800187  0.550948  1
  U  U2  1  0.660543  0.201709  0.447673  1
  Bi  Bi3  1  0.334716  0.285023  0.038275  1
  P  P4  1  0.085774  0.522131  0.766184  1
  P  P5  1  0.908547  0.487748  0.240308  1
  P  P6  1  0.283803  0.920626  0.178182  1
  P  P7  1  0.729177  0.071528  0.818784  1
  O  O8  1  0.018260  0.109706  0.877005  1
  O  O9  1  0.999635  0.854495  0.099115  1
  O  O10  1  0.964949  0.381497  0.636959  1
  O  O11  1  0.028818  0.626608  0.374463  1
  O  O12  1  0.715479  0.370241  0.280436  1
  O  O13  1  0.259260  0.652870  0.729361  1
  O  O14  1  0.435436  0.820260  0.087718  1
  O  O15  1  0.601117  0.184566  0.903844  1
  O  O16  1  0.423214  0.300057  0.500614  1
  O  O17  1  0.570502  0.687615  0.514276  1
  O  O18  1  0.872476  0.591655  0.828056  1
  O  O19  1  0.100347  0.410892  0.176234  1
  O  O20  1  0.282923  0.486628  0.899798  1
  O  O21  1  0.737660  0.554506  0.109480  1
  O  O22  1  0.887551  0.099884  0.385173  1
  O  O23  1  0.111400  0.912862  0.599645  1
  O  O24  1  0.363052  0.916754  0.345633  1
  O  O25  1  0.641972  0.055682  0.643949  1
  O  O26  1  0.361749  0.094606  0.180695  1
  O  O27  1  0.636161  0.895946  0.831129  1
