# generated using pymatgen
data_YPa3O8
_symmetry_space_group_name_H-M   'P 1'
_cell_length_a   5.44031127
_cell_length_b   5.44031127
_cell_length_c   5.44031127
_cell_angle_alpha   90.02565237
_cell_angle_beta   90.02565237
_cell_angle_gamma   90.02565237
_symmetry_Int_Tables_number   1
_chemical_formula_structural   YPa3O8
_chemical_formula_sum   'Y1 Pa3 O8'
_cell_volume   161.01677219
_cell_formula_units_Z   1
loop_
 _symmetry_equiv_pos_site_id
 _symmetry_equiv_pos_as_xyz
  1  'x, y, z'
loop_
 _atom_site_type_symbol
 _atom_site_label
 _atom_site_symmetry_multiplicity
 _atom_site_fract_x
 _atom_site_fract_y
 _atom_site_fract_z
 _atom_site_occupancy
  Y  Y0  1  0.000000  0.000000  0.000000  1
  Pa  Pa1  1  0.499999  0.000000  0.499999  1
  Pa  Pa2  1  0.499999  0.499999  0.000000  1
  Pa  Pa3  1  0.000000  0.499999  0.499999  1
  O  O4  1  0.254245  0.254245  0.254245  1
  O  O5  1  0.251349  0.745366  0.748780  1
  O  O6  1  0.748780  0.251349  0.745366  1
  O  O7  1  0.745366  0.748780  0.251349  1
  O  O8  1  0.745752  0.745752  0.745752  1
  O  O9  1  0.748653  0.254631  0.251222  1
  O  O10  1  0.251222  0.748653  0.254631  1
  O  O11  1  0.254631  0.251222  0.748653  1
