# generated using pymatgen
data_Tb8Ti11Si16Hg
_symmetry_space_group_name_H-M   'P 1'
_cell_length_a   7.10305231
_cell_length_b   7.10305231
_cell_length_c   12.97047063
_cell_angle_alpha   90.12517140
_cell_angle_beta   89.87482860
_cell_angle_gamma   89.55290061
_symmetry_Int_Tables_number   1
_chemical_formula_structural   Tb8Ti11Si16Hg
_chemical_formula_sum   'Tb8 Ti11 Si16 Hg1'
_cell_volume   654.38065021
_cell_formula_units_Z   1
loop_
 _symmetry_equiv_pos_site_id
 _symmetry_equiv_pos_as_xyz
  1  'x, y, z'
loop_
 _atom_site_type_symbol
 _atom_site_label
 _atom_site_symmetry_multiplicity
 _atom_site_fract_x
 _atom_site_fract_y
 _atom_site_fract_z
 _atom_site_occupancy
  Tb  Tb0  1  0.340858  0.002575  0.466966  1
  Tb  Tb1  1  0.497656  0.838746  0.716050  1
  Tb  Tb2  1  0.501129  0.158162  0.214983  1
  Tb  Tb3  1  0.838746  0.497656  0.283950  1
  Tb  Tb4  1  0.158162  0.501129  0.785017  1
  Tb  Tb5  1  0.657284  0.000147  0.968306  1
  Tb  Tb6  1  0.002575  0.340858  0.533034  1
  Tb  Tb7  1  0.000147  0.657284  0.031694  1
  Ti  Ti8  1  0.173798  0.826629  0.250591  1
  Ti  Ti9  1  0.826629  0.173798  0.749409  1
  Ti  Ti10  1  0.672687  0.672687  0.500000  1
  Ti  Ti11  1  0.148105  0.008778  0.877278  1
  Ti  Ti12  1  0.494731  0.650642  0.124306  1
  Ti  Ti13  1  0.508153  0.350637  0.624929  1
  Ti  Ti14  1  0.650642  0.494731  0.875694  1
  Ti  Ti15  1  0.350637  0.508153  0.375071  1
  Ti  Ti16  1  0.848566  0.991178  0.375138  1
  Ti  Ti17  1  0.008778  0.148105  0.122722  1
  Ti  Ti18  1  0.991178  0.848566  0.624862  1
  Si  Si19  1  0.201452  0.130715  0.684736  1
  Si  Si20  1  0.374814  0.723665  0.928523  1
  Si  Si21  1  0.629887  0.295532  0.433956  1
  Si  Si22  1  0.723665  0.374814  0.071477  1
  Si  Si23  1  0.295532  0.629887  0.566044  1
  Si  Si24  1  0.798595  0.868666  0.183976  1
  Si  Si25  1  0.130715  0.201452  0.315264  1
  Si  Si26  1  0.868666  0.798595  0.816024  1
  Si  Si27  1  0.285492  0.933047  0.067687  1
  Si  Si28  1  0.546160  0.790766  0.314947  1
  Si  Si29  1  0.459219  0.205573  0.805191  1
  Si  Si30  1  0.790766  0.546160  0.685053  1
  Si  Si31  1  0.205573  0.459219  0.194809  1
  Si  Si32  1  0.709808  0.047974  0.564394  1
  Si  Si33  1  0.933047  0.285492  0.932313  1
  Si  Si34  1  0.047974  0.709808  0.435606  1
  Hg  Hg35  1  0.328173  0.328173  0.000000  1
