# generated using pymatgen
data_Tb10Sn6As
_symmetry_space_group_name_H-M   'P 1'
_cell_length_a   6.63868200
_cell_length_b   9.14445522
_cell_length_c   9.14448500
_cell_angle_alpha   119.99990005
_cell_angle_beta   90.00007685
_cell_angle_gamma   89.99986276
_symmetry_Int_Tables_number   1
_chemical_formula_structural   Tb10Sn6As
_chemical_formula_sum   'Tb10 Sn6 As1'
_cell_volume   480.76187962
_cell_formula_units_Z   1
loop_
 _symmetry_equiv_pos_site_id
 _symmetry_equiv_pos_as_xyz
  1  'x, y, z'
loop_
 _atom_site_type_symbol
 _atom_site_label
 _atom_site_symmetry_multiplicity
 _atom_site_fract_x
 _atom_site_fract_y
 _atom_site_fract_z
 _atom_site_occupancy
  Tb  Tb0  1  0.500001  0.333335  0.666670  1
  Tb  Tb1  1  0.500001  0.666665  0.333330  1
  Tb  Tb2  1  0.000002  0.666664  0.333330  1
  Tb  Tb3  1  0.000002  0.333334  0.666670  1
  Tb  Tb4  1  0.749759  0.250661  0.000000  1
  Tb  Tb5  1  0.749758  0.749341  0.749337  1
  Tb  Tb6  1  0.749758  0.000003  0.250663  1
  Tb  Tb7  1  0.250238  0.749340  0.000000  1
  Tb  Tb8  1  0.250240  0.250660  0.250662  1
  Tb  Tb9  1  0.250240  0.999998  0.749338  1
  Sn  Sn10  1  0.748568  0.607183  0.000000  1
  Sn  Sn11  1  0.748567  0.392820  0.392821  1
  Sn  Sn12  1  0.748567  0.999999  0.607179  1
  Sn  Sn13  1  0.251433  0.392819  0.000000  1
  Sn  Sn14  1  0.251434  0.607179  0.607180  1
  Sn  Sn15  1  0.251434  0.000000  0.392820  1
  As  As16  1  0.499999  0.000000  0.000000  1
