# generated using pymatgen
data_Np4Al18(IrPt)3
_symmetry_space_group_name_H-M   'P 1'
_cell_length_a   7.63113193
_cell_length_b   7.63113311
_cell_length_c   9.45998910
_cell_angle_alpha   90.03184849
_cell_angle_beta   90.03184406
_cell_angle_gamma   119.68479709
_symmetry_Int_Tables_number   1
_chemical_formula_structural   Np4Al18(IrPt)3
_chemical_formula_sum   'Np4 Al18 Ir3 Pt3'
_cell_volume   478.59664755
_cell_formula_units_Z   1
loop_
 _symmetry_equiv_pos_site_id
 _symmetry_equiv_pos_as_xyz
  1  'x, y, z'
loop_
 _atom_site_type_symbol
 _atom_site_label
 _atom_site_symmetry_multiplicity
 _atom_site_fract_x
 _atom_site_fract_y
 _atom_site_fract_z
 _atom_site_occupancy
  Np  Np0  1  0.996014  0.670733  0.254743  1
  Np  Np1  1  0.003986  0.329267  0.745257  1
  Np  Np2  1  0.670733  0.996014  0.254743  1
  Np  Np3  1  0.329267  0.003986  0.745257  1
  Al  Al4  1  0.129914  0.129914  0.251408  1
  Al  Al5  1  0.870086  0.870086  0.748592  1
  Al  Al6  1  0.999224  0.335190  0.075991  1
  Al  Al7  1  0.000776  0.664810  0.924009  1
  Al  Al8  1  0.998036  0.664463  0.575237  1
  Al  Al9  1  0.335537  0.001964  0.424763  1
  Al  Al10  1  0.001964  0.335537  0.424763  1
  Al  Al11  1  0.664463  0.998036  0.575237  1
  Al  Al12  1  0.664810  0.000776  0.924009  1
  Al  Al13  1  0.335190  0.999224  0.075991  1
  Al  Al14  1  0.333816  0.333816  0.551103  1
  Al  Al15  1  0.666184  0.666184  0.448897  1
  Al  Al16  1  0.667673  0.667673  0.061076  1
  Al  Al17  1  0.332327  0.332327  0.938924  1
  Al  Al18  1  0.340898  0.547748  0.252048  1
  Al  Al19  1  0.659102  0.452252  0.747952  1
  Al  Al20  1  0.547748  0.340898  0.252048  1
  Al  Al21  1  0.452252  0.659102  0.747952  1
  Ir  Ir22  1  0.327934  0.672066  0.500000  1
  Ir  Ir23  1  0.672066  0.327934  0.500000  1
  Ir  Ir24  1  0.000000  0.000000  0.500000  1
  Pt  Pt25  1  0.670162  0.329838  0.000000  1
  Pt  Pt26  1  0.329838  0.670162  0.000000  1
  Pt  Pt27  1  0.000000  0.000000  0.000000  1
