# generated using pymatgen
data_Y6MoP12Rh17
_symmetry_space_group_name_H-M   'P 1'
_cell_length_a   3.94315700
_cell_length_b   11.19142300
_cell_length_c   12.79289000
_cell_angle_alpha   90.00000000
_cell_angle_beta   90.00000000
_cell_angle_gamma   90.00000000
_symmetry_Int_Tables_number   1
_chemical_formula_structural   Y6MoP12Rh17
_chemical_formula_sum   'Y6 Mo1 P12 Rh17'
_cell_volume   564.54432465
_cell_formula_units_Z   1
loop_
 _symmetry_equiv_pos_site_id
 _symmetry_equiv_pos_as_xyz
  1  'x, y, z'
loop_
 _atom_site_type_symbol
 _atom_site_label
 _atom_site_symmetry_multiplicity
 _atom_site_fract_x
 _atom_site_fract_y
 _atom_site_fract_z
 _atom_site_occupancy
  Y  Y0  1  0.000000  0.500000  0.520067  1
  Y  Y1  1  0.500000  0.000000  0.478254  1
  Y  Y2  1  0.500000  0.814235  0.206033  1
  Y  Y3  1  0.500000  0.185765  0.206033  1
  Y  Y4  1  0.000000  0.682494  0.796551  1
  Y  Y5  1  0.000000  0.317506  0.796551  1
  Mo  Mo6  1  0.500000  0.500000  0.157686  1
  P  P7  1  0.500000  0.500000  0.876162  1
  P  P8  1  0.000000  0.000000  0.121991  1
  P  P9  1  0.500000  0.500000  0.346571  1
  P  P10  1  0.000000  0.000000  0.649490  1
  P  P11  1  0.500000  0.315548  0.619118  1
  P  P12  1  0.500000  0.684452  0.619118  1
  P  P13  1  0.000000  0.185836  0.381604  1
  P  P14  1  0.000000  0.814164  0.381604  1
  P  P15  1  0.500000  0.848486  0.890865  1
  P  P16  1  0.500000  0.151514  0.890865  1
  P  P17  1  0.000000  0.653820  0.110142  1
  P  P18  1  0.000000  0.346180  0.110142  1
  Rh  Rh19  1  0.000000  0.000000  0.831858  1
  Rh  Rh20  1  0.500000  0.500000  0.699334  1
  Rh  Rh21  1  0.000000  0.000000  0.299019  1
  Rh  Rh22  1  0.000000  0.500000  0.988153  1
  Rh  Rh23  1  0.500000  0.000000  0.020441  1
  Rh  Rh24  1  0.500000  0.332370  0.986860  1
  Rh  Rh25  1  0.500000  0.667630  0.986860  1
  Rh  Rh26  1  0.000000  0.167075  0.010655  1
  Rh  Rh27  1  0.000000  0.832925  0.010655  1
  Rh  Rh28  1  0.500000  0.293552  0.433018  1
  Rh  Rh29  1  0.500000  0.706448  0.433018  1
  Rh  Rh30  1  0.000000  0.202253  0.569380  1
  Rh  Rh31  1  0.000000  0.797747  0.569380  1
  Rh  Rh32  1  0.500000  0.873875  0.710493  1
  Rh  Rh33  1  0.500000  0.126125  0.710493  1
  Rh  Rh34  1  0.000000  0.624906  0.290770  1
  Rh  Rh35  1  0.000000  0.375094  0.290770  1
