# generated using pymatgen
data_Nd9Gd3(CCl3)4
_symmetry_space_group_name_H-M   'P 1'
_cell_length_a   9.55599534
_cell_length_b   9.61238005
_cell_length_c   9.59612580
_cell_angle_alpha   109.54545457
_cell_angle_beta   109.42966097
_cell_angle_gamma   109.58611102
_symmetry_Int_Tables_number   1
_chemical_formula_structural   Nd9Gd3(CCl3)4
_chemical_formula_sum   'Nd9 Gd3 C4 Cl12'
_cell_volume   677.30894241
_cell_formula_units_Z   1
loop_
 _symmetry_equiv_pos_site_id
 _symmetry_equiv_pos_as_xyz
  1  'x, y, z'
loop_
 _atom_site_type_symbol
 _atom_site_label
 _atom_site_symmetry_multiplicity
 _atom_site_fract_x
 _atom_site_fract_y
 _atom_site_fract_z
 _atom_site_occupancy
  Nd  Nd0  1  0.483124  0.750336  0.016106  1
  Nd  Nd1  1  0.749474  0.233585  0.266759  1
  Nd  Nd2  1  0.231990  0.265864  0.747412  1
  Nd  Nd3  1  0.466690  0.481876  0.233655  1
  Nd  Nd4  1  0.267448  0.016586  0.034739  1
  Nd  Nd5  1  0.232565  0.465991  0.485012  1
  Nd  Nd6  1  0.015817  0.032772  0.266930  1
  Nd  Nd7  1  0.015753  0.482632  0.748632  1
  Nd  Nd8  1  0.483180  0.232998  0.467430  1
  Gd  Gd9  1  0.750098  0.019733  0.481122  1
  Gd  Gd10  1  0.038160  0.269262  0.019610  1
  Gd  Gd11  1  0.269466  0.750870  0.230682  1
  C  C12  1  0.245604  0.250488  0.245262  1
  C  C13  1  0.995602  0.245791  0.501688  1
  C  C14  1  0.246457  0.499876  0.004829  1
  C  C15  1  0.498132  0.994067  0.252856  1
  Cl  Cl16  1  0.987526  0.990603  0.744564  1
  Cl  Cl17  1  0.757131  0.747340  0.256206  1
  Cl  Cl18  1  0.989770  0.742110  0.998443  1
  Cl  Cl19  1  0.249171  0.987049  0.502836  1
  Cl  Cl20  1  0.746353  0.997065  0.985276  1
  Cl  Cl21  1  0.508005  0.250199  0.992112  1
  Cl  Cl22  1  0.746392  0.243289  0.756272  1
  Cl  Cl23  1  0.505319  0.760530  0.508542  1
  Cl  Cl24  1  0.757988  0.516391  0.508110  1
  Cl  Cl25  1  0.249729  0.758404  0.741938  1
  Cl  Cl26  1  0.516617  0.508517  0.758704  1
  Cl  Cl27  1  0.996437  0.505776  0.244276  1
