# generated using pymatgen
data_ErTm(ThPt2)2
_symmetry_space_group_name_H-M   'P 1'
_cell_length_a   4.58731400
_cell_length_b   5.68215144
_cell_length_c   7.12442115
_cell_angle_alpha   90.06491156
_cell_angle_beta   90.00000000
_cell_angle_gamma   90.00000000
_symmetry_Int_Tables_number   1
_chemical_formula_structural   ErTm(ThPt2)2
_chemical_formula_sum   'Er1 Tm1 Th2 Pt4'
_cell_volume   185.70370930
_cell_formula_units_Z   1
loop_
 _symmetry_equiv_pos_site_id
 _symmetry_equiv_pos_as_xyz
  1  'x, y, z'
loop_
 _atom_site_type_symbol
 _atom_site_label
 _atom_site_symmetry_multiplicity
 _atom_site_fract_x
 _atom_site_fract_y
 _atom_site_fract_z
 _atom_site_occupancy
  Er  Er0  1  0.250000  0.643049  0.181967  1
  Tm  Tm1  1  0.250000  0.857013  0.681814  1
  Th  Th2  1  0.750000  0.360045  0.818150  1
  Th  Th3  1  0.750000  0.139675  0.318488  1
  Pt  Pt4  1  0.250000  0.157619  0.044805  1
  Pt  Pt5  1  0.750000  0.842115  0.953474  1
  Pt  Pt6  1  0.750000  0.658714  0.455636  1
  Pt  Pt7  1  0.250000  0.341771  0.545667  1
