# generated using pymatgen
data_YAg3Ir3RuO14
_symmetry_space_group_name_H-M   'P 1'
_cell_length_a   7.20956302
_cell_length_b   7.20956312
_cell_length_c   7.26684828
_cell_angle_alpha   60.26043955
_cell_angle_beta   60.26043881
_cell_angle_gamma   59.99999741
_symmetry_Int_Tables_number   1
_chemical_formula_structural   YAg3Ir3RuO14
_chemical_formula_sum   'Y1 Ag3 Ir3 Ru1 O14'
_cell_volume   268.13124447
_cell_formula_units_Z   1
loop_
 _symmetry_equiv_pos_site_id
 _symmetry_equiv_pos_as_xyz
  1  'x, y, z'
loop_
 _atom_site_type_symbol
 _atom_site_label
 _atom_site_symmetry_multiplicity
 _atom_site_fract_x
 _atom_site_fract_y
 _atom_site_fract_z
 _atom_site_occupancy
  Y  Y0  1  0.125000  0.125000  0.625000  1
  Ag  Ag1  1  0.625000  0.125000  0.125000  1
  Ag  Ag2  1  0.125000  0.625000  0.125000  1
  Ag  Ag3  1  0.125000  0.125000  0.125000  1
  Ir  Ir4  1  0.125000  0.625000  0.625000  1
  Ir  Ir5  1  0.625000  0.125000  0.625000  1
  Ir  Ir6  1  0.625000  0.625000  0.625000  1
  Ru  Ru7  1  0.625000  0.625000  0.125000  1
  O  O8  1  0.692697  0.692697  0.309674  1
  O  O9  1  0.295022  0.295022  0.695692  1
  O  O10  1  0.714262  0.295022  0.695692  1
  O  O11  1  0.304930  0.692697  0.309674  1
  O  O12  1  0.295022  0.714262  0.695692  1
  O  O13  1  0.692697  0.304930  0.309674  1
  O  O14  1  0.557303  0.557303  0.940326  1
  O  O15  1  0.954978  0.954978  0.554308  1
  O  O16  1  0.535738  0.954978  0.554308  1
  O  O17  1  0.945070  0.557303  0.940326  1
  O  O18  1  0.954978  0.535738  0.554308  1
  O  O19  1  0.557303  0.945070  0.940326  1
  O  O20  1  0.254936  0.254936  0.235191  1
  O  O21  1  0.995064  0.995064  0.014809  1
