# generated using pymatgen
data_LaSm4(B3Ru)2
_symmetry_space_group_name_H-M   'P 1'
_cell_length_a   5.57702519
_cell_length_b   5.57702527
_cell_length_c   8.64087135
_cell_angle_alpha   71.17297747
_cell_angle_beta   71.17297972
_cell_angle_gamma   59.99999583
_symmetry_Int_Tables_number   1
_chemical_formula_structural   LaSm4(B3Ru)2
_chemical_formula_sum   'La1 Sm4 B6 Ru2'
_cell_volume   215.98863019
_cell_formula_units_Z   1
loop_
 _symmetry_equiv_pos_site_id
 _symmetry_equiv_pos_as_xyz
  1  'x, y, z'
loop_
 _atom_site_type_symbol
 _atom_site_label
 _atom_site_symmetry_multiplicity
 _atom_site_fract_x
 _atom_site_fract_y
 _atom_site_fract_z
 _atom_site_occupancy
  La  La0  1  0.000000  0.000000  0.000000  1
  Sm  Sm1  1  0.750739  0.750739  0.747785  1
  Sm  Sm2  1  0.249261  0.249261  0.252215  1
  Sm  Sm3  1  0.582348  0.582348  0.252957  1
  Sm  Sm4  1  0.417652  0.417652  0.747043  1
  B  B5  1  0.500000  0.171946  0.500000  1
  B  B6  1  0.828054  0.500000  0.500000  1
  B  B7  1  0.171946  0.828055  0.500000  1
  B  B8  1  0.171946  0.500000  0.500000  1
  B  B9  1  0.828054  0.171946  0.500000  1
  B  B10  1  0.500000  0.828054  0.500000  1
  Ru  Ru11  1  0.886293  0.886293  0.341122  1
  Ru  Ru12  1  0.113707  0.113707  0.658878  1
