# generated using pymatgen
data_Y16In5Co2Hg
_symmetry_space_group_name_H-M   'P 1'
_cell_length_a   10.37334400
_cell_length_b   10.37238585
_cell_length_c   7.04491063
_cell_angle_alpha   90.04359823
_cell_angle_beta   90.00000000
_cell_angle_gamma   120.00304942
_symmetry_Int_Tables_number   1
_chemical_formula_structural   Y16In5Co2Hg
_chemical_formula_sum   'Y16 In5 Co2 Hg1'
_cell_volume   656.43246318
_cell_formula_units_Z   1
loop_
 _symmetry_equiv_pos_site_id
 _symmetry_equiv_pos_as_xyz
  1  'x, y, z'
loop_
 _atom_site_type_symbol
 _atom_site_label
 _atom_site_symmetry_multiplicity
 _atom_site_fract_x
 _atom_site_fract_y
 _atom_site_fract_z
 _atom_site_occupancy
  Y  Y0  1  0.534937  0.069874  0.793304  1
  Y  Y1  1  0.926881  0.467463  0.793894  1
  Y  Y2  1  0.540582  0.467463  0.793894  1
  Y  Y3  1  0.464037  0.928074  0.289747  1
  Y  Y4  1  0.072907  0.534905  0.294089  1
  Y  Y5  1  0.461998  0.534905  0.294089  1
  Y  Y6  1  0.822072  0.644142  0.484986  1
  Y  Y7  1  0.356454  0.177973  0.498949  1
  Y  Y8  1  0.821520  0.177973  0.498949  1
  Y  Y9  1  0.177855  0.355710  0.995982  1
  Y  Y10  1  0.648733  0.820311  0.000758  1
  Y  Y11  1  0.171578  0.820311  0.000758  1
  Y  Y12  1  0.668209  0.336418  0.180150  1
  Y  Y13  1  0.333823  0.667648  0.682973  1
  Y  Y14  1  0.999185  0.998368  0.777611  1
  Y  Y15  1  0.001256  0.002512  0.279026  1
  In  In16  1  0.326306  0.162764  0.039283  1
  In  In17  1  0.836457  0.162764  0.039283  1
  In  In18  1  0.162624  0.325247  0.540730  1
  In  In19  1  0.673972  0.837042  0.539690  1
  In  In20  1  0.163072  0.837042  0.539690  1
  Co  Co21  1  0.666809  0.333617  0.566542  1
  Co  Co22  1  0.333397  0.666796  0.066366  1
  Hg  Hg23  1  0.835337  0.670676  0.045163  1
