# generated using pymatgen
data_HoPa3TlNi4Hg
_symmetry_space_group_name_H-M   'P 1'
_cell_length_a   7.53162759
_cell_length_b   7.50012286
_cell_length_c   3.53578000
_cell_angle_alpha   90.00000000
_cell_angle_beta   90.00000000
_cell_angle_gamma   91.84385113
_symmetry_Int_Tables_number   1
_chemical_formula_structural   HoPa3TlNi4Hg
_chemical_formula_sum   'Ho1 Pa3 Tl1 Ni4 Hg1'
_cell_volume   199.62619372
_cell_formula_units_Z   1
loop_
 _symmetry_equiv_pos_site_id
 _symmetry_equiv_pos_as_xyz
  1  'x, y, z'
loop_
 _atom_site_type_symbol
 _atom_site_label
 _atom_site_symmetry_multiplicity
 _atom_site_fract_x
 _atom_site_fract_y
 _atom_site_fract_z
 _atom_site_occupancy
  Ho  Ho0  1  0.830198  0.673989  0.500000  1
  Pa  Pa1  1  0.676192  0.168878  0.500000  1
  Pa  Pa2  1  0.325031  0.829968  0.500000  1
  Pa  Pa3  1  0.168604  0.328603  0.500000  1
  Tl  Tl4  1  0.508427  0.504528  0.000000  1
  Ni  Ni5  1  0.137740  0.618392  0.000000  1
  Ni  Ni6  1  0.883088  0.361644  0.000000  1
  Ni  Ni7  1  0.608407  0.893550  0.000000  1
  Ni  Ni8  1  0.367354  0.129296  0.000000  1
  Hg  Hg9  1  0.994963  0.991149  0.000000  1
