# generated using pymatgen
data_Mg9Al4In3Pt8
_symmetry_space_group_name_H-M   'P 1'
_cell_length_a   8.44926150
_cell_length_b   8.44539033
_cell_length_c   8.44926150
_cell_angle_alpha   119.98484635
_cell_angle_beta   90.22698006
_cell_angle_gamma   119.98484635
_symmetry_Int_Tables_number   1
_chemical_formula_structural   Mg9Al4In3Pt8
_chemical_formula_sum   'Mg9 Al4 In3 Pt8'
_cell_volume   425.67079733
_cell_formula_units_Z   1
loop_
 _symmetry_equiv_pos_site_id
 _symmetry_equiv_pos_as_xyz
  1  'x, y, z'
loop_
 _atom_site_type_symbol
 _atom_site_label
 _atom_site_symmetry_multiplicity
 _atom_site_fract_x
 _atom_site_fract_y
 _atom_site_fract_z
 _atom_site_occupancy
  Mg  Mg0  1  0.550293  0.102331  0.051259  1
  Mg  Mg1  1  0.550293  0.499221  0.051259  1
  Mg  Mg2  1  0.196958  0.999139  0.196491  1
  Mg  Mg3  1  0.196958  0.394310  0.196491  1
  Mg  Mg4  1  0.948742  0.500779  0.449708  1
  Mg  Mg5  1  0.948742  0.897671  0.449708  1
  Mg  Mg6  1  0.196839  0.000000  0.803160  1
  Mg  Mg7  1  0.803508  0.605689  0.803041  1
  Mg  Mg8  1  0.803509  0.000861  0.803042  1
  Al  Al9  1  0.374396  0.748665  0.122935  1
  Al  Al10  1  0.372608  0.247688  0.627391  1
  Al  Al11  1  0.372608  0.752311  0.627391  1
  Al  Al12  1  0.877064  0.251334  0.625604  1
  In  In13  1  0.941150  0.500000  0.058850  1
  In  In14  1  0.809767  0.000000  0.190232  1
  In  In15  1  0.558609  0.500000  0.441391  1
  Pt  Pt16  1  0.591133  0.178011  0.408868  1
  Pt  Pt17  1  0.229814  0.822180  0.414546  1
  Pt  Pt18  1  0.591133  0.821989  0.408868  1
  Pt  Pt19  1  0.164018  0.322857  0.481694  1
  Pt  Pt20  1  0.585453  0.177820  0.770185  1
  Pt  Pt21  1  0.159050  0.315828  0.840953  1
  Pt  Pt22  1  0.159050  0.684175  0.840953  1
  Pt  Pt23  1  0.518308  0.677146  0.835985  1
