# generated using pymatgen
data_Yb9PaRh4
_symmetry_space_group_name_H-M   'P 1'
_cell_length_a   8.68194368
_cell_length_b   8.68194157
_cell_length_c   7.33622456
_cell_angle_alpha   83.08154230
_cell_angle_beta   83.08154597
_cell_angle_gamma   43.78927480
_symmetry_Int_Tables_number   1
_chemical_formula_structural   Yb9PaRh4
_chemical_formula_sum   'Yb9 Pa1 Rh4'
_cell_volume   379.42569929
_cell_formula_units_Z   1
loop_
 _symmetry_equiv_pos_site_id
 _symmetry_equiv_pos_as_xyz
  1  'x, y, z'
loop_
 _atom_site_type_symbol
 _atom_site_label
 _atom_site_symmetry_multiplicity
 _atom_site_fract_x
 _atom_site_fract_y
 _atom_site_fract_z
 _atom_site_occupancy
  Yb  Yb0  1  0.421229  0.578771  0.750000  1
  Yb  Yb1  1  0.360974  0.201685  0.315632  1
  Yb  Yb2  1  0.201663  0.977111  0.079328  1
  Yb  Yb3  1  0.793184  0.027403  0.918093  1
  Yb  Yb4  1  0.972597  0.206816  0.581907  1
  Yb  Yb5  1  0.632895  0.794405  0.681812  1
  Yb  Yb6  1  0.205595  0.367105  0.818188  1
  Yb  Yb7  1  0.798315  0.639026  0.184368  1
  Yb  Yb8  1  0.022889  0.798337  0.420672  1
  Pa  Pa9  1  0.568753  0.431247  0.250000  1
  Rh  Rh10  1  0.418498  0.782885  0.411998  1
  Rh  Rh11  1  0.217115  0.581502  0.088002  1
  Rh  Rh12  1  0.789195  0.402902  0.960910  1
  Rh  Rh13  1  0.597098  0.210805  0.539090  1
