# generated using pymatgen
data_Nd2Th2(Al8Pd3)3
_symmetry_space_group_name_H-M   'P 1'
_cell_length_a   7.62379025
_cell_length_b   7.64310374
_cell_length_c   13.32271143
_cell_angle_alpha   84.54157970
_cell_angle_beta   79.15043052
_cell_angle_gamma   59.89714138
_symmetry_Int_Tables_number   1
_chemical_formula_structural   Nd2Th2(Al8Pd3)3
_chemical_formula_sum   'Nd2 Th2 Al24 Pd9'
_cell_volume   659.59809074
_cell_formula_units_Z   1
loop_
 _symmetry_equiv_pos_site_id
 _symmetry_equiv_pos_as_xyz
  1  'x, y, z'
loop_
 _atom_site_type_symbol
 _atom_site_label
 _atom_site_symmetry_multiplicity
 _atom_site_fract_x
 _atom_site_fract_y
 _atom_site_fract_z
 _atom_site_occupancy
  Nd  Nd0  1  0.734132  0.497566  0.808268  1
  Nd  Nd1  1  0.265868  0.502434  0.191732  1
  Th  Th2  1  0.394821  0.167960  0.806706  1
  Th  Th3  1  0.605179  0.832040  0.193294  1
  Al  Al4  1  0.688327  0.832591  0.946262  1
  Al  Al5  1  0.311673  0.167409  0.053738  1
  Al  Al6  1  0.144513  0.834394  0.560181  1
  Al  Al7  1  0.855487  0.165606  0.439819  1
  Al  Al8  1  0.480550  0.166943  0.557902  1
  Al  Al9  1  0.519450  0.833057  0.442098  1
  Al  Al10  1  0.212803  0.166781  0.334841  1
  Al  Al11  1  0.787197  0.833219  0.665159  1
  Al  Al12  1  0.436425  0.510143  0.665552  1
  Al  Al13  1  0.563575  0.489857  0.334448  1
  Al  Al14  1  0.108599  0.158212  0.664101  1
  Al  Al15  1  0.891401  0.841788  0.335899  1
  Al  Al16  1  0.349202  0.503549  0.947050  1
  Al  Al17  1  0.650798  0.496451  0.052950  1
  Al  Al18  1  0.014673  0.164845  0.956779  1
  Al  Al19  1  0.985327  0.835155  0.043221  1
  Al  Al20  1  0.186165  0.501348  0.441021  1
  Al  Al21  1  0.813835  0.498652  0.558979  1
  Al  Al22  1  0.736078  0.163977  0.184459  1
  Al  Al23  1  0.263922  0.836023  0.815541  1
  Al  Al24  1  0.062332  0.634098  0.813939  1
  Al  Al25  1  0.937668  0.365902  0.186061  1
  Al  Al26  1  0.860784  0.038249  0.815228  1
  Al  Al27  1  0.139216  0.961751  0.184772  1
  Pd  Pd28  1  0.121537  0.493259  0.636866  1
  Pd  Pd29  1  0.878463  0.506741  0.363134  1
  Pd  Pd30  1  0.656989  0.170221  0.999649  1
  Pd  Pd31  1  0.343011  0.829779  0.000351  1
  Pd  Pd32  1  0.539674  0.165725  0.362914  1
  Pd  Pd33  1  0.460326  0.834275  0.637086  1
  Pd  Pd34  1  0.778906  0.173694  0.637304  1
  Pd  Pd35  1  0.221094  0.826306  0.362696  1
  Pd  Pd36  1  0.000000  0.500000  0.000000  1
