# generated using pymatgen
data_Er8Re2B24RuRh
_symmetry_space_group_name_H-M   'P 1'
_cell_length_a   3.65197600
_cell_length_b   9.10691741
_cell_length_c   11.49201986
_cell_angle_alpha   90.31143099
_cell_angle_beta   90.00000000
_cell_angle_gamma   90.00000000
_symmetry_Int_Tables_number   1
_chemical_formula_structural   Er8Re2B24RuRh
_chemical_formula_sum   'Er8 Re2 B24 Ru1 Rh1'
_cell_volume   382.19875237
_cell_formula_units_Z   1
loop_
 _symmetry_equiv_pos_site_id
 _symmetry_equiv_pos_as_xyz
  1  'x, y, z'
loop_
 _atom_site_type_symbol
 _atom_site_label
 _atom_site_symmetry_multiplicity
 _atom_site_fract_x
 _atom_site_fract_y
 _atom_site_fract_z
 _atom_site_occupancy
  Er  Er0  1  0.000000  0.319912  0.409588  1
  Er  Er1  1  0.000000  0.682525  0.586059  1
  Er  Er2  1  0.000000  0.824124  0.084732  1
  Er  Er3  1  0.000000  0.173826  0.918449  1
  Er  Er4  1  0.000000  0.943453  0.371343  1
  Er  Er5  1  0.000000  0.055494  0.628619  1
  Er  Er6  1  0.000000  0.443610  0.128041  1
  Er  Er7  1  0.000000  0.558342  0.872946  1
  Re  Re8  1  0.000000  0.138096  0.179715  1
  Re  Re9  1  0.000000  0.862065  0.820080  1
  B  B10  1  0.500000  0.553733  0.433825  1
  B  B11  1  0.500000  0.445795  0.565496  1
  B  B12  1  0.500000  0.052865  0.067130  1
  B  B13  1  0.500000  0.947289  0.933152  1
  B  B14  1  0.500000  0.748556  0.419796  1
  B  B15  1  0.500000  0.250471  0.578628  1
  B  B16  1  0.500000  0.248864  0.081083  1
  B  B17  1  0.500000  0.751205  0.919160  1
  B  B18  1  0.500000  0.790433  0.266197  1
  B  B19  1  0.500000  0.209081  0.734291  1
  B  B20  1  0.500000  0.292374  0.234710  1
  B  B21  1  0.500000  0.707613  0.764811  1
  B  B22  1  0.500000  0.630674  0.185490  1
  B  B23  1  0.500000  0.368662  0.816686  1
  B  B24  1  0.500000  0.131274  0.315086  1
  B  B25  1  0.500000  0.868796  0.684462  1
  B  B26  1  0.500000  0.981766  0.212765  1
  B  B27  1  0.500000  0.018152  0.787487  1
  B  B28  1  0.500000  0.482631  0.288018  1
  B  B29  1  0.500000  0.517341  0.712376  1
  B  B30  1  0.500000  0.604684  0.029080  1
  B  B31  1  0.500000  0.394744  0.970549  1
  B  B32  1  0.500000  0.106391  0.471170  1
  B  B33  1  0.500000  0.894746  0.528971  1
  Ru  Ru34  1  0.000000  0.637490  0.321668  1
  Rh  Rh35  1  0.000000  0.362926  0.678341  1
