# generated using pymatgen
data_Pr2TcO6
_symmetry_space_group_name_H-M   'P 1'
_cell_length_a   10.25569493
_cell_length_b   10.25569438
_cell_length_c   5.63491442
_cell_angle_alpha   75.31930102
_cell_angle_beta   75.31929896
_cell_angle_gamma   69.29432886
_symmetry_Int_Tables_number   1
_chemical_formula_structural   Pr2TcO6
_chemical_formula_sum   'Pr8 Tc4 O24'
_cell_volume   527.43258607
_cell_formula_units_Z   4
loop_
 _symmetry_equiv_pos_site_id
 _symmetry_equiv_pos_as_xyz
  1  'x, y, z'
loop_
 _atom_site_type_symbol
 _atom_site_label
 _atom_site_symmetry_multiplicity
 _atom_site_fract_x
 _atom_site_fract_y
 _atom_site_fract_z
 _atom_site_occupancy
  Pr  Pr0  1  0.629448  0.370552  0.750000  1
  Pr  Pr1  1  0.370552  0.629448  0.250000  1
  Pr  Pr2  1  0.111447  0.888553  0.750000  1
  Pr  Pr3  1  0.888553  0.111447  0.250000  1
  Pr  Pr4  1  0.712777  0.940226  0.874969  1
  Pr  Pr5  1  0.287223  0.059774  0.125031  1
  Pr  Pr6  1  0.059774  0.287223  0.625031  1
  Pr  Pr7  1  0.940226  0.712777  0.374969  1
  Tc  Tc8  1  0.505561  0.800722  0.555151  1
  Tc  Tc9  1  0.494439  0.199278  0.444849  1
  Tc  Tc10  1  0.199278  0.494439  0.944849  1
  Tc  Tc11  1  0.800722  0.505561  0.055151  1
  O  O12  1  0.687440  0.162118  0.588127  1
  O  O13  1  0.312560  0.837882  0.411873  1
  O  O14  1  0.837882  0.312560  0.911873  1
  O  O15  1  0.162118  0.687440  0.088127  1
  O  O16  1  0.388204  0.823440  0.854134  1
  O  O17  1  0.611796  0.176560  0.145866  1
  O  O18  1  0.176560  0.611796  0.645866  1
  O  O19  1  0.823440  0.388204  0.354134  1
  O  O20  1  0.675953  0.786189  0.630244  1
  O  O21  1  0.324047  0.213811  0.369756  1
  O  O22  1  0.213811  0.324047  0.869756  1
  O  O23  1  0.786189  0.675953  0.130244  1
  O  O24  1  0.471819  0.071276  0.731251  1
  O  O25  1  0.528181  0.928724  0.268749  1
  O  O26  1  0.928724  0.528181  0.768749  1
  O  O27  1  0.071276  0.471819  0.231251  1
  O  O28  1  0.539084  0.618461  0.525709  1
  O  O29  1  0.460916  0.381539  0.474291  1
  O  O30  1  0.381539  0.460916  0.974291  1
  O  O31  1  0.618461  0.539084  0.025709  1
  O  O32  1  0.889778  0.924309  0.075910  1
  O  O33  1  0.110222  0.075691  0.924090  1
  O  O34  1  0.075691  0.110222  0.424090  1
  O  O35  1  0.924309  0.889778  0.575910  1
