# generated using pymatgen
data_Ac3Ce(CoSi)4
_symmetry_space_group_name_H-M   'P 1'
_cell_length_a   6.28544805
_cell_length_b   6.28544787
_cell_length_c   6.28544870
_cell_angle_alpha   89.94093130
_cell_angle_beta   89.94092577
_cell_angle_gamma   90.05906346
_symmetry_Int_Tables_number   1
_chemical_formula_structural   Ac3Ce(CoSi)4
_chemical_formula_sum   'Ac3 Ce1 Co4 Si4'
_cell_volume   248.31792072
_cell_formula_units_Z   1
loop_
 _symmetry_equiv_pos_site_id
 _symmetry_equiv_pos_as_xyz
  1  'x, y, z'
loop_
 _atom_site_type_symbol
 _atom_site_label
 _atom_site_symmetry_multiplicity
 _atom_site_fract_x
 _atom_site_fract_y
 _atom_site_fract_z
 _atom_site_occupancy
  Ac  Ac0  1  0.399768  0.104671  0.899868  1
  Ac  Ac1  1  0.604671  0.600132  0.600232  1
  Ac  Ac2  1  0.100132  0.899768  0.395329  1
  Ce  Ce3  1  0.915697  0.415697  0.084303  1
  Co  Co4  1  0.328591  0.331121  0.330290  1
  Co  Co5  1  0.831121  0.169710  0.671409  1
  Co  Co6  1  0.143357  0.643357  0.856643  1
  Co  Co7  1  0.669710  0.828591  0.168879  1
  Si  Si8  1  0.093789  0.401067  0.591599  1
  Si  Si9  1  0.603696  0.103696  0.396304  1
  Si  Si10  1  0.408401  0.593789  0.098933  1
  Si  Si11  1  0.901067  0.908401  0.906211  1
