# generated using pymatgen
data_Tb3Yb2Dy3(B6Ru)4
_symmetry_space_group_name_H-M   'P 1'
_cell_length_a   3.66551100
_cell_length_b   9.15807720
_cell_length_c   11.54618208
_cell_angle_alpha   89.80798514
_cell_angle_beta   90.00000000
_cell_angle_gamma   90.00000000
_symmetry_Int_Tables_number   1
_chemical_formula_structural   Tb3Yb2Dy3(B6Ru)4
_chemical_formula_sum   'Tb3 Yb2 Dy3 B24 Ru4'
_cell_volume   387.59198756
_cell_formula_units_Z   1
loop_
 _symmetry_equiv_pos_site_id
 _symmetry_equiv_pos_as_xyz
  1  'x, y, z'
loop_
 _atom_site_type_symbol
 _atom_site_label
 _atom_site_symmetry_multiplicity
 _atom_site_fract_x
 _atom_site_fract_y
 _atom_site_fract_z
 _atom_site_occupancy
  Tb  Tb0  1  0.000000  0.822722  0.086073  1
  Tb  Tb1  1  0.000000  0.177304  0.913800  1
  Tb  Tb2  1  0.000000  0.941663  0.369861  1
  Yb  Yb3  1  0.000000  0.325511  0.414998  1
  Yb  Yb4  1  0.000000  0.674455  0.585110  1
  Dy  Dy5  1  0.000000  0.058490  0.630467  1
  Dy  Dy6  1  0.000000  0.442519  0.131344  1
  Dy  Dy7  1  0.000000  0.557491  0.868548  1
  B  B8  1  0.500000  0.553858  0.432621  1
  B  B9  1  0.500000  0.445857  0.567440  1
  B  B10  1  0.500000  0.054026  0.067094  1
  B  B11  1  0.500000  0.946059  0.932761  1
  B  B12  1  0.500000  0.746876  0.418095  1
  B  B13  1  0.500000  0.252676  0.581945  1
  B  B14  1  0.500000  0.248071  0.081594  1
  B  B15  1  0.500000  0.752015  0.918324  1
  B  B16  1  0.500000  0.790012  0.265159  1
  B  B17  1  0.500000  0.209630  0.734768  1
  B  B18  1  0.500000  0.289877  0.234491  1
  B  B19  1  0.500000  0.710276  0.765430  1
  B  B20  1  0.500000  0.631180  0.185740  1
  B  B21  1  0.500000  0.368710  0.814184  1
  B  B22  1  0.500000  0.131342  0.313776  1
  B  B23  1  0.500000  0.869001  0.686078  1
  B  B24  1  0.500000  0.984105  0.211414  1
  B  B25  1  0.500000  0.016137  0.788334  1
  B  B26  1  0.500000  0.484163  0.288689  1
  B  B27  1  0.500000  0.515710  0.711268  1
  B  B28  1  0.500000  0.603731  0.028550  1
  B  B29  1  0.500000  0.396270  0.971362  1
  B  B30  1  0.500000  0.100575  0.472542  1
  B  B31  1  0.500000  0.899831  0.528265  1
  Ru  Ru32  1  0.000000  0.638986  0.319457  1
  Ru  Ru33  1  0.000000  0.360629  0.680590  1
  Ru  Ru34  1  0.000000  0.137378  0.178019  1
  Ru  Ru35  1  0.000000  0.862863  0.821809  1
