# generated using pymatgen
data_Zr6ZnPO2
_symmetry_space_group_name_H-M   'P 1'
_cell_length_a   5.91444241
_cell_length_b   5.91444303
_cell_length_c   8.57353500
_cell_angle_alpha   90.00000000
_cell_angle_beta   90.00000000
_cell_angle_gamma   146.09878036
_symmetry_Int_Tables_number   1
_chemical_formula_structural   Zr6ZnPO2
_chemical_formula_sum   'Zr6 Zn1 P1 O2'
_cell_volume   167.27733976
_cell_formula_units_Z   1
loop_
 _symmetry_equiv_pos_site_id
 _symmetry_equiv_pos_as_xyz
  1  'x, y, z'
loop_
 _atom_site_type_symbol
 _atom_site_label
 _atom_site_symmetry_multiplicity
 _atom_site_fract_x
 _atom_site_fract_y
 _atom_site_fract_z
 _atom_site_occupancy
  Zr  Zr0  1  0.360342  0.639658  0.065465  1
  Zr  Zr1  1  0.068632  0.931368  0.250000  1
  Zr  Zr2  1  0.360342  0.639658  0.434535  1
  Zr  Zr3  1  0.633039  0.366961  0.548696  1
  Zr  Zr4  1  0.946496  0.053504  0.750000  1
  Zr  Zr5  1  0.633039  0.366961  0.951304  1
  Zn  Zn6  1  0.255368  0.744633  0.750000  1
  P  P7  1  0.743701  0.256300  0.250000  1
  O  O8  1  0.999522  0.000478  0.003087  1
  O  O9  1  0.999522  0.000478  0.496913  1
