# generated using pymatgen
data_TmLu4RuPb3
_symmetry_space_group_name_H-M   'P 1'
_cell_length_a   9.17278100
_cell_length_b   9.17278130
_cell_length_c   6.46737700
_cell_angle_alpha   90.00000000
_cell_angle_beta   90.00000000
_cell_angle_gamma   119.99999533
_symmetry_Int_Tables_number   1
_chemical_formula_structural   TmLu4RuPb3
_chemical_formula_sum   'Tm2 Lu8 Ru2 Pb6'
_cell_volume   471.26034159
_cell_formula_units_Z   2
loop_
 _symmetry_equiv_pos_site_id
 _symmetry_equiv_pos_as_xyz
  1  'x, y, z'
loop_
 _atom_site_type_symbol
 _atom_site_label
 _atom_site_symmetry_multiplicity
 _atom_site_fract_x
 _atom_site_fract_y
 _atom_site_fract_z
 _atom_site_occupancy
  Tm  Tm0  1  0.666667  0.333333  0.000000  1
  Tm  Tm1  1  0.333333  0.666667  0.000000  1
  Lu  Lu2  1  0.764455  0.764455  0.750020  1
  Lu  Lu3  1  0.235545  0.000000  0.750020  1
  Lu  Lu4  1  0.000000  0.235545  0.750020  1
  Lu  Lu5  1  0.235545  0.235545  0.249980  1
  Lu  Lu6  1  0.764455  0.000000  0.249980  1
  Lu  Lu7  1  0.000000  0.764455  0.249980  1
  Lu  Lu8  1  0.333333  0.666667  0.500000  1
  Lu  Lu9  1  0.666667  0.333333  0.500000  1
  Ru  Ru10  1  0.000000  0.000000  0.000000  1
  Ru  Ru11  1  0.000000  0.000000  0.500000  1
  Pb  Pb12  1  0.403373  0.403373  0.749936  1
  Pb  Pb13  1  0.596627  0.000000  0.749936  1
  Pb  Pb14  1  0.000000  0.596627  0.749936  1
  Pb  Pb15  1  0.596627  0.596627  0.250064  1
  Pb  Pb16  1  0.403373  0.000000  0.250064  1
  Pb  Pb17  1  0.000000  0.403373  0.250064  1
