# generated using pymatgen
data_La2TlCd3Rh2
_symmetry_space_group_name_H-M   'P 1'
_cell_length_a   5.42115771
_cell_length_b   5.42115810
_cell_length_c   8.60392800
_cell_angle_alpha   90.04557318
_cell_angle_beta   89.95442681
_cell_angle_gamma   132.40371305
_symmetry_Int_Tables_number   1
_chemical_formula_structural   La2TlCd3Rh2
_chemical_formula_sum   'La2 Tl1 Cd3 Rh2'
_cell_volume   186.71501890
_cell_formula_units_Z   1
loop_
 _symmetry_equiv_pos_site_id
 _symmetry_equiv_pos_as_xyz
  1  'x, y, z'
loop_
 _atom_site_type_symbol
 _atom_site_label
 _atom_site_symmetry_multiplicity
 _atom_site_fract_x
 _atom_site_fract_y
 _atom_site_fract_z
 _atom_site_occupancy
  La  La0  1  0.060424  0.939576  0.254647  1
  La  La1  1  0.940384  0.059616  0.747675  1
  Tl  Tl2  1  0.351606  0.648394  0.044928  1
  Cd  Cd3  1  0.649510  0.350490  0.543823  1
  Cd  Cd4  1  0.351419  0.648581  0.458316  1
  Cd  Cd5  1  0.646649  0.353351  0.951431  1
  Rh  Rh6  1  0.205526  0.794474  0.750071  1
  Rh  Rh7  1  0.794482  0.205518  0.249109  1
