# generated using pymatgen
data_Tm3FeCo7NiP6
_symmetry_space_group_name_H-M   'P 1'
_cell_length_a   3.68310100
_cell_length_b   10.45916800
_cell_length_c   12.14552100
_cell_angle_alpha   90.00000000
_cell_angle_beta   90.00000000
_cell_angle_gamma   90.00000000
_symmetry_Int_Tables_number   1
_chemical_formula_structural   Tm3FeCo7NiP6
_chemical_formula_sum   'Tm6 Fe2 Co14 Ni2 P12'
_cell_volume   467.87185045
_cell_formula_units_Z   2
loop_
 _symmetry_equiv_pos_site_id
 _symmetry_equiv_pos_as_xyz
  1  'x, y, z'
loop_
 _atom_site_type_symbol
 _atom_site_label
 _atom_site_symmetry_multiplicity
 _atom_site_fract_x
 _atom_site_fract_y
 _atom_site_fract_z
 _atom_site_occupancy
  Tm  Tm0  1  0.000000  0.500000  0.519970  1
  Tm  Tm1  1  0.500000  0.000000  0.480030  1
  Tm  Tm2  1  0.500000  0.816245  0.204772  1
  Tm  Tm3  1  0.500000  0.183755  0.204772  1
  Tm  Tm4  1  0.000000  0.683755  0.795228  1
  Tm  Tm5  1  0.000000  0.316245  0.795228  1
  Fe  Fe6  1  0.500000  0.500000  0.157224  1
  Fe  Fe7  1  0.000000  0.000000  0.842776  1
  Co  Co8  1  0.000000  0.500000  0.985525  1
  Co  Co9  1  0.500000  0.000000  0.014475  1
  Co  Co10  1  0.500000  0.332944  0.994107  1
  Co  Co11  1  0.500000  0.667056  0.994107  1
  Co  Co12  1  0.000000  0.167056  0.005893  1
  Co  Co13  1  0.000000  0.832944  0.005893  1
  Co  Co14  1  0.500000  0.298206  0.431223  1
  Co  Co15  1  0.500000  0.701794  0.431223  1
  Co  Co16  1  0.000000  0.201794  0.568777  1
  Co  Co17  1  0.000000  0.798206  0.568777  1
  Co  Co18  1  0.500000  0.877938  0.709386  1
  Co  Co19  1  0.500000  0.122062  0.709386  1
  Co  Co20  1  0.000000  0.622062  0.290614  1
  Co  Co21  1  0.000000  0.377938  0.290614  1
  Ni  Ni22  1  0.500000  0.500000  0.701800  1
  Ni  Ni23  1  0.000000  0.000000  0.298200  1
  P  P24  1  0.500000  0.500000  0.882070  1
  P  P25  1  0.000000  0.000000  0.117930  1
  P  P26  1  0.500000  0.500000  0.343688  1
  P  P27  1  0.000000  0.000000  0.656312  1
  P  P28  1  0.500000  0.310853  0.615785  1
  P  P29  1  0.500000  0.689147  0.615785  1
  P  P30  1  0.000000  0.189147  0.384215  1
  P  P31  1  0.000000  0.810853  0.384215  1
  P  P32  1  0.500000  0.847239  0.892188  1
  P  P33  1  0.500000  0.152761  0.892188  1
  P  P34  1  0.000000  0.652761  0.107812  1
  P  P35  1  0.000000  0.347239  0.107812  1
