# generated using pymatgen
data_NaTa3(CrH6)2
_symmetry_space_group_name_H-M   'P 1'
_cell_length_a   6.10815700
_cell_length_b   6.10815527
_cell_length_c   4.71342100
_cell_angle_alpha   90.00000000
_cell_angle_beta   90.00000000
_cell_angle_gamma   119.99999313
_symmetry_Int_Tables_number   1
_chemical_formula_structural   NaTa3(CrH6)2
_chemical_formula_sum   'Na1 Ta3 Cr2 H12'
_cell_volume   152.29552903
_cell_formula_units_Z   1
loop_
 _symmetry_equiv_pos_site_id
 _symmetry_equiv_pos_as_xyz
  1  'x, y, z'
loop_
 _atom_site_type_symbol
 _atom_site_label
 _atom_site_symmetry_multiplicity
 _atom_site_fract_x
 _atom_site_fract_y
 _atom_site_fract_z
 _atom_site_occupancy
  Na  Na0  1  0.000000  0.000000  0.000000  1
  Ta  Ta1  1  0.500000  0.000000  0.500000  1
  Ta  Ta2  1  0.000000  0.500000  0.500000  1
  Ta  Ta3  1  0.500000  0.500000  0.500000  1
  Cr  Cr4  1  0.666667  0.333333  0.000000  1
  Cr  Cr5  1  0.333333  0.666667  0.000000  1
  H  H6  1  0.800381  0.600763  0.737816  1
  H  H7  1  0.199619  0.399237  0.262184  1
  H  H8  1  0.199619  0.800381  0.262184  1
  H  H9  1  0.800381  0.199619  0.262184  1
  H  H10  1  0.600763  0.800381  0.262184  1
  H  H11  1  0.399237  0.199619  0.262184  1
  H  H12  1  0.399237  0.199619  0.737816  1
  H  H13  1  0.199619  0.399237  0.737816  1
  H  H14  1  0.800381  0.199619  0.737816  1
  H  H15  1  0.600763  0.800381  0.737816  1
  H  H16  1  0.800381  0.600763  0.262184  1
  H  H17  1  0.199619  0.800381  0.737816  1
