# generated using pymatgen
data_Mn3CoTc3P4W
_symmetry_space_group_name_H-M   'P 1'
_cell_length_a   3.72826500
_cell_length_b   5.84891041
_cell_length_c   6.65602529
_cell_angle_alpha   89.53725323
_cell_angle_beta   90.00000000
_cell_angle_gamma   90.00000000
_symmetry_Int_Tables_number   1
_chemical_formula_structural   Mn3CoTc3P4W
_chemical_formula_sum   'Mn3 Co1 Tc3 P4 W1'
_cell_volume   145.13847048
_cell_formula_units_Z   1
loop_
 _symmetry_equiv_pos_site_id
 _symmetry_equiv_pos_as_xyz
  1  'x, y, z'
loop_
 _atom_site_type_symbol
 _atom_site_label
 _atom_site_symmetry_multiplicity
 _atom_site_fract_x
 _atom_site_fract_y
 _atom_site_fract_z
 _atom_site_occupancy
  Mn  Mn0  1  0.250000  0.856117  0.935896  1
  Mn  Mn1  1  0.750000  0.141059  0.059028  1
  Mn  Mn2  1  0.750000  0.635373  0.441176  1
  Co  Co3  1  0.250000  0.358361  0.569460  1
  Tc  Tc4  1  0.250000  0.976521  0.325720  1
  Tc  Tc5  1  0.250000  0.464719  0.166128  1
  Tc  Tc6  1  0.750000  0.027063  0.667898  1
  P  P7  1  0.250000  0.229024  0.877968  1
  P  P8  1  0.250000  0.741126  0.613057  1
  P  P9  1  0.750000  0.772032  0.131920  1
  P  P10  1  0.750000  0.263674  0.378191  1
  W  W11  1  0.750000  0.534933  0.833559  1
