# generated using pymatgen
data_Tb17Y3(SiBi2)4
_symmetry_space_group_name_H-M   'P 1'
_cell_length_a   12.13740658
_cell_length_b   9.20551700
_cell_length_c   8.11915005
_cell_angle_alpha   90.00000000
_cell_angle_beta   89.94163450
_cell_angle_gamma   90.00000000
_symmetry_Int_Tables_number   1
_chemical_formula_structural   Tb17Y3(SiBi2)4
_chemical_formula_sum   'Tb17 Y3 Si4 Bi8'
_cell_volume   907.16111658
_cell_formula_units_Z   1
loop_
 _symmetry_equiv_pos_site_id
 _symmetry_equiv_pos_as_xyz
  1  'x, y, z'
loop_
 _atom_site_type_symbol
 _atom_site_label
 _atom_site_symmetry_multiplicity
 _atom_site_fract_x
 _atom_site_fract_y
 _atom_site_fract_z
 _atom_site_occupancy
  Tb  Tb0  1  0.063481  0.551779  0.819933  1
  Tb  Tb1  1  0.563564  0.948122  0.679968  1
  Tb  Tb2  1  0.936515  0.051574  0.180062  1
  Tb  Tb3  1  0.436527  0.448222  0.319804  1
  Tb  Tb4  1  0.936515  0.448426  0.180062  1
  Tb  Tb5  1  0.436527  0.051778  0.319804  1
  Tb  Tb6  1  0.063481  0.948221  0.819933  1
  Tb  Tb7  1  0.563564  0.551878  0.679968  1
  Tb  Tb8  1  0.499003  0.250000  0.960128  1
  Tb  Tb9  1  0.211335  0.750000  0.164248  1
  Tb  Tb10  1  0.711416  0.750000  0.335550  1
  Tb  Tb11  1  0.788553  0.250000  0.835641  1
  Tb  Tb12  1  0.288624  0.250000  0.664623  1
  Tb  Tb13  1  0.295278  0.750000  0.635407  1
  Tb  Tb14  1  0.795338  0.750000  0.864735  1
  Tb  Tb15  1  0.704667  0.250000  0.364863  1
  Tb  Tb16  1  0.204664  0.250000  0.135328  1
  Y  Y17  1  0.000739  0.750000  0.459605  1
  Y  Y18  1  0.500737  0.750000  0.040475  1
  Y  Y19  1  0.999271  0.250000  0.540444  1
  Si  Si20  1  0.480109  0.750000  0.413813  1
  Si  Si21  1  0.980323  0.750000  0.086200  1
  Si  Si22  1  0.519982  0.250000  0.585260  1
  Si  Si23  1  0.019780  0.250000  0.913711  1
  Bi  Bi24  1  0.326189  0.511175  0.931715  1
  Bi  Bi25  1  0.826478  0.989203  0.568299  1
  Bi  Bi26  1  0.673814  0.010322  0.068509  1
  Bi  Bi27  1  0.173522  0.489276  0.431694  1
  Bi  Bi28  1  0.673814  0.489678  0.068509  1
  Bi  Bi29  1  0.173522  0.010724  0.431694  1
  Bi  Bi30  1  0.326189  0.988825  0.931715  1
  Bi  Bi31  1  0.826478  0.510797  0.568299  1
