# generated using pymatgen
data_DyYSi2(Os2C)2
_symmetry_space_group_name_H-M   'P 1'
_cell_length_a   5.89741778
_cell_length_b   5.89741708
_cell_length_c   7.14115100
_cell_angle_alpha   90.00000000
_cell_angle_beta   90.00000000
_cell_angle_gamma   141.65324706
_symmetry_Int_Tables_number   1
_chemical_formula_structural   DyYSi2(Os2C)2
_chemical_formula_sum   'Dy1 Y1 Si2 Os4 C2'
_cell_volume   154.09096752
_cell_formula_units_Z   1
loop_
 _symmetry_equiv_pos_site_id
 _symmetry_equiv_pos_as_xyz
  1  'x, y, z'
loop_
 _atom_site_type_symbol
 _atom_site_label
 _atom_site_symmetry_multiplicity
 _atom_site_fract_x
 _atom_site_fract_y
 _atom_site_fract_z
 _atom_site_occupancy
  Dy  Dy0  1  0.452027  0.547973  0.750000  1
  Y  Y1  1  0.547849  0.452151  0.250000  1
  Si  Si2  1  0.269165  0.730835  0.250000  1
  Si  Si3  1  0.730862  0.269138  0.750000  1
  Os  Os4  1  0.834821  0.165179  0.057519  1
  Os  Os5  1  0.165254  0.834746  0.942134  1
  Os  Os6  1  0.165254  0.834746  0.557866  1
  Os  Os7  1  0.834821  0.165179  0.442481  1
  C  C8  1  0.999974  0.000026  0.999525  1
  C  C9  1  0.999974  0.000026  0.500475  1
