# generated using pymatgen
data_Y3Er9Co4BiIr
_symmetry_space_group_name_H-M   'P 1'
_cell_length_a   8.29182976
_cell_length_b   8.29182917
_cell_length_c   8.28039227
_cell_angle_alpha   110.73951687
_cell_angle_beta   110.97921284
_cell_angle_gamma   106.78810227
_symmetry_Int_Tables_number   1
_chemical_formula_structural   Y3Er9Co4BiIr
_chemical_formula_sum   'Y3 Er9 Co4 Bi1 Ir1'
_cell_volume   437.20553015
_cell_formula_units_Z   1
loop_
 _symmetry_equiv_pos_site_id
 _symmetry_equiv_pos_as_xyz
  1  'x, y, z'
loop_
 _atom_site_type_symbol
 _atom_site_label
 _atom_site_symmetry_multiplicity
 _atom_site_fract_x
 _atom_site_fract_y
 _atom_site_fract_z
 _atom_site_occupancy
  Y  Y0  1  0.285055  0.184253  0.469308  1
  Y  Y1  1  0.715468  0.816317  0.531785  1
  Y  Y2  1  0.285164  0.815975  0.101138  1
  Er  Er3  1  0.715365  0.181944  0.897309  1
  Er  Er4  1  0.622287  0.311605  0.309254  1
  Er  Er5  1  0.378554  0.689083  0.690152  1
  Er  Er6  1  0.001071  0.311597  0.690152  1
  Er  Er7  1  0.997648  0.686969  0.309254  1
  Er  Er8  1  0.211064  0.409179  0.196490  1
  Er  Er9  1  0.787682  0.589583  0.803020  1
  Er  Er10  1  0.213437  0.015338  0.803020  1
  Er  Er11  1  0.787311  0.985426  0.196490  1
  Co  Co12  1  0.999529  0.376167  0.375695  1
  Co  Co13  1  0.999945  0.623616  0.623561  1
  Co  Co14  1  0.390065  0.890396  0.502306  1
  Co  Co15  1  0.611909  0.112241  0.502306  1
  Bi  Bi16  1  0.499852  0.500194  0.000047  1
  Ir  Ir17  1  0.998592  0.000118  0.998710  1
