# generated using pymatgen
data_ScB3W
_symmetry_space_group_name_H-M   'P 1'
_cell_length_a   5.31405087
_cell_length_b   3.09200700
_cell_length_c   6.62458527
_cell_angle_alpha   90.00000000
_cell_angle_beta   100.09740901
_cell_angle_gamma   90.00000000
_symmetry_Int_Tables_number   1
_chemical_formula_structural   ScB3W
_chemical_formula_sum   'Sc2 B6 W2'
_cell_volume   107.16315503
_cell_formula_units_Z   2
loop_
 _symmetry_equiv_pos_site_id
 _symmetry_equiv_pos_as_xyz
  1  'x, y, z'
loop_
 _atom_site_type_symbol
 _atom_site_label
 _atom_site_symmetry_multiplicity
 _atom_site_fract_x
 _atom_site_fract_y
 _atom_site_fract_z
 _atom_site_occupancy
  Sc  Sc0  1  0.313378  0.750001  0.287055  1
  Sc  Sc1  1  0.686622  0.250000  0.712945  1
  B  B2  1  0.087681  0.250000  0.008274  1
  B  B3  1  0.416943  0.250000  0.010524  1
  B  B4  1  0.914142  0.750001  0.479456  1
  B  B5  1  0.085857  0.250000  0.520544  1
  B  B6  1  0.583056  0.750001  0.989476  1
  B  B7  1  0.912320  0.750001  0.991726  1
  W  W8  1  0.804662  0.250000  0.224750  1
  W  W9  1  0.195337  0.750001  0.775250  1
