# generated using pymatgen
data_NdAg2(P3Pd10)2
_symmetry_space_group_name_H-M   'P 1'
_cell_length_a   8.62908040
_cell_length_b   8.62908521
_cell_length_c   8.62907700
_cell_angle_alpha   60.00000464
_cell_angle_beta   60.00005522
_cell_angle_gamma   60.00000303
_symmetry_Int_Tables_number   1
_chemical_formula_structural   NdAg2(P3Pd10)2
_chemical_formula_sum   'Nd1 Ag2 P6 Pd20'
_cell_volume   454.33775347
_cell_formula_units_Z   1
loop_
 _symmetry_equiv_pos_site_id
 _symmetry_equiv_pos_as_xyz
  1  'x, y, z'
loop_
 _atom_site_type_symbol
 _atom_site_label
 _atom_site_symmetry_multiplicity
 _atom_site_fract_x
 _atom_site_fract_y
 _atom_site_fract_z
 _atom_site_occupancy
  Nd  Nd0  1  0.750000  0.750000  0.750000  1
  Ag  Ag1  1  0.250000  0.250000  0.250000  1
  Ag  Ag2  1  0.000000  0.000000  0.000000  1
  P  P3  1  0.736137  0.263863  0.263863  1
  P  P4  1  0.263863  0.736137  0.736137  1
  P  P5  1  0.263863  0.736137  0.263864  1
  P  P6  1  0.736137  0.263863  0.736137  1
  P  P7  1  0.263863  0.263863  0.736137  1
  P  P8  1  0.736137  0.736137  0.263863  1
  Pd  Pd9  1  0.381464  0.381463  0.381464  1
  Pd  Pd10  1  0.611051  0.611050  0.611050  1
  Pd  Pd11  1  0.381464  0.381465  0.855607  1
  Pd  Pd12  1  0.381464  0.855607  0.381464  1
  Pd  Pd13  1  0.611051  0.611050  0.166848  1
  Pd  Pd14  1  0.611051  0.166848  0.611050  1
  Pd  Pd15  1  0.855607  0.381464  0.381464  1
  Pd  Pd16  1  0.166847  0.611051  0.611051  1
  Pd  Pd17  1  0.344919  0.999145  0.999145  1
  Pd  Pd18  1  0.656791  0.999145  0.999145  1
  Pd  Pd19  1  0.999145  0.344919  0.656790  1
  Pd  Pd20  1  0.999145  0.656790  0.344919  1
  Pd  Pd21  1  0.999145  0.344919  0.999145  1
  Pd  Pd22  1  0.656790  0.999145  0.344920  1
  Pd  Pd23  1  0.999145  0.656790  0.999145  1
  Pd  Pd24  1  0.344919  0.999145  0.656790  1
  Pd  Pd25  1  0.999145  0.999145  0.344920  1
  Pd  Pd26  1  0.999146  0.999145  0.656790  1
  Pd  Pd27  1  0.656791  0.344919  0.999145  1
  Pd  Pd28  1  0.344919  0.656790  0.999145  1
