# generated using pymatgen
data_LaNd7(Er3Pt4)4
_symmetry_space_group_name_H-M   'P 1'
_cell_length_a   7.49362651
_cell_length_b   7.63270291
_cell_length_c   14.84984700
_cell_angle_alpha   90.06493976
_cell_angle_beta   90.07551127
_cell_angle_gamma   90.00214388
_symmetry_Int_Tables_number   1
_chemical_formula_structural   LaNd7(Er3Pt4)4
_chemical_formula_sum   'La1 Nd7 Er12 Pt16'
_cell_volume   849.35984397
_cell_formula_units_Z   1
loop_
 _symmetry_equiv_pos_site_id
 _symmetry_equiv_pos_as_xyz
  1  'x, y, z'
loop_
 _atom_site_type_symbol
 _atom_site_label
 _atom_site_symmetry_multiplicity
 _atom_site_fract_x
 _atom_site_fract_y
 _atom_site_fract_z
 _atom_site_occupancy
  La  La0  1  0.980700  0.826730  0.596604  1
  Nd  Nd1  1  0.481449  0.671761  0.596820  1
  Nd  Nd2  1  0.981886  0.827418  0.903550  1
  Nd  Nd3  1  0.517665  0.327081  0.096410  1
  Nd  Nd4  1  0.019101  0.173497  0.402869  1
  Nd  Nd5  1  0.519372  0.327170  0.403181  1
  Nd  Nd6  1  0.017942  0.173466  0.096258  1
  Nd  Nd7  1  0.482156  0.673509  0.903763  1
  Er  Er8  1  0.638599  0.169508  0.622490  1
  Er  Er9  1  0.140697  0.331340  0.877851  1
  Er  Er10  1  0.359239  0.831368  0.122523  1
  Er  Er11  1  0.859686  0.668287  0.376841  1
  Er  Er12  1  0.360426  0.830860  0.377344  1
  Er  Er13  1  0.859994  0.669024  0.122341  1
  Er  Er14  1  0.640167  0.169080  0.877966  1
  Er  Er15  1  0.140004  0.330868  0.622474  1
  Er  Er16  1  0.801103  0.508586  0.750666  1
  Er  Er17  1  0.302647  0.991020  0.750574  1
  Er  Er18  1  0.198112  0.490541  0.249915  1
  Er  Er19  1  0.698308  0.009508  0.249625  1
  Pt  Pt20  1  0.688497  0.968021  0.456739  1
  Pt  Pt21  1  0.188541  0.532831  0.042647  1
  Pt  Pt22  1  0.311838  0.032382  0.957137  1
  Pt  Pt23  1  0.810629  0.466637  0.542669  1
  Pt  Pt24  1  0.311611  0.032043  0.543220  1
  Pt  Pt25  1  0.811572  0.467753  0.956958  1
  Pt  Pt26  1  0.688316  0.967228  0.042826  1
  Pt  Pt27  1  0.189314  0.531539  0.456787  1
  Pt  Pt28  1  0.433158  0.372370  0.749998  1
  Pt  Pt29  1  0.932765  0.128493  0.750502  1
  Pt  Pt30  1  0.566855  0.627012  0.249795  1
  Pt  Pt31  1  0.066841  0.873502  0.250063  1
  Pt  Pt32  1  0.664798  0.864570  0.750461  1
  Pt  Pt33  1  0.165794  0.634794  0.750043  1
  Pt  Pt34  1  0.335248  0.135615  0.250095  1
  Pt  Pt35  1  0.834972  0.364587  0.249994  1
