# generated using pymatgen
data_Be4ReW
_symmetry_space_group_name_H-M   'P 1'
_cell_length_a   4.41017200
_cell_length_b   4.41017251
_cell_length_c   7.26238300
_cell_angle_alpha   90.00000000
_cell_angle_beta   90.00000000
_cell_angle_gamma   120.00001117
_symmetry_Int_Tables_number   1
_chemical_formula_structural   Be4ReW
_chemical_formula_sum   'Be8 Re2 W2'
_cell_volume   122.32658092
_cell_formula_units_Z   2
loop_
 _symmetry_equiv_pos_site_id
 _symmetry_equiv_pos_as_xyz
  1  'x, y, z'
loop_
 _atom_site_type_symbol
 _atom_site_label
 _atom_site_symmetry_multiplicity
 _atom_site_fract_x
 _atom_site_fract_y
 _atom_site_fract_z
 _atom_site_occupancy
  Be  Be0  1  0.000000  0.000000  0.000737  1
  Be  Be1  1  0.000000  0.000000  0.500737  1
  Be  Be2  1  0.830480  0.660959  0.250069  1
  Be  Be3  1  0.169520  0.830480  0.750069  1
  Be  Be4  1  0.660959  0.830480  0.750069  1
  Be  Be5  1  0.339041  0.169520  0.250069  1
  Be  Be6  1  0.830480  0.169520  0.250069  1
  Be  Be7  1  0.169520  0.339041  0.750069  1
  Re  Re8  1  0.666667  0.333333  0.938842  1
  Re  Re9  1  0.333333  0.666667  0.438842  1
  W  W10  1  0.333333  0.666667  0.060214  1
  W  W11  1  0.666667  0.333333  0.560214  1
