# generated using pymatgen
data_HoTm3OsWC4
_symmetry_space_group_name_H-M   'P 1'
_cell_length_a   5.03625200
_cell_length_b   6.54805339
_cell_length_c   9.79934272
_cell_angle_alpha   89.03055986
_cell_angle_beta   90.00000000
_cell_angle_gamma   90.00000000
_symmetry_Int_Tables_number   1
_chemical_formula_structural   HoTm3OsWC4
_chemical_formula_sum   'Ho2 Tm6 Os2 W2 C8'
_cell_volume   323.11300817
_cell_formula_units_Z   2
loop_
 _symmetry_equiv_pos_site_id
 _symmetry_equiv_pos_as_xyz
  1  'x, y, z'
loop_
 _atom_site_type_symbol
 _atom_site_label
 _atom_site_symmetry_multiplicity
 _atom_site_fract_x
 _atom_site_fract_y
 _atom_site_fract_z
 _atom_site_occupancy
  Ho  Ho0  1  0.750000  0.966816  0.716544  1
  Ho  Ho1  1  0.250000  0.033184  0.283456  1
  Tm  Tm2  1  0.250000  0.675843  0.558442  1
  Tm  Tm3  1  0.750000  0.324157  0.441558  1
  Tm  Tm4  1  0.750000  0.825860  0.058917  1
  Tm  Tm5  1  0.250000  0.174140  0.941083  1
  Tm  Tm6  1  0.250000  0.540316  0.219021  1
  Tm  Tm7  1  0.750000  0.459684  0.780979  1
  Os  Os8  1  0.750000  0.780808  0.368408  1
  Os  Os9  1  0.250000  0.219192  0.631592  1
  W  W10  1  0.250000  0.713429  0.869728  1
  W  W11  1  0.750000  0.286571  0.130272  1
  C  C12  1  0.250000  0.447511  0.758524  1
  C  C13  1  0.750000  0.552489  0.241476  1
  C  C14  1  0.750000  0.049586  0.259843  1
  C  C15  1  0.250000  0.950414  0.740157  1
  C  C16  1  0.250000  0.826451  0.055719  1
  C  C17  1  0.750000  0.173549  0.944281  1
  C  C18  1  0.750000  0.671669  0.551209  1
  C  C19  1  0.250000  0.328331  0.448791  1
