# generated using pymatgen
data_Li3Th8Si12Rh
_symmetry_space_group_name_H-M   'P 1'
_cell_length_a   8.24052900
_cell_length_b   8.24052922
_cell_length_c   8.40180400
_cell_angle_alpha   90.00000000
_cell_angle_beta   90.00000000
_cell_angle_gamma   119.99999509
_symmetry_Int_Tables_number   1
_chemical_formula_structural   Li3Th8Si12Rh
_chemical_formula_sum   'Li3 Th8 Si12 Rh1'
_cell_volume   494.09834023
_cell_formula_units_Z   1
loop_
 _symmetry_equiv_pos_site_id
 _symmetry_equiv_pos_as_xyz
  1  'x, y, z'
loop_
 _atom_site_type_symbol
 _atom_site_label
 _atom_site_symmetry_multiplicity
 _atom_site_fract_x
 _atom_site_fract_y
 _atom_site_fract_z
 _atom_site_occupancy
  Li  Li0  1  0.333333  0.666667  0.494268  1
  Li  Li1  1  0.666667  0.333333  0.507565  1
  Li  Li2  1  0.666667  0.333333  0.993987  1
  Th  Th3  1  0.000000  0.000000  0.250376  1
  Th  Th4  1  0.000000  0.000000  0.749947  1
  Th  Th5  1  0.499473  0.500527  0.249035  1
  Th  Th6  1  0.499473  0.998947  0.249035  1
  Th  Th7  1  0.001053  0.500527  0.249035  1
  Th  Th8  1  0.497047  0.502953  0.750929  1
  Th  Th9  1  0.497047  0.994094  0.750929  1
  Th  Th10  1  0.005906  0.502953  0.750929  1
  Si  Si11  1  0.166602  0.833398  0.499978  1
  Si  Si12  1  0.166602  0.333204  0.499978  1
  Si  Si13  1  0.666796  0.833398  0.499978  1
  Si  Si14  1  0.832085  0.167915  0.499957  1
  Si  Si15  1  0.832085  0.664171  0.499957  1
  Si  Si16  1  0.335829  0.167915  0.499957  1
  Si  Si17  1  0.832754  0.167246  0.999538  1
  Si  Si18  1  0.832754  0.665508  0.999538  1
  Si  Si19  1  0.334492  0.167246  0.999538  1
  Si  Si20  1  0.166133  0.833867  0.001170  1
  Si  Si21  1  0.166133  0.332267  0.001170  1
  Si  Si22  1  0.667733  0.833867  0.001170  1
  Rh  Rh23  1  0.333333  0.666667  0.002039  1
