# generated using pymatgen
data_Ca18PaCd8N7
_symmetry_space_group_name_H-M   'P 1'
_cell_length_a   10.39893775
_cell_length_b   10.39796049
_cell_length_c   10.39890300
_cell_angle_alpha   60.04150337
_cell_angle_beta   60.03204647
_cell_angle_gamma   60.04121318
_symmetry_Int_Tables_number   1
_chemical_formula_structural   Ca18PaCd8N7
_chemical_formula_sum   'Ca18 Pa1 Cd8 N7'
_cell_volume   795.76728667
_cell_formula_units_Z   1
loop_
 _symmetry_equiv_pos_site_id
 _symmetry_equiv_pos_as_xyz
  1  'x, y, z'
loop_
 _atom_site_type_symbol
 _atom_site_label
 _atom_site_symmetry_multiplicity
 _atom_site_fract_x
 _atom_site_fract_y
 _atom_site_fract_z
 _atom_site_occupancy
  Ca  Ca0  1  0.166000  0.499996  0.834003  1
  Ca  Ca1  1  0.500008  0.833991  0.166007  1
  Ca  Ca2  1  0.833971  0.166025  0.499998  1
  Ca  Ca3  1  0.164773  0.835268  0.164777  1
  Ca  Ca4  1  0.834000  0.500004  0.165997  1
  Ca  Ca5  1  0.166029  0.833975  0.500002  1
  Ca  Ca6  1  0.164755  0.164760  0.835280  1
  Ca  Ca7  1  0.166015  0.499993  0.500016  1
  Ca  Ca8  1  0.835245  0.835240  0.164720  1
  Ca  Ca9  1  0.835227  0.164732  0.835223  1
  Ca  Ca10  1  0.499999  0.833998  0.499987  1
  Ca  Ca11  1  0.500011  0.500000  0.166037  1
  Ca  Ca12  1  0.164730  0.835226  0.835226  1
  Ca  Ca13  1  0.499992  0.166009  0.833993  1
  Ca  Ca14  1  0.500001  0.166002  0.500013  1
  Ca  Ca15  1  0.833985  0.500007  0.499984  1
  Ca  Ca16  1  0.835270  0.164774  0.164774  1
  Ca  Ca17  1  0.499989  0.500000  0.833963  1
  Pa  Pa18  1  0.500000  0.500000  0.500000  1
  Cd  Cd19  1  0.174481  0.174464  0.476425  1
  Cd  Cd20  1  0.825599  0.523569  0.825548  1
  Cd  Cd21  1  0.476423  0.174405  0.174471  1
  Cd  Cd22  1  0.174401  0.476431  0.174452  1
  Cd  Cd23  1  0.523577  0.825595  0.825529  1
  Cd  Cd24  1  0.174543  0.174547  0.174482  1
  Cd  Cd25  1  0.825457  0.825453  0.825518  1
  Cd  Cd26  1  0.825519  0.825536  0.523575  1
  N  N27  1  0.659590  0.340411  0.659588  1
  N  N28  1  0.659588  0.340410  0.340414  1
  N  N29  1  0.340412  0.659590  0.659586  1
  N  N30  1  0.340410  0.659589  0.340412  1
  N  N31  1  0.340412  0.340408  0.659589  1
  N  N32  1  0.659588  0.659592  0.340411  1
  N  N33  1  0.000000  0.000000  0.000000  1
