# generated using pymatgen
data_Rb16Hf3VSe16
_symmetry_space_group_name_H-M   'P 1'
_cell_length_a   8.79791598
_cell_length_b   10.45890700
_cell_length_c   15.42752000
_cell_angle_alpha   90.00000000
_cell_angle_beta   90.11256085
_cell_angle_gamma   90.00000000
_symmetry_Int_Tables_number   1
_chemical_formula_structural   Rb16Hf3VSe16
_chemical_formula_sum   'Rb16 Hf3 V1 Se16'
_cell_volume   1419.58496605
_cell_formula_units_Z   1
loop_
 _symmetry_equiv_pos_site_id
 _symmetry_equiv_pos_as_xyz
  1  'x, y, z'
loop_
 _atom_site_type_symbol
 _atom_site_label
 _atom_site_symmetry_multiplicity
 _atom_site_fract_x
 _atom_site_fract_y
 _atom_site_fract_z
 _atom_site_occupancy
  Rb  Rb0  1  0.002481  0.004812  0.998038  1
  Rb  Rb1  1  0.499604  0.997425  0.499726  1
  Rb  Rb2  1  0.002481  0.495188  0.998038  1
  Rb  Rb3  1  0.499604  0.502575  0.499726  1
  Rb  Rb4  1  0.986830  0.750000  0.426286  1
  Rb  Rb5  1  0.483469  0.250000  0.072449  1
  Rb  Rb6  1  0.016021  0.250000  0.575779  1
  Rb  Rb7  1  0.509870  0.750000  0.923703  1
  Rb  Rb8  1  0.838378  0.054167  0.278880  1
  Rb  Rb9  1  0.337953  0.945781  0.220365  1
  Rb  Rb10  1  0.161564  0.548652  0.723114  1
  Rb  Rb11  1  0.660885  0.441364  0.779984  1
  Rb  Rb12  1  0.161564  0.951348  0.723114  1
  Rb  Rb13  1  0.660885  0.058636  0.779984  1
  Rb  Rb14  1  0.838378  0.445833  0.278880  1
  Rb  Rb15  1  0.337953  0.554219  0.220365  1
  Hf  Hf16  1  0.758180  0.750000  0.667289  1
  Hf  Hf17  1  0.242134  0.250000  0.333814  1
  Hf  Hf18  1  0.740927  0.750000  0.164866  1
  V  V19  1  0.258807  0.250000  0.833912  1
  Se  Se20  1  0.988724  0.250000  0.824107  1
  Se  Se21  1  0.528690  0.250000  0.325532  1
  Se  Se22  1  0.471230  0.750000  0.676265  1
  Se  Se23  1  0.027821  0.750000  0.174328  1
  Se  Se24  1  0.653477  0.551269  0.087864  1
  Se  Se25  1  0.154809  0.448759  0.410545  1
  Se  Se26  1  0.344439  0.065479  0.907575  1
  Se  Se27  1  0.844334  0.949190  0.590328  1
  Se  Se28  1  0.344439  0.434521  0.907575  1
  Se  Se29  1  0.844334  0.550810  0.590328  1
  Se  Se30  1  0.653477  0.948731  0.087864  1
  Se  Se31  1  0.154809  0.051241  0.410545  1
  Se  Se32  1  0.628090  0.750000  0.316630  1
  Se  Se33  1  0.127835  0.250000  0.182523  1
  Se  Se34  1  0.363371  0.250000  0.691112  1
  Se  Se35  1  0.872151  0.750000  0.818568  1
