# generated using pymatgen
data_CaY7(B6Os)4
_symmetry_space_group_name_H-M   'P 1'
_cell_length_a   3.65917700
_cell_length_b   9.18089082
_cell_length_c   11.57154903
_cell_angle_alpha   89.89156079
_cell_angle_beta   90.00000000
_cell_angle_gamma   90.00000000
_symmetry_Int_Tables_number   1
_chemical_formula_structural   CaY7(B6Os)4
_chemical_formula_sum   'Ca1 Y7 B24 Os4'
_cell_volume   388.73976031
_cell_formula_units_Z   1
loop_
 _symmetry_equiv_pos_site_id
 _symmetry_equiv_pos_as_xyz
  1  'x, y, z'
loop_
 _atom_site_type_symbol
 _atom_site_label
 _atom_site_symmetry_multiplicity
 _atom_site_fract_x
 _atom_site_fract_y
 _atom_site_fract_z
 _atom_site_occupancy
  Ca  Ca0  1  0.000000  0.322943  0.413645  1
  Y  Y1  1  0.000000  0.675829  0.585199  1
  Y  Y2  1  0.000000  0.822644  0.086580  1
  Y  Y3  1  0.000000  0.177789  0.914342  1
  Y  Y4  1  0.000000  0.944102  0.372014  1
  Y  Y5  1  0.000000  0.057681  0.627268  1
  Y  Y6  1  0.000000  0.443207  0.128677  1
  Y  Y7  1  0.000000  0.555991  0.873028  1
  B  B8  1  0.500000  0.554076  0.432470  1
  B  B9  1  0.500000  0.446255  0.567702  1
  B  B10  1  0.500000  0.053163  0.066774  1
  B  B11  1  0.500000  0.945979  0.932286  1
  B  B12  1  0.500000  0.747714  0.419145  1
  B  B13  1  0.500000  0.252925  0.581182  1
  B  B14  1  0.500000  0.246854  0.080513  1
  B  B15  1  0.500000  0.752474  0.919517  1
  B  B16  1  0.500000  0.791040  0.266472  1
  B  B17  1  0.500000  0.210109  0.733764  1
  B  B18  1  0.500000  0.289504  0.232968  1
  B  B19  1  0.500000  0.709655  0.766743  1
  B  B20  1  0.500000  0.632317  0.186417  1
  B  B21  1  0.500000  0.368216  0.814622  1
  B  B22  1  0.500000  0.131267  0.313338  1
  B  B23  1  0.500000  0.868354  0.685699  1
  B  B24  1  0.500000  0.983438  0.211932  1
  B  B25  1  0.500000  0.016403  0.787169  1
  B  B26  1  0.500000  0.484218  0.287544  1
  B  B27  1  0.500000  0.516262  0.712914  1
  B  B28  1  0.500000  0.609386  0.030556  1
  B  B29  1  0.500000  0.390785  0.970147  1
  B  B30  1  0.500000  0.105375  0.470617  1
  B  B31  1  0.500000  0.893421  0.529554  1
  Os  Os32  1  0.000000  0.639531  0.320702  1
  Os  Os33  1  0.000000  0.362461  0.680231  1
  Os  Os34  1  0.000000  0.136105  0.176875  1
  Os  Os35  1  0.000000  0.862527  0.821398  1
