# generated using pymatgen
data_TmZr7H30
_symmetry_space_group_name_H-M   'P 1'
_cell_length_a   7.05960868
_cell_length_b   7.05960943
_cell_length_c   7.05960945
_cell_angle_alpha   109.49167465
_cell_angle_beta   109.49168467
_cell_angle_gamma   109.49166413
_symmetry_Int_Tables_number   1
_chemical_formula_structural   TmZr7H30
_chemical_formula_sum   'Tm1 Zr7 H30'
_cell_volume   270.63924132
_cell_formula_units_Z   1
loop_
 _symmetry_equiv_pos_site_id
 _symmetry_equiv_pos_as_xyz
  1  'x, y, z'
loop_
 _atom_site_type_symbol
 _atom_site_label
 _atom_site_symmetry_multiplicity
 _atom_site_fract_x
 _atom_site_fract_y
 _atom_site_fract_z
 _atom_site_occupancy
  Tm  Tm0  1  0.909065  0.909065  0.909065  1
  Zr  Zr1  1  0.500474  0.000972  0.095574  1
  Zr  Zr2  1  0.000972  0.095574  0.500474  1
  Zr  Zr3  1  0.095574  0.500474  0.000972  1
  Zr  Zr4  1  0.999481  0.595807  0.498992  1
  Zr  Zr5  1  0.595807  0.498992  0.999481  1
  Zr  Zr6  1  0.498992  0.999481  0.595807  1
  Zr  Zr7  1  0.408045  0.408045  0.408045  1
  H  H8  1  0.654564  0.968388  0.382919  1
  H  H9  1  0.227025  0.311406  0.845103  1
  H  H10  1  0.187538  0.417334  0.532902  1
  H  H11  1  0.093119  0.284001  0.124029  1
  H  H12  1  0.284001  0.124029  0.093119  1
  H  H13  1  0.124029  0.093119  0.284001  1
  H  H14  1  0.465500  0.154580  0.882981  1
  H  H15  1  0.727386  0.344852  0.812644  1
  H  H16  1  0.626819  0.374062  0.249885  1
  H  H17  1  0.249885  0.626819  0.374062  1
  H  H18  1  0.746848  0.871895  0.129187  1
  H  H19  1  0.129187  0.746848  0.871895  1
  H  H20  1  0.374062  0.249885  0.626819  1
  H  H21  1  0.871895  0.129187  0.746848  1
  H  H22  1  0.767941  0.576421  0.606955  1
  H  H23  1  0.311406  0.845103  0.227025  1
  H  H24  1  0.382919  0.654564  0.968388  1
  H  H25  1  0.968388  0.382919  0.654564  1
  H  H26  1  0.532902  0.187538  0.417334  1
  H  H27  1  0.417334  0.532902  0.187538  1
  H  H28  1  0.845103  0.227025  0.311406  1
  H  H29  1  0.913443  0.677315  0.034546  1
  H  H30  1  0.812644  0.727386  0.344852  1
  H  H31  1  0.154580  0.882981  0.465500  1
  H  H32  1  0.677315  0.034546  0.913443  1
  H  H33  1  0.344852  0.812644  0.727386  1
  H  H34  1  0.882981  0.465500  0.154580  1
  H  H35  1  0.606955  0.767941  0.576421  1
  H  H36  1  0.576421  0.606955  0.767941  1
  H  H37  1  0.034546  0.913443  0.677315  1
