# generated using pymatgen
data_Al3V12Ga4CoN4
_symmetry_space_group_name_H-M   'P 1'
_cell_length_a   6.58700124
_cell_length_b   6.58700089
_cell_length_c   6.58700160
_cell_angle_alpha   90.02130029
_cell_angle_beta   89.97870299
_cell_angle_gamma   89.97869685
_symmetry_Int_Tables_number   1
_chemical_formula_structural   Al3V12Ga4CoN4
_chemical_formula_sum   'Al3 V12 Ga4 Co1 N4'
_cell_volume   285.80060617
_cell_formula_units_Z   1
loop_
 _symmetry_equiv_pos_site_id
 _symmetry_equiv_pos_as_xyz
  1  'x, y, z'
loop_
 _atom_site_type_symbol
 _atom_site_label
 _atom_site_symmetry_multiplicity
 _atom_site_fract_x
 _atom_site_fract_y
 _atom_site_fract_z
 _atom_site_occupancy
  Al  Al0  1  0.319685  0.176668  0.820208  1
  Al  Al1  1  0.823332  0.320208  0.180315  1
  Al  Al2  1  0.679792  0.680315  0.676668  1
  V  V3  1  0.793962  0.958583  0.373400  1
  V  V4  1  0.709238  0.040700  0.877073  1
  V  V5  1  0.207198  0.462474  0.124766  1
  V  V6  1  0.292419  0.543366  0.626139  1
  V  V7  1  0.959300  0.377073  0.790762  1
  V  V8  1  0.041417  0.873400  0.706038  1
  V  V9  1  0.456634  0.126139  0.207581  1
  V  V10  1  0.537526  0.624766  0.292802  1
  V  V11  1  0.375234  0.792802  0.962474  1
  V  V12  1  0.873861  0.707581  0.043366  1
  V  V13  1  0.126600  0.206038  0.458583  1
  V  V14  1  0.622927  0.290762  0.540700  1
  Ga  Ga15  1  0.569341  0.430659  0.930659  1
  Ga  Ga16  1  0.420138  0.925773  0.558802  1
  Ga  Ga17  1  0.941198  0.579862  0.425773  1
  Ga  Ga18  1  0.074227  0.058802  0.079862  1
  Co  Co19  1  0.181350  0.818650  0.318650  1
  N  N20  1  0.875395  0.124605  0.624605  1
  N  N21  1  0.623462  0.875663  0.128573  1
  N  N22  1  0.124337  0.628573  0.876538  1
  N  N23  1  0.371427  0.376538  0.375663  1
