# generated using pymatgen
data_Er3Sc7(Si5Pt2)4
_symmetry_space_group_name_H-M   'P 1'
_cell_length_a   12.48334355
_cell_length_b   12.48334307
_cell_length_c   4.16246900
_cell_angle_alpha   90.00000000
_cell_angle_beta   90.00000000
_cell_angle_gamma   89.98407806
_symmetry_Int_Tables_number   1
_chemical_formula_structural   Er3Sc7(Si5Pt2)4
_chemical_formula_sum   'Er3 Sc7 Si20 Pt8'
_cell_volume   648.65358721
_cell_formula_units_Z   1
loop_
 _symmetry_equiv_pos_site_id
 _symmetry_equiv_pos_as_xyz
  1  'x, y, z'
loop_
 _atom_site_type_symbol
 _atom_site_label
 _atom_site_symmetry_multiplicity
 _atom_site_fract_x
 _atom_site_fract_y
 _atom_site_fract_z
 _atom_site_occupancy
  Er  Er0  1  0.112167  0.612167  0.500000  1
  Er  Er1  1  0.387195  0.112682  0.500000  1
  Er  Er2  1  0.612682  0.887195  0.500000  1
  Sc  Sc3  1  0.500047  0.500254  0.000000  1
  Sc  Sc4  1  0.000254  0.000047  0.000000  1
  Sc  Sc5  1  0.676478  0.176478  0.500000  1
  Sc  Sc6  1  0.324337  0.824337  0.500000  1
  Sc  Sc7  1  0.174900  0.324519  0.500000  1
  Sc  Sc8  1  0.824519  0.674900  0.500000  1
  Sc  Sc9  1  0.889437  0.389437  0.500000  1
  Si  Si10  1  0.566595  0.066595  0.000000  1
  Si  Si11  1  0.433604  0.933604  0.000000  1
  Si  Si12  1  0.065001  0.433016  0.000000  1
  Si  Si13  1  0.933016  0.565001  0.000000  1
  Si  Si14  1  0.665796  0.702520  0.000000  1
  Si  Si15  1  0.334346  0.297055  0.000000  1
  Si  Si16  1  0.165521  0.796980  0.000000  1
  Si  Si17  1  0.834917  0.204180  0.000000  1
  Si  Si18  1  0.296980  0.665521  0.000000  1
  Si  Si19  1  0.704180  0.334917  0.000000  1
  Si  Si20  1  0.202520  0.165796  0.000000  1
  Si  Si21  1  0.797055  0.834346  0.000000  1
  Si  Si22  1  0.647981  0.507261  0.500000  1
  Si  Si23  1  0.352698  0.491131  0.500000  1
  Si  Si24  1  0.146936  0.991560  0.500000  1
  Si  Si25  1  0.852791  0.008804  0.500000  1
  Si  Si26  1  0.491560  0.646936  0.500000  1
  Si  Si27  1  0.508804  0.352791  0.500000  1
  Si  Si28  1  0.007261  0.147981  0.500000  1
  Si  Si29  1  0.991131  0.852698  0.500000  1
  Pt  Pt30  1  0.742837  0.521447  0.000000  1
  Pt  Pt31  1  0.257236  0.477511  0.000000  1
  Pt  Pt32  1  0.241802  0.977857  0.000000  1
  Pt  Pt33  1  0.758094  0.022507  0.000000  1
  Pt  Pt34  1  0.477857  0.741802  0.000000  1
  Pt  Pt35  1  0.522507  0.258094  0.000000  1
  Pt  Pt36  1  0.021447  0.242837  0.000000  1
  Pt  Pt37  1  0.977511  0.757236  0.000000  1
