# generated using pymatgen
data_Hf8In4Cu7Pt
_symmetry_space_group_name_H-M   'P 1'
_cell_length_a   7.27234295
_cell_length_b   7.27234295
_cell_length_c   6.76949376
_cell_angle_alpha   90.07128388
_cell_angle_beta   90.07128388
_cell_angle_gamma   89.95294383
_symmetry_Int_Tables_number   1
_chemical_formula_structural   Hf8In4Cu7Pt
_chemical_formula_sum   'Hf8 In4 Cu7 Pt1'
_cell_volume   358.01735187
_cell_formula_units_Z   1
loop_
 _symmetry_equiv_pos_site_id
 _symmetry_equiv_pos_as_xyz
  1  'x, y, z'
loop_
 _atom_site_type_symbol
 _atom_site_label
 _atom_site_symmetry_multiplicity
 _atom_site_fract_x
 _atom_site_fract_y
 _atom_site_fract_z
 _atom_site_occupancy
  Hf  Hf0  1  0.150289  0.150289  0.000376  1
  Hf  Hf1  1  0.849406  0.849406  0.997719  1
  Hf  Hf2  1  0.651579  0.347369  0.498927  1
  Hf  Hf3  1  0.347369  0.651579  0.498927  1
  Hf  Hf4  1  0.692612  0.306759  0.001056  1
  Hf  Hf5  1  0.306759  0.692612  0.001056  1
  Hf  Hf6  1  0.808171  0.808171  0.500734  1
  Hf  Hf7  1  0.193256  0.193256  0.499998  1
  In  In8  1  0.502736  0.994182  0.249157  1
  In  In9  1  0.500307  0.998254  0.748695  1
  In  In10  1  0.994182  0.502736  0.249157  1
  In  In11  1  0.998254  0.500307  0.748695  1
  Cu  Cu12  1  0.621749  0.621749  0.792872  1
  Cu  Cu13  1  0.629893  0.629893  0.203142  1
  Cu  Cu14  1  0.877545  0.122920  0.705059  1
  Cu  Cu15  1  0.877428  0.122385  0.295557  1
  Cu  Cu16  1  0.376885  0.376885  0.795401  1
  Cu  Cu17  1  0.122385  0.877428  0.295557  1
  Cu  Cu18  1  0.122920  0.877545  0.705059  1
  Pt  Pt19  1  0.376276  0.376276  0.212856  1
