# generated using pymatgen
data_Ho2TmLu5Pt4
_symmetry_space_group_name_H-M   'P 1'
_cell_length_a   4.72161500
_cell_length_b   7.04846284
_cell_length_c   8.58536010
_cell_angle_alpha   90.25543122
_cell_angle_beta   90.00000000
_cell_angle_gamma   90.00000000
_symmetry_Int_Tables_number   1
_chemical_formula_structural   Ho2TmLu5Pt4
_chemical_formula_sum   'Ho2 Tm1 Lu5 Pt4'
_cell_volume   285.71904254
_cell_formula_units_Z   1
loop_
 _symmetry_equiv_pos_site_id
 _symmetry_equiv_pos_as_xyz
  1  'x, y, z'
loop_
 _atom_site_type_symbol
 _atom_site_label
 _atom_site_symmetry_multiplicity
 _atom_site_fract_x
 _atom_site_fract_y
 _atom_site_fract_z
 _atom_site_occupancy
  Ho  Ho0  1  0.250000  0.487834  0.170666  1
  Ho  Ho1  1  0.750000  0.511814  0.829405  1
  Tm  Tm2  1  0.750000  0.012967  0.669993  1
  Lu  Lu3  1  0.250000  0.856595  0.922836  1
  Lu  Lu4  1  0.250000  0.357032  0.576689  1
  Lu  Lu5  1  0.750000  0.142721  0.079002  1
  Lu  Lu6  1  0.750000  0.644310  0.422231  1
  Lu  Lu7  1  0.250000  0.987538  0.331244  1
  Pt  Pt8  1  0.250000  0.254421  0.904276  1
  Pt  Pt9  1  0.250000  0.757028  0.592182  1
  Pt  Pt10  1  0.750000  0.744947  0.095059  1
  Pt  Pt11  1  0.750000  0.242793  0.406420  1
