# generated using pymatgen
data_Tb5Th3MgZnRu2
_symmetry_space_group_name_H-M   'P 1'
_cell_length_a   9.65704032
_cell_length_b   9.75445748
_cell_length_c   9.75358698
_cell_angle_alpha   59.34327733
_cell_angle_beta   60.33282943
_cell_angle_gamma   60.50520939
_symmetry_Int_Tables_number   1
_chemical_formula_structural   Tb5Th3MgZnRu2
_chemical_formula_sum   'Tb10 Th6 Mg2 Zn2 Ru4'
_cell_volume   650.41094450
_cell_formula_units_Z   2
loop_
 _symmetry_equiv_pos_site_id
 _symmetry_equiv_pos_as_xyz
  1  'x, y, z'
loop_
 _atom_site_type_symbol
 _atom_site_label
 _atom_site_symmetry_multiplicity
 _atom_site_fract_x
 _atom_site_fract_y
 _atom_site_fract_z
 _atom_site_occupancy
  Tb  Tb0  1  0.440318  0.059147  0.442026  1
  Tb  Tb1  1  0.059147  0.440318  0.058509  1
  Tb  Tb2  1  0.444354  0.444354  0.055646  1
  Tb  Tb3  1  0.060985  0.060985  0.439015  1
  Tb  Tb4  1  0.189527  0.816634  0.817106  1
  Tb  Tb5  1  0.816634  0.189527  0.176731  1
  Tb  Tb6  1  0.811471  0.195840  0.811847  1
  Tb  Tb7  1  0.195840  0.811471  0.180842  1
  Tb  Tb8  1  0.812342  0.812342  0.187658  1
  Tb  Tb9  1  0.189069  0.189069  0.810931  1
  Th  Th10  1  0.590950  0.601735  0.602482  1
  Th  Th11  1  0.601735  0.590950  0.204835  1
  Th  Th12  1  0.600580  0.205519  0.593320  1
  Th  Th13  1  0.205519  0.600580  0.600583  1
  Th  Th14  1  0.064857  0.437190  0.434106  1
  Th  Th15  1  0.437190  0.064857  0.063847  1
  Mg  Mg16  1  0.825523  0.822535  0.830835  1
  Mg  Mg17  1  0.822535  0.825523  0.521107  1
  Zn  Zn18  1  0.830474  0.499016  0.837730  1
  Zn  Zn19  1  0.499016  0.830474  0.832781  1
  Ru  Ru20  1  0.379455  0.398422  0.398794  1
  Ru  Ru21  1  0.398422  0.379455  0.823329  1
  Ru  Ru22  1  0.399809  0.824248  0.375635  1
  Ru  Ru23  1  0.824248  0.399809  0.400308  1
