# generated using pymatgen
data_ErTa(NiSn)2
_symmetry_space_group_name_H-M   'P 1'
_cell_length_a   6.16731600
_cell_length_b   4.33410600
_cell_length_c   8.73033000
_cell_angle_alpha   90.00000000
_cell_angle_beta   90.00000000
_cell_angle_gamma   90.00000000
_symmetry_Int_Tables_number   1
_chemical_formula_structural   ErTa(NiSn)2
_chemical_formula_sum   'Er2 Ta2 Ni4 Sn4'
_cell_volume   233.35998600
_cell_formula_units_Z   2
loop_
 _symmetry_equiv_pos_site_id
 _symmetry_equiv_pos_as_xyz
  1  'x, y, z'
loop_
 _atom_site_type_symbol
 _atom_site_label
 _atom_site_symmetry_multiplicity
 _atom_site_fract_x
 _atom_site_fract_y
 _atom_site_fract_z
 _atom_site_occupancy
  Er  Er0  1  0.004206  0.500000  0.377990  1
  Er  Er1  1  0.504206  0.000000  0.622010  1
  Ta  Ta2  1  0.495115  0.000000  0.124800  1
  Ta  Ta3  1  0.995116  0.500000  0.875202  1
  Ni  Ni4  1  0.738157  0.500000  0.112024  1
  Ni  Ni5  1  0.265337  0.000000  0.356003  1
  Ni  Ni6  1  0.765338  0.500000  0.643996  1
  Ni  Ni7  1  0.238158  0.000000  0.887975  1
  Sn  Sn8  1  0.989239  0.000000  0.121063  1
  Sn  Sn9  1  0.507945  0.500000  0.367553  1
  Sn  Sn10  1  0.007944  0.000000  0.632448  1
  Sn  Sn11  1  0.489238  0.500000  0.878937  1
