# generated using pymatgen
data_Ca20Zn3Cu8Bi
_symmetry_space_group_name_H-M   'P 1'
_cell_length_a   7.92341300
_cell_length_b   7.92341300
_cell_length_c   14.77724400
_cell_angle_alpha   90.00000000
_cell_angle_beta   90.00000000
_cell_angle_gamma   90.00000000
_symmetry_Int_Tables_number   1
_chemical_formula_structural   Ca20Zn3Cu8Bi
_chemical_formula_sum   'Ca20 Zn3 Cu8 Bi1'
_cell_volume   927.72237636
_cell_formula_units_Z   1
loop_
 _symmetry_equiv_pos_site_id
 _symmetry_equiv_pos_as_xyz
  1  'x, y, z'
loop_
 _atom_site_type_symbol
 _atom_site_label
 _atom_site_symmetry_multiplicity
 _atom_site_fract_x
 _atom_site_fract_y
 _atom_site_fract_z
 _atom_site_occupancy
  Ca  Ca0  1  0.666301  0.172691  0.110263  1
  Ca  Ca1  1  0.170548  0.671030  0.609318  1
  Ca  Ca2  1  0.333699  0.827309  0.110263  1
  Ca  Ca3  1  0.829452  0.328970  0.609318  1
  Ca  Ca4  1  0.827309  0.666301  0.110263  1
  Ca  Ca5  1  0.328970  0.170548  0.609318  1
  Ca  Ca6  1  0.172691  0.333699  0.110263  1
  Ca  Ca7  1  0.671030  0.829452  0.609318  1
  Ca  Ca8  1  0.827309  0.333699  0.889737  1
  Ca  Ca9  1  0.328970  0.829452  0.390682  1
  Ca  Ca10  1  0.172691  0.666301  0.889737  1
  Ca  Ca11  1  0.671030  0.170548  0.390682  1
  Ca  Ca12  1  0.666301  0.827309  0.889737  1
  Ca  Ca13  1  0.170548  0.328970  0.390682  1
  Ca  Ca14  1  0.333699  0.172691  0.889737  1
  Ca  Ca15  1  0.829452  0.671030  0.390682  1
  Ca  Ca16  1  0.500000  0.500000  0.749469  1
  Ca  Ca17  1  0.000000  0.000000  0.249900  1
  Ca  Ca18  1  0.000000  0.000000  0.750100  1
  Ca  Ca19  1  0.500000  0.500000  0.250531  1
  Zn  Zn20  1  0.500000  0.500000  0.500000  1
  Zn  Zn21  1  0.500000  0.500000  0.000000  1
  Zn  Zn22  1  0.000000  0.000000  0.500000  1
  Cu  Cu23  1  0.613069  0.113767  0.750539  1
  Cu  Cu24  1  0.113767  0.613069  0.249461  1
  Cu  Cu25  1  0.886233  0.386931  0.249461  1
  Cu  Cu26  1  0.386931  0.886233  0.750539  1
  Cu  Cu27  1  0.886233  0.613069  0.750539  1
  Cu  Cu28  1  0.386931  0.113767  0.249461  1
  Cu  Cu29  1  0.113767  0.386931  0.750539  1
  Cu  Cu30  1  0.613069  0.886233  0.249461  1
  Bi  Bi31  1  0.000000  0.000000  0.000000  1
