# generated using pymatgen
data_Ti3Nb3B4IrRu9
_symmetry_space_group_name_H-M   'P 1'
_cell_length_a   9.38051104
_cell_length_b   9.36743470
_cell_length_c   3.00475500
_cell_angle_alpha   90.00000000
_cell_angle_beta   90.00000000
_cell_angle_gamma   89.71232648
_symmetry_Int_Tables_number   1
_chemical_formula_structural   Ti3Nb3B4IrRu9
_chemical_formula_sum   'Ti3 Nb3 B4 Ir1 Ru9'
_cell_volume   264.02847426
_cell_formula_units_Z   1
loop_
 _symmetry_equiv_pos_site_id
 _symmetry_equiv_pos_as_xyz
  1  'x, y, z'
loop_
 _atom_site_type_symbol
 _atom_site_label
 _atom_site_symmetry_multiplicity
 _atom_site_fract_x
 _atom_site_fract_y
 _atom_site_fract_z
 _atom_site_occupancy
  Ti  Ti0  1  0.827573  0.677254  0.000000  1
  Ti  Ti1  1  0.499474  0.495096  0.000000  1
  Ti  Ti2  1  0.999568  0.999914  0.000000  1
  Nb  Nb3  1  0.175440  0.324431  0.000000  1
  Nb  Nb4  1  0.319162  0.823925  0.000000  1
  Nb  Nb5  1  0.678453  0.177491  0.000000  1
  B  B6  1  0.626915  0.880078  0.000000  1
  B  B7  1  0.375230  0.122320  0.000000  1
  B  B8  1  0.121955  0.623765  0.000000  1
  B  B9  1  0.876399  0.378050  0.000000  1
  Ir  Ir10  1  0.572565  0.714362  0.500000  1
  Ru  Ru11  1  0.429540  0.282238  0.500000  1
  Ru  Ru12  1  0.069724  0.784539  0.500000  1
  Ru  Ru13  1  0.929624  0.216696  0.500000  1
  Ru  Ru14  1  0.284271  0.570686  0.500000  1
  Ru  Ru15  1  0.715671  0.431105  0.500000  1
  Ru  Ru16  1  0.215534  0.070574  0.500000  1
  Ru  Ru17  1  0.784932  0.926724  0.500000  1
  Ru  Ru18  1  0.499964  0.998156  0.500000  1
  Ru  Ru19  1  0.998006  0.502596  0.500000  1
