# generated using pymatgen
data_NaYb5(Si3Ru)8
_symmetry_space_group_name_H-M   'P 1'
_cell_length_a   10.15237436
_cell_length_b   10.15237522
_cell_length_c   8.16205131
_cell_angle_alpha   90.16196246
_cell_angle_beta   89.83803501
_cell_angle_gamma   132.59443301
_symmetry_Int_Tables_number   1
_chemical_formula_structural   NaYb5(Si3Ru)8
_chemical_formula_sum   'Na1 Yb5 Si24 Ru8'
_cell_volume   619.30763312
_cell_formula_units_Z   1
loop_
 _symmetry_equiv_pos_site_id
 _symmetry_equiv_pos_as_xyz
  1  'x, y, z'
loop_
 _atom_site_type_symbol
 _atom_site_label
 _atom_site_symmetry_multiplicity
 _atom_site_fract_x
 _atom_site_fract_y
 _atom_site_fract_z
 _atom_site_occupancy
  Na  Na0  1  0.998321  0.498321  0.250000  1
  Yb  Yb1  1  0.497780  0.997780  0.250000  1
  Yb  Yb2  1  0.003102  0.503102  0.750000  1
  Yb  Yb3  1  0.502817  0.002817  0.750000  1
  Yb  Yb4  1  0.499740  0.499797  0.499736  1
  Yb  Yb5  1  0.999797  0.999740  0.000264  1
  Si  Si6  1  0.387061  0.154661  0.008770  1
  Si  Si7  1  0.654661  0.887061  0.491230  1
  Si  Si8  1  0.114163  0.346769  0.507435  1
  Si  Si9  1  0.846769  0.614163  0.992565  1
  Si  Si10  1  0.613264  0.846810  0.991154  1
  Si  Si11  1  0.346810  0.113264  0.508846  1
  Si  Si12  1  0.885210  0.651312  0.490978  1
  Si  Si13  1  0.151312  0.385210  0.009022  1
  Si  Si14  1  0.607329  0.375472  0.231286  1
  Si  Si15  1  0.875472  0.107329  0.268714  1
  Si  Si16  1  0.893832  0.126261  0.730187  1
  Si  Si17  1  0.626261  0.393832  0.769813  1
  Si  Si18  1  0.393018  0.626175  0.769384  1
  Si  Si19  1  0.126175  0.893018  0.730616  1
  Si  Si20  1  0.708286  0.296890  0.002279  1
  Si  Si21  1  0.796890  0.208286  0.497721  1
  Si  Si22  1  0.291881  0.704307  0.001781  1
  Si  Si23  1  0.204307  0.791881  0.498219  1
  Si  Si24  1  0.166041  0.166991  0.332154  1
  Si  Si25  1  0.666991  0.666041  0.167846  1
  Si  Si26  1  0.330987  0.332640  0.832129  1
  Si  Si27  1  0.832640  0.830987  0.667871  1
  Si  Si28  1  0.373488  0.606861  0.231998  1
  Si  Si29  1  0.106861  0.873488  0.268002  1
  Ru  Ru30  1  0.624316  0.625203  0.875519  1
  Ru  Ru31  1  0.125203  0.124316  0.624481  1
  Ru  Ru32  1  0.874538  0.872773  0.375252  1
  Ru  Ru33  1  0.372773  0.374538  0.124748  1
  Ru  Ru34  1  0.333303  0.670614  0.501237  1
  Ru  Ru35  1  0.170614  0.833303  0.998763  1
  Ru  Ru36  1  0.668021  0.329967  0.501039  1
  Ru  Ru37  1  0.829967  0.168021  0.998961  1
