# generated using pymatgen
data_La2RuPtF14
_symmetry_space_group_name_H-M   'P 1'
_cell_length_a   5.76374700
_cell_length_b   9.33753432
_cell_length_c   12.47513332
_cell_angle_alpha   62.22554416
_cell_angle_beta   90.00000000
_cell_angle_gamma   90.00000000
_symmetry_Int_Tables_number   1
_chemical_formula_structural   La2RuPtF14
_chemical_formula_sum   'La4 Ru2 Pt2 F28'
_cell_volume   594.04855012
_cell_formula_units_Z   2
loop_
 _symmetry_equiv_pos_site_id
 _symmetry_equiv_pos_as_xyz
  1  'x, y, z'
loop_
 _atom_site_type_symbol
 _atom_site_label
 _atom_site_symmetry_multiplicity
 _atom_site_fract_x
 _atom_site_fract_y
 _atom_site_fract_z
 _atom_site_occupancy
  La  La0  1  0.758994  0.811527  0.763857  1
  La  La1  1  0.258994  0.188473  0.736143  1
  La  La2  1  0.240655  0.193684  0.230482  1
  La  La3  1  0.740655  0.806316  0.269518  1
  Ru  Ru4  1  0.754731  0.273993  0.955775  1
  Ru  Ru5  1  0.254731  0.726007  0.544225  1
  Pt  Pt6  1  0.243761  0.727142  0.042739  1
  Pt  Pt7  1  0.743761  0.272858  0.457261  1
  F  F8  1  0.431922  0.706148  0.919016  1
  F  F9  1  0.931922  0.293852  0.580984  1
  F  F10  1  0.563064  0.290299  0.080409  1
  F  F11  1  0.063064  0.709701  0.419591  1
  F  F12  1  0.456015  0.284074  0.539076  1
  F  F13  1  0.956015  0.715926  0.960924  1
  F  F14  1  0.540364  0.717404  0.459146  1
  F  F15  1  0.040364  0.282596  0.040854  1
  F  F16  1  0.762650  0.505078  0.864394  1
  F  F17  1  0.262650  0.494922  0.635606  1
  F  F18  1  0.236804  0.489663  0.138824  1
  F  F19  1  0.736804  0.510337  0.361176  1
  F  F20  1  0.757077  0.044260  0.045408  1
  F  F21  1  0.257077  0.955740  0.454592  1
  F  F22  1  0.241909  0.964931  0.951474  1
  F  F23  1  0.741909  0.035069  0.548526  1
  F  F24  1  0.974067  0.729059  0.633621  1
  F  F25  1  0.474067  0.270941  0.866379  1
  F  F26  1  0.027996  0.266815  0.371439  1
  F  F27  1  0.527996  0.733185  0.128561  1
  F  F28  1  0.058338  0.745393  0.168941  1
  F  F29  1  0.558338  0.254607  0.331059  1
  F  F30  1  0.945141  0.258080  0.829672  1
  F  F31  1  0.445141  0.741920  0.670328  1
  F  F32  1  0.413904  0.970085  0.231958  1
  F  F33  1  0.913904  0.029915  0.268042  1
  F  F34  1  0.592608  0.032434  0.768642  1
  F  F35  1  0.092608  0.967566  0.731358  1
