# generated using pymatgen
data_Zr6Zn17Cu6O
_symmetry_space_group_name_H-M   'P 1'
_cell_length_a   8.60581474
_cell_length_b   8.60558960
_cell_length_c   8.60713100
_cell_angle_alpha   60.00180513
_cell_angle_beta   60.02460063
_cell_angle_gamma   60.02534300
_symmetry_Int_Tables_number   1
_chemical_formula_structural   Zr6Zn17Cu6O
_chemical_formula_sum   'Zr6 Zn17 Cu6 O1'
_cell_volume   450.90576537
_cell_formula_units_Z   1
loop_
 _symmetry_equiv_pos_site_id
 _symmetry_equiv_pos_as_xyz
  1  'x, y, z'
loop_
 _atom_site_type_symbol
 _atom_site_label
 _atom_site_symmetry_multiplicity
 _atom_site_fract_x
 _atom_site_fract_y
 _atom_site_fract_z
 _atom_site_occupancy
  Zr  Zr0  1  0.691515  0.308466  0.308493  1
  Zr  Zr1  1  0.308607  0.691417  0.691411  1
  Zr  Zr2  1  0.308467  0.691461  0.308596  1
  Zr  Zr3  1  0.691454  0.308609  0.691451  1
  Zr  Zr4  1  0.308247  0.308301  0.691711  1
  Zr  Zr5  1  0.691708  0.691745  0.308347  1
  Zn  Zn6  1  0.122075  0.122094  0.122186  1
  Zn  Zn7  1  0.877971  0.877869  0.877777  1
  Zn  Zn8  1  0.122090  0.122026  0.633647  1
  Zn  Zn9  1  0.122222  0.633622  0.122009  1
  Zn  Zn10  1  0.877955  0.877918  0.366331  1
  Zn  Zn11  1  0.877815  0.366356  0.877920  1
  Zn  Zn12  1  0.633671  0.122189  0.122026  1
  Zn  Zn13  1  0.366355  0.877775  0.877894  1
  Zn  Zn14  1  0.332452  0.332561  0.332515  1
  Zn  Zn15  1  0.667478  0.667467  0.667466  1
  Zn  Zn16  1  0.332526  0.332524  0.002344  1
  Zn  Zn17  1  0.332546  0.002381  0.332508  1
  Zn  Zn18  1  0.667453  0.667513  0.997593  1
  Zn  Zn19  1  0.667467  0.997575  0.667548  1
  Zn  Zn20  1  0.002345  0.332564  0.332559  1
  Zn  Zn21  1  0.997711  0.667402  0.667468  1
  Zn  Zn22  1  0.000017  0.999986  0.999986  1
  Cu  Cu23  1  0.499948  0.000014  0.999987  1
  Cu  Cu24  1  0.999959  0.500038  0.500082  1
  Cu  Cu25  1  0.999954  0.499904  0.000169  1
  Cu  Cu26  1  0.500037  0.000165  0.499916  1
  Cu  Cu27  1  0.999968  0.000107  0.500003  1
  Cu  Cu28  1  0.499991  0.499947  0.000052  1
  O  O29  1  0.499994  0.500005  0.500005  1
