# generated using pymatgen
data_Nb9PdSe16
_symmetry_space_group_name_H-M   'P 1'
_cell_length_a   6.99435400
_cell_length_b   6.99435429
_cell_length_c   13.23362900
_cell_angle_alpha   90.00000000
_cell_angle_beta   90.00000000
_cell_angle_gamma   120.00000811
_symmetry_Int_Tables_number   1
_chemical_formula_structural   Nb9PdSe16
_chemical_formula_sum   'Nb9 Pd1 Se16'
_cell_volume   560.66673216
_cell_formula_units_Z   1
loop_
 _symmetry_equiv_pos_site_id
 _symmetry_equiv_pos_as_xyz
  1  'x, y, z'
loop_
 _atom_site_type_symbol
 _atom_site_label
 _atom_site_symmetry_multiplicity
 _atom_site_fract_x
 _atom_site_fract_y
 _atom_site_fract_z
 _atom_site_occupancy
  Nb  Nb0  1  0.000000  0.000000  0.250375  1
  Nb  Nb1  1  0.000000  0.000000  0.749625  1
  Nb  Nb2  1  0.507745  0.015489  0.249422  1
  Nb  Nb3  1  0.492255  0.984511  0.750578  1
  Nb  Nb4  1  0.984511  0.492255  0.249422  1
  Nb  Nb5  1  0.015489  0.507745  0.750578  1
  Nb  Nb6  1  0.507745  0.492255  0.249422  1
  Nb  Nb7  1  0.492255  0.507745  0.750578  1
  Nb  Nb8  1  0.000000  0.000000  0.500000  1
  Pd  Pd9  1  0.000000  0.000000  0.000000  1
  Se  Se10  1  0.333333  0.666667  0.618676  1
  Se  Se11  1  0.666667  0.333333  0.381324  1
  Se  Se12  1  0.666667  0.333333  0.118561  1
  Se  Se13  1  0.333333  0.666667  0.881439  1
  Se  Se14  1  0.169102  0.338204  0.124848  1
  Se  Se15  1  0.830898  0.661796  0.875152  1
  Se  Se16  1  0.661796  0.830898  0.124848  1
  Se  Se17  1  0.831734  0.663469  0.623863  1
  Se  Se18  1  0.338204  0.169102  0.875152  1
  Se  Se19  1  0.168266  0.336531  0.376137  1
  Se  Se20  1  0.169102  0.830898  0.124848  1
  Se  Se21  1  0.336531  0.168266  0.623863  1
  Se  Se22  1  0.830898  0.169102  0.875152  1
  Se  Se23  1  0.663469  0.831734  0.376137  1
  Se  Se24  1  0.831734  0.168266  0.623863  1
  Se  Se25  1  0.168266  0.831734  0.376137  1
