# generated using pymatgen
data_TbY2AlAu5
_symmetry_space_group_name_H-M   'P 1'
_cell_length_a   8.50726401
_cell_length_b   8.50726474
_cell_length_c   13.50155300
_cell_angle_alpha   90.00000000
_cell_angle_beta   90.00000000
_cell_angle_gamma   128.50289084
_symmetry_Int_Tables_number   1
_chemical_formula_structural   TbY2AlAu5
_chemical_formula_sum   'Tb4 Y8 Al4 Au20'
_cell_volume   764.69900252
_cell_formula_units_Z   4
loop_
 _symmetry_equiv_pos_site_id
 _symmetry_equiv_pos_as_xyz
  1  'x, y, z'
loop_
 _atom_site_type_symbol
 _atom_site_label
 _atom_site_symmetry_multiplicity
 _atom_site_fract_x
 _atom_site_fract_y
 _atom_site_fract_z
 _atom_site_occupancy
  Tb  Tb0  1  0.927480  0.072520  0.250000  1
  Tb  Tb1  1  0.072520  0.927480  0.750000  1
  Tb  Tb2  1  0.320512  0.679488  0.250000  1
  Tb  Tb3  1  0.679488  0.320512  0.750000  1
  Y  Y4  1  0.630777  0.369223  0.464613  1
  Y  Y5  1  0.369223  0.630777  0.535387  1
  Y  Y6  1  0.630777  0.369223  0.035387  1
  Y  Y7  1  0.369223  0.630777  0.964613  1
  Y  Y8  1  0.881571  0.118429  0.951344  1
  Y  Y9  1  0.118429  0.881571  0.048656  1
  Y  Y10  1  0.881571  0.118429  0.548656  1
  Y  Y11  1  0.118429  0.881571  0.451344  1
  Al  Al12  1  0.720213  0.279787  0.250000  1
  Al  Al13  1  0.279787  0.720213  0.750000  1
  Al  Al14  1  0.532723  0.467277  0.250000  1
  Al  Al15  1  0.467277  0.532723  0.750000  1
  Au  Au16  1  0.323475  0.069583  0.250000  1
  Au  Au17  1  0.069583  0.323475  0.750000  1
  Au  Au18  1  0.676525  0.930417  0.750000  1
  Au  Au19  1  0.930417  0.676525  0.250000  1
  Au  Au20  1  0.570576  0.004162  0.396581  1
  Au  Au21  1  0.004162  0.570576  0.603419  1
  Au  Au22  1  0.570576  0.004162  0.103419  1
  Au  Au23  1  0.004162  0.570576  0.896581  1
  Au  Au24  1  0.429424  0.995838  0.603419  1
  Au  Au25  1  0.995838  0.429424  0.396581  1
  Au  Au26  1  0.429424  0.995838  0.896581  1
  Au  Au27  1  0.995838  0.429424  0.103419  1
  Au  Au28  1  0.685884  0.741114  0.394701  1
  Au  Au29  1  0.741114  0.685884  0.605299  1
  Au  Au30  1  0.685884  0.741114  0.105299  1
  Au  Au31  1  0.741114  0.685884  0.894701  1
  Au  Au32  1  0.314116  0.258886  0.605299  1
  Au  Au33  1  0.258886  0.314116  0.394701  1
  Au  Au34  1  0.314116  0.258886  0.894701  1
  Au  Au35  1  0.258886  0.314116  0.105299  1
