# generated using pymatgen
data_Dy19Lu(Sn3Pb5)2
_symmetry_space_group_name_H-M   'P 1'
_cell_length_a   8.14916605
_cell_length_b   8.22706109
_cell_length_c   15.60116800
_cell_angle_alpha   90.00000000
_cell_angle_beta   90.00000000
_cell_angle_gamma   89.96559442
_symmetry_Int_Tables_number   1
_chemical_formula_structural   Dy19Lu(Sn3Pb5)2
_chemical_formula_sum   'Dy19 Lu1 Sn6 Pb10'
_cell_volume   1045.95963444
_cell_formula_units_Z   1
loop_
 _symmetry_equiv_pos_site_id
 _symmetry_equiv_pos_as_xyz
  1  'x, y, z'
loop_
 _atom_site_type_symbol
 _atom_site_label
 _atom_site_symmetry_multiplicity
 _atom_site_fract_x
 _atom_site_fract_y
 _atom_site_fract_z
 _atom_site_occupancy
  Dy  Dy0  1  0.376804  0.839044  0.877573  1
  Dy  Dy1  1  0.877869  0.660223  0.622441  1
  Dy  Dy2  1  0.622426  0.159451  0.376807  1
  Dy  Dy3  1  0.122504  0.340612  0.122822  1
  Dy  Dy4  1  0.622426  0.159451  0.123193  1
  Dy  Dy5  1  0.122504  0.340612  0.377178  1
  Dy  Dy6  1  0.376804  0.839044  0.622427  1
  Dy  Dy7  1  0.877869  0.660223  0.877559  1
  Dy  Dy8  1  0.534928  0.325704  0.899424  1
  Dy  Dy9  1  0.035497  0.175129  0.600551  1
  Dy  Dy10  1  0.464688  0.676221  0.397210  1
  Dy  Dy11  1  0.964624  0.823787  0.103112  1
  Dy  Dy12  1  0.464688  0.676221  0.102790  1
  Dy  Dy13  1  0.964624  0.823787  0.396888  1
  Dy  Dy14  1  0.534928  0.325704  0.600576  1
  Dy  Dy15  1  0.035497  0.175129  0.899449  1
  Dy  Dy16  1  0.709976  0.992810  0.750000  1
  Dy  Dy17  1  0.790232  0.496453  0.250000  1
  Dy  Dy18  1  0.290170  0.003698  0.250000  1
  Lu  Lu19  1  0.210585  0.508091  0.750000  1
  Sn  Sn20  1  0.572258  0.623198  0.750000  1
  Sn  Sn21  1  0.074284  0.874922  0.750000  1
  Sn  Sn22  1  0.424855  0.377713  0.250000  1
  Sn  Sn23  1  0.925106  0.122702  0.250000  1
  Sn  Sn24  1  0.656687  0.850551  0.250000  1
  Sn  Sn25  1  0.157091  0.648915  0.250000  1
  Pb  Pb26  1  0.282323  0.033527  0.042210  1
  Pb  Pb27  1  0.782141  0.466215  0.457825  1
  Pb  Pb28  1  0.717796  0.966535  0.542041  1
  Pb  Pb29  1  0.217629  0.532942  0.957106  1
  Pb  Pb30  1  0.717796  0.966535  0.957959  1
  Pb  Pb31  1  0.217629  0.532942  0.542894  1
  Pb  Pb32  1  0.282323  0.033527  0.457790  1
  Pb  Pb33  1  0.782141  0.466215  0.042175  1
  Pb  Pb34  1  0.344596  0.154185  0.750000  1
  Pb  Pb35  1  0.845698  0.347974  0.750000  1
