# generated using pymatgen
data_Dy6Y2Re3B24Ir
_symmetry_space_group_name_H-M   'P 1'
_cell_length_a   3.68055000
_cell_length_b   9.17937415
_cell_length_c   11.56336002
_cell_angle_alpha   90.13078916
_cell_angle_beta   90.00000000
_cell_angle_gamma   90.00000000
_symmetry_Int_Tables_number   1
_chemical_formula_structural   Dy6Y2Re3B24Ir
_chemical_formula_sum   'Dy6 Y2 Re3 B24 Ir1'
_cell_volume   390.66878324
_cell_formula_units_Z   1
loop_
 _symmetry_equiv_pos_site_id
 _symmetry_equiv_pos_as_xyz
  1  'x, y, z'
loop_
 _atom_site_type_symbol
 _atom_site_label
 _atom_site_symmetry_multiplicity
 _atom_site_fract_x
 _atom_site_fract_y
 _atom_site_fract_z
 _atom_site_occupancy
  Dy  Dy0  1  0.000000  0.827360  0.081386  1
  Dy  Dy1  1  0.000000  0.177022  0.912513  1
  Dy  Dy2  1  0.000000  0.944014  0.370319  1
  Dy  Dy3  1  0.000000  0.055858  0.628906  1
  Dy  Dy4  1  0.000000  0.441034  0.128437  1
  Dy  Dy5  1  0.000000  0.556743  0.871672  1
  Y  Y6  1  0.000000  0.318257  0.415528  1
  Y  Y7  1  0.000000  0.678496  0.591359  1
  Re  Re8  1  0.000000  0.362644  0.677497  1
  Re  Re9  1  0.000000  0.138240  0.179754  1
  Re  Re10  1  0.000000  0.861922  0.821214  1
  B  B11  1  0.500000  0.553820  0.433528  1
  B  B12  1  0.500000  0.446726  0.566888  1
  B  B13  1  0.500000  0.053375  0.066688  1
  B  B14  1  0.500000  0.947120  0.932589  1
  B  B15  1  0.500000  0.748811  0.419931  1
  B  B16  1  0.500000  0.251002  0.581211  1
  B  B17  1  0.500000  0.248556  0.081286  1
  B  B18  1  0.500000  0.752164  0.918870  1
  B  B19  1  0.500000  0.790904  0.265435  1
  B  B20  1  0.500000  0.208710  0.733843  1
  B  B21  1  0.500000  0.291302  0.234668  1
  B  B22  1  0.500000  0.708438  0.766309  1
  B  B23  1  0.500000  0.632012  0.184613  1
  B  B24  1  0.500000  0.369102  0.813804  1
  B  B25  1  0.500000  0.131018  0.314479  1
  B  B26  1  0.500000  0.868265  0.685898  1
  B  B27  1  0.500000  0.983369  0.211931  1
  B  B28  1  0.500000  0.017026  0.787025  1
  B  B29  1  0.500000  0.483300  0.287807  1
  B  B30  1  0.500000  0.517687  0.712488  1
  B  B31  1  0.500000  0.604744  0.029700  1
  B  B32  1  0.500000  0.396274  0.971609  1
  B  B33  1  0.500000  0.102879  0.470793  1
  B  B34  1  0.500000  0.894179  0.528611  1
  Ir  Ir35  1  0.000000  0.637624  0.321415  1
