# generated using pymatgen
data_Tm2LuGa2Co9B4
_symmetry_space_group_name_H-M   'P 1'
_cell_length_a   5.10829700
_cell_length_b   5.10839240
_cell_length_c   9.53637000
_cell_angle_alpha   89.99984136
_cell_angle_beta   90.00031729
_cell_angle_gamma   119.99936279
_symmetry_Int_Tables_number   1
_chemical_formula_structural   Tm2LuGa2Co9B4
_chemical_formula_sum   'Tm2 Lu1 Ga2 Co9 B4'
_cell_volume   215.51470239
_cell_formula_units_Z   1
loop_
 _symmetry_equiv_pos_site_id
 _symmetry_equiv_pos_as_xyz
  1  'x, y, z'
loop_
 _atom_site_type_symbol
 _atom_site_label
 _atom_site_symmetry_multiplicity
 _atom_site_fract_x
 _atom_site_fract_y
 _atom_site_fract_z
 _atom_site_occupancy
  Tm  Tm0  1  0.999995  0.000000  0.999920  1
  Tm  Tm1  1  0.999989  0.000000  0.340111  1
  Lu  Lu2  1  0.999978  0.000000  0.660177  1
  Ga  Ga3  1  0.333368  0.666754  0.000004  1
  Ga  Ga4  1  0.666613  0.333246  0.000004  1
  Co  Co5  1  0.500001  0.000000  0.500242  1
  Co  Co6  1  0.499996  0.500002  0.500255  1
  Co  Co7  1  0.999994  0.499998  0.500255  1
  Co  Co8  1  0.500001  0.000000  0.207033  1
  Co  Co9  1  0.499992  0.500004  0.207050  1
  Co  Co10  1  0.999988  0.499996  0.207050  1
  Co  Co11  1  0.499995  0.000000  0.792629  1
  Co  Co12  1  0.500002  0.499999  0.792617  1
  Co  Co13  1  0.000002  0.500001  0.792617  1
  B  B14  1  0.333348  0.666710  0.349155  1
  B  B15  1  0.666638  0.333290  0.349155  1
  B  B16  1  0.666653  0.333306  0.650864  1
  B  B17  1  0.333346  0.666694  0.650864  1
