# generated using pymatgen
data_Tb4Nd16Si15Au
_symmetry_space_group_name_H-M   'P 1'
_cell_length_a   7.70075076
_cell_length_b   7.93855836
_cell_length_c   15.18673500
_cell_angle_alpha   90.26906579
_cell_angle_beta   90.70850430
_cell_angle_gamma   90.25359365
_symmetry_Int_Tables_number   1
_chemical_formula_structural   Tb4Nd16Si15Au
_chemical_formula_sum   'Tb4 Nd16 Si15 Au1'
_cell_volume   928.31798185
_cell_formula_units_Z   1
loop_
 _symmetry_equiv_pos_site_id
 _symmetry_equiv_pos_as_xyz
  1  'x, y, z'
loop_
 _atom_site_type_symbol
 _atom_site_label
 _atom_site_symmetry_multiplicity
 _atom_site_fract_x
 _atom_site_fract_y
 _atom_site_fract_z
 _atom_site_occupancy
  Tb  Tb0  1  0.859644  0.509144  0.749089  1
  Tb  Tb1  1  0.358332  0.986139  0.750173  1
  Tb  Tb2  1  0.139675  0.489235  0.249699  1
  Tb  Tb3  1  0.645203  0.013561  0.249982  1
  Nd  Nd4  1  0.684677  0.173254  0.621681  1
  Nd  Nd5  1  0.191285  0.321831  0.878495  1
  Nd  Nd6  1  0.312586  0.820040  0.121515  1
  Nd  Nd7  1  0.814861  0.677956  0.378056  1
  Nd  Nd8  1  0.310729  0.824864  0.378892  1
  Nd  Nd9  1  0.808819  0.678582  0.121511  1
  Nd  Nd10  1  0.689417  0.179408  0.878237  1
  Nd  Nd11  1  0.185340  0.319966  0.622974  1
  Nd  Nd12  1  0.532246  0.681495  0.601927  1
  Nd  Nd13  1  0.038081  0.812895  0.899691  1
  Nd  Nd14  1  0.461199  0.314685  0.101379  1
  Nd  Nd15  1  0.970145  0.185453  0.396759  1
  Nd  Nd16  1  0.462019  0.320583  0.396842  1
  Nd  Nd17  1  0.962209  0.187371  0.100871  1
  Nd  Nd18  1  0.539748  0.686559  0.898751  1
  Nd  Nd19  1  0.035179  0.812713  0.603234  1
  Si  Si20  1  0.135053  0.525054  0.042261  1
  Si  Si21  1  0.364102  0.026049  0.958838  1
  Si  Si22  1  0.861151  0.473046  0.541808  1
  Si  Si23  1  0.349125  0.024063  0.545178  1
  Si  Si24  1  0.866333  0.474984  0.957832  1
  Si  Si25  1  0.635081  0.975903  0.041446  1
  Si  Si26  1  0.137283  0.528269  0.460675  1
  Si  Si27  1  0.486276  0.400566  0.750587  1
  Si  Si28  1  0.984103  0.097493  0.751729  1
  Si  Si29  1  0.514124  0.601442  0.248634  1
  Si  Si30  1  0.017703  0.899793  0.247217  1
  Si  Si31  1  0.745894  0.872911  0.751417  1
  Si  Si32  1  0.246420  0.624833  0.751496  1
  Si  Si33  1  0.256866  0.125019  0.247716  1
  Si  Si34  1  0.754425  0.375735  0.248852  1
  Au  Au35  1  0.644663  0.979112  0.454559  1
