# generated using pymatgen
data_La8Y7Tm5Pt16
_symmetry_space_group_name_H-M   'P 1'
_cell_length_a   7.72871003
_cell_length_b   7.84099693
_cell_length_c   14.93387800
_cell_angle_alpha   90.02163664
_cell_angle_beta   89.99493667
_cell_angle_gamma   90.03384889
_symmetry_Int_Tables_number   1
_chemical_formula_structural   La8Y7Tm5Pt16
_chemical_formula_sum   'La8 Y7 Tm5 Pt16'
_cell_volume   905.00460246
_cell_formula_units_Z   1
loop_
 _symmetry_equiv_pos_site_id
 _symmetry_equiv_pos_as_xyz
  1  'x, y, z'
loop_
 _atom_site_type_symbol
 _atom_site_label
 _atom_site_symmetry_multiplicity
 _atom_site_fract_x
 _atom_site_fract_y
 _atom_site_fract_z
 _atom_site_occupancy
  La  La0  1  0.493710  0.324476  0.901032  1
  La  La1  1  0.992724  0.176957  0.599455  1
  La  La2  1  0.507057  0.676876  0.400870  1
  La  La3  1  0.006982  0.822186  0.097766  1
  La  La4  1  0.507312  0.676969  0.098682  1
  La  La5  1  0.006925  0.822796  0.401052  1
  La  La6  1  0.492519  0.322528  0.599361  1
  La  La7  1  0.992825  0.178002  0.901428  1
  Y  Y8  1  0.337978  0.832720  0.877506  1
  Y  Y9  1  0.837915  0.667871  0.622607  1
  Y  Y10  1  0.661776  0.168157  0.377198  1
  Y  Y11  1  0.162088  0.331924  0.122902  1
  Y  Y12  1  0.661878  0.168024  0.122376  1
  Y  Y13  1  0.161658  0.331737  0.377143  1
  Y  Y14  1  0.338815  0.831786  0.622958  1
  Tm  Tm15  1  0.838542  0.667592  0.876317  1
  Tm  Tm16  1  0.172037  0.497003  0.750451  1
  Tm  Tm17  1  0.673312  0.002691  0.750849  1
  Tm  Tm18  1  0.827409  0.503904  0.249774  1
  Tm  Tm19  1  0.327030  0.995521  0.249846  1
  Pt  Pt20  1  0.326791  0.031843  0.046829  1
  Pt  Pt21  1  0.826235  0.467988  0.453346  1
  Pt  Pt22  1  0.673879  0.968066  0.546621  1
  Pt  Pt23  1  0.170065  0.533511  0.952553  1
  Pt  Pt24  1  0.676565  0.964817  0.952381  1
  Pt  Pt25  1  0.173792  0.531703  0.546749  1
  Pt  Pt26  1  0.326020  0.031872  0.453630  1
  Pt  Pt27  1  0.825858  0.469768  0.044622  1
  Pt  Pt28  1  0.542577  0.628125  0.751359  1
  Pt  Pt29  1  0.039285  0.870920  0.751236  1
  Pt  Pt30  1  0.459837  0.373556  0.249900  1
  Pt  Pt31  1  0.959286  0.126279  0.249885  1
  Pt  Pt32  1  0.305332  0.139032  0.750347  1
  Pt  Pt33  1  0.805836  0.363070  0.751260  1
  Pt  Pt34  1  0.694210  0.860915  0.249774  1
  Pt  Pt35  1  0.193938  0.638815  0.249938  1
