# generated using pymatgen
data_LuZr8(In2Co)7
_symmetry_space_group_name_H-M   'P 1'
_cell_length_a   9.46169368
_cell_length_b   9.46169422
_cell_length_c   9.46169400
_cell_angle_alpha   60.00000078
_cell_angle_beta   59.99999889
_cell_angle_gamma   59.99999913
_symmetry_Int_Tables_number   1
_chemical_formula_structural   LuZr8(In2Co)7
_chemical_formula_sum   'Lu1 Zr8 In14 Co7'
_cell_volume   598.95154467
_cell_formula_units_Z   1
loop_
 _symmetry_equiv_pos_site_id
 _symmetry_equiv_pos_as_xyz
  1  'x, y, z'
loop_
 _atom_site_type_symbol
 _atom_site_label
 _atom_site_symmetry_multiplicity
 _atom_site_fract_x
 _atom_site_fract_y
 _atom_site_fract_z
 _atom_site_occupancy
  Lu  Lu0  1  0.500000  0.500000  0.500000  1
  Zr  Zr1  1  0.120953  0.637143  0.120953  1
  Zr  Zr2  1  0.362857  0.879047  0.879047  1
  Zr  Zr3  1  0.879047  0.879047  0.879047  1
  Zr  Zr4  1  0.637143  0.120953  0.120953  1
  Zr  Zr5  1  0.879047  0.879047  0.362857  1
  Zr  Zr6  1  0.120953  0.120953  0.120953  1
  Zr  Zr7  1  0.879047  0.362857  0.879047  1
  Zr  Zr8  1  0.120953  0.120953  0.637143  1
  In  In9  1  0.500000  0.844337  0.155663  1
  In  In10  1  0.500000  0.844337  0.500000  1
  In  In11  1  0.500000  0.155663  0.500000  1
  In  In12  1  0.500000  0.500000  0.844337  1
  In  In13  1  0.155663  0.500000  0.500000  1
  In  In14  1  0.844337  0.155663  0.500000  1
  In  In15  1  0.155663  0.844337  0.500000  1
  In  In16  1  0.500000  0.155663  0.844337  1
  In  In17  1  0.155663  0.500000  0.844337  1
  In  In18  1  0.500000  0.500000  0.155663  1
  In  In19  1  0.844337  0.500000  0.500000  1
  In  In20  1  0.844337  0.500000  0.155663  1
  In  In21  1  0.250000  0.250000  0.250000  1
  In  In22  1  0.750000  0.750000  0.750000  1
  Co  Co23  1  0.779627  0.779627  0.220373  1
  Co  Co24  1  0.000000  0.000000  0.000000  1
  Co  Co25  1  0.220373  0.779627  0.220373  1
  Co  Co26  1  0.220373  0.779627  0.779627  1
  Co  Co27  1  0.220373  0.220373  0.779627  1
  Co  Co28  1  0.779627  0.220373  0.779627  1
  Co  Co29  1  0.779627  0.220373  0.220373  1
