# generated using pymatgen
data_Ta4V4GaP3
_symmetry_space_group_name_H-M   'P 1'
_cell_length_a   3.40617100
_cell_length_b   6.48828764
_cell_length_c   7.80421106
_cell_angle_alpha   89.83569441
_cell_angle_beta   90.00000000
_cell_angle_gamma   90.00000000
_symmetry_Int_Tables_number   1
_chemical_formula_structural   Ta4V4GaP3
_chemical_formula_sum   'Ta4 V4 Ga1 P3'
_cell_volume   172.47405027
_cell_formula_units_Z   1
loop_
 _symmetry_equiv_pos_site_id
 _symmetry_equiv_pos_as_xyz
  1  'x, y, z'
loop_
 _atom_site_type_symbol
 _atom_site_label
 _atom_site_symmetry_multiplicity
 _atom_site_fract_x
 _atom_site_fract_y
 _atom_site_fract_z
 _atom_site_occupancy
  Ta  Ta0  1  0.250000  0.539271  0.171182  1
  Ta  Ta1  1  0.750000  0.445174  0.831964  1
  Ta  Ta2  1  0.750000  0.971077  0.658133  1
  Ta  Ta3  1  0.250000  0.035348  0.330592  1
  V  V4  1  0.250000  0.628911  0.551358  1
  V  V5  1  0.750000  0.365263  0.440946  1
  V  V6  1  0.750000  0.873724  0.068395  1
  V  V7  1  0.250000  0.140668  0.944612  1
  Ga  Ga8  1  0.250000  0.756941  0.858637  1
  P  P9  1  0.750000  0.245144  0.142422  1
  P  P10  1  0.750000  0.739811  0.361757  1
  P  P11  1  0.250000  0.258670  0.640002  1
