# generated using pymatgen
data_Eu3Ge2(B3O8)2
_symmetry_space_group_name_H-M   'P 1'
_cell_length_a   5.05691202
_cell_length_b   7.43282746
_cell_length_c   8.56014462
_cell_angle_alpha   103.29130950
_cell_angle_beta   102.80633880
_cell_angle_gamma   89.68223834
_symmetry_Int_Tables_number   1
_chemical_formula_structural   Eu3Ge2(B3O8)2
_chemical_formula_sum   'Eu3 Ge2 B6 O16'
_cell_volume   304.99391745
_cell_formula_units_Z   1
loop_
 _symmetry_equiv_pos_site_id
 _symmetry_equiv_pos_as_xyz
  1  'x, y, z'
loop_
 _atom_site_type_symbol
 _atom_site_label
 _atom_site_symmetry_multiplicity
 _atom_site_fract_x
 _atom_site_fract_y
 _atom_site_fract_z
 _atom_site_occupancy
  Eu  Eu0  1  0.090845  0.091247  0.741218  1
  Eu  Eu1  1  0.909155  0.908753  0.258782  1
  Eu  Eu2  1  0.000000  0.500000  0.500000  1
  Ge  Ge3  1  0.698700  0.313958  0.053523  1
  Ge  Ge4  1  0.301300  0.686042  0.946477  1
  B  B5  1  0.458754  0.809272  0.539250  1
  B  B6  1  0.541246  0.190728  0.460750  1
  B  B7  1  0.458758  0.589637  0.258445  1
  B  B8  1  0.541242  0.410363  0.741555  1
  B  B9  1  0.268133  0.243793  0.195337  1
  B  B10  1  0.731867  0.756207  0.804663  1
  O  O11  1  0.624795  0.885093  0.696337  1
  O  O12  1  0.375205  0.114907  0.303663  1
  O  O13  1  0.185912  0.822763  0.511990  1
  O  O14  1  0.814088  0.177237  0.488010  1
  O  O15  1  0.587868  0.724189  0.414826  1
  O  O16  1  0.412132  0.275811  0.585174  1
  O  O17  1  0.705350  0.535818  0.190265  1
  O  O18  1  0.294650  0.464182  0.809735  1
  O  O19  1  0.266632  0.685797  0.147435  1
  O  O20  1  0.733368  0.314203  0.852565  1
  O  O21  1  0.323822  0.435624  0.292853  1
  O  O22  1  0.676178  0.564376  0.707147  1
  O  O23  1  0.969953  0.191034  0.141614  1
  O  O24  1  0.030047  0.808966  0.858386  1
  O  O25  1  0.382416  0.204239  0.045103  1
  O  O26  1  0.617584  0.795761  0.954897  1
