# generated using pymatgen
data_Eu13Ho7Si15Ag
_symmetry_space_group_name_H-M   'P 1'
_cell_length_a   7.66547928
_cell_length_b   7.91062880
_cell_length_c   15.02095200
_cell_angle_alpha   90.16534082
_cell_angle_beta   90.53267935
_cell_angle_gamma   90.23047204
_symmetry_Int_Tables_number   1
_chemical_formula_structural   Eu13Ho7Si15Ag
_chemical_formula_sum   'Eu13 Ho7 Si15 Ag1'
_cell_volume   910.80129581
_cell_formula_units_Z   1
loop_
 _symmetry_equiv_pos_site_id
 _symmetry_equiv_pos_as_xyz
  1  'x, y, z'
loop_
 _atom_site_type_symbol
 _atom_site_label
 _atom_site_symmetry_multiplicity
 _atom_site_fract_x
 _atom_site_fract_y
 _atom_site_fract_z
 _atom_site_occupancy
  Eu  Eu0  1  0.177357  0.318474  0.621364  1
  Eu  Eu1  1  0.515796  0.671704  0.597846  1
  Eu  Eu2  1  0.028188  0.819674  0.904110  1
  Eu  Eu3  1  0.473884  0.320941  0.095638  1
  Eu  Eu4  1  0.990123  0.177598  0.402612  1
  Eu  Eu5  1  0.477124  0.328506  0.404699  1
  Eu  Eu6  1  0.973019  0.179048  0.095314  1
  Eu  Eu7  1  0.528532  0.680406  0.905243  1
  Eu  Eu8  1  0.023905  0.820391  0.595383  1
  Eu  Eu9  1  0.853077  0.523471  0.748986  1
  Eu  Eu10  1  0.344307  0.978589  0.747967  1
  Eu  Eu11  1  0.155173  0.474302  0.247963  1
  Eu  Eu12  1  0.653721  0.024388  0.249591  1
  Ho  Ho13  1  0.674474  0.182561  0.626541  1
  Ho  Ho14  1  0.181766  0.319676  0.880564  1
  Ho  Ho15  1  0.319110  0.820915  0.120244  1
  Ho  Ho16  1  0.831623  0.675832  0.373340  1
  Ho  Ho17  1  0.308629  0.820485  0.377813  1
  Ho  Ho18  1  0.818843  0.679759  0.120122  1
  Ho  Ho19  1  0.680703  0.180391  0.880029  1
  Si  Si20  1  0.139396  0.532553  0.038726  1
  Si  Si21  1  0.360125  0.031226  0.961825  1
  Si  Si22  1  0.846913  0.466822  0.532367  1
  Si  Si23  1  0.351859  0.028712  0.536560  1
  Si  Si24  1  0.860266  0.469023  0.961641  1
  Si  Si25  1  0.639626  0.969392  0.038669  1
  Si  Si26  1  0.134378  0.535650  0.459089  1
  Si  Si27  1  0.474631  0.385883  0.756329  1
  Si  Si28  1  0.964844  0.114944  0.755365  1
  Si  Si29  1  0.531102  0.622603  0.251968  1
  Si  Si30  1  0.031034  0.881929  0.245297  1
  Si  Si31  1  0.739909  0.898499  0.750419  1
  Si  Si32  1  0.249131  0.602589  0.756168  1
  Si  Si33  1  0.258577  0.098281  0.248079  1
  Si  Si34  1  0.754712  0.401648  0.247549  1
  Ag  Ag35  1  0.654145  0.963140  0.464580  1
