# generated using pymatgen
data_TbHoEr2(ReB6)2
_symmetry_space_group_name_H-M   'P 1'
_cell_length_a   3.66875900
_cell_length_b   9.14762000
_cell_length_c   11.53435600
_cell_angle_alpha   90.00088680
_cell_angle_beta   90.00000000
_cell_angle_gamma   90.00000000
_symmetry_Int_Tables_number   1
_chemical_formula_structural   TbHoEr2(ReB6)2
_chemical_formula_sum   'Tb2 Ho2 Er4 Re4 B24'
_cell_volume   387.09775337
_cell_formula_units_Z   2
loop_
 _symmetry_equiv_pos_site_id
 _symmetry_equiv_pos_as_xyz
  1  'x, y, z'
loop_
 _atom_site_type_symbol
 _atom_site_label
 _atom_site_symmetry_multiplicity
 _atom_site_fract_x
 _atom_site_fract_y
 _atom_site_fract_z
 _atom_site_occupancy
  Tb  Tb0  1  0.000000  0.323334  0.413809  1
  Tb  Tb1  1  0.000000  0.676666  0.586191  1
  Ho  Ho2  1  0.000000  0.823489  0.086104  1
  Ho  Ho3  1  0.000000  0.176511  0.913896  1
  Er  Er4  1  0.000000  0.943290  0.370018  1
  Er  Er5  1  0.000000  0.056710  0.629982  1
  Er  Er6  1  0.000000  0.443340  0.129722  1
  Er  Er7  1  0.000000  0.556660  0.870278  1
  Re  Re8  1  0.000000  0.639184  0.320302  1
  Re  Re9  1  0.000000  0.360816  0.679698  1
  Re  Re10  1  0.000000  0.138725  0.179138  1
  Re  Re11  1  0.000000  0.861275  0.820862  1
  B  B12  1  0.500000  0.553615  0.432666  1
  B  B13  1  0.500000  0.446385  0.567334  1
  B  B14  1  0.500000  0.053366  0.066992  1
  B  B15  1  0.500000  0.946634  0.933008  1
  B  B16  1  0.500000  0.749820  0.418463  1
  B  B17  1  0.500000  0.250180  0.581537  1
  B  B18  1  0.500000  0.249694  0.081142  1
  B  B19  1  0.500000  0.750306  0.918858  1
  B  B20  1  0.500000  0.792613  0.265463  1
  B  B21  1  0.500000  0.207387  0.734537  1
  B  B22  1  0.500000  0.292448  0.234178  1
  B  B23  1  0.500000  0.707552  0.765822  1
  B  B24  1  0.500000  0.630923  0.185369  1
  B  B25  1  0.500000  0.369077  0.814631  1
  B  B26  1  0.500000  0.130657  0.314313  1
  B  B27  1  0.500000  0.869343  0.685687  1
  B  B28  1  0.500000  0.982127  0.212028  1
  B  B29  1  0.500000  0.017873  0.787972  1
  B  B30  1  0.500000  0.482449  0.287668  1
  B  B31  1  0.500000  0.517551  0.712332  1
  B  B32  1  0.500000  0.599746  0.027887  1
  B  B33  1  0.500000  0.400254  0.972113  1
  B  B34  1  0.500000  0.099289  0.472235  1
  B  B35  1  0.500000  0.900711  0.527765  1
