# generated using pymatgen
data_Tb3Er7In8Pd3Ru
_symmetry_space_group_name_H-M   'P 1'
_cell_length_a   3.58500700
_cell_length_b   8.15740137
_cell_length_c   18.28421335
_cell_angle_alpha   89.91901175
_cell_angle_beta   90.00000000
_cell_angle_gamma   90.00000000
_symmetry_Int_Tables_number   1
_chemical_formula_structural   Tb3Er7In8Pd3Ru
_chemical_formula_sum   'Tb3 Er7 In8 Pd3 Ru1'
_cell_volume   534.70923639
_cell_formula_units_Z   1
loop_
 _symmetry_equiv_pos_site_id
 _symmetry_equiv_pos_as_xyz
  1  'x, y, z'
loop_
 _atom_site_type_symbol
 _atom_site_label
 _atom_site_symmetry_multiplicity
 _atom_site_fract_x
 _atom_site_fract_y
 _atom_site_fract_z
 _atom_site_occupancy
  Tb  Tb0  1  0.000000  0.500334  0.499805  1
  Tb  Tb1  1  0.000000  0.000538  0.000559  1
  Tb  Tb2  1  0.000000  0.729762  0.278057  1
  Er  Er3  1  0.000000  0.259636  0.719115  1
  Er  Er4  1  0.000000  0.759650  0.780261  1
  Er  Er5  1  0.000000  0.250547  0.220123  1
  Er  Er6  1  0.000000  0.616675  0.087004  1
  Er  Er7  1  0.000000  0.381234  0.915390  1
  Er  Er8  1  0.000000  0.882245  0.584086  1
  Er  Er9  1  0.000000  0.120579  0.415067  1
  In  In10  1  0.500000  0.706252  0.932048  1
  In  In11  1  0.500000  0.295407  0.069126  1
  In  In12  1  0.500000  0.796195  0.433463  1
  In  In13  1  0.500000  0.205506  0.567281  1
  In  In14  1  0.500000  0.579265  0.650887  1
  In  In15  1  0.500000  0.424156  0.349529  1
  In  In16  1  0.500000  0.922401  0.150465  1
  In  In17  1  0.500000  0.078549  0.849016  1
  Pd  Pd18  1  0.500000  0.476145  0.803854  1
  Pd  Pd19  1  0.500000  0.975803  0.695918  1
  Pd  Pd20  1  0.500000  0.023180  0.303961  1
  Ru  Ru21  1  0.500000  0.515944  0.194984  1
