# generated using pymatgen
data_TbTmU(SnRh)3
_symmetry_space_group_name_H-M   'P 1'
_cell_length_a   7.47816681
_cell_length_b   7.62238332
_cell_length_c   3.88911000
_cell_angle_alpha   90.00000000
_cell_angle_beta   90.00000000
_cell_angle_gamma   120.85084252
_symmetry_Int_Tables_number   1
_chemical_formula_structural   TbTmU(SnRh)3
_chemical_formula_sum   'Tb1 Tm1 U1 Sn3 Rh3'
_cell_volume   190.31765788
_cell_formula_units_Z   1
loop_
 _symmetry_equiv_pos_site_id
 _symmetry_equiv_pos_as_xyz
  1  'x, y, z'
loop_
 _atom_site_type_symbol
 _atom_site_label
 _atom_site_symmetry_multiplicity
 _atom_site_fract_x
 _atom_site_fract_y
 _atom_site_fract_z
 _atom_site_occupancy
  Tb  Tb0  1  0.594194  0.594297  0.000000  1
  Tm  Tm1  1  0.405387  0.000682  0.000000  1
  U  U2  1  0.999961  0.414628  0.000000  1
  Sn  Sn3  1  0.271776  0.257790  0.500000  1
  Sn  Sn4  1  0.001627  0.755912  0.500000  1
  Sn  Sn5  1  0.727441  0.987351  0.500000  1
  Rh  Rh6  1  0.701649  0.335359  0.500000  1
  Rh  Rh7  1  0.296473  0.635413  0.500000  1
  Rh  Rh8  1  0.001492  0.018568  0.000000  1
