# generated using pymatgen
data_HoEr15Tl3CdRh4
_symmetry_space_group_name_H-M   'P 1'
_cell_length_a   9.60642874
_cell_length_b   9.60002350
_cell_length_c   9.61239700
_cell_angle_alpha   59.95735771
_cell_angle_beta   59.97944963
_cell_angle_gamma   59.99242195
_symmetry_Int_Tables_number   1
_chemical_formula_structural   HoEr15Tl3CdRh4
_chemical_formula_sum   'Ho1 Er15 Tl3 Cd1 Rh4'
_cell_volume   626.49628663
_cell_formula_units_Z   1
loop_
 _symmetry_equiv_pos_site_id
 _symmetry_equiv_pos_as_xyz
  1  'x, y, z'
loop_
 _atom_site_type_symbol
 _atom_site_label
 _atom_site_symmetry_multiplicity
 _atom_site_fract_x
 _atom_site_fract_y
 _atom_site_fract_z
 _atom_site_occupancy
  Ho  Ho0  1  0.189118  0.189487  0.810698  1
  Er  Er1  1  0.437414  0.059480  0.065779  1
  Er  Er2  1  0.437414  0.059480  0.437328  1
  Er  Er3  1  0.062197  0.436786  0.062849  1
  Er  Er4  1  0.648753  0.050378  0.650434  1
  Er  Er5  1  0.188479  0.813182  0.810651  1
  Er  Er6  1  0.063760  0.058915  0.438663  1
  Er  Er7  1  0.811275  0.189771  0.188701  1
  Er  Er8  1  0.811425  0.812575  0.187999  1
  Er  Er9  1  0.650623  0.650262  0.046526  1
  Er  Er10  1  0.650623  0.650262  0.652590  1
  Er  Er11  1  0.062197  0.436786  0.438168  1
  Er  Er12  1  0.049232  0.648991  0.650888  1
  Er  Er13  1  0.811275  0.189771  0.810254  1
  Er  Er14  1  0.437823  0.435287  0.063445  1
  Er  Er15  1  0.188479  0.813182  0.187689  1
  Tl  Tl16  1  0.413652  0.417838  0.755764  1
  Tl  Tl17  1  0.755705  0.418336  0.412979  1
  Tl  Tl18  1  0.413652  0.417838  0.412746  1
  Cd  Cd19  1  0.417198  0.750105  0.416347  1
  Rh  Rh20  1  0.857630  0.426810  0.857779  1
  Rh  Rh21  1  0.857450  0.858196  0.427708  1
  Rh  Rh22  1  0.427177  0.858088  0.857368  1
  Rh  Rh23  1  0.857450  0.858196  0.856647  1
