# generated using pymatgen
data_Tb3Tm7Co4
_symmetry_space_group_name_H-M   'P 1'
_cell_length_a   6.22423904
_cell_length_b   6.84196154
_cell_length_c   8.46536636
_cell_angle_alpha   96.45174775
_cell_angle_beta   111.66754568
_cell_angle_gamma   90.04797287
_symmetry_Int_Tables_number   1
_chemical_formula_structural   Tb3Tm7Co4
_chemical_formula_sum   'Tb3 Tm7 Co4'
_cell_volume   332.56175375
_cell_formula_units_Z   1
loop_
 _symmetry_equiv_pos_site_id
 _symmetry_equiv_pos_as_xyz
  1  'x, y, z'
loop_
 _atom_site_type_symbol
 _atom_site_label
 _atom_site_symmetry_multiplicity
 _atom_site_fract_x
 _atom_site_fract_y
 _atom_site_fract_z
 _atom_site_occupancy
  Tb  Tb0  1  0.791531  0.086189  0.808763  1
  Tb  Tb1  1  0.981610  0.414314  0.190277  1
  Tb  Tb2  1  0.209047  0.913671  0.190333  1
  Tm  Tm3  1  0.017496  0.586227  0.809561  1
  Tm  Tm4  1  0.213071  0.185341  0.567526  1
  Tm  Tm5  1  0.646476  0.315809  0.433308  1
  Tm  Tm6  1  0.786894  0.813773  0.433328  1
  Tm  Tm7  1  0.353132  0.684695  0.568628  1
  Tm  Tm8  1  0.427410  0.250873  0.999487  1
  Tm  Tm9  1  0.571919  0.749513  0.999430  1
  Co  Co10  1  0.599893  0.428993  0.776817  1
  Co  Co11  1  0.820014  0.071277  0.223226  1
  Co  Co12  1  0.401919  0.571466  0.221699  1
  Co  Co13  1  0.179588  0.927862  0.777616  1
