# generated using pymatgen
data_Y20Al6CoNi
_symmetry_space_group_name_H-M   'P 1'
_cell_length_a   9.56991800
_cell_length_b   9.56991878
_cell_length_c   9.63946400
_cell_angle_alpha   90.00000000
_cell_angle_beta   90.00000000
_cell_angle_gamma   119.99999731
_symmetry_Int_Tables_number   1
_chemical_formula_structural   Y20Al6CoNi
_chemical_formula_sum   'Y20 Al6 Co1 Ni1'
_cell_volume   764.53962229
_cell_formula_units_Z   1
loop_
 _symmetry_equiv_pos_site_id
 _symmetry_equiv_pos_as_xyz
  1  'x, y, z'
loop_
 _atom_site_type_symbol
 _atom_site_label
 _atom_site_symmetry_multiplicity
 _atom_site_fract_x
 _atom_site_fract_y
 _atom_site_fract_z
 _atom_site_occupancy
  Y  Y0  1  0.000000  0.000000  0.500326  1
  Y  Y1  1  0.000000  0.000000  0.999674  1
  Y  Y2  1  0.542194  0.457806  0.250000  1
  Y  Y3  1  0.542194  0.084387  0.250000  1
  Y  Y4  1  0.915613  0.457806  0.250000  1
  Y  Y5  1  0.455892  0.544108  0.750000  1
  Y  Y6  1  0.455892  0.911784  0.750000  1
  Y  Y7  1  0.088216  0.544108  0.750000  1
  Y  Y8  1  0.209142  0.790858  0.437155  1
  Y  Y9  1  0.209142  0.418285  0.437155  1
  Y  Y10  1  0.581715  0.790858  0.437155  1
  Y  Y11  1  0.792479  0.207521  0.563366  1
  Y  Y12  1  0.792479  0.584958  0.563366  1
  Y  Y13  1  0.415042  0.207521  0.563366  1
  Y  Y14  1  0.792479  0.207521  0.936634  1
  Y  Y15  1  0.792479  0.584958  0.936634  1
  Y  Y16  1  0.415042  0.207521  0.936634  1
  Y  Y17  1  0.209142  0.790858  0.062845  1
  Y  Y18  1  0.209142  0.418285  0.062845  1
  Y  Y19  1  0.581715  0.790858  0.062845  1
  Al  Al20  1  0.888446  0.111554  0.250000  1
  Al  Al21  1  0.888446  0.776894  0.250000  1
  Al  Al22  1  0.223106  0.111554  0.250000  1
  Al  Al23  1  0.112144  0.887856  0.750000  1
  Al  Al24  1  0.112144  0.224289  0.750000  1
  Al  Al25  1  0.775711  0.887856  0.750000  1
  Co  Co26  1  0.333333  0.666667  0.250000  1
  Ni  Ni27  1  0.666667  0.333333  0.750000  1
