# generated using pymatgen
data_KUNiSe3
_symmetry_space_group_name_H-M   'P 1'
_cell_length_a   3.97974800
_cell_length_b   7.73254805
_cell_length_c   10.43470100
_cell_angle_alpha   90.00000000
_cell_angle_beta   90.00000000
_cell_angle_gamma   75.08785954
_symmetry_Int_Tables_number   1
_chemical_formula_structural   KUNiSe3
_chemical_formula_sum   'K2 U2 Ni2 Se6'
_cell_volume   310.29864933
_cell_formula_units_Z   2
loop_
 _symmetry_equiv_pos_site_id
 _symmetry_equiv_pos_as_xyz
  1  'x, y, z'
loop_
 _atom_site_type_symbol
 _atom_site_label
 _atom_site_symmetry_multiplicity
 _atom_site_fract_x
 _atom_site_fract_y
 _atom_site_fract_z
 _atom_site_occupancy
  K  K0  1  0.255332  0.489338  0.250000  1
  K  K1  1  0.745009  0.509982  0.750000  1
  U  U2  1  0.000099  0.999801  0.000106  1
  U  U3  1  0.000099  0.999801  0.499894  1
  Ni  Ni4  1  0.469669  0.060663  0.750000  1
  Ni  Ni5  1  0.529919  0.940165  0.250000  1
  Se  Se6  1  0.625038  0.749925  0.065722  1
  Se  Se7  1  0.936742  0.126518  0.250000  1
  Se  Se8  1  0.625038  0.749925  0.434279  1
  Se  Se9  1  0.375042  0.249918  0.565229  1
  Se  Se10  1  0.062978  0.874044  0.750000  1
  Se  Se11  1  0.375042  0.249918  0.934771  1
