# generated using pymatgen
data_KHf2(Zr5Te8)2
_symmetry_space_group_name_H-M   'P 1'
_cell_length_a   7.91753322
_cell_length_b   11.14874508
_cell_length_c   11.81624988
_cell_angle_alpha   118.10996363
_cell_angle_beta   109.54225735
_cell_angle_gamma   90.02477900
_symmetry_Int_Tables_number   1
_chemical_formula_structural   KHf2(Zr5Te8)2
_chemical_formula_sum   'K1 Hf2 Zr10 Te16'
_cell_volume   851.18619525
_cell_formula_units_Z   1
loop_
 _symmetry_equiv_pos_site_id
 _symmetry_equiv_pos_as_xyz
  1  'x, y, z'
loop_
 _atom_site_type_symbol
 _atom_site_label
 _atom_site_symmetry_multiplicity
 _atom_site_fract_x
 _atom_site_fract_y
 _atom_site_fract_z
 _atom_site_occupancy
  K  K0  1  0.499984  0.999984  0.999955  1
  Hf  Hf1  1  0.122293  0.125836  0.492119  1
  Hf  Hf2  1  0.619979  0.124972  0.492359  1
  Zr  Zr3  1  0.311367  0.367532  0.875075  1
  Zr  Zr4  1  0.812362  0.366706  0.874163  1
  Zr  Zr5  1  0.190343  0.507918  0.632520  1
  Zr  Zr6  1  0.693103  0.507952  0.633419  1
  Zr  Zr7  1  0.379955  0.874436  0.507628  1
  Zr  Zr8  1  0.877679  0.873612  0.507759  1
  Zr  Zr9  1  0.187781  0.633179  0.126082  1
  Zr  Zr10  1  0.688761  0.632360  0.125205  1
  Zr  Zr11  1  0.306917  0.491844  0.366516  1
  Zr  Zr12  1  0.809639  0.491901  0.367416  1
  Te  Te13  1  0.730212  0.056143  0.709723  1
  Te  Te14  1  0.228114  0.056290  0.708747  1
  Te  Te15  1  0.847903  0.655427  0.944828  1
  Te  Te16  1  0.346528  0.655344  0.945020  1
  Te  Te17  1  0.546822  0.288490  0.345535  1
  Te  Te18  1  0.047803  0.287566  0.344507  1
  Te  Te19  1  0.772271  0.947636  0.292051  1
  Te  Te20  1  0.270329  0.947815  0.291143  1
  Te  Te21  1  0.653512  0.344643  0.055079  1
  Te  Te22  1  0.152149  0.344553  0.055266  1
  Te  Te23  1  0.952460  0.711446  0.656092  1
  Te  Te24  1  0.453424  0.710467  0.655044  1
  Te  Te25  1  0.957206  0.330823  0.664324  1
  Te  Te26  1  0.457415  0.332067  0.665129  1
  Te  Te27  1  0.541730  0.665936  0.333270  1
  Te  Te28  1  0.041957  0.667123  0.334026  1
