# generated using pymatgen
data_Ta12ReMo6Os5
_symmetry_space_group_name_H-M   'P 1'
_cell_length_a   4.52470000
_cell_length_b   6.41551700
_cell_length_c   13.64202600
_cell_angle_alpha   90.00012551
_cell_angle_beta   90.00007999
_cell_angle_gamma   89.99991736
_symmetry_Int_Tables_number   1
_chemical_formula_structural   Ta12ReMo6Os5
_chemical_formula_sum   'Ta12 Re1 Mo6 Os5'
_cell_volume   396.00468378
_cell_formula_units_Z   1
loop_
 _symmetry_equiv_pos_site_id
 _symmetry_equiv_pos_as_xyz
  1  'x, y, z'
loop_
 _atom_site_type_symbol
 _atom_site_label
 _atom_site_symmetry_multiplicity
 _atom_site_fract_x
 _atom_site_fract_y
 _atom_site_fract_z
 _atom_site_occupancy
  Ta  Ta0  1  0.500000  0.251274  0.000000  1
  Ta  Ta1  1  0.499999  0.748729  0.000000  1
  Ta  Ta2  1  0.000001  0.250424  0.165994  1
  Ta  Ta3  1  0.000000  0.749578  0.165995  1
  Ta  Ta4  1  0.500000  0.250169  0.333413  1
  Ta  Ta5  1  0.499998  0.749830  0.333413  1
  Ta  Ta6  1  0.999999  0.249732  0.500000  1
  Ta  Ta7  1  0.000000  0.750267  0.500000  1
  Ta  Ta8  1  0.500001  0.250169  0.666586  1
  Ta  Ta9  1  0.499999  0.749830  0.666586  1
  Ta  Ta10  1  0.999999  0.250423  0.834006  1
  Ta  Ta11  1  0.999998  0.749578  0.834006  1
  Re  Re12  1  0.000007  0.499993  0.999999  1
  Mo  Mo13  1  0.999999  0.000002  0.000000  1
  Mo  Mo14  1  0.500002  0.500001  0.167771  1
  Mo  Mo15  1  0.000000  0.000000  0.333730  1
  Mo  Mo16  1  0.500000  0.500000  0.500000  1
  Mo  Mo17  1  0.000000  0.000000  0.666269  1
  Mo  Mo18  1  0.500000  0.500001  0.832230  1
  Os  Os19  1  0.500000  0.000000  0.166894  1
  Os  Os20  1  0.000000  0.500000  0.333949  1
  Os  Os21  1  0.500000  0.999999  0.500000  1
  Os  Os22  1  0.000000  0.500000  0.666051  1
  Os  Os23  1  0.499998  0.000001  0.833106  1
