# generated using pymatgen
data_YbU4O10
_symmetry_space_group_name_H-M   'P 1'
_cell_length_a   6.57072068
_cell_length_b   6.57072068
_cell_length_c   6.57072035
_cell_angle_alpha   99.60430230
_cell_angle_beta   99.60429189
_cell_angle_gamma   131.78326586
_symmetry_Int_Tables_number   1
_chemical_formula_structural   YbU4O10
_chemical_formula_sum   'Yb1 U4 O10'
_cell_volume   193.08544139
_cell_formula_units_Z   1
loop_
 _symmetry_equiv_pos_site_id
 _symmetry_equiv_pos_as_xyz
  1  'x, y, z'
loop_
 _atom_site_type_symbol
 _atom_site_label
 _atom_site_symmetry_multiplicity
 _atom_site_fract_x
 _atom_site_fract_y
 _atom_site_fract_z
 _atom_site_occupancy
  Yb  Yb0  1  0.000000  0.000000  0.000000  1
  U  U1  1  0.602358  0.202159  0.804517  1
  U  U2  1  0.397642  0.797841  0.195483  1
  U  U3  1  0.797841  0.602358  0.400200  1
  U  U4  1  0.202159  0.397642  0.599800  1
  O  O5  1  0.951110  0.643433  0.106346  1
  O  O6  1  0.462912  0.155236  0.106346  1
  O  O7  1  0.537088  0.844764  0.893654  1
  O  O8  1  0.750000  0.250000  0.500000  1
  O  O9  1  0.250000  0.750000  0.500000  1
  O  O10  1  0.155236  0.048890  0.692324  1
  O  O11  1  0.643433  0.537088  0.692324  1
  O  O12  1  0.048890  0.356567  0.893654  1
  O  O13  1  0.356567  0.462912  0.307676  1
  O  O14  1  0.844764  0.951110  0.307676  1
