# generated using pymatgen
data_La4Al10Ga14RhAu
_symmetry_space_group_name_H-M   'P 1'
_cell_length_a   6.12585184
_cell_length_b   6.13945457
_cell_length_c   15.93208748
_cell_angle_alpha   89.98913707
_cell_angle_beta   90.37389532
_cell_angle_gamma   90.02834009
_symmetry_Int_Tables_number   1
_chemical_formula_structural   La4Al10Ga14RhAu
_chemical_formula_sum   'La4 Al10 Ga14 Rh1 Au1'
_cell_volume   599.18323531
_cell_formula_units_Z   1
loop_
 _symmetry_equiv_pos_site_id
 _symmetry_equiv_pos_as_xyz
  1  'x, y, z'
loop_
 _atom_site_type_symbol
 _atom_site_label
 _atom_site_symmetry_multiplicity
 _atom_site_fract_x
 _atom_site_fract_y
 _atom_site_fract_z
 _atom_site_occupancy
  La  La0  1  0.754035  0.251006  0.251529  1
  La  La1  1  0.254079  0.749027  0.248554  1
  La  La2  1  0.245017  0.750288  0.750943  1
  La  La3  1  0.745253  0.249737  0.747734  1
  Al  Al4  1  0.505765  0.007782  0.912636  1
  Al  Al5  1  0.990336  0.007859  0.912673  1
  Al  Al6  1  0.505835  0.492560  0.912689  1
  Al  Al7  1  0.990270  0.492390  0.912601  1
  Al  Al8  1  0.508593  0.007665  0.087067  1
  Al  Al9  1  0.993331  0.008052  0.087075  1
  Al  Al10  1  0.508692  0.492338  0.087077  1
  Al  Al11  1  0.993254  0.492258  0.087113  1
  Al  Al12  1  0.586404  0.079655  0.434304  1
  Al  Al13  1  0.087356  0.918903  0.433637  1
  Ga  Ga14  1  0.252945  0.250296  0.185855  1
  Ga  Ga15  1  0.753288  0.750367  0.185718  1
  Ga  Ga16  1  0.745795  0.749585  0.814359  1
  Ga  Ga17  1  0.245914  0.250666  0.814473  1
  Ga  Ga18  1  0.257030  0.243584  0.343501  1
  Ga  Ga19  1  0.756444  0.756464  0.343455  1
  Ga  Ga20  1  0.743846  0.747908  0.656550  1
  Ga  Ga21  1  0.244579  0.251775  0.656663  1
  Ga  Ga22  1  0.427742  0.577874  0.429314  1
  Ga  Ga23  1  0.929166  0.423254  0.429892  1
  Ga  Ga24  1  0.417135  0.924995  0.569237  1
  Ga  Ga25  1  0.919809  0.072643  0.568976  1
  Ga  Ga26  1  0.569126  0.423338  0.567891  1
  Ga  Ga27  1  0.070428  0.577575  0.568508  1
  Rh  Rh28  1  0.749422  0.250165  0.999926  1
  Au  Au29  1  0.249113  0.749992  0.000052  1
