# generated using pymatgen
data_Ta16FeCu7CN3
_symmetry_space_group_name_H-M   'P 1'
_cell_length_a   8.29454962
_cell_length_b   8.27498416
_cell_length_c   8.27551190
_cell_angle_alpha   59.91985196
_cell_angle_beta   59.95205753
_cell_angle_gamma   59.95086922
_symmetry_Int_Tables_number   1
_chemical_formula_structural   Ta16FeCu7CN3
_chemical_formula_sum   'Ta16 Fe1 Cu7 C1 N3'
_cell_volume   401.10445289
_cell_formula_units_Z   1
loop_
 _symmetry_equiv_pos_site_id
 _symmetry_equiv_pos_as_xyz
  1  'x, y, z'
loop_
 _atom_site_type_symbol
 _atom_site_label
 _atom_site_symmetry_multiplicity
 _atom_site_fract_x
 _atom_site_fract_y
 _atom_site_fract_z
 _atom_site_occupancy
  Ta  Ta0  1  0.121264  0.630340  0.630342  1
  Ta  Ta1  1  0.630067  0.121526  0.630192  1
  Ta  Ta2  1  0.630070  0.630195  0.121514  1
  Ta  Ta3  1  0.625232  0.625060  0.625061  1
  Ta  Ta4  1  0.815980  0.815679  0.181753  1
  Ta  Ta5  1  0.184172  0.184799  0.816110  1
  Ta  Ta6  1  0.815979  0.181754  0.815677  1
  Ta  Ta7  1  0.184170  0.816113  0.184797  1
  Ta  Ta8  1  0.180823  0.816330  0.816326  1
  Ta  Ta9  1  0.815802  0.184982  0.184985  1
  Ta  Ta10  1  0.435380  0.435748  0.065486  1
  Ta  Ta11  1  0.065117  0.064413  0.434467  1
  Ta  Ta12  1  0.435379  0.065489  0.435743  1
  Ta  Ta13  1  0.065113  0.434472  0.064411  1
  Ta  Ta14  1  0.065797  0.435594  0.435592  1
  Ta  Ta15  1  0.435123  0.064351  0.064352  1
  Fe  Fe16  1  0.826142  0.825328  0.825337  1
  Cu  Cu17  1  0.753161  0.416921  0.416851  1
  Cu  Cu18  1  0.416872  0.752093  0.417264  1
  Cu  Cu19  1  0.416843  0.417268  0.752138  1
  Cu  Cu20  1  0.415698  0.416239  0.416231  1
  Cu  Cu21  1  0.497492  0.833582  0.833547  1
  Cu  Cu22  1  0.833723  0.497780  0.833382  1
  Cu  Cu23  1  0.833727  0.833337  0.497843  1
  C  C24  1  0.623937  0.125778  0.125774  1
  N  N25  1  0.125680  0.623772  0.125794  1
  N  N26  1  0.125680  0.125797  0.623771  1
  N  N27  1  0.125578  0.125262  0.125259  1
