# generated using pymatgen
data_PrDy3CdPt
_symmetry_space_group_name_H-M   'P 1'
_cell_length_a   9.79516772
_cell_length_b   9.76887615
_cell_length_c   9.76887548
_cell_angle_alpha   60.17813794
_cell_angle_beta   59.91092912
_cell_angle_gamma   59.91093124
_symmetry_Int_Tables_number   1
_chemical_formula_structural   PrDy3CdPt
_chemical_formula_sum   'Pr4 Dy12 Cd4 Pt4'
_cell_volume   660.96694680
_cell_formula_units_Z   4
loop_
 _symmetry_equiv_pos_site_id
 _symmetry_equiv_pos_as_xyz
  1  'x, y, z'
loop_
 _atom_site_type_symbol
 _atom_site_label
 _atom_site_symmetry_multiplicity
 _atom_site_fract_x
 _atom_site_fract_y
 _atom_site_fract_z
 _atom_site_occupancy
  Pr  Pr0  1  0.565521  0.934479  0.565521  1
  Pr  Pr1  1  0.934479  0.565521  0.934479  1
  Pr  Pr2  1  0.565521  0.565521  0.934479  1
  Pr  Pr3  1  0.934479  0.934479  0.565521  1
  Dy  Dy4  1  0.351899  0.350032  0.350032  1
  Dy  Dy5  1  0.350032  0.351899  0.948037  1
  Dy  Dy6  1  0.350032  0.948037  0.351899  1
  Dy  Dy7  1  0.948037  0.350032  0.350032  1
  Dy  Dy8  1  0.811564  0.188436  0.188436  1
  Dy  Dy9  1  0.188436  0.811564  0.811564  1
  Dy  Dy10  1  0.189022  0.810978  0.189022  1
  Dy  Dy11  1  0.810978  0.189022  0.810978  1
  Dy  Dy12  1  0.189022  0.189022  0.810978  1
  Dy  Dy13  1  0.810978  0.810978  0.189022  1
  Dy  Dy14  1  0.943173  0.556827  0.556827  1
  Dy  Dy15  1  0.556827  0.943173  0.943173  1
  Cd  Cd16  1  0.583536  0.578514  0.578514  1
  Cd  Cd17  1  0.578514  0.583536  0.259434  1
  Cd  Cd18  1  0.578514  0.259434  0.583536  1
  Cd  Cd19  1  0.259434  0.578514  0.578514  1
  Pt  Pt20  1  0.146534  0.140910  0.140910  1
  Pt  Pt21  1  0.140910  0.146534  0.571646  1
  Pt  Pt22  1  0.140910  0.571646  0.146534  1
  Pt  Pt23  1  0.571646  0.140910  0.140910  1
