# generated using pymatgen
data_Cs6MnPS8
_symmetry_space_group_name_H-M   'P 1'
_cell_length_a   9.77958300
_cell_length_b   11.78555000
_cell_length_c   9.78680300
_cell_angle_alpha   90.00000000
_cell_angle_beta   90.00000000
_cell_angle_gamma   90.00000000
_symmetry_Int_Tables_number   1
_chemical_formula_structural   Cs6MnPS8
_chemical_formula_sum   'Cs12 Mn2 P2 S16'
_cell_volume   1128.00503465
_cell_formula_units_Z   2
loop_
 _symmetry_equiv_pos_site_id
 _symmetry_equiv_pos_as_xyz
  1  'x, y, z'
loop_
 _atom_site_type_symbol
 _atom_site_label
 _atom_site_symmetry_multiplicity
 _atom_site_fract_x
 _atom_site_fract_y
 _atom_site_fract_z
 _atom_site_occupancy
  Cs  Cs0  1  0.157570  0.750000  0.087023  1
  Cs  Cs1  1  0.537564  0.040876  0.207628  1
  Cs  Cs2  1  0.537564  0.459124  0.207628  1
  Cs  Cs3  1  0.037563  0.040876  0.292372  1
  Cs  Cs4  1  0.037563  0.459124  0.292372  1
  Cs  Cs5  1  0.657570  0.750000  0.412978  1
  Cs  Cs6  1  0.342595  0.250000  0.587996  1
  Cs  Cs7  1  0.962481  0.541035  0.707202  1
  Cs  Cs8  1  0.962481  0.958965  0.707202  1
  Cs  Cs9  1  0.462482  0.541035  0.792798  1
  Cs  Cs10  1  0.462482  0.958965  0.792798  1
  Cs  Cs11  1  0.842596  0.250000  0.912003  1
  Mn  Mn12  1  0.272745  0.250000  0.017587  1
  Mn  Mn13  1  0.772746  0.250000  0.482414  1
  P  P14  1  0.226837  0.750000  0.518015  1
  P  P15  1  0.726837  0.750000  0.981984  1
  S  S16  1  0.827384  0.605365  0.045165  1
  S  S17  1  0.827384  0.894635  0.045165  1
  S  S18  1  0.531609  0.750000  0.064122  1
  S  S19  1  0.284356  0.250000  0.233703  1
  S  S20  1  0.784356  0.250000  0.266298  1
  S  S21  1  0.031609  0.750000  0.435879  1
  S  S22  1  0.327383  0.605365  0.454836  1
  S  S23  1  0.327383  0.894635  0.454836  1
  S  S24  1  0.670187  0.101285  0.546201  1
  S  S25  1  0.670187  0.398715  0.546201  1
  S  S26  1  0.973296  0.250000  0.565150  1
  S  S27  1  0.215759  0.750000  0.728794  1
  S  S28  1  0.715759  0.750000  0.771205  1
  S  S29  1  0.473297  0.250000  0.934849  1
  S  S30  1  0.170188  0.101285  0.953798  1
  S  S31  1  0.170188  0.398715  0.953798  1
