# generated using pymatgen
data_Li3Pr8In3Au20
_symmetry_space_group_name_H-M   'P 1'
_cell_length_a   8.81266792
_cell_length_b   8.81266931
_cell_length_c   10.36528400
_cell_angle_alpha   90.09423313
_cell_angle_beta   89.90576686
_cell_angle_gamma   108.67949035
_symmetry_Int_Tables_number   1
_chemical_formula_structural   Li3Pr8In3Au20
_chemical_formula_sum   'Li3 Pr8 In3 Au20'
_cell_volume   762.59540892
_cell_formula_units_Z   1
loop_
 _symmetry_equiv_pos_site_id
 _symmetry_equiv_pos_as_xyz
  1  'x, y, z'
loop_
 _atom_site_type_symbol
 _atom_site_label
 _atom_site_symmetry_multiplicity
 _atom_site_fract_x
 _atom_site_fract_y
 _atom_site_fract_z
 _atom_site_occupancy
  Li  Li0  1  0.512068  0.011977  0.250188  1
  Li  Li1  1  0.001485  0.002638  0.007832  1
  Li  Li2  1  0.502966  0.502344  0.491994  1
  Pr  Pr3  1  0.701948  0.299914  0.996114  1
  Pr  Pr4  1  0.200974  0.798161  0.502796  1
  Pr  Pr5  1  0.801786  0.802456  0.294911  1
  Pr  Pr6  1  0.302063  0.301570  0.204791  1
  Pr  Pr7  1  0.800021  0.202119  0.504095  1
  Pr  Pr8  1  0.297975  0.700325  0.997462  1
  Pr  Pr9  1  0.699427  0.701068  0.796775  1
  Pr  Pr10  1  0.201014  0.199223  0.703081  1
  In  In11  1  0.988630  0.488860  0.749622  1
  In  In12  1  0.015540  0.515952  0.250587  1
  In  In13  1  0.487307  0.987143  0.750257  1
  Au  Au14  1  0.168871  0.431984  0.474464  1
  Au  Au15  1  0.902190  0.902873  0.592842  1
  Au  Au16  1  0.565805  0.835639  0.519285  1
  Au  Au17  1  0.881699  0.163838  0.206948  1
  Au  Au18  1  0.393854  0.670723  0.293028  1
  Au  Au19  1  0.663292  0.381166  0.293189  1
  Au  Au20  1  0.402635  0.401768  0.906966  1
  Au  Au21  1  0.932055  0.668107  0.025591  1
  Au  Au22  1  0.340558  0.601165  0.700933  1
  Au  Au23  1  0.335228  0.065218  0.980631  1
  Au  Au24  1  0.594946  0.595119  0.095499  1
  Au  Au25  1  0.664193  0.934635  0.032619  1
  Au  Au26  1  0.095523  0.095100  0.404335  1
  Au  Au27  1  0.601295  0.338827  0.700126  1
  Au  Au28  1  0.101200  0.840460  0.799373  1
  Au  Au29  1  0.067165  0.332472  0.975806  1
  Au  Au30  1  0.831993  0.567834  0.523584  1
  Au  Au31  1  0.170775  0.893536  0.207066  1
  Au  Au32  1  0.434852  0.164252  0.467513  1
  Au  Au33  1  0.838669  0.101535  0.799696  1
