# generated using pymatgen
data_Ce2Al19Co6
_symmetry_space_group_name_H-M   'P 1'
_cell_length_a   10.61423232
_cell_length_b   10.61423283
_cell_length_c   8.15856300
_cell_angle_alpha   78.53480491
_cell_angle_beta   78.53480435
_cell_angle_gamma   68.88765937
_symmetry_Int_Tables_number   1
_chemical_formula_structural   Ce2Al19Co6
_chemical_formula_sum   'Ce4 Al38 Co12'
_cell_volume   832.18188295
_cell_formula_units_Z   2
loop_
 _symmetry_equiv_pos_site_id
 _symmetry_equiv_pos_as_xyz
  1  'x, y, z'
loop_
 _atom_site_type_symbol
 _atom_site_label
 _atom_site_symmetry_multiplicity
 _atom_site_fract_x
 _atom_site_fract_y
 _atom_site_fract_z
 _atom_site_occupancy
  Ce  Ce0  1  0.281631  0.281631  0.742916  1
  Ce  Ce1  1  0.718369  0.718369  0.257084  1
  Ce  Ce2  1  0.282279  0.282279  0.226224  1
  Ce  Ce3  1  0.717721  0.717721  0.773776  1
  Al  Al4  1  0.199009  0.854355  0.637471  1
  Al  Al5  1  0.536013  0.185856  0.945159  1
  Al  Al6  1  0.330029  0.566897  0.154349  1
  Al  Al7  1  0.815811  0.481175  0.551595  1
  Al  Al8  1  0.001371  0.503280  0.761869  1
  Al  Al9  1  0.496720  0.998629  0.238131  1
  Al  Al10  1  0.167264  0.832736  0.000000  1
  Al  Al11  1  0.911470  0.911470  0.185400  1
  Al  Al12  1  0.088530  0.088530  0.814600  1
  Al  Al13  1  0.918785  0.918785  0.643570  1
  Al  Al14  1  0.566897  0.330029  0.154349  1
  Al  Al15  1  0.814144  0.463987  0.054841  1
  Al  Al16  1  0.081215  0.081215  0.356430  1
  Al  Al17  1  0.832736  0.167264  0.000000  1
  Al  Al18  1  0.433103  0.669971  0.845651  1
  Al  Al19  1  0.701711  0.932732  0.466323  1
  Al  Al20  1  0.067268  0.298289  0.533677  1
  Al  Al21  1  0.800991  0.145645  0.362529  1
  Al  Al22  1  0.276704  0.052600  0.047520  1
  Al  Al23  1  0.947400  0.723296  0.952480  1
  Al  Al24  1  0.185856  0.536013  0.945159  1
  Al  Al25  1  0.854355  0.199009  0.637471  1
  Al  Al26  1  0.298289  0.067268  0.533677  1
  Al  Al27  1  0.328715  0.563947  0.648143  1
  Al  Al28  1  0.052600  0.276704  0.047520  1
  Al  Al29  1  0.184189  0.518825  0.448405  1
  Al  Al30  1  0.932732  0.701711  0.466323  1
  Al  Al31  1  0.563947  0.328715  0.648143  1
  Al  Al32  1  0.669971  0.433103  0.845651  1
  Al  Al33  1  0.671285  0.436053  0.351857  1
  Al  Al34  1  0.723296  0.947400  0.952480  1
  Al  Al35  1  0.145645  0.800991  0.362529  1
  Al  Al36  1  0.463987  0.814144  0.054841  1
  Al  Al37  1  0.518825  0.184189  0.448405  1
  Al  Al38  1  0.481175  0.815811  0.551595  1
  Al  Al39  1  0.503280  0.001371  0.761869  1
  Al  Al40  1  0.436053  0.671285  0.351857  1
  Al  Al41  1  0.998629  0.496720  0.238131  1
  Co  Co42  1  0.320813  0.921460  0.811043  1
  Co  Co43  1  0.082235  0.685928  0.670399  1
  Co  Co44  1  0.563326  0.563326  0.093082  1
  Co  Co45  1  0.921460  0.320813  0.811043  1
  Co  Co46  1  0.314072  0.917765  0.329601  1
  Co  Co47  1  0.436674  0.436674  0.906918  1
  Co  Co48  1  0.437938  0.437938  0.406047  1
  Co  Co49  1  0.917765  0.314072  0.329601  1
  Co  Co50  1  0.679187  0.078540  0.188957  1
  Co  Co51  1  0.685928  0.082235  0.670399  1
  Co  Co52  1  0.562062  0.562062  0.593953  1
  Co  Co53  1  0.078540  0.679187  0.188957  1
