# generated using pymatgen
data_La8GdU3S20
_symmetry_space_group_name_H-M   'P 1'
_cell_length_a   7.55472538
_cell_length_b   8.15026700
_cell_length_c   11.95043000
_cell_angle_alpha   90.00000000
_cell_angle_beta   90.23654870
_cell_angle_gamma   90.00000000
_symmetry_Int_Tables_number   1
_chemical_formula_structural   La8GdU3S20
_chemical_formula_sum   'La8 Gd1 U3 S20'
_cell_volume   735.81790190
_cell_formula_units_Z   1
loop_
 _symmetry_equiv_pos_site_id
 _symmetry_equiv_pos_as_xyz
  1  'x, y, z'
loop_
 _atom_site_type_symbol
 _atom_site_label
 _atom_site_symmetry_multiplicity
 _atom_site_fract_x
 _atom_site_fract_y
 _atom_site_fract_z
 _atom_site_occupancy
  La  La0  1  0.531052  0.502678  0.324480  1
  La  La1  1  0.969093  0.999002  0.824000  1
  La  La2  1  0.470305  0.001419  0.673963  1
  La  La3  1  0.028365  0.500362  0.177526  1
  La  La4  1  0.470305  0.498581  0.673963  1
  La  La5  1  0.028365  0.999638  0.177526  1
  La  La6  1  0.531052  0.997322  0.324480  1
  La  La7  1  0.969093  0.500998  0.824000  1
  Gd  Gd8  1  0.070058  0.750000  0.494621  1
  U  U9  1  0.428489  0.750000  0.988921  1
  U  U10  1  0.940467  0.250000  0.505751  1
  U  U11  1  0.567139  0.250000  0.009323  1
  S  S12  1  0.834642  0.969024  0.594667  1
  S  S13  1  0.661402  0.540147  0.089458  1
  S  S14  1  0.164293  0.454858  0.407832  1
  S  S15  1  0.336786  0.043298  0.908516  1
  S  S16  1  0.164293  0.045142  0.407832  1
  S  S17  1  0.336786  0.456702  0.908516  1
  S  S18  1  0.834642  0.530976  0.594667  1
  S  S19  1  0.661402  0.959853  0.089458  1
  S  S20  1  0.833560  0.750000  0.309702  1
  S  S21  1  0.662457  0.750000  0.813347  1
  S  S22  1  0.163750  0.250000  0.686920  1
  S  S23  1  0.338677  0.250000  0.185738  1
  S  S24  1  0.455860  0.750000  0.497532  1
  S  S25  1  0.046911  0.750000  0.999114  1
  S  S26  1  0.551445  0.250000  0.500194  1
  S  S27  1  0.949823  0.250000  0.002310  1
  S  S28  1  0.192836  0.750000  0.717798  1
  S  S29  1  0.311007  0.750000  0.210920  1
  S  S30  1  0.809031  0.250000  0.285831  1
  S  S31  1  0.686614  0.250000  0.791090  1
