# generated using pymatgen
data_Er6MnFe3(Co7P6)2
_symmetry_space_group_name_H-M   'P 1'
_cell_length_a   3.68254400
_cell_length_b   10.53736000
_cell_length_c   12.07088300
_cell_angle_alpha   90.00000000
_cell_angle_beta   90.00000000
_cell_angle_gamma   90.00000000
_symmetry_Int_Tables_number   1
_chemical_formula_structural   Er6MnFe3(Co7P6)2
_chemical_formula_sum   'Er6 Mn1 Fe3 Co14 P12'
_cell_volume   468.40206674
_cell_formula_units_Z   1
loop_
 _symmetry_equiv_pos_site_id
 _symmetry_equiv_pos_as_xyz
  1  'x, y, z'
loop_
 _atom_site_type_symbol
 _atom_site_label
 _atom_site_symmetry_multiplicity
 _atom_site_fract_x
 _atom_site_fract_y
 _atom_site_fract_z
 _atom_site_occupancy
  Er  Er0  1  0.750000  0.250000  0.476868  1
  Er  Er1  1  0.250000  0.750000  0.522502  1
  Er  Er2  1  0.250000  0.930791  0.795852  1
  Er  Er3  1  0.250000  0.569209  0.795852  1
  Er  Er4  1  0.750000  0.069089  0.203888  1
  Er  Er5  1  0.750000  0.430911  0.203888  1
  Mn  Mn6  1  0.250000  0.250000  0.843840  1
  Fe  Fe7  1  0.750000  0.750000  0.156041  1
  Fe  Fe8  1  0.750000  0.250000  0.012050  1
  Fe  Fe9  1  0.250000  0.750000  0.987981  1
  Co  Co10  1  0.250000  0.250000  0.299545  1
  Co  Co11  1  0.750000  0.750000  0.700871  1
  Co  Co12  1  0.250000  0.418026  0.005793  1
  Co  Co13  1  0.250000  0.081974  0.005793  1
  Co  Co14  1  0.750000  0.581718  0.994063  1
  Co  Co15  1  0.750000  0.918282  0.994063  1
  Co  Co16  1  0.250000  0.453325  0.569757  1
  Co  Co17  1  0.250000  0.046675  0.569757  1
  Co  Co18  1  0.750000  0.546662  0.430701  1
  Co  Co19  1  0.750000  0.953338  0.430701  1
  Co  Co20  1  0.250000  0.871468  0.291145  1
  Co  Co21  1  0.250000  0.628532  0.291145  1
  Co  Co22  1  0.750000  0.128885  0.709141  1
  Co  Co23  1  0.750000  0.371115  0.709141  1
  P  P24  1  0.250000  0.250000  0.116761  1
  P  P25  1  0.750000  0.750000  0.883814  1
  P  P26  1  0.250000  0.250000  0.655806  1
  P  P27  1  0.750000  0.750000  0.342762  1
  P  P28  1  0.250000  0.439256  0.383077  1
  P  P29  1  0.250000  0.060744  0.383077  1
  P  P30  1  0.750000  0.561196  0.616639  1
  P  P31  1  0.750000  0.938804  0.616639  1
  P  P32  1  0.250000  0.902501  0.107109  1
  P  P33  1  0.250000  0.597499  0.107109  1
  P  P34  1  0.750000  0.097085  0.893414  1
  P  P35  1  0.750000  0.402915  0.893414  1
