# generated using pymatgen
data_Ho8TaTi3(Si2W)8
_symmetry_space_group_name_H-M   'P 1'
_cell_length_a   6.89543367
_cell_length_b   6.89543346
_cell_length_c   12.77598211
_cell_angle_alpha   89.97427465
_cell_angle_beta   90.02572599
_cell_angle_gamma   89.98071448
_symmetry_Int_Tables_number   1
_chemical_formula_structural   Ho8TaTi3(Si2W)8
_chemical_formula_sum   'Ho8 Ta1 Ti3 Si16 W8'
_cell_volume   607.45951633
_cell_formula_units_Z   1
loop_
 _symmetry_equiv_pos_site_id
 _symmetry_equiv_pos_as_xyz
  1  'x, y, z'
loop_
 _atom_site_type_symbol
 _atom_site_label
 _atom_site_symmetry_multiplicity
 _atom_site_fract_x
 _atom_site_fract_y
 _atom_site_fract_z
 _atom_site_occupancy
  Ho  Ho0  1  0.339557  0.001549  0.468837  1
  Ho  Ho1  1  0.498393  0.838552  0.718417  1
  Ho  Ho2  1  0.500442  0.160723  0.218386  1
  Ho  Ho3  1  0.838552  0.498393  0.281583  1
  Ho  Ho4  1  0.160723  0.500442  0.781614  1
  Ho  Ho5  1  0.660603  0.998776  0.969038  1
  Ho  Ho6  1  0.001549  0.339557  0.531163  1
  Ho  Ho7  1  0.998776  0.660603  0.030962  1
  Ta  Ta8  1  0.331050  0.331050  0.000000  1
  Ti  Ti9  1  0.169117  0.831588  0.249709  1
  Ti  Ti10  1  0.831588  0.169117  0.750291  1
  Ti  Ti11  1  0.669199  0.669199  0.500000  1
  Si  Si12  1  0.200518  0.128636  0.682224  1
  Si  Si13  1  0.372431  0.703020  0.931487  1
  Si  Si14  1  0.628650  0.298661  0.432913  1
  Si  Si15  1  0.703020  0.372431  0.068513  1
  Si  Si16  1  0.298661  0.628650  0.567087  1
  Si  Si17  1  0.798019  0.871435  0.183223  1
  Si  Si18  1  0.128636  0.200518  0.317776  1
  Si  Si19  1  0.871435  0.798019  0.816777  1
  Si  Si20  1  0.289767  0.958061  0.064215  1
  Si  Si21  1  0.540531  0.791263  0.314081  1
  Si  Si22  1  0.460699  0.208080  0.812254  1
  Si  Si23  1  0.791263  0.540531  0.685919  1
  Si  Si24  1  0.208080  0.460699  0.187746  1
  Si  Si25  1  0.709528  0.040811  0.563803  1
  Si  Si26  1  0.958061  0.289767  0.935785  1
  Si  Si27  1  0.040811  0.709528  0.436197  1
  W  W28  1  0.159853  0.005299  0.873830  1
  W  W29  1  0.493991  0.661037  0.124232  1
  W  W30  1  0.506116  0.340407  0.624114  1
  W  W31  1  0.661037  0.493991  0.875768  1
  W  W32  1  0.340407  0.506116  0.375886  1
  W  W33  1  0.839857  0.993777  0.374304  1
  W  W34  1  0.005299  0.159853  0.126170  1
  W  W35  1  0.993777  0.839857  0.625696  1
