# generated using pymatgen
data_Y3Co3Si7
_symmetry_space_group_name_H-M   'P 1'
_cell_length_a   12.88057195
_cell_length_b   12.88057106
_cell_length_c   4.02855400
_cell_angle_alpha   90.00000000
_cell_angle_beta   90.00000000
_cell_angle_gamma   161.69413516
_symmetry_Int_Tables_number   1
_chemical_formula_structural   Y3Co3Si7
_chemical_formula_sum   'Y3 Co3 Si7'
_cell_volume   209.92930333
_cell_formula_units_Z   1
loop_
 _symmetry_equiv_pos_site_id
 _symmetry_equiv_pos_as_xyz
  1  'x, y, z'
loop_
 _atom_site_type_symbol
 _atom_site_label
 _atom_site_symmetry_multiplicity
 _atom_site_fract_x
 _atom_site_fract_y
 _atom_site_fract_z
 _atom_site_occupancy
  Y  Y0  1  0.003105  0.996895  0.000000  1
  Y  Y1  1  0.687262  0.312738  0.500000  1
  Y  Y2  1  0.317101  0.682899  0.500000  1
  Co  Co3  1  0.864377  0.135623  0.000000  1
  Co  Co4  1  0.135104  0.864896  0.000000  1
  Co  Co5  1  0.450602  0.549398  0.500000  1
  Si  Si6  1  0.595211  0.404789  0.000000  1
  Si  Si7  1  0.407721  0.592279  0.000000  1
  Si  Si8  1  0.775584  0.224416  0.000000  1
  Si  Si9  1  0.226183  0.773817  0.000000  1
  Si  Si10  1  0.907968  0.092032  0.500000  1
  Si  Si11  1  0.093684  0.906316  0.500000  1
  Si  Si12  1  0.536100  0.463900  0.500000  1
