# generated using pymatgen
data_Tb2Ho6Tl3Rh
_symmetry_space_group_name_H-M   'P 1'
_cell_length_a   10.40719500
_cell_length_b   10.40868101
_cell_length_c   7.01524400
_cell_angle_alpha   89.99935046
_cell_angle_beta   89.99929531
_cell_angle_gamma   119.99555390
_symmetry_Int_Tables_number   1
_chemical_formula_structural   Tb2Ho6Tl3Rh
_chemical_formula_sum   'Tb4 Ho12 Tl6 Rh2'
_cell_volume   658.14601998
_cell_formula_units_Z   2
loop_
 _symmetry_equiv_pos_site_id
 _symmetry_equiv_pos_as_xyz
  1  'x, y, z'
loop_
 _atom_site_type_symbol
 _atom_site_label
 _atom_site_symmetry_multiplicity
 _atom_site_fract_x
 _atom_site_fract_y
 _atom_site_fract_z
 _atom_site_occupancy
  Tb  Tb0  1  0.532838  0.065677  0.507561  1
  Tb  Tb1  1  0.934706  0.467370  0.507730  1
  Tb  Tb2  1  0.532662  0.467366  0.507733  1
  Tb  Tb3  1  0.466946  0.933888  0.007597  1
  Ho  Ho4  1  0.066640  0.533278  0.007943  1
  Ho  Ho5  1  0.466638  0.533280  0.007943  1
  Ho  Ho6  1  0.176054  0.352111  0.713010  1
  Ho  Ho7  1  0.648064  0.823829  0.712724  1
  Ho  Ho8  1  0.175763  0.823830  0.712726  1
  Ho  Ho9  1  0.823896  0.647791  0.211690  1
  Ho  Ho10  1  0.351933  0.176333  0.212010  1
  Ho  Ho11  1  0.824405  0.176337  0.212009  1
  Ho  Ho12  1  0.666865  0.333728  0.887835  1
  Ho  Ho13  1  0.333113  0.666226  0.387216  1
  Ho  Ho14  1  0.999951  0.999903  0.492627  1
  Ho  Ho15  1  0.000011  0.000021  0.993015  1
  Tl  Tl16  1  0.837353  0.674706  0.753504  1
  Tl  Tl17  1  0.325283  0.162664  0.753315  1
  Tl  Tl18  1  0.837377  0.162664  0.753317  1
  Tl  Tl19  1  0.162916  0.325824  0.252573  1
  Tl  Tl20  1  0.674564  0.837098  0.252963  1
  Tl  Tl21  1  0.162536  0.837098  0.252959  1
  Rh  Rh22  1  0.666672  0.333342  0.278593  1
  Rh  Rh23  1  0.332815  0.665636  0.779448  1
