# generated using pymatgen
data_LaTbZn5Sn
_symmetry_space_group_name_H-M   'P 1'
_cell_length_a   8.54331571
_cell_length_b   8.54331553
_cell_length_c   9.08476600
_cell_angle_alpha   90.00000000
_cell_angle_beta   90.00000000
_cell_angle_gamma   149.61099269
_symmetry_Int_Tables_number   1
_chemical_formula_structural   LaTbZn5Sn
_chemical_formula_sum   'La2 Tb2 Zn10 Sn2'
_cell_volume   335.43169029
_cell_formula_units_Z   2
loop_
 _symmetry_equiv_pos_site_id
 _symmetry_equiv_pos_as_xyz
  1  'x, y, z'
loop_
 _atom_site_type_symbol
 _atom_site_label
 _atom_site_symmetry_multiplicity
 _atom_site_fract_x
 _atom_site_fract_y
 _atom_site_fract_z
 _atom_site_occupancy
  La  La0  1  0.000000  0.000000  0.500000  1
  La  La1  1  0.000000  0.000000  0.000000  1
  Tb  Tb2  1  0.206593  0.793407  0.250000  1
  Tb  Tb3  1  0.793407  0.206593  0.750000  1
  Zn  Zn4  1  0.812482  0.187518  0.389948  1
  Zn  Zn5  1  0.187518  0.812482  0.610052  1
  Zn  Zn6  1  0.812482  0.187518  0.110052  1
  Zn  Zn7  1  0.187518  0.812482  0.889948  1
  Zn  Zn8  1  0.658835  0.341165  0.483722  1
  Zn  Zn9  1  0.341165  0.658835  0.516278  1
  Zn  Zn10  1  0.658835  0.341165  0.016278  1
  Zn  Zn11  1  0.341165  0.658835  0.983722  1
  Zn  Zn12  1  0.395514  0.604486  0.250000  1
  Zn  Zn13  1  0.604486  0.395514  0.750000  1
  Sn  Sn14  1  0.559337  0.440663  0.250000  1
  Sn  Sn15  1  0.440663  0.559337  0.750000  1
