# generated using pymatgen
data_Sm5Dy5(Tl3Cl)2
_symmetry_space_group_name_H-M   'P 1'
_cell_length_a   9.15273500
_cell_length_b   9.15273602
_cell_length_c   6.57163900
_cell_angle_alpha   90.00000000
_cell_angle_beta   90.00000000
_cell_angle_gamma   120.02972027
_symmetry_Int_Tables_number   1
_chemical_formula_structural   Sm5Dy5(Tl3Cl)2
_chemical_formula_sum   'Sm5 Dy5 Tl6 Cl2'
_cell_volume   476.62411738
_cell_formula_units_Z   1
loop_
 _symmetry_equiv_pos_site_id
 _symmetry_equiv_pos_as_xyz
  1  'x, y, z'
loop_
 _atom_site_type_symbol
 _atom_site_label
 _atom_site_symmetry_multiplicity
 _atom_site_fract_x
 _atom_site_fract_y
 _atom_site_fract_z
 _atom_site_occupancy
  Sm  Sm0  1  0.259391  0.999962  0.250000  1
  Sm  Sm1  1  0.740379  0.000108  0.750000  1
  Sm  Sm2  1  0.999962  0.259391  0.250000  1
  Sm  Sm3  1  0.000108  0.740379  0.750000  1
  Sm  Sm4  1  0.742002  0.742002  0.250000  1
  Dy  Dy5  1  0.258264  0.258264  0.750000  1
  Dy  Dy6  1  0.332790  0.665862  0.999966  1
  Dy  Dy7  1  0.665862  0.332790  0.999966  1
  Dy  Dy8  1  0.665862  0.332790  0.500034  1
  Dy  Dy9  1  0.332790  0.665862  0.500034  1
  Tl  Tl10  1  0.605201  0.999760  0.250000  1
  Tl  Tl11  1  0.393759  0.002116  0.750000  1
  Tl  Tl12  1  0.999760  0.605201  0.250000  1
  Tl  Tl13  1  0.002116  0.393759  0.750000  1
  Tl  Tl14  1  0.394607  0.394607  0.250000  1
  Tl  Tl15  1  0.603629  0.603629  0.750000  1
  Cl  Cl16  1  0.001760  0.001760  0.997473  1
  Cl  Cl17  1  0.001760  0.001760  0.502527  1
