# generated using pymatgen
data_Dy5Tm(SnRh)6
_symmetry_space_group_name_H-M   'P 1'
_cell_length_a   7.47956277
_cell_length_b   7.49379116
_cell_length_c   7.87506900
_cell_angle_alpha   90.00000000
_cell_angle_beta   90.00000000
_cell_angle_gamma   120.06113498
_symmetry_Int_Tables_number   1
_chemical_formula_structural   Dy5Tm(SnRh)6
_chemical_formula_sum   'Dy5 Tm1 Sn6 Rh6'
_cell_volume   382.02776289
_cell_formula_units_Z   1
loop_
 _symmetry_equiv_pos_site_id
 _symmetry_equiv_pos_as_xyz
  1  'x, y, z'
loop_
 _atom_site_type_symbol
 _atom_site_label
 _atom_site_symmetry_multiplicity
 _atom_site_fract_x
 _atom_site_fract_y
 _atom_site_fract_z
 _atom_site_occupancy
  Dy  Dy0  1  0.594731  0.003237  0.750000  1
  Dy  Dy1  1  0.405261  0.408553  0.750000  1
  Dy  Dy2  1  0.000023  0.591805  0.750000  1
  Dy  Dy3  1  0.591694  0.997790  0.250000  1
  Dy  Dy4  1  0.408391  0.405979  0.250000  1
  Tm  Tm5  1  0.999890  0.595055  0.250000  1
  Sn  Sn6  1  0.259482  0.000072  0.999249  1
  Sn  Sn7  1  0.740464  0.740841  0.500779  1
  Sn  Sn8  1  0.000062  0.258483  0.495844  1
  Sn  Sn9  1  0.000062  0.258483  0.004156  1
  Sn  Sn10  1  0.740464  0.740841  0.999221  1
  Sn  Sn11  1  0.259482  0.000072  0.500751  1
  Rh  Rh12  1  0.669689  0.335510  0.002651  1
  Rh  Rh13  1  0.669689  0.335510  0.497349  1
  Rh  Rh14  1  0.330279  0.665751  0.002994  1
  Rh  Rh15  1  0.330279  0.665751  0.497006  1
  Rh  Rh16  1  0.000023  0.001022  0.750000  1
  Rh  Rh17  1  0.000038  0.995245  0.250000  1
