# generated using pymatgen
data_Eu16Mg4P3Rh
_symmetry_space_group_name_H-M   'P 1'
_cell_length_a   10.48208398
_cell_length_b   10.48208369
_cell_length_c   10.44678478
_cell_angle_alpha   59.52641358
_cell_angle_beta   59.52641772
_cell_angle_gamma   59.48682591
_symmetry_Int_Tables_number   1
_chemical_formula_structural   Eu16Mg4P3Rh
_chemical_formula_sum   'Eu16 Mg4 P3 Rh1'
_cell_volume   802.65404678
_cell_formula_units_Z   1
loop_
 _symmetry_equiv_pos_site_id
 _symmetry_equiv_pos_as_xyz
  1  'x, y, z'
loop_
 _atom_site_type_symbol
 _atom_site_label
 _atom_site_symmetry_multiplicity
 _atom_site_fract_x
 _atom_site_fract_y
 _atom_site_fract_z
 _atom_site_occupancy
  Eu  Eu0  1  0.056974  0.442656  0.443357  1
  Eu  Eu1  1  0.059781  0.441123  0.059930  1
  Eu  Eu2  1  0.059857  0.059857  0.441370  1
  Eu  Eu3  1  0.441123  0.059781  0.059930  1
  Eu  Eu4  1  0.442656  0.056974  0.443357  1
  Eu  Eu5  1  0.442785  0.442785  0.057354  1
  Eu  Eu6  1  0.186574  0.811454  0.811533  1
  Eu  Eu7  1  0.188284  0.811840  0.188361  1
  Eu  Eu8  1  0.188318  0.188318  0.811842  1
  Eu  Eu9  1  0.811840  0.188284  0.188361  1
  Eu  Eu10  1  0.811454  0.186574  0.811533  1
  Eu  Eu11  1  0.811410  0.811410  0.186642  1
  Eu  Eu12  1  0.029501  0.659245  0.658731  1
  Eu  Eu13  1  0.659245  0.029501  0.658731  1
  Eu  Eu14  1  0.659053  0.659053  0.029385  1
  Eu  Eu15  1  0.652259  0.652259  0.651996  1
  Mg  Mg16  1  0.733260  0.422571  0.422895  1
  Mg  Mg17  1  0.422571  0.733260  0.422895  1
  Mg  Mg18  1  0.422551  0.422551  0.733591  1
  Mg  Mg19  1  0.423216  0.423216  0.423601  1
  P  P20  1  0.426132  0.855830  0.855124  1
  P  P21  1  0.855830  0.426132  0.855124  1
  P  P22  1  0.855743  0.855743  0.425999  1
  Rh  Rh23  1  0.859579  0.859579  0.858358  1
