# generated using pymatgen
data_NaLi(NbS2)6
_symmetry_space_group_name_H-M   'P 1'
_cell_length_a   5.83493600
_cell_length_b   5.83493617
_cell_length_c   14.15316900
_cell_angle_alpha   90.00000000
_cell_angle_beta   90.00000000
_cell_angle_gamma   119.99999904
_symmetry_Int_Tables_number   1
_chemical_formula_structural   NaLi(NbS2)6
_chemical_formula_sum   'Na1 Li1 Nb6 S12'
_cell_volume   417.30783115
_cell_formula_units_Z   1
loop_
 _symmetry_equiv_pos_site_id
 _symmetry_equiv_pos_as_xyz
  1  'x, y, z'
loop_
 _atom_site_type_symbol
 _atom_site_label
 _atom_site_symmetry_multiplicity
 _atom_site_fract_x
 _atom_site_fract_y
 _atom_site_fract_z
 _atom_site_occupancy
  Na  Na0  1  0.000000  0.000000  0.500000  1
  Li  Li1  1  0.000000  0.000000  0.000000  1
  Nb  Nb2  1  0.000000  0.000000  0.768709  1
  Nb  Nb3  1  0.000000  0.000000  0.231291  1
  Nb  Nb4  1  0.333333  0.666667  0.231260  1
  Nb  Nb5  1  0.666667  0.333333  0.768740  1
  Nb  Nb6  1  0.666667  0.333333  0.231260  1
  Nb  Nb7  1  0.333333  0.666667  0.768740  1
  S  S8  1  0.334581  0.000000  0.120762  1
  S  S9  1  0.000000  0.334581  0.120762  1
  S  S10  1  0.665419  0.665419  0.120762  1
  S  S11  1  0.334174  0.334174  0.657813  1
  S  S12  1  0.665826  0.665826  0.342187  1
  S  S13  1  0.665826  0.000000  0.657813  1
  S  S14  1  0.000000  0.665826  0.657813  1
  S  S15  1  0.000000  0.665419  0.879238  1
  S  S16  1  0.334581  0.334581  0.879238  1
  S  S17  1  0.000000  0.334174  0.342187  1
  S  S18  1  0.334174  0.000000  0.342187  1
  S  S19  1  0.665419  0.000000  0.879238  1
