# generated using pymatgen
data_Ti5Co16Si7Ir
_symmetry_space_group_name_H-M   'P 1'
_cell_length_a   7.83297806
_cell_length_b   7.83413370
_cell_length_c   7.83413409
_cell_angle_alpha   59.99024043
_cell_angle_beta   60.00487865
_cell_angle_gamma   60.00487672
_symmetry_Int_Tables_number   1
_chemical_formula_structural   Ti5Co16Si7Ir
_chemical_formula_sum   'Ti5 Co16 Si7 Ir1'
_cell_volume   339.93341634
_cell_formula_units_Z   1
loop_
 _symmetry_equiv_pos_site_id
 _symmetry_equiv_pos_as_xyz
  1  'x, y, z'
loop_
 _atom_site_type_symbol
 _atom_site_label
 _atom_site_symmetry_multiplicity
 _atom_site_fract_x
 _atom_site_fract_y
 _atom_site_fract_z
 _atom_site_occupancy
  Ti  Ti0  1  0.803702  0.793826  0.196298  1
  Ti  Ti1  1  0.788336  0.211664  0.211664  1
  Ti  Ti2  1  0.206174  0.196298  0.793826  1
  Ti  Ti3  1  0.803702  0.196298  0.793826  1
  Ti  Ti4  1  0.206174  0.793826  0.196298  1
  Co  Co5  1  0.619864  0.617258  0.143014  1
  Co  Co6  1  0.166898  0.490284  0.175919  1
  Co  Co7  1  0.856986  0.380136  0.380136  1
  Co  Co8  1  0.509716  0.833102  0.833102  1
  Co  Co9  1  0.511190  0.164337  0.164337  1
  Co  Co10  1  0.835663  0.839865  0.488810  1
  Co  Co11  1  0.166898  0.175919  0.490284  1
  Co  Co12  1  0.144939  0.619154  0.619154  1
  Co  Co13  1  0.160135  0.164337  0.164337  1
  Co  Co14  1  0.380846  0.383246  0.855061  1
  Co  Co15  1  0.616754  0.619154  0.619154  1
  Co  Co16  1  0.380846  0.855061  0.383246  1
  Co  Co17  1  0.382742  0.380136  0.380136  1
  Co  Co18  1  0.824081  0.833102  0.833102  1
  Co  Co19  1  0.619864  0.143014  0.617258  1
  Co  Co20  1  0.835663  0.488810  0.839865  1
  Si  Si21  1  0.494822  0.993836  0.505178  1
  Si  Si22  1  0.494822  0.505178  0.993836  1
  Si  Si23  1  0.502167  0.497833  0.497833  1
  Si  Si24  1  0.006164  0.993836  0.505178  1
  Si  Si25  1  0.006164  0.505178  0.993836  1
  Si  Si26  1  0.996185  0.503815  0.503815  1
  Si  Si27  1  0.496185  0.003815  0.003815  1
  Ir  Ir28  1  0.182319  0.817681  0.817681  1
