# generated using pymatgen
data_Tm2LuAgSn3Ir2
_symmetry_space_group_name_H-M   'P 1'
_cell_length_a   7.64501755
_cell_length_b   7.64851394
_cell_length_c   3.81876000
_cell_angle_alpha   90.00000000
_cell_angle_beta   90.00000000
_cell_angle_gamma   120.05780175
_symmetry_Int_Tables_number   1
_chemical_formula_structural   Tm2LuAgSn3Ir2
_chemical_formula_sum   'Tm2 Lu1 Ag1 Sn3 Ir2'
_cell_volume   193.26592816
_cell_formula_units_Z   1
loop_
 _symmetry_equiv_pos_site_id
 _symmetry_equiv_pos_as_xyz
  1  'x, y, z'
loop_
 _atom_site_type_symbol
 _atom_site_label
 _atom_site_symmetry_multiplicity
 _atom_site_fract_x
 _atom_site_fract_y
 _atom_site_fract_z
 _atom_site_occupancy
  Tm  Tm0  1  0.975942  0.383552  0.500000  1
  Tm  Tm1  1  0.616112  0.592184  0.500000  1
  Lu  Lu2  1  0.407914  0.024874  0.500000  1
  Ag  Ag3  1  0.333392  0.667102  0.000000  1
  Sn  Sn4  1  0.004659  0.740829  0.000000  1
  Sn  Sn5  1  0.259534  0.263593  0.000000  1
  Sn  Sn6  1  0.735974  0.995586  0.000000  1
  Ir  Ir7  1  0.665975  0.332269  0.000000  1
  Ir  Ir8  1  0.000497  0.000010  0.500000  1
