# generated using pymatgen
data_HfSi2MoIr2
_symmetry_space_group_name_H-M   'P 1'
_cell_length_a   3.96325100
_cell_length_b   6.30395186
_cell_length_c   7.29056668
_cell_angle_alpha   90.63500603
_cell_angle_beta   90.00000000
_cell_angle_gamma   90.00000000
_symmetry_Int_Tables_number   1
_chemical_formula_structural   HfSi2MoIr2
_chemical_formula_sum   'Hf2 Si4 Mo2 Ir4'
_cell_volume   182.13737758
_cell_formula_units_Z   2
loop_
 _symmetry_equiv_pos_site_id
 _symmetry_equiv_pos_as_xyz
  1  'x, y, z'
loop_
 _atom_site_type_symbol
 _atom_site_label
 _atom_site_symmetry_multiplicity
 _atom_site_fract_x
 _atom_site_fract_y
 _atom_site_fract_z
 _atom_site_occupancy
  Hf  Hf0  1  0.250000  0.029060  0.310811  1
  Hf  Hf1  1  0.750000  0.970940  0.689189  1
  Si  Si2  1  0.250000  0.746340  0.890624  1
  Si  Si3  1  0.750000  0.253660  0.109376  1
  Si  Si4  1  0.250000  0.290028  0.633211  1
  Si  Si5  1  0.750000  0.709972  0.366789  1
  Mo  Mo6  1  0.250000  0.522524  0.172512  1
  Mo  Mo7  1  0.750000  0.477476  0.827488  1
  Ir  Ir8  1  0.750000  0.855386  0.067112  1
  Ir  Ir9  1  0.250000  0.144614  0.932888  1
  Ir  Ir10  1  0.750000  0.339364  0.444905  1
  Ir  Ir11  1  0.250000  0.660636  0.555095  1
