# generated using pymatgen
data_Sr3YbCrO6
_symmetry_space_group_name_H-M   'P 1'
_cell_length_a   6.75765655
_cell_length_b   6.83051198
_cell_length_c   6.78188004
_cell_angle_alpha   91.95322689
_cell_angle_beta   91.86525230
_cell_angle_gamma   91.89374911
_symmetry_Int_Tables_number   1
_chemical_formula_structural   Sr3YbCrO6
_chemical_formula_sum   'Sr6 Yb2 Cr2 O12'
_cell_volume   312.50923670
_cell_formula_units_Z   2
loop_
 _symmetry_equiv_pos_site_id
 _symmetry_equiv_pos_as_xyz
  1  'x, y, z'
loop_
 _atom_site_type_symbol
 _atom_site_label
 _atom_site_symmetry_multiplicity
 _atom_site_fract_x
 _atom_site_fract_y
 _atom_site_fract_z
 _atom_site_occupancy
  Sr  Sr0  1  0.886954  0.249580  0.613024  1
  Sr  Sr1  1  0.249161  0.612112  0.887898  1
  Sr  Sr2  1  0.612308  0.887773  0.251339  1
  Sr  Sr3  1  0.750892  0.387878  0.112166  1
  Sr  Sr4  1  0.387686  0.112314  0.748689  1
  Sr  Sr5  1  0.112999  0.750423  0.386981  1
  Yb  Yb6  1  0.748334  0.748570  0.753151  1
  Yb  Yb7  1  0.251629  0.251435  0.246913  1
  Cr  Cr8  1  0.000089  0.999907  0.999848  1
  Cr  Cr9  1  0.500007  0.500057  0.499948  1
  O  O10  1  0.224707  0.421056  0.546353  1
  O  O11  1  0.418373  0.549991  0.223019  1
  O  O12  1  0.549077  0.220814  0.417027  1
  O  O13  1  0.916617  0.720323  0.050972  1
  O  O14  1  0.724036  0.047812  0.920343  1
  O  O15  1  0.046520  0.919778  0.724051  1
  O  O16  1  0.775322  0.578938  0.453685  1
  O  O17  1  0.581631  0.449953  0.776967  1
  O  O18  1  0.450999  0.779279  0.582873  1
  O  O19  1  0.083363  0.279671  0.949100  1
  O  O20  1  0.275888  0.952121  0.079652  1
  O  O21  1  0.953406  0.080215  0.276003  1
