# generated using pymatgen
data_AcTeIO3
_symmetry_space_group_name_H-M   'P 1'
_cell_length_a   7.30460300
_cell_length_b   8.76169008
_cell_length_c   9.43563114
_cell_angle_alpha   73.38786863
_cell_angle_beta   90.00000000
_cell_angle_gamma   90.00000000
_symmetry_Int_Tables_number   1
_chemical_formula_structural   AcTeIO3
_chemical_formula_sum   'Ac4 Te4 I4 O12'
_cell_volume   578.68170821
_cell_formula_units_Z   4
loop_
 _symmetry_equiv_pos_site_id
 _symmetry_equiv_pos_as_xyz
  1  'x, y, z'
loop_
 _atom_site_type_symbol
 _atom_site_label
 _atom_site_symmetry_multiplicity
 _atom_site_fract_x
 _atom_site_fract_y
 _atom_site_fract_z
 _atom_site_occupancy
  Ac  Ac0  1  0.838687  0.322994  0.413818  1
  Ac  Ac1  1  0.161313  0.677006  0.586182  1
  Ac  Ac2  1  0.338687  0.177006  0.586182  1
  Ac  Ac3  1  0.661313  0.822994  0.413818  1
  Te  Te4  1  0.186715  0.024322  0.270463  1
  Te  Te5  1  0.813285  0.975678  0.729537  1
  Te  Te6  1  0.313285  0.524322  0.270463  1
  Te  Te7  1  0.686715  0.475678  0.729537  1
  I  I8  1  0.654424  0.164349  0.131652  1
  I  I9  1  0.845576  0.664349  0.131652  1
  I  I10  1  0.345576  0.835651  0.868348  1
  I  I11  1  0.154424  0.335651  0.868348  1
  O  O12  1  0.496051  0.611372  0.626305  1
  O  O13  1  0.339130  0.954368  0.445513  1
  O  O14  1  0.839130  0.545632  0.554487  1
  O  O15  1  0.872341  0.784511  0.684107  1
  O  O16  1  0.996051  0.888628  0.373695  1
  O  O17  1  0.660870  0.045632  0.554487  1
  O  O18  1  0.003949  0.111372  0.626305  1
  O  O19  1  0.372341  0.715489  0.315893  1
  O  O20  1  0.160870  0.454368  0.445513  1
  O  O21  1  0.503949  0.388628  0.373695  1
  O  O22  1  0.127659  0.215489  0.315893  1
  O  O23  1  0.627659  0.284511  0.684107  1
