# generated using pymatgen
data_Ca2Ag6Pd
_symmetry_space_group_name_H-M   'P 1'
_cell_length_a   5.48889751
_cell_length_b   5.48889794
_cell_length_c   14.27037300
_cell_angle_alpha   90.00000000
_cell_angle_beta   90.00000000
_cell_angle_gamma   120.19675848
_symmetry_Int_Tables_number   1
_chemical_formula_structural   Ca2Ag6Pd
_chemical_formula_sum   'Ca4 Ag12 Pd2'
_cell_volume   371.59661843
_cell_formula_units_Z   2
loop_
 _symmetry_equiv_pos_site_id
 _symmetry_equiv_pos_as_xyz
  1  'x, y, z'
loop_
 _atom_site_type_symbol
 _atom_site_label
 _atom_site_symmetry_multiplicity
 _atom_site_fract_x
 _atom_site_fract_y
 _atom_site_fract_z
 _atom_site_occupancy
  Ca  Ca0  1  0.320963  0.320963  0.119793  1
  Ca  Ca1  1  0.679037  0.679037  0.619793  1
  Ca  Ca2  1  0.320963  0.320963  0.380207  1
  Ca  Ca3  1  0.679037  0.679037  0.880207  1
  Ag  Ag4  1  0.826279  0.328249  0.250000  1
  Ag  Ag5  1  0.173721  0.671751  0.750000  1
  Ag  Ag6  1  0.328249  0.826279  0.250000  1
  Ag  Ag7  1  0.671751  0.173721  0.750000  1
  Ag  Ag8  1  0.989597  0.663748  0.076560  1
  Ag  Ag9  1  0.010403  0.336252  0.576560  1
  Ag  Ag10  1  0.663748  0.989597  0.423440  1
  Ag  Ag11  1  0.336252  0.010403  0.923440  1
  Ag  Ag12  1  0.010403  0.336252  0.923440  1
  Ag  Ag13  1  0.989597  0.663748  0.423440  1
  Ag  Ag14  1  0.336252  0.010403  0.576560  1
  Ag  Ag15  1  0.663748  0.989597  0.076560  1
  Pd  Pd16  1  0.828456  0.828456  0.250000  1
  Pd  Pd17  1  0.171544  0.171544  0.750000  1
