# generated using pymatgen
data_Ca2TbYb(Ga2Ag)4
_symmetry_space_group_name_H-M   'P 1'
_cell_length_a   4.36636300
_cell_length_b   7.03205578
_cell_length_c   10.47893217
_cell_angle_alpha   89.24035263
_cell_angle_beta   90.00000000
_cell_angle_gamma   90.00000000
_symmetry_Int_Tables_number   1
_chemical_formula_structural   Ca2TbYb(Ga2Ag)4
_chemical_formula_sum   'Ca2 Tb1 Yb1 Ga8 Ag4'
_cell_volume   321.72217969
_cell_formula_units_Z   1
loop_
 _symmetry_equiv_pos_site_id
 _symmetry_equiv_pos_as_xyz
  1  'x, y, z'
loop_
 _atom_site_type_symbol
 _atom_site_label
 _atom_site_symmetry_multiplicity
 _atom_site_fract_x
 _atom_site_fract_y
 _atom_site_fract_z
 _atom_site_occupancy
  Ca  Ca0  1  0.750000  0.224352  0.174091  1
  Ca  Ca1  1  0.750000  0.725385  0.325721  1
  Tb  Tb2  1  0.250000  0.280543  0.671757  1
  Yb  Yb3  1  0.250000  0.777015  0.828804  1
  Ga  Ga4  1  0.250000  0.925054  0.148175  1
  Ga  Ga5  1  0.750000  0.073385  0.846365  1
  Ga  Ga6  1  0.750000  0.574938  0.652312  1
  Ga  Ga7  1  0.250000  0.422395  0.355000  1
  Ga  Ga8  1  0.250000  0.700809  0.536617  1
  Ga  Ga9  1  0.750000  0.295914  0.468441  1
  Ga  Ga10  1  0.750000  0.800992  0.030919  1
  Ga  Ga11  1  0.250000  0.201850  0.962204  1
  Ag  Ag12  1  0.250000  0.542357  0.096212  1
  Ag  Ag13  1  0.750000  0.459231  0.900128  1
  Ag  Ag14  1  0.750000  0.956930  0.601749  1
  Ag  Ag15  1  0.250000  0.038852  0.401505  1
