# generated using pymatgen
data_LiY12Er4Cd3Pt4
_symmetry_space_group_name_H-M   'P 1'
_cell_length_a   9.69269646
_cell_length_b   9.69269653
_cell_length_c   9.69269766
_cell_angle_alpha   60.00937680
_cell_angle_beta   60.00937418
_cell_angle_gamma   60.00937657
_symmetry_Int_Tables_number   1
_chemical_formula_structural   LiY12Er4Cd3Pt4
_chemical_formula_sum   'Li1 Y12 Er4 Cd3 Pt4'
_cell_volume   644.03756748
_cell_formula_units_Z   1
loop_
 _symmetry_equiv_pos_site_id
 _symmetry_equiv_pos_as_xyz
  1  'x, y, z'
loop_
 _atom_site_type_symbol
 _atom_site_label
 _atom_site_symmetry_multiplicity
 _atom_site_fract_x
 _atom_site_fract_y
 _atom_site_fract_z
 _atom_site_occupancy
  Li  Li0  1  0.571756  0.571756  0.571756  1
  Y  Y1  1  0.809160  0.192706  0.192706  1
  Y  Y2  1  0.188860  0.811902  0.811902  1
  Y  Y3  1  0.192706  0.809160  0.192706  1
  Y  Y4  1  0.811902  0.188860  0.811902  1
  Y  Y5  1  0.192706  0.192706  0.809160  1
  Y  Y6  1  0.811902  0.811902  0.188860  1
  Y  Y7  1  0.936879  0.564409  0.564409  1
  Y  Y8  1  0.562859  0.936750  0.936750  1
  Y  Y9  1  0.564409  0.936879  0.564409  1
  Y  Y10  1  0.936750  0.562859  0.936750  1
  Y  Y11  1  0.564409  0.564409  0.936879  1
  Y  Y12  1  0.936750  0.936750  0.562859  1
  Er  Er13  1  0.350442  0.350442  0.350442  1
  Er  Er14  1  0.351948  0.351948  0.945281  1
  Er  Er15  1  0.351948  0.945281  0.351948  1
  Er  Er16  1  0.945281  0.351948  0.351948  1
  Cd  Cd17  1  0.581956  0.581956  0.254612  1
  Cd  Cd18  1  0.581956  0.254612  0.581956  1
  Cd  Cd19  1  0.254612  0.581956  0.581956  1
  Pt  Pt20  1  0.145102  0.145102  0.145102  1
  Pt  Pt21  1  0.143814  0.143814  0.568080  1
  Pt  Pt22  1  0.143814  0.568080  0.143814  1
  Pt  Pt23  1  0.568080  0.143814  0.143814  1
