# generated using pymatgen
data_Hf4FeCo(Ni2P3)2
_symmetry_space_group_name_H-M   'P 1'
_cell_length_a   3.60689500
_cell_length_b   10.03513000
_cell_length_c   12.08352900
_cell_angle_alpha   90.00000000
_cell_angle_beta   90.00000000
_cell_angle_gamma   90.00000000
_symmetry_Int_Tables_number   1
_chemical_formula_structural   Hf4FeCo(Ni2P3)2
_chemical_formula_sum   'Hf8 Fe2 Co2 Ni8 P12'
_cell_volume   437.37130996
_cell_formula_units_Z   2
loop_
 _symmetry_equiv_pos_site_id
 _symmetry_equiv_pos_as_xyz
  1  'x, y, z'
loop_
 _atom_site_type_symbol
 _atom_site_label
 _atom_site_symmetry_multiplicity
 _atom_site_fract_x
 _atom_site_fract_y
 _atom_site_fract_z
 _atom_site_occupancy
  Hf  Hf0  1  0.250000  0.339904  0.995461  1
  Hf  Hf1  1  0.250000  0.160096  0.495461  1
  Hf  Hf2  1  0.750000  0.660480  0.005054  1
  Hf  Hf3  1  0.750000  0.839520  0.505054  1
  Hf  Hf4  1  0.250000  0.426987  0.703429  1
  Hf  Hf5  1  0.250000  0.073013  0.203429  1
  Hf  Hf6  1  0.750000  0.572892  0.296090  1
  Hf  Hf7  1  0.750000  0.927108  0.796090  1
  Fe  Fe8  1  0.750000  0.093494  0.015065  1
  Fe  Fe9  1  0.750000  0.406506  0.515065  1
  Co  Co10  1  0.250000  0.905663  0.983925  1
  Co  Co11  1  0.250000  0.594337  0.483925  1
  Ni  Ni12  1  0.250000  0.136381  0.721407  1
  Ni  Ni13  1  0.250000  0.363619  0.221407  1
  Ni  Ni14  1  0.750000  0.862823  0.279197  1
  Ni  Ni15  1  0.750000  0.637177  0.779197  1
  Ni  Ni16  1  0.250000  0.767677  0.165808  1
  Ni  Ni17  1  0.250000  0.732323  0.665808  1
  Ni  Ni18  1  0.750000  0.234393  0.833319  1
  Ni  Ni19  1  0.750000  0.265607  0.333319  1
  P  P20  1  0.250000  0.102595  0.904093  1
  P  P21  1  0.250000  0.397405  0.404093  1
  P  P22  1  0.750000  0.898329  0.097267  1
  P  P23  1  0.750000  0.601671  0.597267  1
  P  P24  1  0.250000  0.738381  0.858021  1
  P  P25  1  0.250000  0.761619  0.358021  1
  P  P26  1  0.750000  0.261091  0.141535  1
  P  P27  1  0.750000  0.238909  0.641535  1
  P  P28  1  0.250000  0.550183  0.129379  1
  P  P29  1  0.250000  0.949817  0.629379  1
  P  P30  1  0.750000  0.450470  0.870950  1
  P  P31  1  0.750000  0.049530  0.370950  1
