# generated using pymatgen
data_K5Hf2F13
_symmetry_space_group_name_H-M   'P 1'
_cell_length_a   7.05872913
_cell_length_b   7.05873063
_cell_length_c   9.10442085
_cell_angle_alpha   82.81143109
_cell_angle_beta   82.81143054
_cell_angle_gamma   51.70642927
_symmetry_Int_Tables_number   1
_chemical_formula_structural   K5Hf2F13
_chemical_formula_sum   'K5 Hf2 F13'
_cell_volume   352.57381701
_cell_formula_units_Z   1
loop_
 _symmetry_equiv_pos_site_id
 _symmetry_equiv_pos_as_xyz
  1  'x, y, z'
loop_
 _atom_site_type_symbol
 _atom_site_label
 _atom_site_symmetry_multiplicity
 _atom_site_fract_x
 _atom_site_fract_y
 _atom_site_fract_z
 _atom_site_occupancy
  K  K0  1  0.221401  0.221401  0.844108  1
  K  K1  1  0.778599  0.778599  0.155892  1
  K  K2  1  0.500000  0.500000  0.000000  1
  K  K3  1  0.655940  0.655940  0.570625  1
  K  K4  1  0.344060  0.344060  0.429375  1
  Hf  Hf5  1  0.927685  0.927685  0.734609  1
  Hf  Hf6  1  0.072315  0.072315  0.265391  1
  F  F7  1  0.043846  0.616339  0.643038  1
  F  F8  1  0.616339  0.043846  0.643038  1
  F  F9  1  0.956154  0.383661  0.356962  1
  F  F10  1  0.383661  0.956154  0.356962  1
  F  F11  1  0.668237  0.070597  0.908602  1
  F  F12  1  0.070597  0.668237  0.908602  1
  F  F13  1  0.331763  0.929403  0.091398  1
  F  F14  1  0.929403  0.331763  0.091398  1
  F  F15  1  0.264805  0.835130  0.745027  1
  F  F16  1  0.835130  0.264805  0.745027  1
  F  F17  1  0.735195  0.164870  0.254973  1
  F  F18  1  0.164870  0.735195  0.254973  1
  F  F19  1  0.000000  0.000000  0.500000  1
