# generated using pymatgen
data_Ce3Ga2Sn3
_symmetry_space_group_name_H-M   'P 1'
_cell_length_a   6.43593700
_cell_length_b   6.43593745
_cell_length_c   10.10155500
_cell_angle_alpha   90.00000000
_cell_angle_beta   90.00000000
_cell_angle_gamma   102.05365209
_symmetry_Int_Tables_number   1
_chemical_formula_structural   Ce3Ga2Sn3
_chemical_formula_sum   'Ce6 Ga4 Sn6'
_cell_volume   409.19430867
_cell_formula_units_Z   2
loop_
 _symmetry_equiv_pos_site_id
 _symmetry_equiv_pos_as_xyz
  1  'x, y, z'
loop_
 _atom_site_type_symbol
 _atom_site_label
 _atom_site_symmetry_multiplicity
 _atom_site_fract_x
 _atom_site_fract_y
 _atom_site_fract_z
 _atom_site_occupancy
  Ce  Ce0  1  0.627514  0.627514  0.250000  1
  Ce  Ce1  1  0.372486  0.372486  0.750000  1
  Ce  Ce2  1  0.794246  0.205754  0.000000  1
  Ce  Ce3  1  0.205754  0.794246  0.000000  1
  Ce  Ce4  1  0.205754  0.794246  0.500000  1
  Ce  Ce5  1  0.794246  0.205754  0.500000  1
  Ga  Ga6  1  0.310665  0.310665  0.040614  1
  Ga  Ga7  1  0.689335  0.689335  0.959386  1
  Ga  Ga8  1  0.689335  0.689335  0.540614  1
  Ga  Ga9  1  0.310665  0.310665  0.459386  1
  Sn  Sn10  1  0.083374  0.489117  0.250000  1
  Sn  Sn11  1  0.916626  0.510883  0.750000  1
  Sn  Sn12  1  0.489117  0.083374  0.250000  1
  Sn  Sn13  1  0.510883  0.916626  0.750000  1
  Sn  Sn14  1  0.015946  0.015946  0.250000  1
  Sn  Sn15  1  0.984054  0.984054  0.750000  1
