# generated using pymatgen
data_Nb12Cr3Co8RuN4
_symmetry_space_group_name_H-M   'P 1'
_cell_length_a   8.06329965
_cell_length_b   8.06330016
_cell_length_c   8.06330063
_cell_angle_alpha   59.76189553
_cell_angle_beta   59.76189372
_cell_angle_gamma   59.76189602
_symmetry_Int_Tables_number   1
_chemical_formula_structural   Nb12Cr3Co8RuN4
_chemical_formula_sum   'Nb12 Cr3 Co8 Ru1 N4'
_cell_volume   368.69658421
_cell_formula_units_Z   1
loop_
 _symmetry_equiv_pos_site_id
 _symmetry_equiv_pos_as_xyz
  1  'x, y, z'
loop_
 _atom_site_type_symbol
 _atom_site_label
 _atom_site_symmetry_multiplicity
 _atom_site_fract_x
 _atom_site_fract_y
 _atom_site_fract_z
 _atom_site_occupancy
  Nb  Nb0  1  0.803820  0.803820  0.196151  1
  Nb  Nb1  1  0.194915  0.194915  0.804719  1
  Nb  Nb2  1  0.803820  0.196151  0.803820  1
  Nb  Nb3  1  0.194915  0.804719  0.194915  1
  Nb  Nb4  1  0.196151  0.803820  0.803820  1
  Nb  Nb5  1  0.804719  0.194915  0.194915  1
  Nb  Nb6  1  0.446180  0.446180  0.053849  1
  Nb  Nb7  1  0.055085  0.055085  0.445281  1
  Nb  Nb8  1  0.446180  0.053849  0.446180  1
  Nb  Nb9  1  0.055085  0.445281  0.055085  1
  Nb  Nb10  1  0.053849  0.446180  0.446180  1
  Nb  Nb11  1  0.445281  0.055085  0.055085  1
  Cr  Cr12  1  0.125000  0.625000  0.625000  1
  Cr  Cr13  1  0.625000  0.125000  0.625000  1
  Cr  Cr14  1  0.625000  0.625000  0.125000  1
  Co  Co15  1  0.727023  0.420453  0.420453  1
  Co  Co16  1  0.420453  0.727023  0.420453  1
  Co  Co17  1  0.420453  0.420453  0.727023  1
  Co  Co18  1  0.423731  0.423731  0.423731  1
  Co  Co19  1  0.522977  0.829547  0.829547  1
  Co  Co20  1  0.829547  0.522977  0.829547  1
  Co  Co21  1  0.829547  0.829547  0.522977  1
  Co  Co22  1  0.826269  0.826269  0.826269  1
  Ru  Ru23  1  0.625000  0.625000  0.625000  1
  N  N24  1  0.625000  0.125000  0.125000  1
  N  N25  1  0.125000  0.625000  0.125000  1
  N  N26  1  0.125000  0.125000  0.625000  1
  N  N27  1  0.125000  0.125000  0.125000  1
