# generated using pymatgen
data_YHo7(SiPd)8
_symmetry_space_group_name_H-M   'P 1'
_cell_length_a   4.32733700
_cell_length_b   7.47804700
_cell_length_c   13.89618700
_cell_angle_alpha   90.00000000
_cell_angle_beta   90.00000000
_cell_angle_gamma   90.00000000
_symmetry_Int_Tables_number   1
_chemical_formula_structural   YHo7(SiPd)8
_chemical_formula_sum   'Y1 Ho7 Si8 Pd8'
_cell_volume   449.68102085
_cell_formula_units_Z   1
loop_
 _symmetry_equiv_pos_site_id
 _symmetry_equiv_pos_as_xyz
  1  'x, y, z'
loop_
 _atom_site_type_symbol
 _atom_site_label
 _atom_site_symmetry_multiplicity
 _atom_site_fract_x
 _atom_site_fract_y
 _atom_site_fract_z
 _atom_site_occupancy
  Y  Y0  1  0.000000  0.299505  0.000000  1
  Ho  Ho1  1  0.500000  0.789450  0.748676  1
  Ho  Ho2  1  0.000000  0.210372  0.750853  1
  Ho  Ho3  1  0.500000  0.789450  0.251324  1
  Ho  Ho4  1  0.000000  0.210372  0.249147  1
  Ho  Ho5  1  0.500000  0.709874  0.000000  1
  Ho  Ho6  1  0.000000  0.290561  0.500000  1
  Ho  Ho7  1  0.500000  0.700801  0.500000  1
  Si  Si8  1  0.500000  0.408915  0.644311  1
  Si  Si9  1  0.000000  0.591417  0.855199  1
  Si  Si10  1  0.500000  0.408915  0.355689  1
  Si  Si11  1  0.000000  0.591417  0.144801  1
  Si  Si12  1  0.500000  0.089920  0.094016  1
  Si  Si13  1  0.000000  0.909516  0.406417  1
  Si  Si14  1  0.500000  0.089920  0.905984  1
  Si  Si15  1  0.000000  0.909516  0.593583  1
  Pd  Pd16  1  0.500000  0.076630  0.608853  1
  Pd  Pd17  1  0.000000  0.922905  0.890978  1
  Pd  Pd18  1  0.500000  0.076630  0.391147  1
  Pd  Pd19  1  0.000000  0.922905  0.109022  1
  Pd  Pd20  1  0.500000  0.421115  0.156498  1
  Pd  Pd21  1  0.000000  0.579389  0.344326  1
  Pd  Pd22  1  0.500000  0.421115  0.843502  1
  Pd  Pd23  1  0.000000  0.579389  0.655674  1
