# generated using pymatgen
data_Ho3FeCo3Ni5P6
_symmetry_space_group_name_H-M   'P 1'
_cell_length_a   3.73551100
_cell_length_b   10.50242900
_cell_length_c   12.25779700
_cell_angle_alpha   90.00000000
_cell_angle_beta   90.00000000
_cell_angle_gamma   90.00000000
_symmetry_Int_Tables_number   1
_chemical_formula_structural   Ho3FeCo3Ni5P6
_chemical_formula_sum   'Ho6 Fe2 Co6 Ni10 P12'
_cell_volume   480.89714487
_cell_formula_units_Z   2
loop_
 _symmetry_equiv_pos_site_id
 _symmetry_equiv_pos_as_xyz
  1  'x, y, z'
loop_
 _atom_site_type_symbol
 _atom_site_label
 _atom_site_symmetry_multiplicity
 _atom_site_fract_x
 _atom_site_fract_y
 _atom_site_fract_z
 _atom_site_occupancy
  Ho  Ho0  1  0.000000  0.500000  0.520270  1
  Ho  Ho1  1  0.500000  0.000000  0.479730  1
  Ho  Ho2  1  0.500000  0.816209  0.205713  1
  Ho  Ho3  1  0.500000  0.183791  0.205713  1
  Ho  Ho4  1  0.000000  0.683791  0.794287  1
  Ho  Ho5  1  0.000000  0.316209  0.794287  1
  Fe  Fe6  1  0.500000  0.500000  0.152900  1
  Fe  Fe7  1  0.000000  0.000000  0.847100  1
  Co  Co8  1  0.000000  0.500000  0.984349  1
  Co  Co9  1  0.500000  0.000000  0.015651  1
  Co  Co10  1  0.500000  0.333565  0.992658  1
  Co  Co11  1  0.500000  0.666435  0.992658  1
  Co  Co12  1  0.000000  0.166435  0.007342  1
  Co  Co13  1  0.000000  0.833565  0.007342  1
  Ni  Ni14  1  0.500000  0.302887  0.427701  1
  Ni  Ni15  1  0.500000  0.697113  0.427701  1
  Ni  Ni16  1  0.000000  0.197113  0.572299  1
  Ni  Ni17  1  0.000000  0.802887  0.572299  1
  Ni  Ni18  1  0.500000  0.879813  0.714015  1
  Ni  Ni19  1  0.500000  0.120187  0.714015  1
  Ni  Ni20  1  0.000000  0.620187  0.285985  1
  Ni  Ni21  1  0.000000  0.379813  0.285985  1
  Ni  Ni22  1  0.500000  0.500000  0.702489  1
  Ni  Ni23  1  0.000000  0.000000  0.297511  1
  P  P24  1  0.500000  0.314134  0.614866  1
  P  P25  1  0.500000  0.685866  0.614866  1
  P  P26  1  0.000000  0.185866  0.385134  1
  P  P27  1  0.000000  0.814134  0.385134  1
  P  P28  1  0.500000  0.500000  0.880235  1
  P  P29  1  0.000000  0.000000  0.119765  1
  P  P30  1  0.500000  0.846655  0.896570  1
  P  P31  1  0.500000  0.153345  0.896570  1
  P  P32  1  0.000000  0.653345  0.103430  1
  P  P33  1  0.000000  0.346655  0.103430  1
  P  P34  1  0.500000  0.500000  0.341616  1
  P  P35  1  0.000000  0.000000  0.658384  1
