# generated using pymatgen
data_Er7Hf9(Si4W)4
_symmetry_space_group_name_H-M   'P 1'
_cell_length_a   7.10683760
_cell_length_b   7.10108110
_cell_length_c   12.98995946
_cell_angle_alpha   90.12989147
_cell_angle_beta   90.01845564
_cell_angle_gamma   89.95666254
_symmetry_Int_Tables_number   1
_chemical_formula_structural   Er7Hf9(Si4W)4
_chemical_formula_sum   'Er7 Hf9 Si16 W4'
_cell_volume   655.55237797
_cell_formula_units_Z   1
loop_
 _symmetry_equiv_pos_site_id
 _symmetry_equiv_pos_as_xyz
  1  'x, y, z'
loop_
 _atom_site_type_symbol
 _atom_site_label
 _atom_site_symmetry_multiplicity
 _atom_site_fract_x
 _atom_site_fract_y
 _atom_site_fract_z
 _atom_site_occupancy
  Er  Er0  1  0.498066  0.153693  0.533381  1
  Er  Er1  1  0.502053  0.847168  0.035489  1
  Er  Er2  1  0.655279  0.002200  0.282921  1
  Er  Er3  1  0.346507  0.998104  0.785149  1
  Er  Er4  1  0.845833  0.502279  0.966485  1
  Er  Er5  1  0.152910  0.497635  0.466210  1
  Er  Er6  1  0.001715  0.654007  0.715372  1
  Hf  Hf7  1  0.004670  0.348532  0.215175  1
  Hf  Hf8  1  0.493962  0.354498  0.125198  1
  Hf  Hf9  1  0.504811  0.645883  0.623266  1
  Hf  Hf10  1  0.853969  0.006937  0.875532  1
  Hf  Hf11  1  0.143070  0.994280  0.372112  1
  Hf  Hf12  1  0.645926  0.503243  0.374061  1
  Hf  Hf13  1  0.353800  0.495070  0.877184  1
  Hf  Hf14  1  0.004931  0.855642  0.127243  1
  Hf  Hf15  1  0.993897  0.146224  0.625232  1
  Si  Si16  1  0.802510  0.146831  0.071550  1
  Si  Si17  1  0.200849  0.858064  0.566277  1
  Si  Si18  1  0.642035  0.701115  0.816860  1
  Si  Si19  1  0.353122  0.299625  0.316679  1
  Si  Si20  1  0.858142  0.202638  0.430412  1
  Si  Si21  1  0.141690  0.798769  0.933953  1
  Si  Si22  1  0.707407  0.638175  0.181100  1
  Si  Si23  1  0.299467  0.357440  0.683242  1
  Si  Si24  1  0.552098  0.204919  0.934364  1
  Si  Si25  1  0.448341  0.795326  0.432337  1
  Si  Si26  1  0.703711  0.948888  0.683458  1
  Si  Si27  1  0.294958  0.053475  0.183352  1
  Si  Si28  1  0.795735  0.448857  0.565879  1
  Si  Si29  1  0.201624  0.549747  0.068091  1
  Si  Si30  1  0.950418  0.697862  0.315446  1
  Si  Si31  1  0.051295  0.296454  0.816676  1
  W  W32  1  0.675887  0.323363  0.750074  1
  W  W33  1  0.320997  0.673165  0.249887  1
  W  W34  1  0.823834  0.821976  0.498595  1
  W  W35  1  0.174481  0.177919  0.001757  1
