# generated using pymatgen
data_Hg3BiRu2(RhO7)2
_symmetry_space_group_name_H-M   'P 1'
_cell_length_a   7.38052750
_cell_length_b   7.33940128
_cell_length_c   7.33940279
_cell_angle_alpha   58.99212001
_cell_angle_beta   59.11766745
_cell_angle_gamma   59.11765983
_symmetry_Int_Tables_number   1
_chemical_formula_structural   Hg3BiRu2(RhO7)2
_chemical_formula_sum   'Hg3 Bi1 Ru2 Rh2 O14'
_cell_volume   275.19669072
_cell_formula_units_Z   1
loop_
 _symmetry_equiv_pos_site_id
 _symmetry_equiv_pos_as_xyz
  1  'x, y, z'
loop_
 _atom_site_type_symbol
 _atom_site_label
 _atom_site_symmetry_multiplicity
 _atom_site_fract_x
 _atom_site_fract_y
 _atom_site_fract_z
 _atom_site_occupancy
  Hg  Hg0  1  0.125000  0.625000  0.125000  1
  Hg  Hg1  1  0.625000  0.125000  0.125000  1
  Hg  Hg2  1  0.125000  0.125000  0.625000  1
  Bi  Bi3  1  0.125000  0.125000  0.125000  1
  Ru  Ru4  1  0.625000  0.625000  0.625000  1
  Ru  Ru5  1  0.125000  0.625000  0.625000  1
  Rh  Rh6  1  0.625000  0.625000  0.125000  1
  Rh  Rh7  1  0.625000  0.125000  0.625000  1
  O  O8  1  0.243783  0.258052  0.258052  1
  O  O9  1  0.296056  0.708771  0.300118  1
  O  O10  1  0.953944  0.949882  0.541229  1
  O  O11  1  0.549822  0.941275  0.562830  1
  O  O12  1  0.700178  0.687170  0.308725  1
  O  O13  1  0.935286  0.568192  0.568192  1
  O  O14  1  0.700178  0.308725  0.687170  1
  O  O15  1  0.296056  0.300118  0.708771  1
  O  O16  1  0.713407  0.288777  0.288777  1
  O  O17  1  0.314714  0.681808  0.681808  1
  O  O18  1  0.953944  0.541229  0.949882  1
  O  O19  1  0.549822  0.562830  0.941275  1
  O  O20  1  0.006217  0.991948  0.991948  1
  O  O21  1  0.536593  0.961223  0.961223  1
