# generated using pymatgen
data_KLa(CO3)2
_symmetry_space_group_name_H-M   'P 1'
_cell_length_a   6.69824245
_cell_length_b   6.69824258
_cell_length_c   7.27503649
_cell_angle_alpha   75.77166187
_cell_angle_beta   75.77166527
_cell_angle_gamma   96.32300619
_symmetry_Int_Tables_number   1
_chemical_formula_structural   KLa(CO3)2
_chemical_formula_sum   'K2 La2 C4 O12'
_cell_volume   301.59224498
_cell_formula_units_Z   2
loop_
 _symmetry_equiv_pos_site_id
 _symmetry_equiv_pos_as_xyz
  1  'x, y, z'
loop_
 _atom_site_type_symbol
 _atom_site_label
 _atom_site_symmetry_multiplicity
 _atom_site_fract_x
 _atom_site_fract_y
 _atom_site_fract_z
 _atom_site_occupancy
  K  K0  1  0.620375  0.379625  0.750000  1
  K  K1  1  0.379625  0.620375  0.250000  1
  La  La2  1  0.100591  0.899409  0.750000  1
  La  La3  1  0.899409  0.100591  0.250000  1
  C  C4  1  0.645551  0.888800  0.760123  1
  C  C5  1  0.354449  0.111200  0.239877  1
  C  C6  1  0.111200  0.354449  0.739877  1
  C  C7  1  0.888800  0.645551  0.260123  1
  O  O8  1  0.451067  0.896160  0.781105  1
  O  O9  1  0.548933  0.103840  0.218895  1
  O  O10  1  0.103840  0.548933  0.718895  1
  O  O11  1  0.896160  0.451067  0.281105  1
  O  O12  1  0.708012  0.750165  0.881093  1
  O  O13  1  0.291988  0.249835  0.118907  1
  O  O14  1  0.249835  0.291988  0.618907  1
  O  O15  1  0.750165  0.708012  0.381093  1
  O  O16  1  0.790584  0.028194  0.614950  1
  O  O17  1  0.209416  0.971806  0.385050  1
  O  O18  1  0.971806  0.209416  0.885050  1
  O  O19  1  0.028194  0.790584  0.114950  1
