# generated using pymatgen
data_Er4As5PdRh7
_symmetry_space_group_name_H-M   'P 1'
_cell_length_a   7.25119342
_cell_length_b   7.25119368
_cell_length_c   7.25119253
_cell_angle_alpha   110.48067229
_cell_angle_beta   107.47064947
_cell_angle_gamma   110.48066768
_symmetry_Int_Tables_number   1
_chemical_formula_structural   Er4As5PdRh7
_chemical_formula_sum   'Er4 As5 Pd1 Rh7'
_cell_volume   293.23175661
_cell_formula_units_Z   1
loop_
 _symmetry_equiv_pos_site_id
 _symmetry_equiv_pos_as_xyz
  1  'x, y, z'
loop_
 _atom_site_type_symbol
 _atom_site_label
 _atom_site_symmetry_multiplicity
 _atom_site_fract_x
 _atom_site_fract_y
 _atom_site_fract_z
 _atom_site_occupancy
  Er  Er0  1  0.490428  0.503206  0.490428  1
  Er  Er1  1  0.987221  0.496794  0.987221  1
  Er  Er2  1  0.490428  0.000000  0.987221  1
  Er  Er3  1  0.987221  0.000000  0.490428  1
  As  As4  1  0.680318  0.686529  0.993789  1
  As  As5  1  0.307259  0.313471  0.993789  1
  As  As6  1  0.993789  0.686529  0.680318  1
  As  As7  1  0.993789  0.313471  0.307259  1
  As  As8  1  0.340774  0.000000  0.340774  1
  Pd  Pd9  1  0.719820  0.000000  0.719820  1
  Rh  Rh10  1  0.493794  0.746385  0.240181  1
  Rh  Rh11  1  0.747408  0.253615  0.493794  1
  Rh  Rh12  1  0.240181  0.746385  0.493794  1
  Rh  Rh13  1  0.244586  0.500000  0.744586  1
  Rh  Rh14  1  0.044609  0.000000  0.044609  1
  Rh  Rh15  1  0.493794  0.253615  0.747408  1
  Rh  Rh16  1  0.744586  0.500000  0.244586  1
