# generated using pymatgen
data_Y2ErHf(Al3Ir)6
_symmetry_space_group_name_H-M   'P 1'
_cell_length_a   7.53169800
_cell_length_b   7.52283351
_cell_length_c   9.39988100
_cell_angle_alpha   90.00000000
_cell_angle_beta   90.00000000
_cell_angle_gamma   119.60028658
_symmetry_Int_Tables_number   1
_chemical_formula_structural   Y2ErHf(Al3Ir)6
_chemical_formula_sum   'Y2 Er1 Hf1 Al18 Ir6'
_cell_volume   463.08693001
_cell_formula_units_Z   1
loop_
 _symmetry_equiv_pos_site_id
 _symmetry_equiv_pos_as_xyz
  1  'x, y, z'
loop_
 _atom_site_type_symbol
 _atom_site_label
 _atom_site_symmetry_multiplicity
 _atom_site_fract_x
 _atom_site_fract_y
 _atom_site_fract_z
 _atom_site_occupancy
  Y  Y0  1  0.005527  0.327712  0.750000  1
  Y  Y1  1  0.329118  0.006248  0.750000  1
  Er  Er2  1  0.671323  0.995658  0.250000  1
  Hf  Hf3  1  0.997341  0.673147  0.250000  1
  Al  Al4  1  0.126139  0.123505  0.250000  1
  Al  Al5  1  0.870751  0.869479  0.750000  1
  Al  Al6  1  0.999909  0.337787  0.079357  1
  Al  Al7  1  0.999149  0.664964  0.929585  1
  Al  Al8  1  0.999149  0.664964  0.570415  1
  Al  Al9  1  0.332706  0.998034  0.420543  1
  Al  Al10  1  0.999909  0.337787  0.420643  1
  Al  Al11  1  0.664659  0.998234  0.573988  1
  Al  Al12  1  0.664659  0.998234  0.926012  1
  Al  Al13  1  0.332706  0.998034  0.079457  1
  Al  Al14  1  0.333713  0.333794  0.550195  1
  Al  Al15  1  0.668873  0.666919  0.443319  1
  Al  Al16  1  0.668873  0.666919  0.056681  1
  Al  Al17  1  0.333713  0.333794  0.949805  1
  Al  Al18  1  0.335904  0.549356  0.250000  1
  Al  Al19  1  0.660799  0.452560  0.750000  1
  Al  Al20  1  0.555143  0.344670  0.250000  1
  Al  Al21  1  0.451217  0.659620  0.750000  1
  Ir  Ir22  1  0.672694  0.328433  0.001389  1
  Ir  Ir23  1  0.327724  0.672387  0.002075  1
  Ir  Ir24  1  0.327724  0.672387  0.497925  1
  Ir  Ir25  1  0.672694  0.328433  0.498611  1
  Ir  Ir26  1  0.998941  0.998471  0.001718  1
  Ir  Ir27  1  0.998941  0.998471  0.498282  1
