# generated using pymatgen
data_Yb3HoGa14(Si2Ir3)2
_symmetry_space_group_name_H-M   'P 1'
_cell_length_a   7.53509211
_cell_length_b   7.49073432
_cell_length_c   9.52320964
_cell_angle_alpha   90.01320533
_cell_angle_beta   89.98254671
_cell_angle_gamma   120.17194514
_symmetry_Int_Tables_number   1
_chemical_formula_structural   Yb3HoGa14(Si2Ir3)2
_chemical_formula_sum   'Yb3 Ho1 Ga14 Si4 Ir6'
_cell_volume   464.69909935
_cell_formula_units_Z   1
loop_
 _symmetry_equiv_pos_site_id
 _symmetry_equiv_pos_as_xyz
  1  'x, y, z'
loop_
 _atom_site_type_symbol
 _atom_site_label
 _atom_site_symmetry_multiplicity
 _atom_site_fract_x
 _atom_site_fract_y
 _atom_site_fract_z
 _atom_site_occupancy
  Yb  Yb0  1  0.003327  0.338005  0.749555  1
  Yb  Yb1  1  0.667827  0.001358  0.249998  1
  Yb  Yb2  1  0.327373  0.996006  0.750269  1
  Ho  Ho3  1  0.000065  0.667131  0.249981  1
  Ga  Ga4  1  0.129390  0.127777  0.249973  1
  Ga  Ga5  1  0.873785  0.870618  0.749933  1
  Ga  Ga6  1  0.997412  0.326056  0.420976  1
  Ga  Ga7  1  0.671167  0.001678  0.581462  1
  Ga  Ga8  1  0.663594  0.999630  0.918667  1
  Ga  Ga9  1  0.340074  0.003107  0.079347  1
  Ga  Ga10  1  0.331712  0.334729  0.570035  1
  Ga  Ga11  1  0.662870  0.669973  0.429967  1
  Ga  Ga12  1  0.661399  0.670116  0.070036  1
  Ga  Ga13  1  0.336700  0.330678  0.929789  1
  Ga  Ga14  1  0.335522  0.546878  0.250272  1
  Ga  Ga15  1  0.664569  0.455417  0.751078  1
  Ga  Ga16  1  0.547184  0.339140  0.249881  1
  Ga  Ga17  1  0.450214  0.662283  0.749093  1
  Si  Si18  1  0.000209  0.327705  0.070438  1
  Si  Si19  1  0.998419  0.670565  0.931697  1
  Si  Si20  1  0.995719  0.660984  0.568057  1
  Si  Si21  1  0.339061  0.004747  0.429335  1
  Ir  Ir22  1  0.695270  0.343186  0.003408  1
  Ir  Ir23  1  0.304203  0.656867  0.998358  1
  Ir  Ir24  1  0.317539  0.680445  0.498652  1
  Ir  Ir25  1  0.671423  0.330583  0.499691  1
  Ir  Ir26  1  0.000608  0.998491  0.001024  1
  Ir  Ir27  1  0.013363  0.985850  0.499031  1
