# generated using pymatgen
data_SrPr(Al5Ru)4
_symmetry_space_group_name_H-M   'P 1'
_cell_length_a   6.90943728
_cell_length_b   6.90943713
_cell_length_c   9.23418900
_cell_angle_alpha   90.00000000
_cell_angle_beta   90.00000000
_cell_angle_gamma   96.65662722
_symmetry_Int_Tables_number   1
_chemical_formula_structural   SrPr(Al5Ru)4
_chemical_formula_sum   'Sr1 Pr1 Al20 Ru4'
_cell_volume   437.87129748
_cell_formula_units_Z   1
loop_
 _symmetry_equiv_pos_site_id
 _symmetry_equiv_pos_as_xyz
  1  'x, y, z'
loop_
 _atom_site_type_symbol
 _atom_site_label
 _atom_site_symmetry_multiplicity
 _atom_site_fract_x
 _atom_site_fract_y
 _atom_site_fract_z
 _atom_site_occupancy
  Sr  Sr0  1  0.878066  0.121934  0.750000  1
  Pr  Pr1  1  0.121696  0.878304  0.250000  1
  Al  Al2  1  0.410385  0.139730  0.750000  1
  Al  Al3  1  0.138725  0.411429  0.250000  1
  Al  Al4  1  0.588571  0.861275  0.250000  1
  Al  Al5  1  0.860270  0.589615  0.750000  1
  Al  Al6  1  0.518918  0.778510  0.750000  1
  Al  Al7  1  0.779526  0.518208  0.250000  1
  Al  Al8  1  0.481792  0.220474  0.250000  1
  Al  Al9  1  0.221490  0.481082  0.750000  1
  Al  Al10  1  0.839744  0.160256  0.399062  1
  Al  Al11  1  0.163420  0.836580  0.601263  1
  Al  Al12  1  0.839744  0.160256  0.100938  1
  Al  Al13  1  0.163420  0.836580  0.898737  1
  Al  Al14  1  0.622325  0.377675  0.548406  1
  Al  Al15  1  0.377970  0.622030  0.449247  1
  Al  Al16  1  0.622325  0.377675  0.951594  1
  Al  Al17  1  0.377970  0.622030  0.050753  1
  Al  Al18  1  0.771451  0.772595  0.000336  1
  Al  Al19  1  0.771451  0.772595  0.499664  1
  Al  Al20  1  0.227405  0.228549  0.000336  1
  Al  Al21  1  0.227405  0.228549  0.499664  1
  Ru  Ru22  1  0.498086  0.000122  0.001256  1
  Ru  Ru23  1  0.999878  0.501914  0.001256  1
  Ru  Ru24  1  0.498086  0.000122  0.498744  1
  Ru  Ru25  1  0.999878  0.501914  0.498744  1
