# generated using pymatgen
data_Ac3Ho(AsPd)4
_symmetry_space_group_name_H-M   'P 1'
_cell_length_a   4.45605400
_cell_length_b   8.13738106
_cell_length_c   7.73849617
_cell_angle_alpha   89.84135058
_cell_angle_beta   90.00000000
_cell_angle_gamma   90.00000000
_symmetry_Int_Tables_number   1
_chemical_formula_structural   Ac3Ho(AsPd)4
_chemical_formula_sum   'Ac3 Ho1 As4 Pd4'
_cell_volume   280.60151151
_cell_formula_units_Z   1
loop_
 _symmetry_equiv_pos_site_id
 _symmetry_equiv_pos_as_xyz
  1  'x, y, z'
loop_
 _atom_site_type_symbol
 _atom_site_label
 _atom_site_symmetry_multiplicity
 _atom_site_fract_x
 _atom_site_fract_y
 _atom_site_fract_z
 _atom_site_occupancy
  Ac  Ac0  1  0.250000  0.998948  0.247901  1
  Ac  Ac1  1  0.750000  0.000190  0.751256  1
  Ac  Ac2  1  0.250000  0.499384  0.253499  1
  Ho  Ho3  1  0.750000  0.500632  0.750239  1
  As  As4  1  0.250000  0.739655  0.588396  1
  As  As5  1  0.750000  0.245921  0.420343  1
  As  As6  1  0.250000  0.273507  0.910427  1
  As  As7  1  0.750000  0.749083  0.078631  1
  Pd  Pd8  1  0.750000  0.259743  0.079169  1
  Pd  Pd9  1  0.250000  0.729108  0.915013  1
  Pd  Pd10  1  0.750000  0.739067  0.421108  1
  Pd  Pd11  1  0.250000  0.264762  0.584017  1
