# generated using pymatgen
data_Tc4Ir2OsRh
_symmetry_space_group_name_H-M   'P 1'
_cell_length_a   5.52582301
_cell_length_b   5.52582344
_cell_length_c   4.37250800
_cell_angle_alpha   90.00000000
_cell_angle_beta   90.00000000
_cell_angle_gamma   120.35436629
_symmetry_Int_Tables_number   1
_chemical_formula_structural   Tc4Ir2OsRh
_chemical_formula_sum   'Tc4 Ir2 Os1 Rh1'
_cell_volume   115.21083564
_cell_formula_units_Z   1
loop_
 _symmetry_equiv_pos_site_id
 _symmetry_equiv_pos_as_xyz
  1  'x, y, z'
loop_
 _atom_site_type_symbol
 _atom_site_label
 _atom_site_symmetry_multiplicity
 _atom_site_fract_x
 _atom_site_fract_y
 _atom_site_fract_z
 _atom_site_occupancy
  Tc  Tc0  1  0.329668  0.165637  0.750000  1
  Tc  Tc1  1  0.834363  0.670332  0.750000  1
  Tc  Tc2  1  0.671832  0.835797  0.250000  1
  Tc  Tc3  1  0.164203  0.328168  0.250000  1
  Ir  Ir4  1  0.666731  0.333269  0.250000  1
  Ir  Ir5  1  0.335549  0.664451  0.750000  1
  Os  Os6  1  0.162968  0.837032  0.250000  1
  Rh  Rh7  1  0.834687  0.165313  0.750000  1
