# generated using pymatgen
data_Er8Ga12FeAg3
_symmetry_space_group_name_H-M   'P 1'
_cell_length_a   6.98006000
_cell_length_b   8.92854766
_cell_length_c   8.92854700
_cell_angle_alpha   120.00000124
_cell_angle_beta   90.00000000
_cell_angle_gamma   90.00000000
_symmetry_Int_Tables_number   1
_chemical_formula_structural   Er8Ga12FeAg3
_chemical_formula_sum   'Er8 Ga12 Fe1 Ag3'
_cell_volume   481.89385976
_cell_formula_units_Z   1
loop_
 _symmetry_equiv_pos_site_id
 _symmetry_equiv_pos_as_xyz
  1  'x, y, z'
loop_
 _atom_site_type_symbol
 _atom_site_label
 _atom_site_symmetry_multiplicity
 _atom_site_fract_x
 _atom_site_fract_y
 _atom_site_fract_z
 _atom_site_occupancy
  Er  Er0  1  0.741795  0.000000  0.000000  1
  Er  Er1  1  0.249741  0.000000  0.000000  1
  Er  Er2  1  0.748609  0.488126  0.511874  1
  Er  Er3  1  0.260959  0.524298  0.475702  1
  Er  Er4  1  0.748609  0.023747  0.511874  1
  Er  Er5  1  0.260959  0.951406  0.475702  1
  Er  Er6  1  0.748609  0.488126  0.976253  1
  Er  Er7  1  0.260959  0.524298  0.048594  1
  Ga  Ga8  1  0.960148  0.836488  0.163512  1
  Ga  Ga9  1  0.042370  0.165557  0.834443  1
  Ga  Ga10  1  0.960148  0.327025  0.163512  1
  Ga  Ga11  1  0.460985  0.164239  0.835761  1
  Ga  Ga12  1  0.042370  0.668886  0.834443  1
  Ga  Ga13  1  0.542897  0.825621  0.174379  1
  Ga  Ga14  1  0.960148  0.836488  0.672975  1
  Ga  Ga15  1  0.460985  0.671521  0.835761  1
  Ga  Ga16  1  0.042370  0.165557  0.331114  1
  Ga  Ga17  1  0.542897  0.348760  0.174379  1
  Ga  Ga18  1  0.460985  0.164239  0.328479  1
  Ga  Ga19  1  0.542897  0.825621  0.651240  1
  Fe  Fe20  1  0.512156  0.666667  0.333333  1
  Ag  Ag21  1  0.944607  0.666667  0.333333  1
  Ag  Ag22  1  0.038955  0.333333  0.666667  1
  Ag  Ag23  1  0.464846  0.333333  0.666667  1
