# generated using pymatgen
data_Eu4ScPb3
_symmetry_space_group_name_H-M   'P 1'
_cell_length_a   9.46591082
_cell_length_b   9.46591090
_cell_length_c   9.46591175
_cell_angle_alpha   97.33432948
_cell_angle_beta   96.35498511
_cell_angle_gamma   139.61013406
_symmetry_Int_Tables_number   1
_chemical_formula_structural   Eu4ScPb3
_chemical_formula_sum   'Eu8 Sc2 Pb6'
_cell_volume   515.79531235
_cell_formula_units_Z   2
loop_
 _symmetry_equiv_pos_site_id
 _symmetry_equiv_pos_as_xyz
  1  'x, y, z'
loop_
 _atom_site_type_symbol
 _atom_site_label
 _atom_site_symmetry_multiplicity
 _atom_site_fract_x
 _atom_site_fract_y
 _atom_site_fract_z
 _atom_site_occupancy
  Eu  Eu0  1  0.087435  0.217821  0.305260  1
  Eu  Eu1  1  0.912565  0.782179  0.694740  1
  Eu  Eu2  1  0.782354  0.087494  0.869851  1
  Eu  Eu3  1  0.412561  0.717821  0.130386  1
  Eu  Eu4  1  0.217646  0.912506  0.130149  1
  Eu  Eu5  1  0.587439  0.282179  0.869614  1
  Eu  Eu6  1  0.717643  0.587494  0.305140  1
  Eu  Eu7  1  0.282357  0.412506  0.694860  1
  Sc  Sc8  1  0.250000  0.750000  0.500000  1
  Sc  Sc9  1  0.750000  0.250000  0.500000  1
  Pb  Pb10  1  0.146093  0.646254  0.792345  1
  Pb  Pb11  1  0.853907  0.353746  0.207655  1
  Pb  Pb12  1  0.353907  0.146254  0.500160  1
  Pb  Pb13  1  0.646093  0.853746  0.499840  1
  Pb  Pb14  1  0.250000  0.250000  0.000000  1
  Pb  Pb15  1  0.750000  0.750000  0.000000  1
