# generated using pymatgen
data_Y2Co5Si2NiB2
_symmetry_space_group_name_H-M   'P 1'
_cell_length_a   5.11284144
_cell_length_b   5.11284230
_cell_length_c   6.49128100
_cell_angle_alpha   90.00000000
_cell_angle_beta   90.00000000
_cell_angle_gamma   119.80447039
_symmetry_Int_Tables_number   1
_chemical_formula_structural   Y2Co5Si2NiB2
_chemical_formula_sum   'Y2 Co5 Si2 Ni1 B2'
_cell_volume   147.24416061
_cell_formula_units_Z   1
loop_
 _symmetry_equiv_pos_site_id
 _symmetry_equiv_pos_as_xyz
  1  'x, y, z'
loop_
 _atom_site_type_symbol
 _atom_site_label
 _atom_site_symmetry_multiplicity
 _atom_site_fract_x
 _atom_site_fract_y
 _atom_site_fract_z
 _atom_site_occupancy
  Y  Y0  1  0.000000  0.000000  0.500825  1
  Y  Y1  1  0.000000  0.000000  0.996439  1
  Co  Co2  1  0.500000  0.000000  0.283207  1
  Co  Co3  1  0.000000  0.500000  0.283207  1
  Co  Co4  1  0.500000  0.000000  0.715766  1
  Co  Co5  1  0.500000  0.500000  0.719842  1
  Co  Co6  1  0.000000  0.500000  0.715766  1
  Si  Si7  1  0.331293  0.668707  0.998415  1
  Si  Si8  1  0.668707  0.331293  0.998415  1
  Ni  Ni9  1  0.500000  0.500000  0.283058  1
  B  B10  1  0.668487  0.331513  0.502530  1
  B  B11  1  0.331513  0.668487  0.502530  1
