# generated using pymatgen
data_PaNi4
_symmetry_space_group_name_H-M   'P 1'
_cell_length_a   4.83488360
_cell_length_b   4.83424080
_cell_length_c   10.31564300
_cell_angle_alpha   85.30213440
_cell_angle_beta   80.57358525
_cell_angle_gamma   59.99560699
_symmetry_Int_Tables_number   1
_chemical_formula_structural   PaNi4
_chemical_formula_sum   'Pa3 Ni12'
_cell_volume   205.97649974
_cell_formula_units_Z   3
loop_
 _symmetry_equiv_pos_site_id
 _symmetry_equiv_pos_as_xyz
  1  'x, y, z'
loop_
 _atom_site_type_symbol
 _atom_site_label
 _atom_site_symmetry_multiplicity
 _atom_site_fract_x
 _atom_site_fract_y
 _atom_site_fract_z
 _atom_site_occupancy
  Pa  Pa0  1  0.137628  0.000000  0.647197  1
  Pa  Pa1  1  0.000000  0.000000  0.000000  1
  Pa  Pa2  1  0.862372  0.000000  0.352803  1
  Ni  Ni3  1  0.571525  0.499753  0.801385  1
  Ni  Ni4  1  0.071278  0.500247  0.801385  1
  Ni  Ni5  1  0.428475  0.500247  0.198615  1
  Ni  Ni6  1  0.428329  0.000000  0.200147  1
  Ni  Ni7  1  0.928722  0.499753  0.198615  1
  Ni  Ni8  1  0.665326  0.669347  0.000000  1
  Ni  Ni9  1  0.571671  0.000000  0.799853  1
  Ni  Ni10  1  0.188506  0.330868  0.406892  1
  Ni  Ni11  1  0.811494  0.669132  0.593108  1
  Ni  Ni12  1  0.480627  0.330868  0.593108  1
  Ni  Ni13  1  0.519373  0.669132  0.406892  1
  Ni  Ni14  1  0.334674  0.330653  0.000000  1
