# generated using pymatgen
data_Yb4AlRu7
_symmetry_space_group_name_H-M   'P 1'
_cell_length_a   5.29520108
_cell_length_b   5.29520088
_cell_length_c   8.64314215
_cell_angle_alpha   90.01851920
_cell_angle_beta   89.98148375
_cell_angle_gamma   119.94854825
_symmetry_Int_Tables_number   1
_chemical_formula_structural   Yb4AlRu7
_chemical_formula_sum   'Yb4 Al1 Ru7'
_cell_volume   209.98684361
_cell_formula_units_Z   1
loop_
 _symmetry_equiv_pos_site_id
 _symmetry_equiv_pos_as_xyz
  1  'x, y, z'
loop_
 _atom_site_type_symbol
 _atom_site_label
 _atom_site_symmetry_multiplicity
 _atom_site_fract_x
 _atom_site_fract_y
 _atom_site_fract_z
 _atom_site_occupancy
  Yb  Yb0  1  0.666660  0.333340  0.568816  1
  Yb  Yb1  1  0.333340  0.666660  0.431184  1
  Yb  Yb2  1  0.333304  0.666696  0.065413  1
  Yb  Yb3  1  0.666696  0.333304  0.934587  1
  Al  Al4  1  0.000000  0.000000  0.500000  1
  Ru  Ru5  1  0.000000  0.000000  0.000000  1
  Ru  Ru6  1  0.171428  0.342844  0.748650  1
  Ru  Ru7  1  0.171442  0.828558  0.748581  1
  Ru  Ru8  1  0.657156  0.828572  0.748650  1
  Ru  Ru9  1  0.828572  0.657156  0.251350  1
  Ru  Ru10  1  0.828558  0.171442  0.251419  1
  Ru  Ru11  1  0.342844  0.171428  0.251350  1
