# generated using pymatgen
data_BI31
_symmetry_space_group_name_H-M   'P 1'
_cell_length_a   9.15498000
_cell_length_b   10.53347653
_cell_length_c   20.86355400
_cell_angle_alpha   80.71571424
_cell_angle_beta   90.00000000
_cell_angle_gamma   90.00000000
_symmetry_Int_Tables_number   1
_chemical_formula_structural   BI31
_chemical_formula_sum   'B1 I31'
_cell_volume   1985.59454738
_cell_formula_units_Z   1
loop_
 _symmetry_equiv_pos_site_id
 _symmetry_equiv_pos_as_xyz
  1  'x, y, z'
loop_
 _atom_site_type_symbol
 _atom_site_label
 _atom_site_symmetry_multiplicity
 _atom_site_fract_x
 _atom_site_fract_y
 _atom_site_fract_z
 _atom_site_occupancy
  B  B0  1  0.750000  0.856939  0.158523  1
  I  I1  1  0.750000  0.420589  0.345907  1
  I  I2  1  0.250000  0.587296  0.643263  1
  I  I3  1  0.250000  0.151128  0.847038  1
  I  I4  1  0.250000  0.371522  0.179230  1
  I  I5  1  0.750000  0.911700  0.775461  1
  I  I6  1  0.750000  0.821293  0.264086  1
  I  I7  1  0.549211  0.816796  0.109066  1
  I  I8  1  0.250000  0.601977  0.248515  1
  I  I9  1  0.502823  0.767466  0.604169  1
  I  I10  1  0.250000  0.636876  0.777534  1
  I  I11  1  0.250000  0.099938  0.447862  1
  I  I12  1  0.750000  0.598778  0.450301  1
  I  I13  1  0.498872  0.274974  0.901302  1
  I  I14  1  0.250000  0.732577  0.924621  1
  I  I15  1  0.750000  0.270725  0.221381  1
  I  I16  1  0.495875  0.256578  0.398579  1
  I  I17  1  0.750000  0.181411  0.656237  1
  I  I18  1  0.250000  0.830938  0.307468  1
  I  I19  1  0.004125  0.256578  0.398579  1
  I  I20  1  0.750000  0.936561  0.566503  1
  I  I21  1  0.950789  0.816796  0.109066  1
  I  I22  1  0.250000  0.090939  0.233781  1
  I  I23  1  0.750000  0.112950  0.125180  1
  I  I24  1  0.750000  0.673853  0.853642  1
  I  I25  1  0.750000  0.399500  0.711351  1
  I  I26  1  0.250000  0.552317  0.036206  1
  I  I27  1  0.997177  0.767466  0.604169  1
  I  I28  1  0.750000  0.400290  0.957908  1
  I  I29  1  0.250000  0.482903  0.519141  1
  I  I30  1  0.250000  0.045374  0.722627  1
  I  I31  1  0.001128  0.274974  0.901302  1
