# generated using pymatgen
data_Hf5Zr3InCu8Hg3
_symmetry_space_group_name_H-M   'P 1'
_cell_length_a   7.18530262
_cell_length_b   7.20582259
_cell_length_c   6.83844639
_cell_angle_alpha   90.00031378
_cell_angle_beta   90.03753303
_cell_angle_gamma   89.89705730
_symmetry_Int_Tables_number   1
_chemical_formula_structural   Hf5Zr3InCu8Hg3
_chemical_formula_sum   'Hf5 Zr3 In1 Cu8 Hg3'
_cell_volume   354.06686141
_cell_formula_units_Z   1
loop_
 _symmetry_equiv_pos_site_id
 _symmetry_equiv_pos_as_xyz
  1  'x, y, z'
loop_
 _atom_site_type_symbol
 _atom_site_label
 _atom_site_symmetry_multiplicity
 _atom_site_fract_x
 _atom_site_fract_y
 _atom_site_fract_z
 _atom_site_occupancy
  Hf  Hf0  1  0.352039  0.647770  0.499068  1
  Hf  Hf1  1  0.690096  0.305408  0.001577  1
  Hf  Hf2  1  0.309197  0.695007  0.001282  1
  Hf  Hf3  1  0.805415  0.809933  0.498694  1
  Hf  Hf4  1  0.194516  0.190318  0.498614  1
  Zr  Zr5  1  0.148860  0.148533  0.000571  1
  Zr  Zr6  1  0.851714  0.850662  0.000728  1
  Zr  Zr7  1  0.649533  0.351117  0.499367  1
  In  In8  1  0.999067  0.499978  0.750348  1
  Cu  Cu9  1  0.374885  0.378850  0.202647  1
  Cu  Cu10  1  0.623023  0.623450  0.796150  1
  Cu  Cu11  1  0.622732  0.623618  0.202685  1
  Cu  Cu12  1  0.877946  0.123492  0.702061  1
  Cu  Cu13  1  0.877868  0.123234  0.299297  1
  Cu  Cu14  1  0.374563  0.379159  0.795739  1
  Cu  Cu15  1  0.124547  0.874562  0.301159  1
  Cu  Cu16  1  0.124226  0.873882  0.699898  1
  Hg  Hg17  1  0.500070  0.000490  0.248990  1
  Hg  Hg18  1  0.500100  0.000428  0.750995  1
  Hg  Hg19  1  0.999603  0.500107  0.250128  1
