# generated using pymatgen
data_Er5AlSe4
_symmetry_space_group_name_H-M   'P 1'
_cell_length_a   7.09044749
_cell_length_b   7.09039209
_cell_length_c   7.09045723
_cell_angle_alpha   99.53131123
_cell_angle_beta   99.53054167
_cell_angle_gamma   131.97668896
_symmetry_Int_Tables_number   1
_chemical_formula_structural   Er5AlSe4
_chemical_formula_sum   'Er5 Al1 Se4'
_cell_volume   242.07199180
_cell_formula_units_Z   1
loop_
 _symmetry_equiv_pos_site_id
 _symmetry_equiv_pos_as_xyz
  1  'x, y, z'
loop_
 _atom_site_type_symbol
 _atom_site_label
 _atom_site_symmetry_multiplicity
 _atom_site_fract_x
 _atom_site_fract_y
 _atom_site_fract_z
 _atom_site_occupancy
  Er  Er0  1  0.402412  0.795109  0.197520  1
  Er  Er1  1  0.000000  0.000000  0.000000  1
  Er  Er2  1  0.597588  0.204891  0.802480  1
  Er  Er3  1  0.204894  0.402418  0.607306  1
  Er  Er4  1  0.795106  0.597582  0.392694  1
  Al  Al5  1  0.500000  0.500000  0.000000  1
  Se  Se6  1  0.097878  0.696633  0.794515  1
  Se  Se7  1  0.696641  0.902123  0.598752  1
  Se  Se8  1  0.303359  0.097877  0.401248  1
  Se  Se9  1  0.902122  0.303367  0.205485  1
