# generated using pymatgen
data_Ca4B16Os3Ru11
_symmetry_space_group_name_H-M   'P 1'
_cell_length_a   6.44074626
_cell_length_b   6.44186026
_cell_length_c   10.12178700
_cell_angle_alpha   90.00000000
_cell_angle_beta   90.00000000
_cell_angle_gamma   89.96766646
_symmetry_Int_Tables_number   1
_chemical_formula_structural   Ca4B16Os3Ru11
_chemical_formula_sum   'Ca4 B16 Os3 Ru11'
_cell_volume   419.95679624
_cell_formula_units_Z   1
loop_
 _symmetry_equiv_pos_site_id
 _symmetry_equiv_pos_as_xyz
  1  'x, y, z'
loop_
 _atom_site_type_symbol
 _atom_site_label
 _atom_site_symmetry_multiplicity
 _atom_site_fract_x
 _atom_site_fract_y
 _atom_site_fract_z
 _atom_site_occupancy
  Ca  Ca0  1  0.732321  0.886263  0.000000  1
  Ca  Ca1  1  0.112776  0.732420  0.500000  1
  Ca  Ca2  1  0.891194  0.267267  0.500000  1
  Ca  Ca3  1  0.267558  0.113550  0.000000  1
  B  B4  1  0.500825  0.999663  0.588569  1
  B  B5  1  0.500825  0.999663  0.411431  1
  B  B6  1  0.898828  0.271597  0.164402  1
  B  B7  1  0.101295  0.728192  0.835483  1
  B  B8  1  0.499040  0.500940  0.340260  1
  B  B9  1  0.500010  0.500085  0.840305  1
  B  B10  1  0.268939  0.101204  0.662678  1
  B  B11  1  0.101295  0.728192  0.164517  1
  B  B12  1  0.268939  0.101204  0.337322  1
  B  B13  1  0.898828  0.271597  0.835598  1
  B  B14  1  0.499040  0.500940  0.659740  1
  B  B15  1  0.500010  0.500085  0.159695  1
  B  B16  1  0.999844  0.499954  0.911484  1
  B  B17  1  0.728762  0.898282  0.664740  1
  B  B18  1  0.728762  0.898282  0.335260  1
  B  B19  1  0.999844  0.499954  0.088516  1
  Os  Os20  1  0.406977  0.289091  0.500000  1
  Os  Os21  1  0.999700  0.999788  0.249676  1
  Os  Os22  1  0.999700  0.999788  0.750324  1
  Ru  Ru23  1  0.204903  0.393360  0.755440  1
  Ru  Ru24  1  0.392794  0.795563  0.255825  1
  Ru  Ru25  1  0.204903  0.393360  0.244560  1
  Ru  Ru26  1  0.593786  0.710485  0.500000  1
  Ru  Ru27  1  0.607984  0.205165  0.743693  1
  Ru  Ru28  1  0.288284  0.593405  0.000000  1
  Ru  Ru29  1  0.711230  0.406262  0.000000  1
  Ru  Ru30  1  0.795012  0.606836  0.243871  1
  Ru  Ru31  1  0.795012  0.606836  0.756129  1
  Ru  Ru32  1  0.392794  0.795563  0.744175  1
  Ru  Ru33  1  0.607984  0.205165  0.256307  1
