# generated using pymatgen
data_La3SmBi2(SbO7)2
_symmetry_space_group_name_H-M   'P 1'
_cell_length_a   6.73124574
_cell_length_b   6.75581870
_cell_length_c   7.75566900
_cell_angle_alpha   90.00000000
_cell_angle_beta   90.00000000
_cell_angle_gamma   110.62849568
_symmetry_Int_Tables_number   1
_chemical_formula_structural   La3SmBi2(SbO7)2
_chemical_formula_sum   'La3 Sm1 Bi2 Sb2 O14'
_cell_volume   330.07674020
_cell_formula_units_Z   1
loop_
 _symmetry_equiv_pos_site_id
 _symmetry_equiv_pos_as_xyz
  1  'x, y, z'
loop_
 _atom_site_type_symbol
 _atom_site_label
 _atom_site_symmetry_multiplicity
 _atom_site_fract_x
 _atom_site_fract_y
 _atom_site_fract_z
 _atom_site_occupancy
  La  La0  1  0.004885  0.992548  0.498263  1
  La  La1  1  0.004885  0.992548  0.001737  1
  La  La2  1  0.493070  0.953434  0.750000  1
  Sm  Sm3  1  0.046350  0.504360  0.250000  1
  Bi  Bi4  1  0.517997  0.034686  0.250000  1
  Bi  Bi5  1  0.962648  0.482421  0.750000  1
  Sb  Sb6  1  0.497814  0.502304  0.498330  1
  Sb  Sb7  1  0.497814  0.502304  0.001670  1
  O  O8  1  0.428514  0.191830  0.531550  1
  O  O9  1  0.807328  0.562033  0.460935  1
  O  O10  1  0.428514  0.191830  0.968450  1
  O  O11  1  0.807328  0.562033  0.039065  1
  O  O12  1  0.566038  0.819499  0.465605  1
  O  O13  1  0.182266  0.449576  0.531098  1
  O  O14  1  0.566038  0.819499  0.034395  1
  O  O15  1  0.182266  0.449576  0.968902  1
  O  O16  1  0.164139  0.870169  0.250000  1
  O  O17  1  0.119157  0.835433  0.750000  1
  O  O18  1  0.865102  0.104402  0.750000  1
  O  O19  1  0.899704  0.142449  0.250000  1
  O  O20  1  0.398506  0.447469  0.250000  1
  O  O21  1  0.559633  0.589598  0.750000  1
