# generated using pymatgen
data_Hf8TiGa6Mo
_symmetry_space_group_name_H-M   'P 1'
_cell_length_a   7.95045000
_cell_length_b   7.95044978
_cell_length_c   5.52357200
_cell_angle_alpha   90.00000000
_cell_angle_beta   90.00000000
_cell_angle_gamma   119.99999258
_symmetry_Int_Tables_number   1
_chemical_formula_structural   Hf8TiGa6Mo
_chemical_formula_sum   'Hf8 Ti1 Ga6 Mo1'
_cell_volume   302.36679265
_cell_formula_units_Z   1
loop_
 _symmetry_equiv_pos_site_id
 _symmetry_equiv_pos_as_xyz
  1  'x, y, z'
loop_
 _atom_site_type_symbol
 _atom_site_label
 _atom_site_symmetry_multiplicity
 _atom_site_fract_x
 _atom_site_fract_y
 _atom_site_fract_z
 _atom_site_occupancy
  Hf  Hf0  1  0.333333  0.666667  0.500000  1
  Hf  Hf1  1  0.666667  0.333333  0.500000  1
  Hf  Hf2  1  0.756726  0.757751  0.753160  1
  Hf  Hf3  1  0.242249  0.998976  0.753160  1
  Hf  Hf4  1  0.001024  0.243274  0.753160  1
  Hf  Hf5  1  0.242249  0.243274  0.246840  1
  Hf  Hf6  1  0.756726  0.998976  0.246840  1
  Hf  Hf7  1  0.001024  0.757751  0.246840  1
  Ti  Ti8  1  0.666667  0.333333  0.000000  1
  Ga  Ga9  1  0.397365  0.397574  0.763286  1
  Ga  Ga10  1  0.602426  0.999791  0.763286  1
  Ga  Ga11  1  0.000209  0.602635  0.763286  1
  Ga  Ga12  1  0.602426  0.602635  0.236714  1
  Ga  Ga13  1  0.397365  0.999791  0.236714  1
  Ga  Ga14  1  0.000209  0.397574  0.236714  1
  Mo  Mo15  1  0.333333  0.666667  0.000000  1
