# generated using pymatgen
data_Dy16MgHg3IrRh3
_symmetry_space_group_name_H-M   'P 1'
_cell_length_a   9.60794558
_cell_length_b   9.61895164
_cell_length_c   9.61117200
_cell_angle_alpha   60.02675069
_cell_angle_beta   59.98889095
_cell_angle_gamma   60.03038432
_symmetry_Int_Tables_number   1
_chemical_formula_structural   Dy16MgHg3IrRh3
_chemical_formula_sum   'Dy16 Mg1 Hg3 Ir1 Rh3'
_cell_volume   628.30499451
_cell_formula_units_Z   1
loop_
 _symmetry_equiv_pos_site_id
 _symmetry_equiv_pos_as_xyz
  1  'x, y, z'
loop_
 _atom_site_type_symbol
 _atom_site_label
 _atom_site_symmetry_multiplicity
 _atom_site_fract_x
 _atom_site_fract_y
 _atom_site_fract_z
 _atom_site_occupancy
  Dy  Dy0  1  0.063490  0.436716  0.437742  1
  Dy  Dy1  1  0.648054  0.048562  0.651693  1
  Dy  Dy2  1  0.813709  0.811120  0.187586  1
  Dy  Dy3  1  0.437407  0.062985  0.063986  1
  Dy  Dy4  1  0.438720  0.435591  0.062845  1
  Dy  Dy5  1  0.190600  0.190532  0.809433  1
  Dy  Dy6  1  0.814016  0.188498  0.186649  1
  Dy  Dy7  1  0.063490  0.436716  0.062053  1
  Dy  Dy8  1  0.437407  0.062985  0.435622  1
  Dy  Dy9  1  0.058566  0.645888  0.647774  1
  Dy  Dy10  1  0.191171  0.809903  0.809379  1
  Dy  Dy11  1  0.649316  0.651286  0.046516  1
  Dy  Dy12  1  0.191171  0.809903  0.189546  1
  Dy  Dy13  1  0.064543  0.062161  0.436648  1
  Dy  Dy14  1  0.814016  0.188498  0.810838  1
  Dy  Dy15  1  0.649316  0.651286  0.652885  1
  Mg  Mg16  1  0.716620  0.427974  0.427702  1
  Hg  Hg17  1  0.418030  0.412982  0.756003  1
  Hg  Hg18  1  0.418030  0.412982  0.412985  1
  Hg  Hg19  1  0.417975  0.756813  0.412606  1
  Ir  Ir20  1  0.858776  0.427426  0.856899  1
  Rh  Rh21  1  0.426604  0.857265  0.858065  1
  Rh  Rh22  1  0.859487  0.855964  0.427641  1
  Rh  Rh23  1  0.859487  0.855964  0.856907  1
