# generated using pymatgen
data_Nd11Hg8Pd4Pb
_symmetry_space_group_name_H-M   'P 1'
_cell_length_a   13.48117700
_cell_length_b   13.48117759
_cell_length_c   3.81254900
_cell_angle_alpha   90.00000000
_cell_angle_beta   90.00000000
_cell_angle_gamma   112.73943681
_symmetry_Int_Tables_number   1
_chemical_formula_structural   Nd11Hg8Pd4Pb
_chemical_formula_sum   'Nd11 Hg8 Pd4 Pb1'
_cell_volume   639.04319788
_cell_formula_units_Z   1
loop_
 _symmetry_equiv_pos_site_id
 _symmetry_equiv_pos_as_xyz
  1  'x, y, z'
loop_
 _atom_site_type_symbol
 _atom_site_label
 _atom_site_symmetry_multiplicity
 _atom_site_fract_x
 _atom_site_fract_y
 _atom_site_fract_z
 _atom_site_occupancy
  Nd  Nd0  1  0.416569  0.074492  0.000000  1
  Nd  Nd1  1  0.583431  0.925508  0.000000  1
  Nd  Nd2  1  0.074492  0.416569  0.000000  1
  Nd  Nd3  1  0.925508  0.583431  0.000000  1
  Nd  Nd4  1  0.168681  0.831319  0.000000  1
  Nd  Nd5  1  0.831319  0.168681  0.000000  1
  Nd  Nd6  1  0.370614  0.629386  0.000000  1
  Nd  Nd7  1  0.629386  0.370614  0.000000  1
  Nd  Nd8  1  0.292989  0.292989  0.000000  1
  Nd  Nd9  1  0.707011  0.707011  0.000000  1
  Nd  Nd10  1  0.000000  0.000000  0.000000  1
  Hg  Hg11  1  0.369825  0.842486  0.500000  1
  Hg  Hg12  1  0.630175  0.157514  0.500000  1
  Hg  Hg13  1  0.842488  0.369825  0.500000  1
  Hg  Hg14  1  0.157512  0.630175  0.500000  1
  Hg  Hg15  1  0.213714  0.066378  0.500000  1
  Hg  Hg16  1  0.786286  0.933622  0.500000  1
  Hg  Hg17  1  0.066377  0.213713  0.500000  1
  Hg  Hg18  1  0.933623  0.786287  0.500000  1
  Pd  Pd19  1  0.447339  0.247483  0.500000  1
  Pd  Pd20  1  0.552661  0.752517  0.500000  1
  Pd  Pd21  1  0.247484  0.447339  0.500000  1
  Pd  Pd22  1  0.752516  0.552661  0.500000  1
  Pb  Pb23  1  0.500000  0.500000  0.500000  1
