# generated using pymatgen
data_LiPr6Co15(P6Rh)2
_symmetry_space_group_name_H-M   'P 1'
_cell_length_a   3.80607000
_cell_length_b   10.79127300
_cell_length_c   12.54696500
_cell_angle_alpha   90.00000000
_cell_angle_beta   90.00000000
_cell_angle_gamma   90.00000000
_symmetry_Int_Tables_number   1
_chemical_formula_structural   LiPr6Co15(P6Rh)2
_chemical_formula_sum   'Li1 Pr6 Co15 P12 Rh2'
_cell_volume   515.33321781
_cell_formula_units_Z   1
loop_
 _symmetry_equiv_pos_site_id
 _symmetry_equiv_pos_as_xyz
  1  'x, y, z'
loop_
 _atom_site_type_symbol
 _atom_site_label
 _atom_site_symmetry_multiplicity
 _atom_site_fract_x
 _atom_site_fract_y
 _atom_site_fract_z
 _atom_site_occupancy
  Li  Li0  1  0.500000  0.500000  0.150045  1
  Pr  Pr1  1  0.000000  0.500000  0.518877  1
  Pr  Pr2  1  0.500000  0.000000  0.475513  1
  Pr  Pr3  1  0.500000  0.818766  0.206877  1
  Pr  Pr4  1  0.500000  0.181234  0.206877  1
  Pr  Pr5  1  0.000000  0.685539  0.795095  1
  Pr  Pr6  1  0.000000  0.314461  0.795095  1
  Co  Co7  1  0.000000  0.000000  0.293801  1
  Co  Co8  1  0.000000  0.500000  0.989959  1
  Co  Co9  1  0.500000  0.000000  0.012320  1
  Co  Co10  1  0.500000  0.331103  0.998205  1
  Co  Co11  1  0.500000  0.668897  0.998205  1
  Co  Co12  1  0.000000  0.165698  0.005685  1
  Co  Co13  1  0.000000  0.834302  0.005685  1
  Co  Co14  1  0.500000  0.294714  0.430375  1
  Co  Co15  1  0.500000  0.705286  0.430375  1
  Co  Co16  1  0.000000  0.198987  0.568913  1
  Co  Co17  1  0.000000  0.801013  0.568913  1
  Co  Co18  1  0.500000  0.883161  0.708859  1
  Co  Co19  1  0.500000  0.116839  0.708859  1
  Co  Co20  1  0.000000  0.620009  0.293103  1
  Co  Co21  1  0.000000  0.379991  0.293103  1
  P  P22  1  0.500000  0.500000  0.895693  1
  P  P23  1  0.000000  0.000000  0.112800  1
  P  P24  1  0.500000  0.500000  0.339695  1
  P  P25  1  0.000000  0.000000  0.654186  1
  P  P26  1  0.500000  0.296848  0.611197  1
  P  P27  1  0.500000  0.703152  0.611197  1
  P  P28  1  0.000000  0.195108  0.386249  1
  P  P29  1  0.000000  0.804892  0.386249  1
  P  P30  1  0.500000  0.846720  0.898571  1
  P  P31  1  0.500000  0.153280  0.898571  1
  P  P32  1  0.000000  0.655778  0.102937  1
  P  P33  1  0.000000  0.344222  0.102937  1
  Rh  Rh34  1  0.000000  0.000000  0.841509  1
  Rh  Rh35  1  0.500000  0.500000  0.703472  1
