# generated using pymatgen
data_GaSn4B2Ir5Rh
_symmetry_space_group_name_H-M   'P 1'
_cell_length_a   6.65578931
_cell_length_b   6.56685347
_cell_length_c   5.62779805
_cell_angle_alpha   89.98424110
_cell_angle_beta   90.00776681
_cell_angle_gamma   119.55896513
_symmetry_Int_Tables_number   1
_chemical_formula_structural   GaSn4B2Ir5Rh
_chemical_formula_sum   'Ga1 Sn4 B2 Ir5 Rh1'
_cell_volume   213.96314902
_cell_formula_units_Z   1
loop_
 _symmetry_equiv_pos_site_id
 _symmetry_equiv_pos_as_xyz
  1  'x, y, z'
loop_
 _atom_site_type_symbol
 _atom_site_label
 _atom_site_symmetry_multiplicity
 _atom_site_fract_x
 _atom_site_fract_y
 _atom_site_fract_z
 _atom_site_occupancy
  Ga  Ga0  1  0.000000  0.598300  0.001956  1
  Sn  Sn1  1  0.669774  0.333443  0.497937  1
  Sn  Sn2  1  0.401350  0.405317  0.000008  1
  Sn  Sn3  1  0.598650  0.003968  0.000008  1
  Sn  Sn4  1  0.330226  0.663669  0.497937  1
  B  B5  1  0.000000  0.002195  0.499690  1
  B  B6  1  0.000000  0.993589  0.001605  1
  Ir  Ir7  1  0.000000  0.258928  0.251898  1
  Ir  Ir8  1  0.748137  0.743872  0.255293  1
  Ir  Ir9  1  0.250342  0.995699  0.745959  1
  Ir  Ir10  1  0.251863  0.995734  0.255293  1
  Ir  Ir11  1  0.749658  0.745357  0.745959  1
  Rh  Rh12  1  0.000000  0.259930  0.746458  1
