# generated using pymatgen
data_Cs2B9AsSe9
_symmetry_space_group_name_H-M   'P 1'
_cell_length_a   9.97428755
_cell_length_b   10.75114009
_cell_length_c   11.31842500
_cell_angle_alpha   100.14274928
_cell_angle_beta   90.63083407
_cell_angle_gamma   116.28969081
_symmetry_Int_Tables_number   1
_chemical_formula_structural   Cs2B9AsSe9
_chemical_formula_sum   'Cs4 B18 As2 Se18'
_cell_volume   1065.72241217
_cell_formula_units_Z   2
loop_
 _symmetry_equiv_pos_site_id
 _symmetry_equiv_pos_as_xyz
  1  'x, y, z'
loop_
 _atom_site_type_symbol
 _atom_site_label
 _atom_site_symmetry_multiplicity
 _atom_site_fract_x
 _atom_site_fract_y
 _atom_site_fract_z
 _atom_site_occupancy
  Cs  Cs0  1  0.809926  0.166358  0.007522  1
  Cs  Cs1  1  0.190074  0.833642  0.992478  1
  Cs  Cs2  1  0.163698  0.339674  0.497258  1
  Cs  Cs3  1  0.836302  0.660326  0.502742  1
  B  B4  1  0.505905  0.158919  0.547335  1
  B  B5  1  0.494095  0.841081  0.452665  1
  B  B6  1  0.655959  0.124978  0.592064  1
  B  B7  1  0.344041  0.875022  0.407936  1
  B  B8  1  0.476511  0.040262  0.646191  1
  B  B9  1  0.523489  0.959738  0.353809  1
  B  B10  1  0.332409  0.000990  0.530177  1
  B  B11  1  0.667591  0.999010  0.469823  1
  B  B12  1  0.424714  0.059976  0.400173  1
  B  B13  1  0.575286  0.940024  0.599827  1
  B  B14  1  0.622324  0.133340  0.439752  1
  B  B15  1  0.377676  0.866660  0.560248  1
  B  B16  1  0.696395  0.401340  0.733594  1
  B  B17  1  0.303605  0.598660  0.266406  1
  B  B18  1  0.235809  0.083216  0.772206  1
  B  B19  1  0.764191  0.916784  0.227794  1
  B  B20  1  0.580405  0.292453  0.268913  1
  B  B21  1  0.419595  0.707547  0.731087  1
  As  As22  1  0.421537  0.376561  0.033775  1
  As  As23  1  0.578463  0.623439  0.966225  1
  Se  Se24  1  0.525237  0.351665  0.618679  1
  Se  Se25  1  0.474763  0.648335  0.381321  1
  Se  Se26  1  0.814982  0.292660  0.710778  1
  Se  Se27  1  0.185018  0.707340  0.289222  1
  Se  Se28  1  0.433343  0.091699  0.815671  1
  Se  Se29  1  0.566657  0.908301  0.184329  1
  Se  Se30  1  0.154367  0.018351  0.598789  1
  Se  Se31  1  0.845633  0.981649  0.401211  1
  Se  Se32  1  0.371725  0.155925  0.280333  1
  Se  Se33  1  0.628275  0.844075  0.719667  1
  Se  Se34  1  0.750430  0.289501  0.356292  1
  Se  Se35  1  0.249570  0.710499  0.643708  1
  Se  Se36  1  0.775322  0.571346  0.863107  1
  Se  Se37  1  0.224678  0.428654  0.136893  1
  Se  Se38  1  0.127130  0.132856  0.892886  1
  Se  Se39  1  0.872870  0.867144  0.107114  1
  Se  Se40  1  0.645139  0.446219  0.180082  1
  Se  Se41  1  0.354861  0.553781  0.819918  1
