# generated using pymatgen
data_Tb4Dy4Hf12Si15As
_symmetry_space_group_name_H-M   'P 1'
_cell_length_a   7.27949971
_cell_length_b   7.29192436
_cell_length_c   13.39119324
_cell_angle_alpha   89.72972544
_cell_angle_beta   89.95947845
_cell_angle_gamma   89.93352446
_symmetry_Int_Tables_number   1
_chemical_formula_structural   Tb4Dy4Hf12Si15As
_chemical_formula_sum   'Tb4 Dy4 Hf12 Si15 As1'
_cell_volume   710.81688159
_cell_formula_units_Z   1
loop_
 _symmetry_equiv_pos_site_id
 _symmetry_equiv_pos_as_xyz
  1  'x, y, z'
loop_
 _atom_site_type_symbol
 _atom_site_label
 _atom_site_symmetry_multiplicity
 _atom_site_fract_x
 _atom_site_fract_y
 _atom_site_fract_z
 _atom_site_occupancy
  Tb  Tb0  1  0.844191  0.503795  0.964816  1
  Tb  Tb1  1  0.495764  0.154876  0.535564  1
  Tb  Tb2  1  0.344830  0.995703  0.785199  1
  Tb  Tb3  1  0.654780  0.004453  0.284162  1
  Dy  Dy4  1  0.995655  0.345277  0.215174  1
  Dy  Dy5  1  0.004965  0.655916  0.715221  1
  Dy  Dy6  1  0.152789  0.499042  0.466659  1
  Dy  Dy7  1  0.506897  0.842636  0.033886  1
  Hf  Hf8  1  0.174500  0.175149  0.000184  1
  Hf  Hf9  1  0.826293  0.826178  0.500104  1
  Hf  Hf10  1  0.325037  0.677543  0.249757  1
  Hf  Hf11  1  0.674482  0.325563  0.750012  1
  Hf  Hf12  1  0.149632  0.995696  0.372942  1
  Hf  Hf13  1  0.850764  0.003768  0.874720  1
  Hf  Hf14  1  0.503133  0.650155  0.624811  1
  Hf  Hf15  1  0.350854  0.496546  0.875383  1
  Hf  Hf16  1  0.494962  0.348098  0.125176  1
  Hf  Hf17  1  0.653287  0.506423  0.376741  1
  Hf  Hf18  1  0.996807  0.150052  0.625546  1
  Hf  Hf19  1  0.000947  0.848034  0.124367  1
  Si  Si20  1  0.637435  0.705145  0.816509  1
  Si  Si21  1  0.203806  0.863258  0.566343  1
  Si  Si22  1  0.137339  0.794763  0.932557  1
  Si  Si23  1  0.794984  0.138266  0.067327  1
  Si  Si24  1  0.863085  0.204531  0.432699  1
  Si  Si25  1  0.295599  0.362405  0.682940  1
  Si  Si26  1  0.703022  0.635862  0.183688  1
  Si  Si27  1  0.293327  0.039075  0.179861  1
  Si  Si28  1  0.705853  0.950912  0.685715  1
  Si  Si29  1  0.451417  0.795307  0.435927  1
  Si  Si30  1  0.205037  0.547964  0.064518  1
  Si  Si31  1  0.549154  0.204902  0.935902  1
  Si  Si32  1  0.794592  0.451420  0.565121  1
  Si  Si33  1  0.049236  0.294996  0.813991  1
  Si  Si34  1  0.952004  0.705133  0.314570  1
  As  As35  1  0.363542  0.301157  0.321906  1
