# generated using pymatgen
data_Tb16TlIn(AgIr2)2
_symmetry_space_group_name_H-M   'P 1'
_cell_length_a   9.65335421
_cell_length_b   9.65335411
_cell_length_c   9.66147204
_cell_angle_alpha   60.00207817
_cell_angle_beta   60.00207815
_cell_angle_gamma   60.01989181
_symmetry_Int_Tables_number   1
_chemical_formula_structural   Tb16TlIn(AgIr2)2
_chemical_formula_sum   'Tb16 Tl1 In1 Ag2 Ir4'
_cell_volume   636.74225980
_cell_formula_units_Z   1
loop_
 _symmetry_equiv_pos_site_id
 _symmetry_equiv_pos_as_xyz
  1  'x, y, z'
loop_
 _atom_site_type_symbol
 _atom_site_label
 _atom_site_symmetry_multiplicity
 _atom_site_fract_x
 _atom_site_fract_y
 _atom_site_fract_z
 _atom_site_occupancy
  Tb  Tb0  1  0.101062  0.700016  0.099486  1
  Tb  Tb1  1  0.938912  0.938912  0.560204  1
  Tb  Tb2  1  0.940658  0.558645  0.939994  1
  Tb  Tb3  1  0.312070  0.694548  0.309558  1
  Tb  Tb4  1  0.937556  0.559553  0.560631  1
  Tb  Tb5  1  0.312766  0.312766  0.689860  1
  Tb  Tb6  1  0.099209  0.099209  0.097949  1
  Tb  Tb7  1  0.557907  0.557907  0.940371  1
  Tb  Tb8  1  0.100919  0.100919  0.699791  1
  Tb  Tb9  1  0.691843  0.311718  0.685659  1
  Tb  Tb10  1  0.690115  0.690115  0.309402  1
  Tb  Tb11  1  0.694548  0.312070  0.309558  1
  Tb  Tb12  1  0.311718  0.691843  0.685659  1
  Tb  Tb13  1  0.559553  0.937556  0.560631  1
  Tb  Tb14  1  0.700016  0.101062  0.099486  1
  Tb  Tb15  1  0.558645  0.940658  0.939994  1
  Tl  Tl16  1  0.330415  0.330415  0.335734  1
  In  In17  1  0.328256  0.328256  0.007820  1
  Ag  Ag18  1  0.998711  0.332574  0.333369  1
  Ag  Ag19  1  0.332574  0.998711  0.333369  1
  Ir  Ir20  1  0.891939  0.891939  0.891432  1
  Ir  Ir21  1  0.893357  0.893357  0.323750  1
  Ir  Ir22  1  0.325000  0.892245  0.893145  1
  Ir  Ir23  1  0.892245  0.325000  0.893145  1
