# generated using pymatgen
data_TbY3Co6(Ni4B3)2
_symmetry_space_group_name_H-M   'P 1'
_cell_length_a   5.01665927
_cell_length_b   5.01663542
_cell_length_c   12.97429600
_cell_angle_alpha   89.99989281
_cell_angle_beta   90.00022510
_cell_angle_gamma   120.01915809
_symmetry_Int_Tables_number   1
_chemical_formula_structural   TbY3Co6(Ni4B3)2
_chemical_formula_sum   'Tb1 Y3 Co6 Ni8 B6'
_cell_volume   282.72076415
_cell_formula_units_Z   1
loop_
 _symmetry_equiv_pos_site_id
 _symmetry_equiv_pos_as_xyz
  1  'x, y, z'
loop_
 _atom_site_type_symbol
 _atom_site_label
 _atom_site_symmetry_multiplicity
 _atom_site_fract_x
 _atom_site_fract_y
 _atom_site_fract_z
 _atom_site_occupancy
  Tb  Tb0  1  0.999987  0.000000  0.000005  1
  Y  Y1  1  0.999992  0.000000  0.499983  1
  Y  Y2  1  0.999986  0.000000  0.263065  1
  Y  Y3  1  0.999998  0.000000  0.736918  1
  Co  Co4  1  0.499989  0.000000  0.383856  1
  Co  Co5  1  0.499988  0.500001  0.383855  1
  Co  Co6  1  0.999989  0.500001  0.383863  1
  Co  Co7  1  0.499996  0.000000  0.616128  1
  Co  Co8  1  0.499996  0.500000  0.616132  1
  Co  Co9  1  0.999996  0.500000  0.616126  1
  Ni  Ni10  1  0.333329  0.666700  0.000014  1
  Ni  Ni11  1  0.666647  0.333299  0.000015  1
  Ni  Ni12  1  0.499987  0.000000  0.157306  1
  Ni  Ni13  1  0.499986  0.499999  0.157298  1
  Ni  Ni14  1  0.999987  0.500001  0.157294  1
  Ni  Ni15  1  0.499998  0.000000  0.842719  1
  Ni  Ni16  1  0.499998  0.500001  0.842689  1
  Ni  Ni17  1  0.999997  0.500000  0.842705  1
  B  B18  1  0.333323  0.666682  0.499995  1
  B  B19  1  0.666660  0.333317  0.499995  1
  B  B20  1  0.333283  0.666666  0.270701  1
  B  B21  1  0.666692  0.333335  0.270701  1
  B  B22  1  0.666664  0.333314  0.729317  1
  B  B23  1  0.333330  0.666686  0.729317  1
