# generated using pymatgen
data_DyErGeI2
_symmetry_space_group_name_H-M   'P 1'
_cell_length_a   4.21077177
_cell_length_b   4.21130589
_cell_length_c   11.62754526
_cell_angle_alpha   80.18797552
_cell_angle_beta   88.73005679
_cell_angle_gamma   60.19306637
_symmetry_Int_Tables_number   1
_chemical_formula_structural   DyErGeI2
_chemical_formula_sum   'Dy1 Er1 Ge1 I2'
_cell_volume   175.82227156
_cell_formula_units_Z   1
loop_
 _symmetry_equiv_pos_site_id
 _symmetry_equiv_pos_as_xyz
  1  'x, y, z'
loop_
 _atom_site_type_symbol
 _atom_site_label
 _atom_site_symmetry_multiplicity
 _atom_site_fract_x
 _atom_site_fract_y
 _atom_site_fract_z
 _atom_site_occupancy
  Dy  Dy0  1  0.364542  0.254708  0.135123  1
  Er  Er1  1  0.635483  0.745434  0.864682  1
  Ge  Ge2  1  0.999737  0.000596  0.998947  1
  I  I3  1  0.738086  0.485217  0.310960  1
  I  I4  1  0.262151  0.514042  0.690287  1
