# generated using pymatgen
data_YZr2ScIr2
_symmetry_space_group_name_H-M   'P 1'
_cell_length_a   4.51917600
_cell_length_b   6.98133100
_cell_length_c   8.24636900
_cell_angle_alpha   90.00000000
_cell_angle_beta   90.00000000
_cell_angle_gamma   90.00000000
_symmetry_Int_Tables_number   1
_chemical_formula_structural   YZr2ScIr2
_chemical_formula_sum   'Y2 Zr4 Sc2 Ir4'
_cell_volume   260.17181635
_cell_formula_units_Z   2
loop_
 _symmetry_equiv_pos_site_id
 _symmetry_equiv_pos_as_xyz
  1  'x, y, z'
loop_
 _atom_site_type_symbol
 _atom_site_label
 _atom_site_symmetry_multiplicity
 _atom_site_fract_x
 _atom_site_fract_y
 _atom_site_fract_z
 _atom_site_occupancy
  Y  Y0  1  0.750000  0.011906  0.675459  1
  Y  Y1  1  0.750000  0.511906  0.824541  1
  Zr  Zr2  1  0.250000  0.355522  0.567482  1
  Zr  Zr3  1  0.250000  0.855522  0.932518  1
  Zr  Zr4  1  0.750000  0.646531  0.415148  1
  Zr  Zr5  1  0.750000  0.146531  0.084852  1
  Sc  Sc6  1  0.250000  0.983061  0.326005  1
  Sc  Sc7  1  0.250000  0.483061  0.173995  1
  Ir  Ir8  1  0.250000  0.240031  0.913366  1
  Ir  Ir9  1  0.250000  0.740031  0.586634  1
  Ir  Ir10  1  0.750000  0.762947  0.096913  1
  Ir  Ir11  1  0.750000  0.262947  0.403087  1
