# generated using pymatgen
data_Ta24Si7Ge
_symmetry_space_group_name_H-M   'P 1'
_cell_length_a   10.25425684
_cell_length_b   10.24298181
_cell_length_c   5.21815906
_cell_angle_alpha   89.98936887
_cell_angle_beta   89.98547616
_cell_angle_gamma   89.95584487
_symmetry_Int_Tables_number   1
_chemical_formula_structural   Ta24Si7Ge
_chemical_formula_sum   'Ta24 Si7 Ge1'
_cell_volume   548.08479699
_cell_formula_units_Z   1
loop_
 _symmetry_equiv_pos_site_id
 _symmetry_equiv_pos_as_xyz
  1  'x, y, z'
loop_
 _atom_site_type_symbol
 _atom_site_label
 _atom_site_symmetry_multiplicity
 _atom_site_fract_x
 _atom_site_fract_y
 _atom_site_fract_z
 _atom_site_occupancy
  Ta  Ta0  1  0.516646  0.645092  0.726091  1
  Ta  Ta1  1  0.145588  0.982679  0.226783  1
  Ta  Ta2  1  0.100046  0.414133  0.529591  1
  Ta  Ta3  1  0.412430  0.902799  0.473072  1
  Ta  Ta4  1  0.715369  0.813103  0.488787  1
  Ta  Ta5  1  0.687913  0.213362  0.985873  1
  Ta  Ta6  1  0.982491  0.854721  0.773551  1
  Ta  Ta7  1  0.188027  0.713348  0.512801  1
  Ta  Ta8  1  0.085575  0.599712  0.029072  1
  Ta  Ta9  1  0.017441  0.146400  0.773223  1
  Ta  Ta10  1  0.482631  0.354516  0.726633  1
  Ta  Ta11  1  0.309171  0.787464  0.984645  1
  Ta  Ta12  1  0.646864  0.478503  0.272251  1
  Ta  Ta13  1  0.400027  0.085530  0.969595  1
  Ta  Ta14  1  0.213150  0.311367  0.013075  1
  Ta  Ta15  1  0.351981  0.513783  0.275390  1
  Ta  Ta16  1  0.854739  0.018000  0.226699  1
  Ta  Ta17  1  0.914144  0.399687  0.029416  1
  Ta  Ta18  1  0.788714  0.687440  0.013192  1
  Ta  Ta19  1  0.601923  0.916001  0.968570  1
  Ta  Ta20  1  0.586478  0.099858  0.470670  1
  Ta  Ta21  1  0.812633  0.286516  0.513784  1
  Ta  Ta22  1  0.286622  0.188065  0.486876  1
  Ta  Ta23  1  0.899916  0.586246  0.529199  1
  Si  Si24  1  0.971597  0.794864  0.279740  1
  Si  Si25  1  0.294335  0.529020  0.780761  1
  Si  Si26  1  0.795661  0.030056  0.719980  1
  Si  Si27  1  0.705681  0.471322  0.778550  1
  Si  Si28  1  0.204287  0.972377  0.721072  1
  Si  Si29  1  0.470780  0.293568  0.220180  1
  Si  Si30  1  0.029333  0.205498  0.279539  1
  Ge  Ge31  1  0.527809  0.704972  0.221340  1
