# generated using pymatgen
data_Hf5SiSb2
_symmetry_space_group_name_H-M   'P 1'
_cell_length_a   5.44740433
_cell_length_b   8.21102723
_cell_length_c   8.21102815
_cell_angle_alpha   83.68276340
_cell_angle_beta   70.62724793
_cell_angle_gamma   70.62724573
_symmetry_Int_Tables_number   1
_chemical_formula_structural   Hf5SiSb2
_chemical_formula_sum   'Hf10 Si2 Sb4'
_cell_volume   326.85749183
_cell_formula_units_Z   2
loop_
 _symmetry_equiv_pos_site_id
 _symmetry_equiv_pos_as_xyz
  1  'x, y, z'
loop_
 _atom_site_type_symbol
 _atom_site_label
 _atom_site_symmetry_multiplicity
 _atom_site_fract_x
 _atom_site_fract_y
 _atom_site_fract_z
 _atom_site_occupancy
  Hf  Hf0  1  0.250000  0.500000  0.500000  1
  Hf  Hf1  1  0.750000  0.500000  0.500000  1
  Hf  Hf2  1  0.073275  0.134930  0.718520  1
  Hf  Hf3  1  0.926725  0.865070  0.281480  1
  Hf  Hf4  1  0.791795  0.281480  0.134930  1
  Hf  Hf5  1  0.426725  0.281480  0.865070  1
  Hf  Hf6  1  0.208205  0.718520  0.865070  1
  Hf  Hf7  1  0.573275  0.718520  0.134930  1
  Hf  Hf8  1  0.708205  0.865070  0.718520  1
  Hf  Hf9  1  0.291795  0.134930  0.281480  1
  Si  Si10  1  0.250000  0.000000  0.000000  1
  Si  Si11  1  0.750000  0.000000  0.000000  1
  Sb  Sb12  1  0.164975  0.500000  0.170050  1
  Sb  Sb13  1  0.835025  0.500000  0.829950  1
  Sb  Sb14  1  0.335025  0.829950  0.500000  1
  Sb  Sb15  1  0.664975  0.170050  0.500000  1
