# generated using pymatgen
data_TmPa(Co3As2)2
_symmetry_space_group_name_H-M   'P 1'
_cell_length_a   3.83036700
_cell_length_b   10.81638362
_cell_length_c   12.64559604
_cell_angle_alpha   90.18048222
_cell_angle_beta   90.00000000
_cell_angle_gamma   90.00000000
_symmetry_Int_Tables_number   1
_chemical_formula_structural   TmPa(Co3As2)2
_chemical_formula_sum   'Tm3 Pa3 Co18 As12'
_cell_volume   523.91353568
_cell_formula_units_Z   3
loop_
 _symmetry_equiv_pos_site_id
 _symmetry_equiv_pos_as_xyz
  1  'x, y, z'
loop_
 _atom_site_type_symbol
 _atom_site_label
 _atom_site_symmetry_multiplicity
 _atom_site_fract_x
 _atom_site_fract_y
 _atom_site_fract_z
 _atom_site_occupancy
  Tm  Tm0  1  0.500000  0.187819  0.205888  1
  Tm  Tm1  1  0.000000  0.685319  0.793868  1
  Tm  Tm2  1  0.000000  0.314463  0.792009  1
  Pa  Pa3  1  0.000000  0.498191  0.529903  1
  Pa  Pa4  1  0.500000  0.002339  0.473734  1
  Pa  Pa5  1  0.500000  0.818597  0.209415  1
  Co  Co6  1  0.500000  0.501228  0.156776  1
  Co  Co7  1  0.000000  0.998761  0.847208  1
  Co  Co8  1  0.500000  0.498988  0.692586  1
  Co  Co9  1  0.000000  0.993104  0.302230  1
  Co  Co10  1  0.000000  0.499200  0.978336  1
  Co  Co11  1  0.500000  0.000484  0.017771  1
  Co  Co12  1  0.500000  0.335448  0.993291  1
  Co  Co13  1  0.500000  0.665664  0.994282  1
  Co  Co14  1  0.000000  0.168340  0.004666  1
  Co  Co15  1  0.000000  0.834742  0.008659  1
  Co  Co16  1  0.500000  0.302252  0.430331  1
  Co  Co17  1  0.500000  0.694762  0.430915  1
  Co  Co18  1  0.000000  0.192806  0.567294  1
  Co  Co19  1  0.000000  0.804566  0.572333  1
  Co  Co20  1  0.500000  0.881118  0.711702  1
  Co  Co21  1  0.500000  0.118750  0.710547  1
  Co  Co22  1  0.000000  0.622857  0.287775  1
  Co  Co23  1  0.000000  0.381571  0.289079  1
  As  As24  1  0.500000  0.499826  0.873189  1
  As  As25  1  0.000000  0.005214  0.121867  1
  As  As26  1  0.500000  0.498803  0.345017  1
  As  As27  1  0.000000  0.999765  0.658136  1
  As  As28  1  0.500000  0.305571  0.616128  1
  As  As29  1  0.500000  0.692405  0.618172  1
  As  As30  1  0.000000  0.189972  0.380588  1
  As  As31  1  0.000000  0.807010  0.389947  1
  As  As32  1  0.500000  0.846779  0.892985  1
  As  As33  1  0.500000  0.154045  0.891880  1
  As  As34  1  0.000000  0.649782  0.104696  1
  As  As35  1  0.000000  0.349458  0.106796  1
