# generated using pymatgen
data_La7Pr5Co(PtBr4)3
_symmetry_space_group_name_H-M   'P 1'
_cell_length_a   10.64152637
_cell_length_b   10.64773993
_cell_length_c   10.63247600
_cell_angle_alpha   108.92257917
_cell_angle_beta   109.14445541
_cell_angle_gamma   109.79405235
_symmetry_Int_Tables_number   1
_chemical_formula_structural   La7Pr5Co(PtBr4)3
_chemical_formula_sum   'La7 Pr5 Co1 Pt3 Br12'
_cell_volume   933.64153656
_cell_formula_units_Z   1
loop_
 _symmetry_equiv_pos_site_id
 _symmetry_equiv_pos_as_xyz
  1  'x, y, z'
loop_
 _atom_site_type_symbol
 _atom_site_label
 _atom_site_symmetry_multiplicity
 _atom_site_fract_x
 _atom_site_fract_y
 _atom_site_fract_z
 _atom_site_occupancy
  La  La0  1  0.464707  0.475274  0.238641  1
  La  La1  1  0.744523  0.234495  0.260964  1
  La  La2  1  0.753869  0.016469  0.486775  1
  La  La3  1  0.235376  0.468052  0.482719  1
  La  La4  1  0.266915  0.753099  0.236165  1
  La  La5  1  0.032225  0.261225  0.021894  1
  La  La6  1  0.024701  0.033948  0.259631  1
  Pr  Pr7  1  0.485344  0.747601  0.013053  1
  Pr  Pr8  1  0.475785  0.238683  0.464742  1
  Pr  Pr9  1  0.017433  0.485335  0.752057  1
  Pr  Pr10  1  0.263266  0.020594  0.032859  1
  Pr  Pr11  1  0.236481  0.265601  0.752478  1
  Co  Co12  1  0.246776  0.250949  0.249016  1
  Pt  Pt13  1  0.501522  0.000576  0.250280  1
  Pt  Pt14  1  0.998914  0.248507  0.496687  1
  Pt  Pt15  1  0.250858  0.499246  0.003088  1
  Br  Br16  1  0.250787  0.755180  0.749494  1
  Br  Br17  1  0.507461  0.502560  0.754532  1
  Br  Br18  1  0.993255  0.744221  0.991817  1
  Br  Br19  1  0.745609  0.251886  0.750679  1
  Br  Br20  1  0.999735  0.992359  0.747845  1
  Br  Br21  1  0.252717  0.000553  0.507675  1
  Br  Br22  1  0.755063  0.506732  0.507750  1
  Br  Br23  1  0.500756  0.248045  0.991945  1
  Br  Br24  1  0.752972  0.746328  0.247312  1
  Br  Br25  1  0.742901  0.993202  0.991162  1
  Br  Br26  1  0.994930  0.504693  0.250106  1
  Br  Br27  1  0.505116  0.754589  0.508634  1
