# generated using pymatgen
data_Ce5Sm2Dy(AlRu)8
_symmetry_space_group_name_H-M   'P 1'
_cell_length_a   4.02093900
_cell_length_b   7.26571618
_cell_length_c   16.07477887
_cell_angle_alpha   90.37580555
_cell_angle_beta   90.00097411
_cell_angle_gamma   89.99990000
_symmetry_Int_Tables_number   1
_chemical_formula_structural   Ce5Sm2Dy(AlRu)8
_chemical_formula_sum   'Ce5 Sm2 Dy1 Al8 Ru8'
_cell_volume   469.61458802
_cell_formula_units_Z   1
loop_
 _symmetry_equiv_pos_site_id
 _symmetry_equiv_pos_as_xyz
  1  'x, y, z'
loop_
 _atom_site_type_symbol
 _atom_site_label
 _atom_site_symmetry_multiplicity
 _atom_site_fract_x
 _atom_site_fract_y
 _atom_site_fract_z
 _atom_site_occupancy
  Ce  Ce0  1  0.749987  0.820874  0.437936  1
  Ce  Ce1  1  0.749980  0.455861  0.281978  1
  Ce  Ce2  1  0.750066  0.330130  0.061106  1
  Ce  Ce3  1  0.249956  0.043368  0.781366  1
  Ce  Ce4  1  0.249968  0.540689  0.720609  1
  Sm  Sm5  1  0.750025  0.961339  0.217861  1
  Sm  Sm6  1  0.249991  0.161418  0.560997  1
  Dy  Dy7  1  0.250018  0.666420  0.938811  1
  Al  Al8  1  0.749978  0.491624  0.563994  1
  Al  Al9  1  0.750009  0.371755  0.853522  1
  Al  Al10  1  0.750010  0.995902  0.937025  1
  Al  Al11  1  0.749955  0.866068  0.649016  1
  Al  Al12  1  0.249993  0.488593  0.437600  1
  Al  Al13  1  0.250029  0.994577  0.062935  1
  Al  Al14  1  0.250027  0.636352  0.151132  1
  Al  Al15  1  0.250015  0.125898  0.345805  1
  Ru  Ru16  1  0.750017  0.759396  0.808761  1
  Ru  Ru17  1  0.250018  0.238299  0.938005  1
  Ru  Ru18  1  0.750021  0.268202  0.424643  1
  Ru  Ru19  1  0.249995  0.754103  0.326204  1
  Ru  Ru20  1  0.750033  0.764627  0.065136  1
  Ru  Ru21  1  0.749994  0.258306  0.694382  1
  Ru  Ru22  1  0.249964  0.276184  0.177388  1
  Ru  Ru23  1  0.249949  0.730017  0.563789  1
