# generated using pymatgen
data_Dy8Ho11ErSn16
_symmetry_space_group_name_H-M   'P 1'
_cell_length_a   8.02024102
_cell_length_b   8.15975702
_cell_length_c   15.42883400
_cell_angle_alpha   90.00000000
_cell_angle_beta   90.00000000
_cell_angle_gamma   90.00731601
_symmetry_Int_Tables_number   1
_chemical_formula_structural   Dy8Ho11ErSn16
_chemical_formula_sum   'Dy8 Ho11 Er1 Sn16'
_cell_volume   1009.71253730
_cell_formula_units_Z   1
loop_
 _symmetry_equiv_pos_site_id
 _symmetry_equiv_pos_as_xyz
  1  'x, y, z'
loop_
 _atom_site_type_symbol
 _atom_site_label
 _atom_site_symmetry_multiplicity
 _atom_site_fract_x
 _atom_site_fract_y
 _atom_site_fract_z
 _atom_site_occupancy
  Dy  Dy0  1  0.521418  0.320259  0.902448  1
  Dy  Dy1  1  0.021408  0.179750  0.597547  1
  Dy  Dy2  1  0.478569  0.679772  0.402452  1
  Dy  Dy3  1  0.978618  0.820283  0.097556  1
  Dy  Dy4  1  0.478569  0.679772  0.097548  1
  Dy  Dy5  1  0.978618  0.820283  0.402444  1
  Dy  Dy6  1  0.521418  0.320259  0.597552  1
  Dy  Dy7  1  0.021408  0.179750  0.902453  1
  Ho  Ho8  1  0.367660  0.836135  0.877940  1
  Ho  Ho9  1  0.867661  0.663856  0.622075  1
  Ho  Ho10  1  0.632277  0.163825  0.377929  1
  Ho  Ho11  1  0.132378  0.336102  0.122070  1
  Ho  Ho12  1  0.632277  0.163825  0.122071  1
  Ho  Ho13  1  0.132378  0.336102  0.377930  1
  Ho  Ho14  1  0.367660  0.836135  0.622060  1
  Ho  Ho15  1  0.867661  0.663856  0.877925  1
  Ho  Ho16  1  0.198254  0.503202  0.750000  1
  Ho  Ho17  1  0.698252  0.996806  0.750000  1
  Ho  Ho18  1  0.801772  0.496830  0.250000  1
  Er  Er19  1  0.301727  0.003237  0.250000  1
  Sn  Sn20  1  0.292822  0.035566  0.041885  1
  Sn  Sn21  1  0.792818  0.464431  0.458193  1
  Sn  Sn22  1  0.707171  0.964410  0.541802  1
  Sn  Sn23  1  0.207183  0.535573  0.958195  1
  Sn  Sn24  1  0.707171  0.964410  0.958198  1
  Sn  Sn25  1  0.207183  0.535573  0.541805  1
  Sn  Sn26  1  0.292822  0.035566  0.458115  1
  Sn  Sn27  1  0.792818  0.464431  0.041807  1
  Sn  Sn28  1  0.565045  0.619763  0.750000  1
  Sn  Sn29  1  0.065074  0.880250  0.750000  1
  Sn  Sn30  1  0.434906  0.380145  0.250000  1
  Sn  Sn31  1  0.935129  0.119684  0.250000  1
  Sn  Sn32  1  0.329657  0.146994  0.750000  1
  Sn  Sn33  1  0.829714  0.352927  0.750000  1
  Sn  Sn34  1  0.670190  0.852986  0.250000  1
  Sn  Sn35  1  0.170318  0.647252  0.250000  1
