# generated using pymatgen
data_Hf5Zr11(Si4W)4
_symmetry_space_group_name_H-M   'P 1'
_cell_length_a   6.98086232
_cell_length_b   6.98082800
_cell_length_c   12.81271958
_cell_angle_alpha   90.00018380
_cell_angle_beta   89.96549778
_cell_angle_gamma   89.99739002
_symmetry_Int_Tables_number   1
_chemical_formula_structural   Hf5Zr11(Si4W)4
_chemical_formula_sum   'Hf5 Zr11 Si16 W4'
_cell_volume   624.39188838
_cell_formula_units_Z   1
loop_
 _symmetry_equiv_pos_site_id
 _symmetry_equiv_pos_as_xyz
  1  'x, y, z'
loop_
 _atom_site_type_symbol
 _atom_site_label
 _atom_site_symmetry_multiplicity
 _atom_site_fract_x
 _atom_site_fract_y
 _atom_site_fract_z
 _atom_site_occupancy
  Hf  Hf0  1  0.145173  0.996913  0.374566  1
  Hf  Hf1  1  0.645624  0.503375  0.375430  1
  Hf  Hf2  1  0.354372  0.496572  0.875393  1
  Hf  Hf3  1  0.003474  0.854685  0.125679  1
  Hf  Hf4  1  0.996714  0.145757  0.625124  1
  Zr  Zr5  1  0.497604  0.153411  0.531359  1
  Zr  Zr6  1  0.501731  0.846450  0.031889  1
  Zr  Zr7  1  0.654612  0.001749  0.281532  1
  Zr  Zr8  1  0.346180  0.998118  0.781611  1
  Zr  Zr9  1  0.846360  0.501506  0.968412  1
  Zr  Zr10  1  0.153597  0.497810  0.468457  1
  Zr  Zr11  1  0.001528  0.653764  0.718300  1
  Zr  Zr12  1  0.998813  0.345750  0.218864  1
  Zr  Zr13  1  0.497329  0.354619  0.124949  1
  Zr  Zr14  1  0.502332  0.645570  0.624402  1
  Zr  Zr15  1  0.854717  0.002337  0.874588  1
  Si  Si16  1  0.798175  0.144831  0.071419  1
  Si  Si17  1  0.201499  0.855391  0.570639  1
  Si  Si18  1  0.644719  0.701685  0.821306  1
  Si  Si19  1  0.355260  0.297000  0.321846  1
  Si  Si20  1  0.855059  0.203170  0.428846  1
  Si  Si21  1  0.145874  0.796521  0.929437  1
  Si  Si22  1  0.703486  0.645774  0.179316  1
  Si  Si23  1  0.296520  0.354337  0.679221  1
  Si  Si24  1  0.546252  0.198771  0.933342  1
  Si  Si25  1  0.452725  0.801308  0.433049  1
  Si  Si26  1  0.698886  0.953696  0.683083  1
  Si  Si27  1  0.300860  0.046432  0.183957  1
  Si  Si28  1  0.801427  0.452676  0.565998  1
  Si  Si29  1  0.198505  0.547443  0.066217  1
  Si  Si30  1  0.952717  0.699119  0.316375  1
  Si  Si31  1  0.047596  0.301410  0.816026  1
  W  W32  1  0.672703  0.327115  0.749764  1
  W  W33  1  0.326555  0.673962  0.250283  1
  W  W34  1  0.828221  0.828508  0.499309  1
  W  W35  1  0.172800  0.172466  0.000013  1
