# generated using pymatgen
data_Ba8VMo3O16
_symmetry_space_group_name_H-M   'P 1'
_cell_length_a   5.83995860
_cell_length_b   9.29984199
_cell_length_c   9.29991800
_cell_angle_alpha   89.21173816
_cell_angle_beta   71.69517356
_cell_angle_gamma   108.30541066
_symmetry_Int_Tables_number   1
_chemical_formula_structural   Ba8VMo3O16
_chemical_formula_sum   'Ba8 V1 Mo3 O16'
_cell_volume   451.70738745
_cell_formula_units_Z   1
loop_
 _symmetry_equiv_pos_site_id
 _symmetry_equiv_pos_as_xyz
  1  'x, y, z'
loop_
 _atom_site_type_symbol
 _atom_site_label
 _atom_site_symmetry_multiplicity
 _atom_site_fract_x
 _atom_site_fract_y
 _atom_site_fract_z
 _atom_site_occupancy
  Ba  Ba0  1  0.249372  0.394923  0.895693  1
  Ba  Ba1  1  0.996623  0.641316  0.648420  1
  Ba  Ba2  1  0.750333  0.896064  0.396196  1
  Ba  Ba3  1  0.504209  0.148473  0.140743  1
  Ba  Ba4  1  0.995912  0.351473  0.359216  1
  Ba  Ba5  1  0.750012  0.604131  0.103673  1
  Ba  Ba6  1  0.503240  0.858637  0.851694  1
  Ba  Ba7  1  0.250215  0.104774  0.604565  1
  V  V8  1  0.750080  0.250206  0.749819  1
  Mo  Mo9  1  0.495880  0.496249  0.503904  1
  Mo  Mo10  1  0.250057  0.750103  0.249917  1
  Mo  Mo11  1  0.004162  0.003807  0.996021  1
  O  O12  1  0.249677  0.595013  0.094568  1
  O  O13  1  0.002626  0.847403  0.841994  1
  O  O14  1  0.750577  0.096470  0.597872  1
  O  O15  1  0.496938  0.342399  0.347336  1
  O  O16  1  0.003398  0.157711  0.152885  1
  O  O17  1  0.748862  0.403247  0.902459  1
  O  O18  1  0.497061  0.652371  0.657888  1
  O  O19  1  0.250693  0.905312  0.405088  1
  O  O20  1  0.868137  0.132854  0.866213  1
  O  O21  1  0.631576  0.367177  0.633761  1
  O  O22  1  0.371653  0.625426  0.373967  1
  O  O23  1  0.128434  0.874521  0.125994  1
  O  O24  1  0.377793  0.126811  0.872994  1
  O  O25  1  0.122399  0.373113  0.626969  1
  O  O26  1  0.864075  0.620302  0.379747  1
  O  O27  1  0.636009  0.879716  0.120396  1
