# generated using pymatgen
data_Yb2Th(SnIr)3
_symmetry_space_group_name_H-M   'P 1'
_cell_length_a   7.41201797
_cell_length_b   7.57421869
_cell_length_c   4.10002700
_cell_angle_alpha   90.00000000
_cell_angle_beta   90.00000000
_cell_angle_gamma   120.72657805
_symmetry_Int_Tables_number   1
_chemical_formula_structural   Yb2Th(SnIr)3
_chemical_formula_sum   'Yb2 Th1 Sn3 Ir3'
_cell_volume   197.86327047
_cell_formula_units_Z   1
loop_
 _symmetry_equiv_pos_site_id
 _symmetry_equiv_pos_as_xyz
  1  'x, y, z'
loop_
 _atom_site_type_symbol
 _atom_site_label
 _atom_site_symmetry_multiplicity
 _atom_site_fract_x
 _atom_site_fract_y
 _atom_site_fract_z
 _atom_site_occupancy
  Yb  Yb0  1  0.590539  0.590247  0.500000  1
  Yb  Yb1  1  0.409461  0.999708  0.500000  1
  Th  Th2  1  0.000000  0.412819  0.500000  1
  Sn  Sn3  1  0.000000  0.759212  0.000000  1
  Sn  Sn4  1  0.269152  0.254327  0.000000  1
  Sn  Sn5  1  0.730848  0.985175  0.000000  1
  Ir  Ir6  1  0.312940  0.650004  0.000000  1
  Ir  Ir7  1  0.687060  0.337063  0.000000  1
  Ir  Ir8  1  0.000000  0.011445  0.500000  1
