# generated using pymatgen
data_Pr5ErAl23VOs8
_symmetry_space_group_name_H-M   'P 1'
_cell_length_a   8.89376600
_cell_length_b   8.93552232
_cell_length_c   9.66146253
_cell_angle_alpha   89.96723772
_cell_angle_beta   90.00000000
_cell_angle_gamma   119.84552871
_symmetry_Int_Tables_number   1
_chemical_formula_structural   Pr5ErAl23VOs8
_chemical_formula_sum   'Pr5 Er1 Al23 V1 Os8'
_cell_volume   665.96737632
_cell_formula_units_Z   1
loop_
 _symmetry_equiv_pos_site_id
 _symmetry_equiv_pos_as_xyz
  1  'x, y, z'
loop_
 _atom_site_type_symbol
 _atom_site_label
 _atom_site_symmetry_multiplicity
 _atom_site_fract_x
 _atom_site_fract_y
 _atom_site_fract_z
 _atom_site_occupancy
  Pr  Pr0  1  0.807324  0.614647  0.751244  1
  Pr  Pr1  1  0.613681  0.807587  0.248159  1
  Pr  Pr2  1  0.384176  0.191483  0.749970  1
  Pr  Pr3  1  0.193905  0.807587  0.248159  1
  Pr  Pr4  1  0.807308  0.191483  0.749970  1
  Er  Er5  1  0.196933  0.393866  0.246536  1
  Al  Al6  1  0.666282  0.332562  0.987075  1
  Al  Al7  1  0.666281  0.332561  0.511668  1
  Al  Al8  1  0.333213  0.666426  0.486219  1
  Al  Al9  1  0.162205  0.324408  0.570994  1
  Al  Al10  1  0.837247  0.674496  0.425785  1
  Al  Al11  1  0.673867  0.836522  0.573463  1
  Al  Al12  1  0.835654  0.671309  0.076806  1
  Al  Al13  1  0.324734  0.164151  0.424440  1
  Al  Al14  1  0.160095  0.320188  0.929699  1
  Al  Al15  1  0.162656  0.836522  0.573463  1
  Al  Al16  1  0.327010  0.165032  0.077376  1
  Al  Al17  1  0.839416  0.164151  0.424440  1
  Al  Al18  1  0.678022  0.839180  0.927212  1
  Al  Al19  1  0.838021  0.165032  0.077376  1
  Al  Al20  1  0.161161  0.839180  0.927212  1
  Al  Al21  1  0.563601  0.127201  0.252985  1
  Al  Al22  1  0.439109  0.878217  0.749853  1
  Al  Al23  1  0.876248  0.436240  0.252798  1
  Al  Al24  1  0.121328  0.559308  0.749422  1
  Al  Al25  1  0.559992  0.436240  0.252798  1
  Al  Al26  1  0.437982  0.559308  0.749422  1
  Al  Al27  1  0.004124  0.008249  0.251431  1
  Al  Al28  1  0.999443  0.998886  0.750240  1
  V  V29  1  0.332492  0.664985  0.978154  1
  Os  Os30  1  0.494705  0.989411  0.005525  1
  Os  Os31  1  0.011399  0.503835  0.006769  1
  Os  Os32  1  0.499107  0.998213  0.502578  1
  Os  Os33  1  0.492436  0.503835  0.006769  1
  Os  Os34  1  0.002276  0.499574  0.501031  1
  Os  Os35  1  0.497299  0.499574  0.501031  1
  Os  Os36  1  0.999577  0.999154  0.002169  1
  Os  Os37  1  0.999697  0.999394  0.499759  1
