# generated using pymatgen
data_SrPr2Cd(Ir2O7)2
_symmetry_space_group_name_H-M   'P 1'
_cell_length_a   7.32863987
_cell_length_b   7.45054643
_cell_length_c   7.48900700
_cell_angle_alpha   59.82908678
_cell_angle_beta   59.27345751
_cell_angle_gamma   59.27814965
_symmetry_Int_Tables_number   1
_chemical_formula_structural   SrPr2Cd(Ir2O7)2
_chemical_formula_sum   'Sr1 Pr2 Cd1 Ir4 O14'
_cell_volume   285.57987115
_cell_formula_units_Z   1
loop_
 _symmetry_equiv_pos_site_id
 _symmetry_equiv_pos_as_xyz
  1  'x, y, z'
loop_
 _atom_site_type_symbol
 _atom_site_label
 _atom_site_symmetry_multiplicity
 _atom_site_fract_x
 _atom_site_fract_y
 _atom_site_fract_z
 _atom_site_occupancy
  Sr  Sr0  1  0.125000  0.625000  0.125000  1
  Pr  Pr1  1  0.125000  0.125000  0.625000  1
  Pr  Pr2  1  0.125000  0.125000  0.125000  1
  Cd  Cd3  1  0.625000  0.125000  0.125000  1
  Ir  Ir4  1  0.625000  0.625000  0.625000  1
  Ir  Ir5  1  0.125000  0.625000  0.625000  1
  Ir  Ir6  1  0.625000  0.125000  0.625000  1
  Ir  Ir7  1  0.625000  0.625000  0.125000  1
  O  O8  1  0.954225  0.542242  0.552519  1
  O  O9  1  0.293448  0.294802  0.705875  1
  O  O10  1  0.954225  0.542242  0.951016  1
  O  O11  1  0.698979  0.301779  0.303510  1
  O  O12  1  0.560102  0.551261  0.944319  1
  O  O13  1  0.551021  0.948221  0.554268  1
  O  O14  1  0.551021  0.948221  0.946490  1
  O  O15  1  0.269165  0.233756  0.248539  1
  O  O16  1  0.295775  0.707758  0.697481  1
  O  O17  1  0.698979  0.301779  0.695732  1
  O  O18  1  0.980835  0.016244  0.001461  1
  O  O19  1  0.956552  0.955198  0.544125  1
  O  O20  1  0.295775  0.707758  0.298984  1
  O  O21  1  0.689898  0.698739  0.305681  1
