# generated using pymatgen
data_CeSm3Co7P12Ru13
_symmetry_space_group_name_H-M   'P 1'
_cell_length_a   3.82178200
_cell_length_b   10.68760275
_cell_length_c   12.22966128
_cell_angle_alpha   90.16045709
_cell_angle_beta   90.00000000
_cell_angle_gamma   90.00000000
_symmetry_Int_Tables_number   1
_chemical_formula_structural   CeSm3Co7P12Ru13
_chemical_formula_sum   'Ce1 Sm3 Co7 P12 Ru13'
_cell_volume   499.52696790
_cell_formula_units_Z   1
loop_
 _symmetry_equiv_pos_site_id
 _symmetry_equiv_pos_as_xyz
  1  'x, y, z'
loop_
 _atom_site_type_symbol
 _atom_site_label
 _atom_site_symmetry_multiplicity
 _atom_site_fract_x
 _atom_site_fract_y
 _atom_site_fract_z
 _atom_site_occupancy
  Ce  Ce0  1  0.250000  0.583829  0.707213  1
  Sm  Sm1  1  0.250000  0.914896  0.206050  1
  Sm  Sm2  1  0.750000  0.416066  0.293943  1
  Sm  Sm3  1  0.750000  0.085337  0.794163  1
  Co  Co4  1  0.250000  0.611513  0.195456  1
  Co  Co5  1  0.750000  0.113370  0.303547  1
  Co  Co6  1  0.750000  0.387923  0.804864  1
  Co  Co7  1  0.250000  0.461627  0.935667  1
  Co  Co8  1  0.250000  0.038906  0.432551  1
  Co  Co9  1  0.750000  0.535422  0.065995  1
  Co  Co10  1  0.750000  0.965284  0.558535  1
  P  P11  1  0.250000  0.425074  0.111901  1
  P  P12  1  0.250000  0.078504  0.607513  1
  P  P13  1  0.750000  0.571560  0.891524  1
  P  P14  1  0.750000  0.925431  0.385667  1
  P  P15  1  0.250000  0.272307  0.871824  1
  P  P16  1  0.250000  0.227964  0.370355  1
  P  P17  1  0.750000  0.725525  0.128891  1
  P  P18  1  0.750000  0.776103  0.629991  1
  P  P19  1  0.250000  0.602738  0.386814  1
  P  P20  1  0.250000  0.896825  0.892832  1
  P  P21  1  0.750000  0.396654  0.611187  1
  P  P22  1  0.750000  0.103273  0.112155  1
  Ru  Ru23  1  0.250000  0.704639  0.989520  1
  Ru  Ru24  1  0.250000  0.794581  0.480369  1
  Ru  Ru25  1  0.750000  0.293606  0.013941  1
  Ru  Ru26  1  0.750000  0.207296  0.512502  1
  Ru  Ru27  1  0.250000  0.406454  0.486652  1
  Ru  Ru28  1  0.250000  0.095376  0.988335  1
  Ru  Ru29  1  0.750000  0.596852  0.516408  1
  Ru  Ru30  1  0.750000  0.904205  0.014317  1
  Ru  Ru31  1  0.250000  0.223977  0.180150  1
  Ru  Ru32  1  0.250000  0.278418  0.679993  1
  Ru  Ru33  1  0.750000  0.770702  0.824832  1
  Ru  Ru34  1  0.750000  0.721765  0.319233  1
  Ru  Ru35  1  0.250000  0.885998  0.695108  1
