# generated using pymatgen
data_Tm5(Al2Ni)2
_symmetry_space_group_name_H-M   'P 1'
_cell_length_a   3.46255200
_cell_length_b   7.64539600
_cell_length_c   17.08142800
_cell_angle_alpha   90.00000000
_cell_angle_beta   90.00000000
_cell_angle_gamma   90.00000000
_symmetry_Int_Tables_number   1
_chemical_formula_structural   Tm5(Al2Ni)2
_chemical_formula_sum   'Tm10 Al8 Ni4'
_cell_volume   452.18948992
_cell_formula_units_Z   2
loop_
 _symmetry_equiv_pos_site_id
 _symmetry_equiv_pos_as_xyz
  1  'x, y, z'
loop_
 _atom_site_type_symbol
 _atom_site_label
 _atom_site_symmetry_multiplicity
 _atom_site_fract_x
 _atom_site_fract_y
 _atom_site_fract_z
 _atom_site_occupancy
  Tm  Tm0  1  0.000000  0.500000  0.500000  1
  Tm  Tm1  1  0.000000  0.000000  0.000000  1
  Tm  Tm2  1  0.000000  0.743234  0.279027  1
  Tm  Tm3  1  0.000000  0.256766  0.720973  1
  Tm  Tm4  1  0.000000  0.756766  0.779027  1
  Tm  Tm5  1  0.000000  0.243234  0.220973  1
  Tm  Tm6  1  0.000000  0.617730  0.084198  1
  Tm  Tm7  1  0.000000  0.382270  0.915802  1
  Tm  Tm8  1  0.000000  0.882270  0.584198  1
  Tm  Tm9  1  0.000000  0.117730  0.415802  1
  Al  Al10  1  0.500000  0.707793  0.928292  1
  Al  Al11  1  0.500000  0.292207  0.071708  1
  Al  Al12  1  0.500000  0.792207  0.428292  1
  Al  Al13  1  0.500000  0.207793  0.571708  1
  Al  Al14  1  0.500000  0.569207  0.651916  1
  Al  Al15  1  0.500000  0.430793  0.348084  1
  Al  Al16  1  0.500000  0.930793  0.151916  1
  Al  Al17  1  0.500000  0.069207  0.848084  1
  Ni  Ni18  1  0.500000  0.519596  0.196339  1
  Ni  Ni19  1  0.500000  0.480404  0.803661  1
  Ni  Ni20  1  0.500000  0.980404  0.696339  1
  Ni  Ni21  1  0.500000  0.019596  0.303661  1
