# generated using pymatgen
data_Ce2Tm6CdHgRu2
_symmetry_space_group_name_H-M   'P 1'
_cell_length_a   9.51237044
_cell_length_b   9.51515996
_cell_length_c   9.51516047
_cell_angle_alpha   60.03504272
_cell_angle_beta   60.00969641
_cell_angle_gamma   60.00969235
_symmetry_Int_Tables_number   1
_chemical_formula_structural   Ce2Tm6CdHgRu2
_chemical_formula_sum   'Ce4 Tm12 Cd2 Hg2 Ru4'
_cell_volume   609.23452631
_cell_formula_units_Z   2
loop_
 _symmetry_equiv_pos_site_id
 _symmetry_equiv_pos_as_xyz
  1  'x, y, z'
loop_
 _atom_site_type_symbol
 _atom_site_label
 _atom_site_symmetry_multiplicity
 _atom_site_fract_x
 _atom_site_fract_y
 _atom_site_fract_z
 _atom_site_occupancy
  Ce  Ce0  1  0.347574  0.347543  0.957311  1
  Ce  Ce1  1  0.347574  0.957311  0.347543  1
  Ce  Ce2  1  0.956624  0.347731  0.347731  1
  Ce  Ce3  1  0.347915  0.347731  0.347731  1
  Tm  Tm4  1  0.563077  0.563227  0.937869  1
  Tm  Tm5  1  0.935827  0.563227  0.937869  1
  Tm  Tm6  1  0.562760  0.937240  0.937240  1
  Tm  Tm7  1  0.935827  0.937869  0.563227  1
  Tm  Tm8  1  0.563077  0.937869  0.563227  1
  Tm  Tm9  1  0.936491  0.563509  0.563509  1
  Tm  Tm10  1  0.188179  0.188098  0.811800  1
  Tm  Tm11  1  0.811923  0.188098  0.811800  1
  Tm  Tm12  1  0.187513  0.812487  0.812486  1
  Tm  Tm13  1  0.811923  0.811801  0.188098  1
  Tm  Tm14  1  0.188178  0.811800  0.188097  1
  Tm  Tm15  1  0.811197  0.188803  0.188803  1
  Cd  Cd16  1  0.256474  0.581223  0.581223  1
  Cd  Cd17  1  0.581078  0.581223  0.581223  1
  Hg  Hg18  1  0.584616  0.585992  0.244773  1
  Hg  Hg19  1  0.584616  0.244773  0.585992  1
  Ru  Ru20  1  0.143344  0.145283  0.568030  1
  Ru  Ru21  1  0.143344  0.568030  0.145283  1
  Ru  Ru22  1  0.568027  0.144567  0.144567  1
  Ru  Ru23  1  0.142840  0.144567  0.144567  1
