# generated using pymatgen
data_Tb5Er5(Bi3Se)2
_symmetry_space_group_name_H-M   'P 1'
_cell_length_a   9.22164900
_cell_length_b   9.22165007
_cell_length_c   6.59432600
_cell_angle_alpha   90.00000000
_cell_angle_beta   90.00000000
_cell_angle_gamma   119.99505674
_symmetry_Int_Tables_number   1
_chemical_formula_structural   Tb5Er5(Bi3Se)2
_chemical_formula_sum   'Tb5 Er5 Bi6 Se2'
_cell_volume   485.66846121
_cell_formula_units_Z   1
loop_
 _symmetry_equiv_pos_site_id
 _symmetry_equiv_pos_as_xyz
  1  'x, y, z'
loop_
 _atom_site_type_symbol
 _atom_site_label
 _atom_site_symmetry_multiplicity
 _atom_site_fract_x
 _atom_site_fract_y
 _atom_site_fract_z
 _atom_site_occupancy
  Tb  Tb0  1  0.255105  0.000380  0.250000  1
  Tb  Tb1  1  0.000380  0.255105  0.250000  1
  Tb  Tb2  1  0.253873  0.253873  0.750000  1
  Tb  Tb3  1  0.745348  0.999530  0.750000  1
  Tb  Tb4  1  0.999530  0.745348  0.750000  1
  Er  Er5  1  0.666795  0.333274  0.499906  1
  Er  Er6  1  0.333274  0.666795  0.499906  1
  Er  Er7  1  0.333274  0.666795  0.000094  1
  Er  Er8  1  0.666795  0.333274  0.000094  1
  Er  Er9  1  0.747096  0.747096  0.250000  1
  Bi  Bi10  1  0.397283  0.397283  0.250000  1
  Bi  Bi11  1  0.604822  0.999272  0.250000  1
  Bi  Bi12  1  0.999272  0.604822  0.250000  1
  Bi  Bi13  1  0.604048  0.604048  0.750000  1
  Bi  Bi14  1  0.395679  0.999804  0.750000  1
  Bi  Bi15  1  0.999804  0.395679  0.750000  1
  Se  Se16  1  0.998811  0.998811  0.499124  1
  Se  Se17  1  0.998811  0.998811  0.000876  1
