# generated using pymatgen
data_TmTh2(InPt)3
_symmetry_space_group_name_H-M   'P 1'
_cell_length_a   7.68899286
_cell_length_b   7.70396664
_cell_length_c   4.03498000
_cell_angle_alpha   90.00000000
_cell_angle_beta   90.00000000
_cell_angle_gamma   120.06443926
_symmetry_Int_Tables_number   1
_chemical_formula_structural   TmTh2(InPt)3
_chemical_formula_sum   'Tm1 Th2 In3 Pt3'
_cell_volume   206.85856195
_cell_formula_units_Z   1
loop_
 _symmetry_equiv_pos_site_id
 _symmetry_equiv_pos_as_xyz
  1  'x, y, z'
loop_
 _atom_site_type_symbol
 _atom_site_label
 _atom_site_symmetry_multiplicity
 _atom_site_fract_x
 _atom_site_fract_y
 _atom_site_fract_z
 _atom_site_occupancy
  Tm  Tm0  1  0.000000  0.594339  0.500000  1
  Th  Th1  1  0.409020  0.408556  0.500000  1
  Th  Th2  1  0.590980  0.999536  0.500000  1
  In  In3  1  0.000000  0.262779  0.000000  1
  In  In4  1  0.755525  0.744807  0.000000  1
  In  In5  1  0.244475  0.989282  0.000000  1
  Pt  Pt6  1  0.661464  0.328624  0.000000  1
  Pt  Pt7  1  0.000000  0.004917  0.500000  1
  Pt  Pt8  1  0.338536  0.667160  0.000000  1
