# generated using pymatgen
data_LiPr4Zn3Pd4
_symmetry_space_group_name_H-M   'P 1'
_cell_length_a   4.10295800
_cell_length_b   7.53061100
_cell_length_c   16.85603700
_cell_angle_alpha   90.00000000
_cell_angle_beta   90.00000000
_cell_angle_gamma   90.00000000
_symmetry_Int_Tables_number   1
_chemical_formula_structural   LiPr4Zn3Pd4
_chemical_formula_sum   'Li2 Pr8 Zn6 Pd8'
_cell_volume   520.81413381
_cell_formula_units_Z   2
loop_
 _symmetry_equiv_pos_site_id
 _symmetry_equiv_pos_as_xyz
  1  'x, y, z'
loop_
 _atom_site_type_symbol
 _atom_site_label
 _atom_site_symmetry_multiplicity
 _atom_site_fract_x
 _atom_site_fract_y
 _atom_site_fract_z
 _atom_site_occupancy
  Li  Li0  1  0.250000  0.993197  0.440892  1
  Li  Li1  1  0.750000  0.506803  0.940892  1
  Pr  Pr2  1  0.750000  0.453074  0.216209  1
  Pr  Pr3  1  0.750000  0.952150  0.281148  1
  Pr  Pr4  1  0.750000  0.827485  0.061342  1
  Pr  Pr5  1  0.250000  0.046926  0.716209  1
  Pr  Pr6  1  0.250000  0.165503  0.941264  1
  Pr  Pr7  1  0.250000  0.547850  0.781148  1
  Pr  Pr8  1  0.750000  0.334497  0.441264  1
  Pr  Pr9  1  0.250000  0.672515  0.561342  1
  Zn  Zn10  1  0.750000  0.000803  0.559811  1
  Zn  Zn11  1  0.250000  0.627267  0.349333  1
  Zn  Zn12  1  0.750000  0.375929  0.650156  1
  Zn  Zn13  1  0.750000  0.872733  0.849333  1
  Zn  Zn14  1  0.250000  0.499197  0.059811  1
  Zn  Zn15  1  0.250000  0.124071  0.150156  1
  Pd  Pd16  1  0.250000  0.241629  0.565569  1
  Pd  Pd17  1  0.750000  0.258371  0.065569  1
  Pd  Pd18  1  0.250000  0.250640  0.313751  1
  Pd  Pd19  1  0.750000  0.249360  0.813751  1
  Pd  Pd20  1  0.250000  0.744828  0.934222  1
  Pd  Pd21  1  0.750000  0.750316  0.686303  1
  Pd  Pd22  1  0.750000  0.755172  0.434222  1
  Pd  Pd23  1  0.250000  0.749684  0.186303  1
