# generated using pymatgen
data_Tb3Er5(Ta3Si4)4
_symmetry_space_group_name_H-M   'P 1'
_cell_length_a   7.03737300
_cell_length_b   7.03785216
_cell_length_c   13.01088300
_cell_angle_alpha   90.01140567
_cell_angle_beta   89.99901486
_cell_angle_gamma   89.99586452
_symmetry_Int_Tables_number   1
_chemical_formula_structural   Tb3Er5(Ta3Si4)4
_chemical_formula_sum   'Tb3 Er5 Ta12 Si16'
_cell_volume   644.40287847
_cell_formula_units_Z   1
loop_
 _symmetry_equiv_pos_site_id
 _symmetry_equiv_pos_as_xyz
  1  'x, y, z'
loop_
 _atom_site_type_symbol
 _atom_site_label
 _atom_site_symmetry_multiplicity
 _atom_site_fract_x
 _atom_site_fract_y
 _atom_site_fract_z
 _atom_site_occupancy
  Tb  Tb0  1  0.497602  0.158984  0.531803  1
  Tb  Tb1  1  0.341215  0.997542  0.781928  1
  Tb  Tb2  1  0.658956  0.002136  0.281668  1
  Er  Er3  1  0.998297  0.341662  0.218150  1
  Er  Er4  1  0.001482  0.658420  0.718108  1
  Er  Er5  1  0.158283  0.498356  0.468171  1
  Er  Er6  1  0.501807  0.841363  0.031837  1
  Er  Er7  1  0.841623  0.501811  0.968074  1
  Ta  Ta8  1  0.171336  0.171585  0.000164  1
  Ta  Ta9  1  0.828963  0.828320  0.500108  1
  Ta  Ta10  1  0.328387  0.671067  0.249895  1
  Ta  Ta11  1  0.671630  0.329078  0.750255  1
  Ta  Ta12  1  0.152654  0.992536  0.375799  1
  Ta  Ta13  1  0.847341  0.006993  0.876150  1
  Ta  Ta14  1  0.507190  0.652732  0.626178  1
  Ta  Ta15  1  0.347181  0.493222  0.873935  1
  Ta  Ta16  1  0.492741  0.347376  0.126072  1
  Ta  Ta17  1  0.653029  0.506772  0.373571  1
  Ta  Ta18  1  0.993089  0.153190  0.623934  1
  Ta  Ta19  1  0.006780  0.846901  0.123840  1
  Si  Si20  1  0.294007  0.045234  0.185792  1
  Si  Si21  1  0.706683  0.954182  0.686191  1
  Si  Si22  1  0.454185  0.793363  0.436261  1
  Si  Si23  1  0.204742  0.545013  0.063918  1
  Si  Si24  1  0.545716  0.205508  0.936473  1
  Si  Si25  1  0.795540  0.455564  0.563904  1
  Si  Si26  1  0.044464  0.295807  0.813941  1
  Si  Si27  1  0.955289  0.704346  0.313993  1
  Si  Si28  1  0.364725  0.296607  0.318332  1
  Si  Si29  1  0.635143  0.703590  0.818605  1
  Si  Si30  1  0.203118  0.864862  0.568226  1
  Si  Si31  1  0.133835  0.795283  0.931996  1
  Si  Si32  1  0.796340  0.134789  0.068204  1
  Si  Si33  1  0.867258  0.204925  0.431721  1
  Si  Si34  1  0.294942  0.367352  0.681674  1
  Si  Si35  1  0.704427  0.633529  0.181129  1
