# generated using pymatgen
data_Er2MnCr2O8
_symmetry_space_group_name_H-M   'P 1'
_cell_length_a   6.21480193
_cell_length_b   6.21480079
_cell_length_c   5.10003842
_cell_angle_alpha   71.96031647
_cell_angle_beta   71.96033043
_cell_angle_gamma   57.99412259
_symmetry_Int_Tables_number   1
_chemical_formula_structural   Er2MnCr2O8
_chemical_formula_sum   'Er2 Mn1 Cr2 O8'
_cell_volume   156.21972481
_cell_formula_units_Z   1
loop_
 _symmetry_equiv_pos_site_id
 _symmetry_equiv_pos_as_xyz
  1  'x, y, z'
loop_
 _atom_site_type_symbol
 _atom_site_label
 _atom_site_symmetry_multiplicity
 _atom_site_fract_x
 _atom_site_fract_y
 _atom_site_fract_z
 _atom_site_occupancy
  Er  Er0  1  0.722707  0.722132  0.338169  1
  Er  Er1  1  0.277868  0.277293  0.661831  1
  Mn  Mn2  1  0.743594  0.256406  0.000000  1
  Cr  Cr3  1  0.998504  0.001496  0.500000  1
  Cr  Cr4  1  0.257994  0.742006  0.000000  1
  O  O5  1  0.407222  0.383981  0.934767  1
  O  O6  1  0.616019  0.592778  0.065233  1
  O  O7  1  0.889505  0.906179  0.917484  1
  O  O8  1  0.093821  0.110495  0.082516  1
  O  O9  1  0.339023  0.894495  0.593932  1
  O  O10  1  0.885992  0.337755  0.608493  1
  O  O11  1  0.105505  0.660977  0.406068  1
  O  O12  1  0.662245  0.114008  0.391507  1
