# generated using pymatgen
data_Sc2BeB2Ir4Ru
_symmetry_space_group_name_H-M   'P 1'
_cell_length_a   9.30567100
_cell_length_b   2.95813300
_cell_length_c   9.30567100
_cell_angle_alpha   90.00000000
_cell_angle_beta   90.00000000
_cell_angle_gamma   90.00000000
_symmetry_Int_Tables_number   1
_chemical_formula_structural   Sc2BeB2Ir4Ru
_chemical_formula_sum   'Sc4 Be2 B4 Ir8 Ru2'
_cell_volume   256.16104395
_cell_formula_units_Z   2
loop_
 _symmetry_equiv_pos_site_id
 _symmetry_equiv_pos_as_xyz
  1  'x, y, z'
loop_
 _atom_site_type_symbol
 _atom_site_label
 _atom_site_symmetry_multiplicity
 _atom_site_fract_x
 _atom_site_fract_y
 _atom_site_fract_z
 _atom_site_occupancy
  Sc  Sc0  1  0.326422  0.000000  0.173576  1
  Sc  Sc1  1  0.826423  0.000000  0.326422  1
  Sc  Sc2  1  0.173576  0.000000  0.673577  1
  Sc  Sc3  1  0.673577  0.000000  0.826423  1
  Be  Be4  1  0.000000  0.000000  0.000000  1
  Be  Be5  1  0.500001  0.000000  0.500001  1
  B  B6  1  0.625235  0.000000  0.125236  1
  B  B7  1  0.125236  0.000000  0.374765  1
  B  B8  1  0.874765  0.000000  0.625235  1
  B  B9  1  0.374765  0.000000  0.874765  1
  Ir  Ir10  1  0.792591  0.499999  0.067942  1
  Ir  Ir11  1  0.067942  0.499999  0.207410  1
  Ir  Ir12  1  0.567944  0.499999  0.292591  1
  Ir  Ir13  1  0.292591  0.499999  0.432056  1
  Ir  Ir14  1  0.707408  0.499999  0.567944  1
  Ir  Ir15  1  0.432056  0.499999  0.707408  1
  Ir  Ir16  1  0.932058  0.499999  0.792591  1
  Ir  Ir17  1  0.207410  0.499999  0.932058  1
  Ru  Ru18  1  0.500001  0.499999  0.000000  1
  Ru  Ru19  1  0.000000  0.499999  0.500001  1
