# generated using pymatgen
data_Pr16MgHg3(IrPt)2
_symmetry_space_group_name_H-M   'P 1'
_cell_length_a   10.03032208
_cell_length_b   10.09165100
_cell_length_c   10.06195400
_cell_angle_alpha   60.09730360
_cell_angle_beta   59.89563042
_cell_angle_gamma   60.14965338
_symmetry_Int_Tables_number   1
_chemical_formula_structural   Pr16MgHg3(IrPt)2
_chemical_formula_sum   'Pr16 Mg1 Hg3 Ir2 Pt2'
_cell_volume   720.95355778
_cell_formula_units_Z   1
loop_
 _symmetry_equiv_pos_site_id
 _symmetry_equiv_pos_as_xyz
  1  'x, y, z'
loop_
 _atom_site_type_symbol
 _atom_site_label
 _atom_site_symmetry_multiplicity
 _atom_site_fract_x
 _atom_site_fract_y
 _atom_site_fract_z
 _atom_site_occupancy
  Pr  Pr0  1  0.349784  0.349791  0.344878  1
  Pr  Pr1  1  0.349784  0.349791  0.955549  1
  Pr  Pr2  1  0.355931  0.946893  0.348589  1
  Pr  Pr3  1  0.938218  0.358356  0.351714  1
  Pr  Pr4  1  0.803561  0.191598  0.192548  1
  Pr  Pr5  1  0.186870  0.808124  0.814932  1
  Pr  Pr6  1  0.186870  0.808124  0.190074  1
  Pr  Pr7  1  0.803561  0.191598  0.812294  1
  Pr  Pr8  1  0.187336  0.188974  0.811846  1
  Pr  Pr9  1  0.807853  0.809749  0.191200  1
  Pr  Pr10  1  0.941301  0.562882  0.561247  1
  Pr  Pr11  1  0.561531  0.940712  0.936422  1
  Pr  Pr12  1  0.561531  0.940712  0.561335  1
  Pr  Pr13  1  0.941301  0.562882  0.934570  1
  Pr  Pr14  1  0.561134  0.563637  0.937614  1
  Pr  Pr15  1  0.940678  0.938322  0.560500  1
  Mg  Mg16  1  0.290586  0.567696  0.570860  1
  Hg  Hg17  1  0.581502  0.587944  0.587123  1
  Hg  Hg18  1  0.581502  0.587944  0.243430  1
  Hg  Hg19  1  0.580213  0.244452  0.587667  1
  Ir  Ir20  1  0.138749  0.572740  0.144256  1
  Ir  Ir21  1  0.570753  0.141671  0.143787  1
  Pt  Pt22  1  0.139726  0.142706  0.147640  1
  Pt  Pt23  1  0.139726  0.142706  0.569929  1
