# generated using pymatgen
data_Zr6Zn16Pd7Se
_symmetry_space_group_name_H-M   'P 1'
_cell_length_a   8.83783148
_cell_length_b   8.83783090
_cell_length_c   8.83783100
_cell_angle_alpha   60.00000338
_cell_angle_beta   60.00000553
_cell_angle_gamma   60.00000370
_symmetry_Int_Tables_number   1
_chemical_formula_structural   Zr6Zn16Pd7Se
_chemical_formula_sum   'Zr6 Zn16 Pd7 Se1'
_cell_volume   488.11498426
_cell_formula_units_Z   1
loop_
 _symmetry_equiv_pos_site_id
 _symmetry_equiv_pos_as_xyz
  1  'x, y, z'
loop_
 _atom_site_type_symbol
 _atom_site_label
 _atom_site_symmetry_multiplicity
 _atom_site_fract_x
 _atom_site_fract_y
 _atom_site_fract_z
 _atom_site_occupancy
  Zr  Zr0  1  0.713737  0.286263  0.286263  1
  Zr  Zr1  1  0.286263  0.713737  0.713737  1
  Zr  Zr2  1  0.286263  0.713737  0.286263  1
  Zr  Zr3  1  0.713737  0.286263  0.713737  1
  Zr  Zr4  1  0.286263  0.286263  0.713737  1
  Zr  Zr5  1  0.713737  0.713737  0.286263  1
  Zn  Zn6  1  0.122233  0.122233  0.122233  1
  Zn  Zn7  1  0.877767  0.877767  0.877767  1
  Zn  Zn8  1  0.122233  0.122233  0.633302  1
  Zn  Zn9  1  0.122233  0.633302  0.122233  1
  Zn  Zn10  1  0.877767  0.877767  0.366698  1
  Zn  Zn11  1  0.877767  0.366698  0.877767  1
  Zn  Zn12  1  0.633302  0.122233  0.122233  1
  Zn  Zn13  1  0.366698  0.877767  0.877767  1
  Zn  Zn14  1  0.337783  0.337783  0.337783  1
  Zn  Zn15  1  0.662217  0.662217  0.662217  1
  Zn  Zn16  1  0.337783  0.337783  0.986652  1
  Zn  Zn17  1  0.337783  0.986652  0.337783  1
  Zn  Zn18  1  0.662217  0.662217  0.013348  1
  Zn  Zn19  1  0.662217  0.013348  0.662217  1
  Zn  Zn20  1  0.986652  0.337783  0.337783  1
  Zn  Zn21  1  0.013348  0.662217  0.662217  1
  Pd  Pd22  1  0.500000  0.000000  0.000000  1
  Pd  Pd23  1  0.000000  0.500000  0.500000  1
  Pd  Pd24  1  0.000000  0.500000  0.000000  1
  Pd  Pd25  1  0.500000  0.000000  0.500000  1
  Pd  Pd26  1  0.000000  0.000000  0.500000  1
  Pd  Pd27  1  0.500000  0.500000  0.000000  1
  Pd  Pd28  1  0.000000  0.000000  0.000000  1
  Se  Se29  1  0.500000  0.500000  0.500000  1
