# generated using pymatgen
data_Tb3NdGa20Pt11
_symmetry_space_group_name_H-M   'P 1'
_cell_length_a   4.19255211
_cell_length_b   11.00627983
_cell_length_c   13.74792861
_cell_angle_alpha   82.29821511
_cell_angle_beta   81.22934780
_cell_angle_gamma   79.02026894
_symmetry_Int_Tables_number   1
_chemical_formula_structural   Tb3NdGa20Pt11
_chemical_formula_sum   'Tb3 Nd1 Ga20 Pt11'
_cell_volume   611.88146116
_cell_formula_units_Z   1
loop_
 _symmetry_equiv_pos_site_id
 _symmetry_equiv_pos_as_xyz
  1  'x, y, z'
loop_
 _atom_site_type_symbol
 _atom_site_label
 _atom_site_symmetry_multiplicity
 _atom_site_fract_x
 _atom_site_fract_y
 _atom_site_fract_z
 _atom_site_occupancy
  Tb  Tb0  1  0.876661  0.912327  0.334351  1
  Tb  Tb1  1  0.774722  0.629508  0.821046  1
  Tb  Tb2  1  0.224986  0.370395  0.179634  1
  Nd  Nd3  1  0.124371  0.086860  0.664399  1
  Ga  Ga4  1  0.008621  0.069844  0.912915  1
  Ga  Ga5  1  0.990612  0.930030  0.088745  1
  Ga  Ga6  1  0.066075  0.674036  0.193815  1
  Ga  Ga7  1  0.933595  0.326560  0.806249  1
  Ga  Ga8  1  0.101383  0.342943  0.454290  1
  Ga  Ga9  1  0.899388  0.656257  0.544970  1
  Ga  Ga10  1  0.202638  0.603192  0.991531  1
  Ga  Ga11  1  0.796886  0.397328  0.008902  1
  Ga  Ga12  1  0.260156  0.779018  0.700670  1
  Ga  Ga13  1  0.740856  0.219813  0.298476  1
  Ga  Ga14  1  0.303735  0.897984  0.494546  1
  Ga  Ga15  1  0.698635  0.100650  0.502080  1
  Ga  Ga16  1  0.387193  0.524359  0.701257  1
  Ga  Ga17  1  0.612505  0.475938  0.299051  1
  Ga  Ga18  1  0.395625  0.205155  0.003597  1
  Ga  Ga19  1  0.603188  0.795801  0.997821  1
  Ga  Ga20  1  0.542420  0.285588  0.629574  1
  Ga  Ga21  1  0.456761  0.716980  0.369497  1
  Ga  Ga22  1  0.636649  0.932968  0.793734  1
  Ga  Ga23  1  0.363120  0.065880  0.207878  1
  Pt  Pt24  1  0.499652  0.501039  0.499657  1
  Pt  Pt25  1  0.027692  0.575617  0.368998  1
  Pt  Pt26  1  0.971982  0.425411  0.630626  1
  Pt  Pt27  1  0.138861  0.833747  0.888530  1
  Pt  Pt28  1  0.861281  0.165654  0.111783  1
  Pt  Pt29  1  0.240151  0.128626  0.391069  1
  Pt  Pt30  1  0.761903  0.869032  0.607165  1
  Pt  Pt31  1  0.345071  0.417215  0.892643  1
  Pt  Pt32  1  0.654341  0.583555  0.107763  1
  Pt  Pt33  1  0.504161  0.169260  0.822418  1
  Pt  Pt34  1  0.494125  0.831429  0.180320  1
