# generated using pymatgen
data_Ac2ZnCu(SiIr2)2
_symmetry_space_group_name_H-M   'P 1'
_cell_length_a   4.19168900
_cell_length_b   4.19169300
_cell_length_c   10.68145600
_cell_angle_alpha   90.00000000
_cell_angle_beta   90.00000000
_cell_angle_gamma   90.00000000
_symmetry_Int_Tables_number   1
_chemical_formula_structural   Ac2ZnCu(SiIr2)2
_chemical_formula_sum   'Ac2 Zn1 Cu1 Si2 Ir4'
_cell_volume   187.67610265
_cell_formula_units_Z   1
loop_
 _symmetry_equiv_pos_site_id
 _symmetry_equiv_pos_as_xyz
  1  'x, y, z'
loop_
 _atom_site_type_symbol
 _atom_site_label
 _atom_site_symmetry_multiplicity
 _atom_site_fract_x
 _atom_site_fract_y
 _atom_site_fract_z
 _atom_site_occupancy
  Ac  Ac0  1  0.000000  0.500000  0.257286  1
  Ac  Ac1  1  0.500000  0.000000  0.742716  1
  Zn  Zn2  1  0.500000  0.500000  0.500001  1
  Cu  Cu3  1  0.000000  0.000000  0.500002  1
  Si  Si4  1  0.000000  0.500000  0.882762  1
  Si  Si5  1  0.500000  0.000000  0.117237  1
  Ir  Ir6  1  0.000000  0.000000  0.000000  1
  Ir  Ir7  1  0.500000  0.500000  0.999999  1
  Ir  Ir8  1  0.000000  0.500000  0.655599  1
  Ir  Ir9  1  0.500000  0.000000  0.344400  1
