# generated using pymatgen
data_Ho7TaAlPd24
_symmetry_space_group_name_H-M   'P 1'
_cell_length_a   8.27832555
_cell_length_b   8.27832549
_cell_length_c   8.27832600
_cell_angle_alpha   89.66612039
_cell_angle_beta   90.33387960
_cell_angle_gamma   90.33388163
_symmetry_Int_Tables_number   1
_chemical_formula_structural   Ho7TaAlPd24
_chemical_formula_sum   'Ho7 Ta1 Al1 Pd24'
_cell_volume   567.29047023
_cell_formula_units_Z   1
loop_
 _symmetry_equiv_pos_site_id
 _symmetry_equiv_pos_as_xyz
  1  'x, y, z'
loop_
 _atom_site_type_symbol
 _atom_site_label
 _atom_site_symmetry_multiplicity
 _atom_site_fract_x
 _atom_site_fract_y
 _atom_site_fract_z
 _atom_site_occupancy
  Ho  Ho0  1  0.250477  0.252622  0.252622  1
  Ho  Ho1  1  0.748191  0.748396  0.748396  1
  Ho  Ho2  1  0.747378  0.749523  0.252622  1
  Ho  Ho3  1  0.747378  0.252622  0.749523  1
  Ho  Ho4  1  0.251604  0.251809  0.748396  1
  Ho  Ho5  1  0.251604  0.748396  0.251809  1
  Ho  Ho6  1  0.253702  0.746298  0.746298  1
  Ta  Ta7  1  0.741890  0.258110  0.258110  1
  Al  Al8  1  0.005816  0.994184  0.994184  1
  Pd  Pd9  1  0.258419  0.497004  0.000926  1
  Pd  Pd10  1  0.741002  0.494327  0.009600  1
  Pd  Pd11  1  0.990400  0.258998  0.494327  1
  Pd  Pd12  1  0.505673  0.258998  0.009600  1
  Pd  Pd13  1  0.999074  0.741581  0.497004  1
  Pd  Pd14  1  0.502996  0.741581  0.000926  1
  Pd  Pd15  1  0.505673  0.009600  0.258998  1
  Pd  Pd16  1  0.258419  0.000926  0.497004  1
  Pd  Pd17  1  0.502996  0.000926  0.741581  1
  Pd  Pd18  1  0.741002  0.009600  0.494327  1
  Pd  Pd19  1  0.990400  0.494327  0.258998  1
  Pd  Pd20  1  0.999074  0.497004  0.741581  1
  Pd  Pd21  1  0.251773  0.498326  0.498326  1
  Pd  Pd22  1  0.746563  0.494309  0.494309  1
  Pd  Pd23  1  0.505691  0.253437  0.494309  1
  Pd  Pd24  1  0.501674  0.748227  0.498326  1
  Pd  Pd25  1  0.505691  0.494309  0.253437  1
  Pd  Pd26  1  0.501674  0.498326  0.748227  1
  Pd  Pd27  1  0.291899  0.999858  0.999858  1
  Pd  Pd28  1  0.718321  0.008370  0.008370  1
  Pd  Pd29  1  0.991630  0.281679  0.008370  1
  Pd  Pd30  1  0.000142  0.708101  0.999858  1
  Pd  Pd31  1  0.991630  0.008370  0.281679  1
  Pd  Pd32  1  0.000142  0.999858  0.708101  1
