# generated using pymatgen
data_Er16CdAg3Rh4
_symmetry_space_group_name_H-M   'P 1'
_cell_length_a   9.45502602
_cell_length_b   9.45502660
_cell_length_c   9.45502722
_cell_angle_alpha   60.34107738
_cell_angle_beta   60.34106809
_cell_angle_gamma   60.34107580
_symmetry_Int_Tables_number   1
_chemical_formula_structural   Er16CdAg3Rh4
_chemical_formula_sum   'Er16 Cd1 Ag3 Rh4'
_cell_volume   602.29811632
_cell_formula_units_Z   1
loop_
 _symmetry_equiv_pos_site_id
 _symmetry_equiv_pos_as_xyz
  1  'x, y, z'
loop_
 _atom_site_type_symbol
 _atom_site_label
 _atom_site_symmetry_multiplicity
 _atom_site_fract_x
 _atom_site_fract_y
 _atom_site_fract_z
 _atom_site_occupancy
  Er  Er0  1  0.188859  0.188859  0.811391  1
  Er  Er1  1  0.435332  0.063950  0.063950  1
  Er  Er2  1  0.434857  0.062141  0.434857  1
  Er  Er3  1  0.063950  0.435332  0.063950  1
  Er  Er4  1  0.648250  0.054808  0.648250  1
  Er  Er5  1  0.188650  0.812297  0.812297  1
  Er  Er6  1  0.063950  0.063950  0.435332  1
  Er  Er7  1  0.811391  0.188859  0.188859  1
  Er  Er8  1  0.812297  0.812297  0.188650  1
  Er  Er9  1  0.648250  0.648250  0.054808  1
  Er  Er10  1  0.647397  0.647397  0.647397  1
  Er  Er11  1  0.062141  0.434857  0.434857  1
  Er  Er12  1  0.054808  0.648250  0.648250  1
  Er  Er13  1  0.812297  0.188650  0.812297  1
  Er  Er14  1  0.434857  0.434857  0.062141  1
  Er  Er15  1  0.188859  0.811391  0.188859  1
  Cd  Cd16  1  0.420965  0.420965  0.420965  1
  Ag  Ag17  1  0.417035  0.748972  0.417035  1
  Ag  Ag18  1  0.417035  0.417035  0.748972  1
  Ag  Ag19  1  0.748972  0.417035  0.417035  1
  Rh  Rh20  1  0.856429  0.429693  0.856429  1
  Rh  Rh21  1  0.856429  0.856429  0.429693  1
  Rh  Rh22  1  0.429693  0.856429  0.856429  1
  Rh  Rh23  1  0.857296  0.857296  0.857296  1
