# generated using pymatgen
data_Pm2SiRh3
_symmetry_space_group_name_H-M   'P 1'
_cell_length_a   5.12183654
_cell_length_b   5.66159664
_cell_length_c   5.66140487
_cell_angle_alpha   59.99196261
_cell_angle_beta   56.46360701
_cell_angle_gamma   56.45132088
_symmetry_Int_Tables_number   1
_chemical_formula_structural   Pm2SiRh3
_chemical_formula_sum   'Pm2 Si1 Rh3'
_cell_volume   109.46883553
_cell_formula_units_Z   1
loop_
 _symmetry_equiv_pos_site_id
 _symmetry_equiv_pos_as_xyz
  1  'x, y, z'
loop_
 _atom_site_type_symbol
 _atom_site_label
 _atom_site_symmetry_multiplicity
 _atom_site_fract_x
 _atom_site_fract_y
 _atom_site_fract_z
 _atom_site_occupancy
  Pm  Pm0  1  0.761942  0.746024  0.745978  1
  Pm  Pm1  1  0.988058  0.003976  0.004022  1
  Si  Si2  1  0.875000  0.375000  0.375000  1
  Rh  Rh3  1  0.375000  0.875000  0.375000  1
  Rh  Rh4  1  0.375000  0.375000  0.875000  1
  Rh  Rh5  1  0.375000  0.375000  0.375000  1
