# generated using pymatgen
data_Tb6TlHg7
_symmetry_space_group_name_H-M   'P 1'
_cell_length_a   8.33107107
_cell_length_b   8.33107063
_cell_length_c   8.33107061
_cell_angle_alpha   113.52110688
_cell_angle_beta   113.52109582
_cell_angle_gamma   113.52109094
_symmetry_Int_Tables_number   1
_chemical_formula_structural   Tb6TlHg7
_chemical_formula_sum   'Tb6 Tl1 Hg7'
_cell_volume   363.44295003
_cell_formula_units_Z   1
loop_
 _symmetry_equiv_pos_site_id
 _symmetry_equiv_pos_as_xyz
  1  'x, y, z'
loop_
 _atom_site_type_symbol
 _atom_site_label
 _atom_site_symmetry_multiplicity
 _atom_site_fract_x
 _atom_site_fract_y
 _atom_site_fract_z
 _atom_site_occupancy
  Tb  Tb0  1  0.985458  0.249661  0.384821  1
  Tb  Tb1  1  0.249661  0.384821  0.985458  1
  Tb  Tb2  1  0.384821  0.985458  0.249661  1
  Tb  Tb3  1  0.014542  0.750339  0.615179  1
  Tb  Tb4  1  0.750339  0.615179  0.014542  1
  Tb  Tb5  1  0.615179  0.014542  0.750339  1
  Tl  Tl6  1  0.500000  0.500000  0.500000  1
  Hg  Hg7  1  0.000000  0.000000  0.000000  1
  Hg  Hg8  1  0.106891  0.570294  0.260443  1
  Hg  Hg9  1  0.570294  0.260443  0.106891  1
  Hg  Hg10  1  0.260443  0.106891  0.570294  1
  Hg  Hg11  1  0.893109  0.429706  0.739557  1
  Hg  Hg12  1  0.429706  0.739557  0.893109  1
  Hg  Hg13  1  0.739557  0.893109  0.429706  1
