# generated using pymatgen
data_ScTa4Nb(BOs)6
_symmetry_space_group_name_H-M   'P 1'
_cell_length_a   3.12648900
_cell_length_b   9.08854749
_cell_length_c   15.84543694
_cell_angle_alpha   90.31545032
_cell_angle_beta   90.00000000
_cell_angle_gamma   90.00000000
_symmetry_Int_Tables_number   1
_chemical_formula_structural   ScTa4Nb(BOs)6
_chemical_formula_sum   'Sc2 Ta8 Nb2 B12 Os12'
_cell_volume   450.24512916
_cell_formula_units_Z   2
loop_
 _symmetry_equiv_pos_site_id
 _symmetry_equiv_pos_as_xyz
  1  'x, y, z'
loop_
 _atom_site_type_symbol
 _atom_site_label
 _atom_site_symmetry_multiplicity
 _atom_site_fract_x
 _atom_site_fract_y
 _atom_site_fract_z
 _atom_site_occupancy
  Sc  Sc0  1  0.000000  0.682770  0.206875  1
  Sc  Sc1  1  0.000000  0.317230  0.793125  1
  Ta  Ta2  1  0.000000  0.800741  0.495280  1
  Ta  Ta3  1  0.000000  0.199259  0.504720  1
  Ta  Ta4  1  0.000000  0.302476  0.005669  1
  Ta  Ta5  1  0.000000  0.697524  0.994331  1
  Ta  Ta6  1  0.000000  0.514569  0.594578  1
  Ta  Ta7  1  0.000000  0.485431  0.405422  1
  Ta  Ta8  1  0.000000  0.015544  0.906034  1
  Ta  Ta9  1  0.000000  0.984456  0.093966  1
  Nb  Nb10  1  0.000000  0.184543  0.296306  1
  Nb  Nb11  1  0.000000  0.815457  0.703694  1
  B  B12  1  0.500000  0.605430  0.497927  1
  B  B13  1  0.500000  0.394570  0.502073  1
  B  B14  1  0.500000  0.105648  0.003839  1
  B  B15  1  0.500000  0.894352  0.996161  1
  B  B16  1  0.000000  0.606561  0.832664  1
  B  B17  1  0.000000  0.393439  0.167336  1
  B  B18  1  0.000000  0.110673  0.669096  1
  B  B19  1  0.000000  0.889327  0.330904  1
  B  B20  1  0.500000  0.715795  0.598043  1
  B  B21  1  0.500000  0.284205  0.401957  1
  B  B22  1  0.500000  0.214763  0.903151  1
  B  B23  1  0.500000  0.785237  0.096849  1
  Os  Os24  1  0.500000  0.719580  0.359468  1
  Os  Os25  1  0.500000  0.280420  0.640532  1
  Os  Os26  1  0.500000  0.218945  0.142800  1
  Os  Os27  1  0.500000  0.781055  0.857200  1
  Os  Os28  1  0.500000  0.515618  0.094187  1
  Os  Os29  1  0.500000  0.484382  0.905813  1
  Os  Os30  1  0.500000  0.015842  0.406185  1
  Os  Os31  1  0.500000  0.984158  0.593815  1
  Os  Os32  1  0.500000  0.568774  0.732615  1
  Os  Os33  1  0.500000  0.431226  0.267385  1
  Os  Os34  1  0.500000  0.060647  0.765505  1
  Os  Os35  1  0.500000  0.939353  0.234495  1
