# generated using pymatgen
data_Ti3Re2Si3Rh
_symmetry_space_group_name_H-M   'P 1'
_cell_length_a   6.74308360
_cell_length_b   6.74308365
_cell_length_c   3.32857300
_cell_angle_alpha   90.00000000
_cell_angle_beta   90.00000000
_cell_angle_gamma   120.26913554
_symmetry_Int_Tables_number   1
_chemical_formula_structural   Ti3Re2Si3Rh
_chemical_formula_sum   'Ti3 Re2 Si3 Rh1'
_cell_volume   130.71385029
_cell_formula_units_Z   1
loop_
 _symmetry_equiv_pos_site_id
 _symmetry_equiv_pos_as_xyz
  1  'x, y, z'
loop_
 _atom_site_type_symbol
 _atom_site_label
 _atom_site_symmetry_multiplicity
 _atom_site_fract_x
 _atom_site_fract_y
 _atom_site_fract_z
 _atom_site_occupancy
  Ti  Ti0  1  0.388447  0.388447  0.500000  1
  Ti  Ti1  1  0.594436  0.015925  0.500000  1
  Ti  Ti2  1  0.015925  0.594436  0.500000  1
  Re  Re3  1  0.259491  0.001468  0.000000  1
  Re  Re4  1  0.001468  0.259491  0.000000  1
  Si  Si5  1  0.670314  0.345092  0.000000  1
  Si  Si6  1  0.345092  0.670314  0.000000  1
  Si  Si7  1  0.983669  0.983669  0.500000  1
  Rh  Rh8  1  0.741159  0.741159  0.000000  1
