# generated using pymatgen
data_Hf4Zr2Ga6PdPt5
_symmetry_space_group_name_H-M   'P 1'
_cell_length_a   7.18482799
_cell_length_b   7.17345687
_cell_length_c   7.08958300
_cell_angle_alpha   90.00000000
_cell_angle_beta   90.00000000
_cell_angle_gamma   119.75598887
_symmetry_Int_Tables_number   1
_chemical_formula_structural   Hf4Zr2Ga6PdPt5
_chemical_formula_sum   'Hf4 Zr2 Ga6 Pd1 Pt5'
_cell_volume   317.21871241
_cell_formula_units_Z   1
loop_
 _symmetry_equiv_pos_site_id
 _symmetry_equiv_pos_as_xyz
  1  'x, y, z'
loop_
 _atom_site_type_symbol
 _atom_site_label
 _atom_site_symmetry_multiplicity
 _atom_site_fract_x
 _atom_site_fract_y
 _atom_site_fract_z
 _atom_site_occupancy
  Hf  Hf0  1  0.617156  0.592626  0.250000  1
  Hf  Hf1  1  0.407761  0.023843  0.250000  1
  Hf  Hf2  1  0.976866  0.383933  0.250000  1
  Hf  Hf3  1  0.584279  0.609972  0.750000  1
  Zr  Zr4  1  0.026343  0.415214  0.750000  1
  Zr  Zr5  1  0.388633  0.973314  0.750000  1
  Ga  Ga6  1  0.266378  0.267455  0.501580  1
  Ga  Ga7  1  0.732254  0.999071  0.501324  1
  Ga  Ga8  1  0.000899  0.733167  0.500944  1
  Ga  Ga9  1  0.732254  0.999071  0.998676  1
  Ga  Ga10  1  0.266378  0.267455  0.998420  1
  Ga  Ga11  1  0.000899  0.733167  0.999056  1
  Pd  Pd12  1  0.997538  0.997248  0.750000  1
  Pt  Pt13  1  0.335137  0.666581  0.460184  1
  Pt  Pt14  1  0.999885  0.999575  0.250000  1
  Pt  Pt15  1  0.335137  0.666581  0.039816  1
  Pt  Pt16  1  0.666102  0.335862  0.529061  1
  Pt  Pt17  1  0.666102  0.335862  0.970939  1
