# generated using pymatgen
data_Sr10Fe5Ru4WO30
_symmetry_space_group_name_H-M   'P 1'
_cell_length_a   5.64065463
_cell_length_b   7.93222121
_cell_length_c   14.89067955
_cell_angle_alpha   105.41593460
_cell_angle_beta   100.31458270
_cell_angle_gamma   90.00800120
_symmetry_Int_Tables_number   1
_chemical_formula_structural   Sr10Fe5Ru4WO30
_chemical_formula_sum   'Sr10 Fe5 Ru4 W1 O30'
_cell_volume   631.10125504
_cell_formula_units_Z   1
loop_
 _symmetry_equiv_pos_site_id
 _symmetry_equiv_pos_as_xyz
  1  'x, y, z'
loop_
 _atom_site_type_symbol
 _atom_site_label
 _atom_site_symmetry_multiplicity
 _atom_site_fract_x
 _atom_site_fract_y
 _atom_site_fract_z
 _atom_site_occupancy
  Sr  Sr0  1  0.100732  0.347847  0.206204  1
  Sr  Sr1  1  0.699968  0.950964  0.400745  1
  Sr  Sr2  1  0.300403  0.549341  0.598655  1
  Sr  Sr3  1  0.898278  0.141477  0.794182  1
  Sr  Sr4  1  0.499657  0.761715  0.000338  1
  Sr  Sr5  1  0.500343  0.238285  0.999662  1
  Sr  Sr6  1  0.101722  0.858523  0.205818  1
  Sr  Sr7  1  0.699597  0.450659  0.401345  1
  Sr  Sr8  1  0.300032  0.049036  0.599255  1
  Sr  Sr9  1  0.899268  0.652153  0.793796  1
  Fe  Fe10  1  0.000000  0.000000  0.000000  1
  Fe  Fe11  1  0.600096  0.601218  0.202141  1
  Fe  Fe12  1  0.200597  0.200691  0.401464  1
  Fe  Fe13  1  0.799403  0.799309  0.598536  1
  Fe  Fe14  1  0.399904  0.398782  0.797859  1
  Ru  Ru15  1  0.599988  0.100259  0.200156  1
  Ru  Ru16  1  0.199753  0.700011  0.400075  1
  Ru  Ru17  1  0.800247  0.299989  0.599925  1
  Ru  Ru18  1  0.400012  0.899741  0.799844  1
  W  W19  1  0.000000  0.500000  0.000000  1
  O  O20  1  0.302210  0.048694  0.099677  1
  O  O21  1  0.903154  0.651268  0.299362  1
  O  O22  1  0.503563  0.253468  0.501676  1
  O  O23  1  0.103110  0.851054  0.701466  1
  O  O24  1  0.707864  0.448965  0.903446  1
  O  O25  1  0.292136  0.551035  0.096554  1
  O  O26  1  0.896890  0.148946  0.298534  1
  O  O27  1  0.496437  0.746532  0.498324  1
  O  O28  1  0.096846  0.348732  0.700638  1
  O  O29  1  0.697790  0.951306  0.900323  1
  O  O30  1  0.570821  0.858547  0.212555  1
  O  O31  1  0.169366  0.457655  0.412242  1
  O  O32  1  0.769737  0.057882  0.612855  1
  O  O33  1  0.373828  0.659395  0.816144  1
  O  O34  1  0.974691  0.264674  0.015799  1
  O  O35  1  0.626172  0.340605  0.183856  1
  O  O36  1  0.230263  0.942118  0.387145  1
  O  O37  1  0.830634  0.542345  0.587758  1
  O  O38  1  0.429179  0.141453  0.787445  1
  O  O39  1  0.025309  0.735326  0.984201  1
  O  O40  1  0.196274  0.415029  0.903387  1
  O  O41  1  0.800136  0.015384  0.100178  1
  O  O42  1  0.397063  0.614343  0.299489  1
  O  O43  1  0.998744  0.215952  0.501332  1
  O  O44  1  0.597738  0.816892  0.700930  1
  O  O45  1  0.402262  0.183108  0.299070  1
  O  O46  1  0.001256  0.784048  0.498668  1
  O  O47  1  0.602937  0.385657  0.700511  1
  O  O48  1  0.199864  0.984616  0.899822  1
  O  O49  1  0.803726  0.584971  0.096613  1
