# generated using pymatgen
data_Tb2Ho2ScPb4
_symmetry_space_group_name_H-M   'P 1'
_cell_length_a   8.09824100
_cell_length_b   8.19287200
_cell_length_c   15.54329700
_cell_angle_alpha   90.00000000
_cell_angle_beta   90.00000000
_cell_angle_gamma   90.00000000
_symmetry_Int_Tables_number   1
_chemical_formula_structural   Tb2Ho2ScPb4
_chemical_formula_sum   'Tb8 Ho8 Sc4 Pb16'
_cell_volume   1031.26436799
_cell_formula_units_Z   4
loop_
 _symmetry_equiv_pos_site_id
 _symmetry_equiv_pos_as_xyz
  1  'x, y, z'
loop_
 _atom_site_type_symbol
 _atom_site_label
 _atom_site_symmetry_multiplicity
 _atom_site_fract_x
 _atom_site_fract_y
 _atom_site_fract_z
 _atom_site_occupancy
  Tb  Tb0  1  0.534264  0.322874  0.900704  1
  Tb  Tb1  1  0.034264  0.177126  0.599296  1
  Tb  Tb2  1  0.465736  0.677126  0.400704  1
  Tb  Tb3  1  0.965736  0.822874  0.099296  1
  Tb  Tb4  1  0.465736  0.677126  0.099296  1
  Tb  Tb5  1  0.965736  0.822874  0.400704  1
  Tb  Tb6  1  0.534264  0.322874  0.599296  1
  Tb  Tb7  1  0.034264  0.177126  0.900704  1
  Ho  Ho8  1  0.376269  0.841931  0.878428  1
  Ho  Ho9  1  0.876269  0.658069  0.621572  1
  Ho  Ho10  1  0.623731  0.158069  0.378428  1
  Ho  Ho11  1  0.123731  0.341931  0.121572  1
  Ho  Ho12  1  0.623731  0.158069  0.121572  1
  Ho  Ho13  1  0.123731  0.341931  0.378428  1
  Ho  Ho14  1  0.376269  0.841931  0.621572  1
  Ho  Ho15  1  0.876269  0.658069  0.878428  1
  Sc  Sc16  1  0.207717  0.504752  0.750000  1
  Sc  Sc17  1  0.707717  0.995248  0.750000  1
  Sc  Sc18  1  0.792283  0.495248  0.250000  1
  Sc  Sc19  1  0.292283  0.004752  0.250000  1
  Pb  Pb20  1  0.283082  0.033313  0.044637  1
  Pb  Pb21  1  0.783082  0.466687  0.455363  1
  Pb  Pb22  1  0.716918  0.966687  0.544637  1
  Pb  Pb23  1  0.216918  0.533313  0.955363  1
  Pb  Pb24  1  0.716918  0.966687  0.955363  1
  Pb  Pb25  1  0.216918  0.533313  0.544637  1
  Pb  Pb26  1  0.283082  0.033313  0.455363  1
  Pb  Pb27  1  0.783082  0.466687  0.044637  1
  Pb  Pb28  1  0.568344  0.626849  0.750000  1
  Pb  Pb29  1  0.068344  0.873151  0.750000  1
  Pb  Pb30  1  0.431656  0.373151  0.250000  1
  Pb  Pb31  1  0.931656  0.126849  0.250000  1
  Pb  Pb32  1  0.345996  0.155619  0.750000  1
  Pb  Pb33  1  0.845996  0.344381  0.750000  1
  Pb  Pb34  1  0.654004  0.844381  0.250000  1
  Pb  Pb35  1  0.154004  0.655619  0.250000  1
