# generated using pymatgen
data_YTh(AlRu)2
_symmetry_space_group_name_H-M   'P 1'
_cell_length_a   4.04595500
_cell_length_b   7.07841800
_cell_length_c   8.30250800
_cell_angle_alpha   90.00000000
_cell_angle_beta   90.00000000
_cell_angle_gamma   90.00000000
_symmetry_Int_Tables_number   1
_chemical_formula_structural   YTh(AlRu)2
_chemical_formula_sum   'Y2 Th2 Al4 Ru4'
_cell_volume   237.77520032
_cell_formula_units_Z   2
loop_
 _symmetry_equiv_pos_site_id
 _symmetry_equiv_pos_as_xyz
  1  'x, y, z'
loop_
 _atom_site_type_symbol
 _atom_site_label
 _atom_site_symmetry_multiplicity
 _atom_site_fract_x
 _atom_site_fract_y
 _atom_site_fract_z
 _atom_site_occupancy
  Y  Y0  1  0.750000  0.041036  0.687331  1
  Y  Y1  1  0.750000  0.541036  0.812669  1
  Th  Th2  1  0.250000  0.965256  0.322230  1
  Th  Th3  1  0.250000  0.465256  0.177770  1
  Al  Al4  1  0.250000  0.366759  0.563955  1
  Al  Al5  1  0.250000  0.866759  0.936045  1
  Al  Al6  1  0.750000  0.629277  0.447983  1
  Al  Al7  1  0.750000  0.129277  0.052017  1
  Ru  Ru8  1  0.250000  0.237895  0.882047  1
  Ru  Ru9  1  0.250000  0.737895  0.617953  1
  Ru  Ru10  1  0.750000  0.759779  0.129551  1
  Ru  Ru11  1  0.750000  0.259779  0.370449  1
