# generated using pymatgen
data_Ho12Ni4SnAu
_symmetry_space_group_name_H-M   'P 1'
_cell_length_a   8.34133379
_cell_length_b   8.34133356
_cell_length_c   8.34133334
_cell_angle_alpha   112.72977095
_cell_angle_beta   109.23767748
_cell_angle_gamma   106.50668462
_symmetry_Int_Tables_number   1
_chemical_formula_structural   Ho12Ni4SnAu
_chemical_formula_sum   'Ho12 Ni4 Sn1 Au1'
_cell_volume   445.44148776
_cell_formula_units_Z   1
loop_
 _symmetry_equiv_pos_site_id
 _symmetry_equiv_pos_as_xyz
  1  'x, y, z'
loop_
 _atom_site_type_symbol
 _atom_site_label
 _atom_site_symmetry_multiplicity
 _atom_site_fract_x
 _atom_site_fract_y
 _atom_site_fract_z
 _atom_site_occupancy
  Ho  Ho0  1  0.421870  0.224149  0.197720  1
  Ho  Ho1  1  0.578130  0.775851  0.802280  1
  Ho  Ho2  1  0.026428  0.224149  0.802280  1
  Ho  Ho3  1  0.973572  0.775851  0.197720  1
  Ho  Ho4  1  0.179911  0.291616  0.471527  1
  Ho  Ho5  1  0.820089  0.708384  0.528473  1
  Ho  Ho6  1  0.179911  0.708384  0.888296  1
  Ho  Ho7  1  0.820089  0.291616  0.111704  1
  Ho  Ho8  1  0.324243  0.632679  0.308436  1
  Ho  Ho9  1  0.675757  0.367321  0.691564  1
  Ho  Ho10  1  0.324243  0.015807  0.691564  1
  Ho  Ho11  1  0.675757  0.984193  0.308436  1
  Ni  Ni12  1  0.358357  0.000000  0.358357  1
  Ni  Ni13  1  0.641643  0.000000  0.641643  1
  Ni  Ni14  1  0.124467  0.624467  0.500000  1
  Ni  Ni15  1  0.875533  0.375533  0.500000  1
  Sn  Sn16  1  0.500000  0.500000  0.000000  1
  Au  Au17  1  0.000000  0.000000  0.000000  1
