# generated using pymatgen
data_Hf6Ga6Pt4RhAu
_symmetry_space_group_name_H-M   'P 1'
_cell_length_a   7.16866200
_cell_length_b   7.16866128
_cell_length_c   7.10221300
_cell_angle_alpha   90.00000000
_cell_angle_beta   90.00000000
_cell_angle_gamma   120.00001253
_symmetry_Int_Tables_number   1
_chemical_formula_structural   Hf6Ga6Pt4RhAu
_chemical_formula_sum   'Hf6 Ga6 Pt4 Rh1 Au1'
_cell_volume   316.08248753
_cell_formula_units_Z   1
loop_
 _symmetry_equiv_pos_site_id
 _symmetry_equiv_pos_as_xyz
  1  'x, y, z'
loop_
 _atom_site_type_symbol
 _atom_site_label
 _atom_site_symmetry_multiplicity
 _atom_site_fract_x
 _atom_site_fract_y
 _atom_site_fract_z
 _atom_site_occupancy
  Hf  Hf0  1  0.407316  0.387398  0.245563  1
  Hf  Hf1  1  0.589221  0.968721  0.754099  1
  Hf  Hf2  1  0.379501  0.410779  0.754099  1
  Hf  Hf3  1  0.031279  0.620499  0.754099  1
  Hf  Hf4  1  0.980082  0.592684  0.245563  1
  Hf  Hf5  1  0.612602  0.019918  0.245563  1
  Ga  Ga6  1  0.267095  0.002531  0.996512  1
  Ga  Ga7  1  0.262667  0.997002  0.500544  1
  Ga  Ga8  1  0.002998  0.265665  0.500544  1
  Ga  Ga9  1  0.997469  0.264564  0.996512  1
  Ga  Ga10  1  0.735436  0.732905  0.996512  1
  Ga  Ga11  1  0.734335  0.737333  0.500544  1
  Pt  Pt12  1  0.666667  0.333333  0.970428  1
  Pt  Pt13  1  0.333333  0.666667  0.036329  1
  Pt  Pt14  1  0.333333  0.666667  0.465709  1
  Pt  Pt15  1  0.000000  0.000000  0.247832  1
  Rh  Rh16  1  0.000000  0.000000  0.749890  1
  Au  Au17  1  0.666667  0.333333  0.539662  1
