# generated using pymatgen
data_Ac3MgCd2IrPd2
_symmetry_space_group_name_H-M   'P 1'
_cell_length_a   7.88524470
_cell_length_b   7.93552450
_cell_length_c   4.23905200
_cell_angle_alpha   90.00000000
_cell_angle_beta   90.00000000
_cell_angle_gamma   119.61080488
_symmetry_Int_Tables_number   1
_chemical_formula_structural   Ac3MgCd2IrPd2
_chemical_formula_sum   'Ac3 Mg1 Cd2 Ir1 Pd2'
_cell_volume   230.61102915
_cell_formula_units_Z   1
loop_
 _symmetry_equiv_pos_site_id
 _symmetry_equiv_pos_as_xyz
  1  'x, y, z'
loop_
 _atom_site_type_symbol
 _atom_site_label
 _atom_site_symmetry_multiplicity
 _atom_site_fract_x
 _atom_site_fract_y
 _atom_site_fract_z
 _atom_site_occupancy
  Ac  Ac0  1  0.582986  0.988100  0.000000  1
  Ac  Ac1  1  0.008427  0.589211  0.000000  1
  Ac  Ac2  1  0.408293  0.423416  0.000000  1
  Mg  Mg3  1  0.238719  0.998748  0.500000  1
  Cd  Cd4  1  0.997461  0.238184  0.500000  1
  Cd  Cd5  1  0.762436  0.757906  0.500000  1
  Ir  Ir6  1  0.330893  0.677170  0.500000  1
  Pd  Pd7  1  0.656490  0.326131  0.500000  1
  Pd  Pd8  1  0.014295  0.001134  0.000000  1
