# generated using pymatgen
data_Li2LaTm2Al7
_symmetry_space_group_name_H-M   'P 1'
_cell_length_a   9.37443949
_cell_length_b   9.37443885
_cell_length_c   9.37443866
_cell_angle_alpha   34.42638524
_cell_angle_beta   34.42639502
_cell_angle_gamma   34.42637733
_symmetry_Int_Tables_number   1
_chemical_formula_structural   Li2LaTm2Al7
_chemical_formula_sum   'Li2 La1 Tm2 Al7'
_cell_volume   234.87504308
_cell_formula_units_Z   1
loop_
 _symmetry_equiv_pos_site_id
 _symmetry_equiv_pos_as_xyz
  1  'x, y, z'
loop_
 _atom_site_type_symbol
 _atom_site_label
 _atom_site_symmetry_multiplicity
 _atom_site_fract_x
 _atom_site_fract_y
 _atom_site_fract_z
 _atom_site_occupancy
  Li  Li0  1  0.664601  0.664601  0.664601  1
  Li  Li1  1  0.335399  0.335399  0.335399  1
  La  La2  1  0.000000  0.000000  0.000000  1
  Tm  Tm3  1  0.141832  0.141832  0.141832  1
  Tm  Tm4  1  0.858168  0.858168  0.858168  1
  Al  Al5  1  0.412829  0.412829  0.922233  1
  Al  Al6  1  0.922233  0.412829  0.412829  1
  Al  Al7  1  0.500000  0.500000  0.500000  1
  Al  Al8  1  0.587171  0.587171  0.077767  1
  Al  Al9  1  0.412829  0.922233  0.412829  1
  Al  Al10  1  0.077767  0.587171  0.587171  1
  Al  Al11  1  0.587171  0.077767  0.587171  1
