# generated using pymatgen
data_Tb8SiAsI12
_symmetry_space_group_name_H-M   'P 1'
_cell_length_a   4.24750400
_cell_length_b   14.01005120
_cell_length_c   14.81013020
_cell_angle_alpha   90.01918008
_cell_angle_beta   90.00000000
_cell_angle_gamma   90.00000000
_symmetry_Int_Tables_number   1
_chemical_formula_structural   Tb8SiAsI12
_chemical_formula_sum   'Tb8 Si1 As1 I12'
_cell_volume   881.31745420
_cell_formula_units_Z   1
loop_
 _symmetry_equiv_pos_site_id
 _symmetry_equiv_pos_as_xyz
  1  'x, y, z'
loop_
 _atom_site_type_symbol
 _atom_site_label
 _atom_site_symmetry_multiplicity
 _atom_site_fract_x
 _atom_site_fract_y
 _atom_site_fract_z
 _atom_site_occupancy
  Tb  Tb0  1  0.500000  0.114377  0.347723  1
  Tb  Tb1  1  0.500000  0.885623  0.652277  1
  Tb  Tb2  1  0.500000  0.615009  0.153258  1
  Tb  Tb3  1  0.500000  0.384991  0.846742  1
  Tb  Tb4  1  0.000000  0.110896  0.574039  1
  Tb  Tb5  1  0.000000  0.889104  0.425961  1
  Tb  Tb6  1  0.000000  0.610137  0.926522  1
  Tb  Tb7  1  0.000000  0.389863  0.073478  1
  Si  Si8  1  0.500000  0.000000  0.500000  1
  As  As9  1  0.500000  0.500000  0.000000  1
  I  I10  1  0.500000  0.246371  0.159993  1
  I  I11  1  0.500000  0.753629  0.840007  1
  I  I12  1  0.500000  0.745150  0.338564  1
  I  I13  1  0.500000  0.254850  0.661436  1
  I  I14  1  0.000000  0.259108  0.414026  1
  I  I15  1  0.000000  0.740892  0.585974  1
  I  I16  1  0.000000  0.758557  0.085721  1
  I  I17  1  0.000000  0.241443  0.914279  1
  I  I18  1  0.000000  0.999740  0.240382  1
  I  I19  1  0.000000  0.000260  0.759618  1
  I  I20  1  0.000000  0.499514  0.258943  1
  I  I21  1  0.000000  0.500486  0.741057  1
