# generated using pymatgen
data_Ca2CdPtRh
_symmetry_space_group_name_H-M   'P 1'
_cell_length_a   5.66694973
_cell_length_b   5.66694837
_cell_length_c   5.66694993
_cell_angle_alpha   134.33915930
_cell_angle_beta   116.38134553
_cell_angle_gamma   81.76416897
_symmetry_Int_Tables_number   1
_chemical_formula_structural   Ca2CdPtRh
_chemical_formula_sum   'Ca2 Cd1 Pt1 Rh1'
_cell_volume   112.56119103
_cell_formula_units_Z   1
loop_
 _symmetry_equiv_pos_site_id
 _symmetry_equiv_pos_as_xyz
  1  'x, y, z'
loop_
 _atom_site_type_symbol
 _atom_site_label
 _atom_site_symmetry_multiplicity
 _atom_site_fract_x
 _atom_site_fract_y
 _atom_site_fract_z
 _atom_site_occupancy
  Ca  Ca0  1  0.297291  0.796646  0.500645  1
  Ca  Ca1  1  0.703999  0.203354  0.500645  1
  Cd  Cd2  1  0.994151  0.000000  0.994151  1
  Pt  Pt3  1  0.282803  0.500000  0.782803  1
  Rh  Rh4  1  0.721755  0.500000  0.221755  1
