# generated using pymatgen
data_Dy3Sn2BiRh3
_symmetry_space_group_name_H-M   'P 1'
_cell_length_a   7.58997216
_cell_length_b   7.65570560
_cell_length_c   3.88556100
_cell_angle_alpha   90.00000000
_cell_angle_beta   90.00000000
_cell_angle_gamma   120.28690450
_symmetry_Int_Tables_number   1
_chemical_formula_structural   Dy3Sn2BiRh3
_chemical_formula_sum   'Dy3 Sn2 Bi1 Rh3'
_cell_volume   194.96063650
_cell_formula_units_Z   1
loop_
 _symmetry_equiv_pos_site_id
 _symmetry_equiv_pos_as_xyz
  1  'x, y, z'
loop_
 _atom_site_type_symbol
 _atom_site_label
 _atom_site_symmetry_multiplicity
 _atom_site_fract_x
 _atom_site_fract_y
 _atom_site_fract_z
 _atom_site_occupancy
  Dy  Dy0  1  0.588722  0.991767  0.000000  1
  Dy  Dy1  1  0.411278  0.403045  0.000000  1
  Dy  Dy2  1  0.000000  0.601488  0.000000  1
  Sn  Sn3  1  0.262982  0.998443  0.500000  1
  Sn  Sn4  1  0.737018  0.735461  0.500000  1
  Bi  Bi5  1  0.000000  0.263857  0.500000  1
  Rh  Rh6  1  0.660787  0.337375  0.500000  1
  Rh  Rh7  1  0.000000  0.991976  0.000000  1
  Rh  Rh8  1  0.339213  0.676589  0.500000  1
