# generated using pymatgen
data_Er4Tm12MgIn3Co4
_symmetry_space_group_name_H-M   'P 1'
_cell_length_a   9.45273469
_cell_length_b   9.42017793
_cell_length_c   9.42017800
_cell_angle_alpha   59.99999975
_cell_angle_beta   60.11386650
_cell_angle_gamma   60.11386543
_symmetry_Int_Tables_number   1
_chemical_formula_structural   Er4Tm12MgIn3Co4
_chemical_formula_sum   'Er4 Tm12 Mg1 In3 Co4'
_cell_volume   594.16354467
_cell_formula_units_Z   1
loop_
 _symmetry_equiv_pos_site_id
 _symmetry_equiv_pos_as_xyz
  1  'x, y, z'
loop_
 _atom_site_type_symbol
 _atom_site_label
 _atom_site_symmetry_multiplicity
 _atom_site_fract_x
 _atom_site_fract_y
 _atom_site_fract_z
 _atom_site_occupancy
  Er  Er0  1  0.347582  0.345424  0.345424  1
  Er  Er1  1  0.347582  0.345424  0.961571  1
  Er  Er2  1  0.347582  0.961571  0.345424  1
  Er  Er3  1  0.958147  0.347285  0.347285  1
  Tm  Tm4  1  0.810331  0.189015  0.189015  1
  Tm  Tm5  1  0.185018  0.813816  0.813816  1
  Tm  Tm6  1  0.185018  0.813816  0.187350  1
  Tm  Tm7  1  0.810331  0.189015  0.811639  1
  Tm  Tm8  1  0.185018  0.187350  0.813816  1
  Tm  Tm9  1  0.810331  0.811639  0.189015  1
  Tm  Tm10  1  0.939343  0.561126  0.561126  1
  Tm  Tm11  1  0.562114  0.938646  0.938646  1
  Tm  Tm12  1  0.562114  0.938646  0.560594  1
  Tm  Tm13  1  0.939343  0.561126  0.938405  1
  Tm  Tm14  1  0.562114  0.560594  0.938646  1
  Tm  Tm15  1  0.939343  0.938405  0.561126  1
  Mg  Mg16  1  0.267686  0.577438  0.577438  1
  In  In17  1  0.582051  0.583104  0.583104  1
  In  In18  1  0.582051  0.583104  0.251740  1
  In  In19  1  0.582051  0.251740  0.583104  1
  Co  Co20  1  0.138695  0.141389  0.141389  1
  Co  Co21  1  0.138695  0.141389  0.578526  1
  Co  Co22  1  0.138695  0.578526  0.141389  1
  Co  Co23  1  0.578757  0.140414  0.140414  1
