# generated using pymatgen
data_Ho6Tm6Co4SnRh
_symmetry_space_group_name_H-M   'P 1'
_cell_length_a   8.21645916
_cell_length_b   8.21645917
_cell_length_c   8.20959693
_cell_angle_alpha   111.03130410
_cell_angle_beta   110.73568187
_cell_angle_gamma   106.71791903
_symmetry_Int_Tables_number   1
_chemical_formula_structural   Ho6Tm6Co4SnRh
_chemical_formula_sum   'Ho6 Tm6 Co4 Sn1 Rh1'
_cell_volume   425.71317172
_cell_formula_units_Z   1
loop_
 _symmetry_equiv_pos_site_id
 _symmetry_equiv_pos_as_xyz
  1  'x, y, z'
loop_
 _atom_site_type_symbol
 _atom_site_label
 _atom_site_symmetry_multiplicity
 _atom_site_fract_x
 _atom_site_fract_y
 _atom_site_fract_z
 _atom_site_occupancy
  Ho  Ho0  1  0.411372  0.215077  0.195138  1
  Ho  Ho1  1  0.588628  0.784923  0.804862  1
  Ho  Ho2  1  0.019940  0.216235  0.804862  1
  Ho  Ho3  1  0.980060  0.783765  0.195138  1
  Ho  Ho4  1  0.184940  0.289042  0.473983  1
  Ho  Ho5  1  0.815060  0.710958  0.526017  1
  Tm  Tm6  1  0.185594  0.711610  0.897204  1
  Tm  Tm7  1  0.814406  0.288390  0.102796  1
  Tm  Tm8  1  0.314282  0.622163  0.306567  1
  Tm  Tm9  1  0.685718  0.377837  0.693433  1
  Tm  Tm10  1  0.315594  0.007715  0.693433  1
  Tm  Tm11  1  0.684406  0.992285  0.306567  1
  Co  Co12  1  0.375633  0.999759  0.375392  1
  Co  Co13  1  0.624367  0.000241  0.624608  1
  Co  Co14  1  0.112374  0.612374  0.500000  1
  Co  Co15  1  0.887626  0.387626  0.500000  1
  Sn  Sn16  1  0.500000  0.500000  0.000000  1
  Rh  Rh17  1  0.000000  0.000000  0.000000  1
