# generated using pymatgen
data_Li2Dy3Si2AgSn
_symmetry_space_group_name_H-M   'P 1'
_cell_length_a   7.12231980
_cell_length_b   7.14476612
_cell_length_c   4.31662400
_cell_angle_alpha   90.00000000
_cell_angle_beta   90.00000000
_cell_angle_gamma   120.10431303
_symmetry_Int_Tables_number   1
_chemical_formula_structural   Li2Dy3Si2AgSn
_chemical_formula_sum   'Li2 Dy3 Si2 Ag1 Sn1'
_cell_volume   190.03206206
_cell_formula_units_Z   1
loop_
 _symmetry_equiv_pos_site_id
 _symmetry_equiv_pos_as_xyz
  1  'x, y, z'
loop_
 _atom_site_type_symbol
 _atom_site_label
 _atom_site_symmetry_multiplicity
 _atom_site_fract_x
 _atom_site_fract_y
 _atom_site_fract_z
 _atom_site_occupancy
  Li  Li0  1  0.752426  0.755536  0.000000  1
  Li  Li1  1  0.247574  0.003110  0.000000  1
  Dy  Dy2  1  0.438200  0.439296  0.500000  1
  Dy  Dy3  1  0.561800  0.001096  0.500000  1
  Dy  Dy4  1  0.000000  0.556764  0.500000  1
  Si  Si5  1  0.663424  0.331344  0.000000  1
  Si  Si6  1  0.336576  0.667921  0.000000  1
  Ag  Ag7  1  0.000000  0.253334  0.000000  1
  Sn  Sn8  1  0.000000  0.991600  0.500000  1
