# generated using pymatgen
data_Er4AlZn11
_symmetry_space_group_name_H-M   'P 1'
_cell_length_a   4.37546700
_cell_length_b   6.65027226
_cell_length_c   10.05164340
_cell_angle_alpha   90.03224527
_cell_angle_beta   90.00000000
_cell_angle_gamma   90.00000000
_symmetry_Int_Tables_number   1
_chemical_formula_structural   Er4AlZn11
_chemical_formula_sum   'Er4 Al1 Zn11'
_cell_volume   292.48314398
_cell_formula_units_Z   1
loop_
 _symmetry_equiv_pos_site_id
 _symmetry_equiv_pos_as_xyz
  1  'x, y, z'
loop_
 _atom_site_type_symbol
 _atom_site_label
 _atom_site_symmetry_multiplicity
 _atom_site_fract_x
 _atom_site_fract_y
 _atom_site_fract_z
 _atom_site_occupancy
  Er  Er0  1  0.250000  0.279132  0.662652  1
  Er  Er1  1  0.250000  0.778913  0.834676  1
  Er  Er2  1  0.750000  0.719784  0.336089  1
  Er  Er3  1  0.750000  0.219066  0.164668  1
  Al  Al4  1  0.250000  0.537394  0.104607  1
  Zn  Zn5  1  0.250000  0.035972  0.396003  1
  Zn  Zn6  1  0.750000  0.463849  0.895928  1
  Zn  Zn7  1  0.750000  0.964092  0.603606  1
  Zn  Zn8  1  0.250000  0.922572  0.148243  1
  Zn  Zn9  1  0.250000  0.419612  0.352952  1
  Zn  Zn10  1  0.750000  0.080271  0.852250  1
  Zn  Zn11  1  0.750000  0.580694  0.648312  1
  Zn  Zn12  1  0.250000  0.215235  0.957066  1
  Zn  Zn13  1  0.250000  0.716427  0.542704  1
  Zn  Zn14  1  0.750000  0.783443  0.042481  1
  Zn  Zn15  1  0.750000  0.283544  0.457763  1
