# generated using pymatgen
data_HoZn6CdAg5
_symmetry_space_group_name_H-M   'P 1'
_cell_length_a   7.11687675
_cell_length_b   7.11687595
_cell_length_c   7.11687582
_cell_angle_alpha   98.42490177
_cell_angle_beta   96.96954898
_cell_angle_gamma   137.06652588
_symmetry_Int_Tables_number   1
_chemical_formula_structural   HoZn6CdAg5
_chemical_formula_sum   'Ho1 Zn6 Cd1 Ag5'
_cell_volume   228.47647359
_cell_formula_units_Z   1
loop_
 _symmetry_equiv_pos_site_id
 _symmetry_equiv_pos_as_xyz
  1  'x, y, z'
loop_
 _atom_site_type_symbol
 _atom_site_label
 _atom_site_symmetry_multiplicity
 _atom_site_fract_x
 _atom_site_fract_y
 _atom_site_fract_z
 _atom_site_occupancy
  Ho  Ho0  1  0.000000  0.996747  0.996747  1
  Zn  Zn1  1  0.000830  0.997363  0.502057  1
  Zn  Zn2  1  0.504694  0.501227  0.502057  1
  Zn  Zn3  1  0.495306  0.997363  0.996533  1
  Zn  Zn4  1  0.999170  0.501227  0.996533  1
  Zn  Zn5  1  0.721007  0.500944  0.221951  1
  Zn  Zn6  1  0.278993  0.500944  0.779937  1
  Cd  Cd7  1  0.000000  0.350085  0.350085  1
  Ag  Ag8  1  0.000000  0.653647  0.653647  1
  Ag  Ag9  1  0.655579  0.000757  0.656335  1
  Ag  Ag10  1  0.344421  0.000757  0.345178  1
  Ag  Ag11  1  0.500000  0.303172  0.803172  1
  Ag  Ag12  1  0.500000  0.695768  0.195768  1
