# generated using pymatgen
data_LaNd2RhBr3
_symmetry_space_group_name_H-M   'P 1'
_cell_length_a   10.53944769
_cell_length_b   10.53944761
_cell_length_c   10.53944716
_cell_angle_alpha   108.35271209
_cell_angle_beta   110.03334915
_cell_angle_gamma   110.03335053
_symmetry_Int_Tables_number   1
_chemical_formula_structural   LaNd2RhBr3
_chemical_formula_sum   'La4 Nd8 Rh4 Br12'
_cell_volume   900.96480181
_cell_formula_units_Z   4
loop_
 _symmetry_equiv_pos_site_id
 _symmetry_equiv_pos_as_xyz
  1  'x, y, z'
loop_
 _atom_site_type_symbol
 _atom_site_label
 _atom_site_symmetry_multiplicity
 _atom_site_fract_x
 _atom_site_fract_y
 _atom_site_fract_z
 _atom_site_occupancy
  La  La0  1  0.750000  0.232770  0.267230  1
  La  La1  1  0.750000  0.017230  0.482770  1
  La  La2  1  0.465537  0.482770  0.232770  1
  La  La3  1  0.034463  0.267230  0.017230  1
  Nd  Nd4  1  0.267661  0.756525  0.236904  1
  Nd  Nd5  1  0.480379  0.743475  0.011136  1
  Nd  Nd6  1  0.232339  0.469242  0.488864  1
  Nd  Nd7  1  0.019621  0.030758  0.263096  1
  Nd  Nd8  1  0.232339  0.263096  0.743475  1
  Nd  Nd9  1  0.019621  0.488864  0.756525  1
  Nd  Nd10  1  0.480379  0.236904  0.469242  1
  Nd  Nd11  1  0.267661  0.011136  0.030758  1
  Rh  Rh12  1  0.503034  0.001517  0.251517  1
  Rh  Rh13  1  0.250000  0.498483  0.001517  1
  Rh  Rh14  1  0.996966  0.248483  0.498483  1
  Rh  Rh15  1  0.250000  0.251517  0.248483  1
  Br  Br16  1  0.250000  0.993965  0.506035  1
  Br  Br17  1  0.512071  0.506035  0.756035  1
  Br  Br18  1  0.250000  0.756035  0.743965  1
  Br  Br19  1  0.987929  0.743965  0.993965  1
  Br  Br20  1  0.999798  0.508872  0.254727  1
  Br  Br21  1  0.745856  0.991128  0.990925  1
  Br  Br22  1  0.754144  0.745071  0.245273  1
  Br  Br23  1  0.500202  0.754929  0.509075  1
  Br  Br24  1  0.500202  0.245273  0.991128  1
  Br  Br25  1  0.754144  0.509075  0.508872  1
  Br  Br26  1  0.745856  0.254727  0.754929  1
  Br  Br27  1  0.999798  0.990925  0.745071  1
