# generated using pymatgen
data_Mn2FeSb12Os
_symmetry_space_group_name_H-M   'P 1'
_cell_length_a   8.10543953
_cell_length_b   8.10683657
_cell_length_c   9.40319073
_cell_angle_alpha   55.02905564
_cell_angle_beta   54.60989265
_cell_angle_gamma   70.30170959
_symmetry_Int_Tables_number   1
_chemical_formula_structural   Mn2FeSb12Os
_chemical_formula_sum   'Mn2 Fe1 Sb12 Os1'
_cell_volume   412.75094469
_cell_formula_units_Z   1
loop_
 _symmetry_equiv_pos_site_id
 _symmetry_equiv_pos_as_xyz
  1  'x, y, z'
loop_
 _atom_site_type_symbol
 _atom_site_label
 _atom_site_symmetry_multiplicity
 _atom_site_fract_x
 _atom_site_fract_y
 _atom_site_fract_z
 _atom_site_occupancy
  Mn  Mn0  1  0.000000  0.500000  0.000000  1
  Mn  Mn1  1  0.500000  0.000000  0.000000  1
  Fe  Fe2  1  0.000000  0.500000  0.500000  1
  Sb  Sb3  1  0.678033  0.666069  0.485845  1
  Sb  Sb4  1  0.321967  0.333931  0.514155  1
  Sb  Sb5  1  0.651148  0.651956  0.195705  1
  Sb  Sb6  1  0.348852  0.348044  0.804295  1
  Sb  Sb7  1  0.156837  0.848081  0.656493  1
  Sb  Sb8  1  0.843163  0.151919  0.343507  1
  Sb  Sb9  1  0.852090  0.168332  0.652798  1
  Sb  Sb10  1  0.147910  0.831668  0.347202  1
  Sb  Sb11  1  0.820495  0.493257  0.832927  1
  Sb  Sb12  1  0.179505  0.506743  0.167073  1
  Sb  Sb13  1  0.505995  0.186744  0.157106  1
  Sb  Sb14  1  0.494005  0.813256  0.842894  1
  Os  Os15  1  0.500000  0.000000  0.500000  1
