# generated using pymatgen
data_Li7Y5Pt12
_symmetry_space_group_name_H-M   'P 1'
_cell_length_a   5.40680385
_cell_length_b   5.40680233
_cell_length_c   16.08190300
_cell_angle_alpha   80.32251943
_cell_angle_beta   80.32252219
_cell_angle_gamma   60.00000629
_symmetry_Int_Tables_number   1
_chemical_formula_structural   Li7Y5Pt12
_chemical_formula_sum   'Li7 Y5 Pt12'
_cell_volume   399.40130902
_cell_formula_units_Z   1
loop_
 _symmetry_equiv_pos_site_id
 _symmetry_equiv_pos_as_xyz
  1  'x, y, z'
loop_
 _atom_site_type_symbol
 _atom_site_label
 _atom_site_symmetry_multiplicity
 _atom_site_fract_x
 _atom_site_fract_y
 _atom_site_fract_z
 _atom_site_occupancy
  Li  Li0  1  0.500000  0.500000  0.500000  1
  Li  Li1  1  0.750239  0.750240  0.749280  1
  Li  Li2  1  0.249760  0.249760  0.250721  1
  Li  Li3  1  0.666701  0.666701  0.999897  1
  Li  Li4  1  0.333299  0.333299  0.000103  1
  Li  Li5  1  0.583067  0.583067  0.250801  1
  Li  Li6  1  0.416933  0.416933  0.749199  1
  Y  Y7  1  0.000000  0.000000  0.000000  1
  Y  Y8  1  0.927168  0.927168  0.218498  1
  Y  Y9  1  0.072832  0.072832  0.781502  1
  Y  Y10  1  0.849248  0.849248  0.452257  1
  Y  Y11  1  0.150752  0.150752  0.547743  1
  Pt  Pt12  1  0.373476  0.373476  0.376831  1
  Pt  Pt13  1  0.876217  0.373476  0.376831  1
  Pt  Pt14  1  0.373476  0.876217  0.376831  1
  Pt  Pt15  1  0.626524  0.626524  0.623169  1
  Pt  Pt16  1  0.123783  0.626524  0.623169  1
  Pt  Pt17  1  0.626524  0.123783  0.623169  1
  Pt  Pt18  1  0.458705  0.458705  0.123675  1
  Pt  Pt19  1  0.958912  0.458705  0.123675  1
  Pt  Pt20  1  0.458705  0.958912  0.123675  1
  Pt  Pt21  1  0.541295  0.541295  0.876325  1
  Pt  Pt22  1  0.041088  0.541295  0.876325  1
  Pt  Pt23  1  0.541295  0.041088  0.876325  1
