# generated using pymatgen
data_CaY2Ga6Ni7Ru2
_symmetry_space_group_name_H-M   'P 1'
_cell_length_a   9.09653300
_cell_length_b   9.26053374
_cell_length_c   3.81683700
_cell_angle_alpha   90.00000000
_cell_angle_beta   90.00000000
_cell_angle_gamma   119.41587513
_symmetry_Int_Tables_number   1
_chemical_formula_structural   CaY2Ga6Ni7Ru2
_chemical_formula_sum   'Ca1 Y2 Ga6 Ni7 Ru2'
_cell_volume   280.07378312
_cell_formula_units_Z   1
loop_
 _symmetry_equiv_pos_site_id
 _symmetry_equiv_pos_as_xyz
  1  'x, y, z'
loop_
 _atom_site_type_symbol
 _atom_site_label
 _atom_site_symmetry_multiplicity
 _atom_site_fract_x
 _atom_site_fract_y
 _atom_site_fract_z
 _atom_site_occupancy
  Ca  Ca0  1  0.000000  0.000000  0.000000  1
  Y  Y1  1  0.326952  0.653905  0.500000  1
  Y  Y2  1  0.673048  0.346095  0.500000  1
  Ga  Ga3  1  0.313579  0.307307  0.500000  1
  Ga  Ga4  1  0.672507  0.000000  0.500000  1
  Ga  Ga5  1  0.686421  0.692693  0.500000  1
  Ga  Ga6  1  0.993729  0.307307  0.500000  1
  Ga  Ga7  1  0.006271  0.692693  0.500000  1
  Ga  Ga8  1  0.327493  0.000000  0.500000  1
  Ni  Ni9  1  0.174516  0.349030  0.000000  1
  Ni  Ni10  1  0.825484  0.650970  0.000000  1
  Ni  Ni11  1  0.186072  0.825291  0.000000  1
  Ni  Ni12  1  0.639221  0.825291  0.000000  1
  Ni  Ni13  1  0.360779  0.174709  0.000000  1
  Ni  Ni14  1  0.813928  0.174709  0.000000  1
  Ni  Ni15  1  0.500000  0.000000  0.000000  1
  Ru  Ru16  1  0.000000  0.500000  0.000000  1
  Ru  Ru17  1  0.500000  0.500000  0.000000  1
