# generated using pymatgen
data_Ta8MnS20
_symmetry_space_group_name_H-M   'P 1'
_cell_length_a   10.29277988
_cell_length_b   10.29278098
_cell_length_c   18.81058854
_cell_angle_alpha   77.39364629
_cell_angle_beta   77.39364523
_cell_angle_gamma   18.83712802
_symmetry_Int_Tables_number   1
_chemical_formula_structural   Ta8MnS20
_chemical_formula_sum   'Ta8 Mn1 S20'
_cell_volume   627.49552032
_cell_formula_units_Z   1
loop_
 _symmetry_equiv_pos_site_id
 _symmetry_equiv_pos_as_xyz
  1  'x, y, z'
loop_
 _atom_site_type_symbol
 _atom_site_label
 _atom_site_symmetry_multiplicity
 _atom_site_fract_x
 _atom_site_fract_y
 _atom_site_fract_z
 _atom_site_occupancy
  Ta  Ta0  1  0.078187  0.078187  0.091627  1
  Ta  Ta1  1  0.921813  0.921813  0.908373  1
  Ta  Ta2  1  0.331036  0.331036  0.810629  1
  Ta  Ta3  1  0.668964  0.668964  0.189371  1
  Ta  Ta4  1  0.267484  0.267484  0.281316  1
  Ta  Ta5  1  0.732516  0.732516  0.718684  1
  Ta  Ta6  1  0.160584  0.160584  0.552699  1
  Ta  Ta7  1  0.839416  0.839416  0.447301  1
  Mn  Mn8  1  0.500000  0.500000  0.000000  1
  S  S9  1  0.432827  0.432827  0.404646  1
  S  S10  1  0.567173  0.567173  0.595354  1
  S  S11  1  0.395786  0.395786  0.516092  1
  S  S12  1  0.604214  0.604214  0.483908  1
  S  S13  1  0.150989  0.150989  0.689889  1
  S  S14  1  0.849011  0.849011  0.310111  1
  S  S15  1  0.386793  0.386793  0.005798  1
  S  S16  1  0.613207  0.613207  0.994202  1
  S  S17  1  0.206964  0.206964  0.818865  1
  S  S18  1  0.793036  0.793036  0.181135  1
  S  S19  1  0.253189  0.253189  0.429953  1
  S  S20  1  0.746811  0.746811  0.570047  1
  S  S21  1  0.324996  0.324996  0.679669  1
  S  S22  1  0.675004  0.675004  0.320331  1
  S  S23  1  0.487245  0.487245  0.124350  1
  S  S24  1  0.512755  0.512755  0.875650  1
  S  S25  1  0.200508  0.200508  0.091833  1
  S  S26  1  0.799492  0.799492  0.908167  1
  S  S27  1  0.078141  0.078141  0.225328  1
  S  S28  1  0.921859  0.921859  0.774672  1
