# generated using pymatgen
data_Na2Ni8Bi8P
_symmetry_space_group_name_H-M   'P 1'
_cell_length_a   4.27977800
_cell_length_b   10.03078300
_cell_length_c   20.37508900
_cell_angle_alpha   90.00000000
_cell_angle_beta   90.00000000
_cell_angle_gamma   90.00000000
_symmetry_Int_Tables_number   1
_chemical_formula_structural   Na2Ni8Bi8P
_chemical_formula_sum   'Na4 Ni16 Bi16 P2'
_cell_volume   874.69288050
_cell_formula_units_Z   2
loop_
 _symmetry_equiv_pos_site_id
 _symmetry_equiv_pos_as_xyz
  1  'x, y, z'
loop_
 _atom_site_type_symbol
 _atom_site_label
 _atom_site_symmetry_multiplicity
 _atom_site_fract_x
 _atom_site_fract_y
 _atom_site_fract_z
 _atom_site_occupancy
  Na  Na0  1  0.251693  0.006611  0.798420  1
  Na  Na1  1  0.251693  0.993389  0.201580  1
  Na  Na2  1  0.748307  0.506611  0.701580  1
  Na  Na3  1  0.748307  0.493389  0.298420  1
  Ni  Ni4  1  0.751587  0.313486  0.971784  1
  Ni  Ni5  1  0.751587  0.686514  0.028216  1
  Ni  Ni6  1  0.248413  0.813486  0.528216  1
  Ni  Ni7  1  0.248413  0.186514  0.471784  1
  Ni  Ni8  1  0.244756  0.586038  0.084941  1
  Ni  Ni9  1  0.244756  0.413962  0.915059  1
  Ni  Ni10  1  0.755244  0.086038  0.415059  1
  Ni  Ni11  1  0.755244  0.913962  0.584941  1
  Ni  Ni12  1  0.246954  0.326313  0.043821  1
  Ni  Ni13  1  0.246954  0.673687  0.956179  1
  Ni  Ni14  1  0.753046  0.826313  0.456179  1
  Ni  Ni15  1  0.753046  0.173687  0.543821  1
  Ni  Ni16  1  0.751606  0.441501  0.090902  1
  Ni  Ni17  1  0.751606  0.558499  0.909098  1
  Ni  Ni18  1  0.248394  0.941501  0.409098  1
  Ni  Ni19  1  0.248394  0.058499  0.590902  1
  Bi  Bi20  1  0.251748  0.383394  0.172793  1
  Bi  Bi21  1  0.251748  0.616606  0.827207  1
  Bi  Bi22  1  0.748252  0.883394  0.327207  1
  Bi  Bi23  1  0.748252  0.116606  0.672793  1
  Bi  Bi24  1  0.747119  0.171330  0.084024  1
  Bi  Bi25  1  0.747119  0.828670  0.915976  1
  Bi  Bi26  1  0.252881  0.671330  0.415976  1
  Bi  Bi27  1  0.252881  0.328670  0.584024  1
  Bi  Bi28  1  0.251782  0.149093  0.944518  1
  Bi  Bi29  1  0.251782  0.850907  0.055482  1
  Bi  Bi30  1  0.748218  0.649093  0.555482  1
  Bi  Bi31  1  0.748218  0.350907  0.444518  1
  Bi  Bi32  1  0.745741  0.673515  0.160163  1
  Bi  Bi33  1  0.745741  0.326485  0.839837  1
  Bi  Bi34  1  0.254259  0.173515  0.339837  1
  Bi  Bi35  1  0.254259  0.826485  0.660163  1
  P  P36  1  0.499543  0.500000  0.000000  1
  P  P37  1  0.500457  0.000000  0.500000  1
