# generated using pymatgen
data_Zr16TiCo4Pt3
_symmetry_space_group_name_H-M   'P 1'
_cell_length_a   8.76544798
_cell_length_b   8.76544767
_cell_length_c   8.76544700
_cell_angle_alpha   59.88986865
_cell_angle_beta   59.88987736
_cell_angle_gamma   59.88987571
_symmetry_Int_Tables_number   1
_chemical_formula_structural   Zr16TiCo4Pt3
_chemical_formula_sum   'Zr16 Ti1 Co4 Pt3'
_cell_volume   475.02976213
_cell_formula_units_Z   1
loop_
 _symmetry_equiv_pos_site_id
 _symmetry_equiv_pos_as_xyz
  1  'x, y, z'
loop_
 _atom_site_type_symbol
 _atom_site_label
 _atom_site_symmetry_multiplicity
 _atom_site_fract_x
 _atom_site_fract_y
 _atom_site_fract_z
 _atom_site_occupancy
  Zr  Zr0  1  0.047017  0.649892  0.649892  1
  Zr  Zr1  1  0.649892  0.047017  0.649892  1
  Zr  Zr2  1  0.649892  0.649892  0.047017  1
  Zr  Zr3  1  0.644066  0.644066  0.644066  1
  Zr  Zr4  1  0.802268  0.802268  0.197960  1
  Zr  Zr5  1  0.194000  0.194000  0.801576  1
  Zr  Zr6  1  0.802268  0.197960  0.802268  1
  Zr  Zr7  1  0.194000  0.801576  0.194000  1
  Zr  Zr8  1  0.197960  0.802268  0.802268  1
  Zr  Zr9  1  0.801576  0.194000  0.194000  1
  Zr  Zr10  1  0.435910  0.435910  0.075669  1
  Zr  Zr11  1  0.063657  0.063657  0.437337  1
  Zr  Zr12  1  0.435910  0.075669  0.435910  1
  Zr  Zr13  1  0.063657  0.437337  0.063657  1
  Zr  Zr14  1  0.075669  0.435910  0.435910  1
  Zr  Zr15  1  0.437337  0.063657  0.063657  1
  Ti  Ti16  1  0.424935  0.424935  0.424935  1
  Co  Co17  1  0.424262  0.856609  0.856609  1
  Co  Co18  1  0.856609  0.424262  0.856609  1
  Co  Co19  1  0.856609  0.856609  0.424262  1
  Co  Co20  1  0.860033  0.860033  0.860033  1
  Pt  Pt21  1  0.757275  0.412599  0.412599  1
  Pt  Pt22  1  0.412599  0.757275  0.412599  1
  Pt  Pt23  1  0.412599  0.412599  0.757275  1
