# generated using pymatgen
data_Tm6Pa(Ga3Co8)2
_symmetry_space_group_name_H-M   'P 1'
_cell_length_a   8.45540228
_cell_length_b   8.45774022
_cell_length_c   8.45529000
_cell_angle_alpha   60.00860509
_cell_angle_beta   59.99815451
_cell_angle_gamma   60.00931201
_symmetry_Int_Tables_number   1
_chemical_formula_structural   Tm6Pa(Ga3Co8)2
_chemical_formula_sum   'Tm6 Pa1 Ga6 Co16'
_cell_volume   427.61690029
_cell_formula_units_Z   1
loop_
 _symmetry_equiv_pos_site_id
 _symmetry_equiv_pos_as_xyz
  1  'x, y, z'
loop_
 _atom_site_type_symbol
 _atom_site_label
 _atom_site_symmetry_multiplicity
 _atom_site_fract_x
 _atom_site_fract_y
 _atom_site_fract_z
 _atom_site_occupancy
  Tm  Tm0  1  0.708972  0.708962  0.291046  1
  Tm  Tm1  1  0.291033  0.708954  0.291048  1
  Tm  Tm2  1  0.708955  0.291031  0.291044  1
  Tm  Tm3  1  0.291028  0.291038  0.708954  1
  Tm  Tm4  1  0.708967  0.291046  0.708952  1
  Tm  Tm5  1  0.291045  0.708969  0.708956  1
  Pa  Pa6  1  0.000000  0.000000  0.000000  1
  Ga  Ga7  1  0.000000  0.000000  0.500000  1
  Ga  Ga8  1  0.500000  0.000000  0.500000  1
  Ga  Ga9  1  0.000000  0.500000  0.500000  1
  Ga  Ga10  1  0.500000  0.500000  0.000000  1
  Ga  Ga11  1  0.000000  0.500000  0.000000  1
  Ga  Ga12  1  0.500000  0.000000  0.000000  1
  Co  Co13  1  0.875467  0.875465  0.373561  1
  Co  Co14  1  0.875499  0.373496  0.875485  1
  Co  Co15  1  0.373575  0.875463  0.875455  1
  Co  Co16  1  0.875560  0.875529  0.875547  1
  Co  Co17  1  0.124533  0.124535  0.626439  1
  Co  Co18  1  0.124501  0.626504  0.124515  1
  Co  Co19  1  0.626425  0.124537  0.124545  1
  Co  Co20  1  0.124440  0.124471  0.124453  1
  Co  Co21  1  0.677734  0.677803  0.966700  1
  Co  Co22  1  0.677822  0.966464  0.677851  1
  Co  Co23  1  0.966640  0.677814  0.677776  1
  Co  Co24  1  0.677801  0.677890  0.677834  1
  Co  Co25  1  0.322266  0.322197  0.033300  1
  Co  Co26  1  0.322178  0.033536  0.322149  1
  Co  Co27  1  0.033360  0.322186  0.322224  1
  Co  Co28  1  0.322199  0.322110  0.322166  1
