# generated using pymatgen
data_Be7Ni5(Mo6C)2
_symmetry_space_group_name_H-M   'P 1'
_cell_length_a   7.56180145
_cell_length_b   7.55643077
_cell_length_c   7.56180100
_cell_angle_alpha   59.97648363
_cell_angle_beta   59.99999761
_cell_angle_gamma   59.97648442
_symmetry_Int_Tables_number   1
_chemical_formula_structural   Be7Ni5(Mo6C)2
_chemical_formula_sum   'Be7 Ni5 Mo12 C2'
_cell_volume   305.42020037
_cell_formula_units_Z   1
loop_
 _symmetry_equiv_pos_site_id
 _symmetry_equiv_pos_as_xyz
  1  'x, y, z'
loop_
 _atom_site_type_symbol
 _atom_site_label
 _atom_site_symmetry_multiplicity
 _atom_site_fract_x
 _atom_site_fract_y
 _atom_site_fract_z
 _atom_site_occupancy
  Be  Be0  1  0.328094  0.329670  0.014142  1
  Be  Be1  1  0.328094  0.329670  0.328094  1
  Be  Be2  1  0.232158  0.924556  0.921644  1
  Be  Be3  1  0.921644  0.924556  0.921644  1
  Be  Be4  1  0.014142  0.329670  0.328094  1
  Be  Be5  1  0.330579  0.008263  0.330579  1
  Be  Be6  1  0.921644  0.924556  0.232158  1
  Ni  Ni7  1  0.124475  0.626576  0.124475  1
  Ni  Ni8  1  0.132021  0.120940  0.615018  1
  Ni  Ni9  1  0.615018  0.120940  0.132021  1
  Ni  Ni10  1  0.132021  0.120940  0.132021  1
  Ni  Ni11  1  0.918953  0.243142  0.918953  1
  Mo  Mo12  1  0.300869  0.698003  0.700258  1
  Mo  Mo13  1  0.700258  0.698003  0.300869  1
  Mo  Mo14  1  0.700832  0.296728  0.700832  1
  Mo  Mo15  1  0.300869  0.698003  0.300869  1
  Mo  Mo16  1  0.550038  0.951628  0.550038  1
  Mo  Mo17  1  0.550038  0.951628  0.948296  1
  Mo  Mo18  1  0.950006  0.553317  0.546672  1
  Mo  Mo19  1  0.950006  0.553317  0.950006  1
  Mo  Mo20  1  0.301608  0.296728  0.700832  1
  Mo  Mo21  1  0.546672  0.553317  0.950006  1
  Mo  Mo22  1  0.948296  0.951628  0.550038  1
  Mo  Mo23  1  0.700832  0.296728  0.301608  1
  C  C24  1  0.501084  0.496749  0.501084  1
  C  C25  1  0.749751  0.750747  0.749751  1
