# generated using pymatgen
data_Dy17Ho2SnIr12
_symmetry_space_group_name_H-M   'P 1'
_cell_length_a   10.87345000
_cell_length_b   10.87345000
_cell_length_c   6.31217200
_cell_angle_alpha   90.00000000
_cell_angle_beta   90.00000000
_cell_angle_gamma   90.00000000
_symmetry_Int_Tables_number   1
_chemical_formula_structural   Dy17Ho2SnIr12
_chemical_formula_sum   'Dy17 Ho2 Sn1 Ir12'
_cell_volume   746.30018275
_cell_formula_units_Z   1
loop_
 _symmetry_equiv_pos_site_id
 _symmetry_equiv_pos_as_xyz
  1  'x, y, z'
loop_
 _atom_site_type_symbol
 _atom_site_label
 _atom_site_symmetry_multiplicity
 _atom_site_fract_x
 _atom_site_fract_y
 _atom_site_fract_z
 _atom_site_occupancy
  Dy  Dy0  1  0.285764  0.085781  0.378776  1
  Dy  Dy1  1  0.291128  0.911446  0.880763  1
  Dy  Dy2  1  0.708872  0.088554  0.880763  1
  Dy  Dy3  1  0.714236  0.914219  0.378776  1
  Dy  Dy4  1  0.588610  0.790764  0.880382  1
  Dy  Dy5  1  0.588756  0.208524  0.377141  1
  Dy  Dy6  1  0.411244  0.791476  0.377141  1
  Dy  Dy7  1  0.411390  0.209236  0.880382  1
  Dy  Dy8  1  0.208524  0.411244  0.622859  1
  Dy  Dy9  1  0.209236  0.588610  0.119618  1
  Dy  Dy10  1  0.790764  0.411390  0.119618  1
  Dy  Dy11  1  0.791476  0.588756  0.622859  1
  Dy  Dy12  1  0.911446  0.708872  0.119237  1
  Dy  Dy13  1  0.914219  0.285764  0.621224  1
  Dy  Dy14  1  0.085781  0.714236  0.621224  1
  Dy  Dy15  1  0.088554  0.291128  0.119237  1
  Dy  Dy16  1  0.000000  0.000000  0.000000  1
  Ho  Ho17  1  0.500000  0.500000  0.000000  1
  Ho  Ho18  1  0.500000  0.500000  0.500000  1
  Sn  Sn19  1  0.000000  0.000000  0.500000  1
  Ir  Ir20  1  0.846993  0.154672  0.249283  1
  Ir  Ir21  1  0.845328  0.846993  0.750717  1
  Ir  Ir22  1  0.154672  0.153007  0.750717  1
  Ir  Ir23  1  0.153007  0.845328  0.249283  1
  Ir  Ir24  1  0.653996  0.347139  0.747237  1
  Ir  Ir25  1  0.652861  0.653996  0.252763  1
  Ir  Ir26  1  0.347139  0.346004  0.252763  1
  Ir  Ir27  1  0.346004  0.652861  0.747237  1
  Ir  Ir28  1  0.500000  0.000000  0.122989  1
  Ir  Ir29  1  0.500000  0.000000  0.620023  1
  Ir  Ir30  1  0.000000  0.500000  0.877011  1
  Ir  Ir31  1  0.000000  0.500000  0.379977  1
