# generated using pymatgen
data_ErNbAlB6
_symmetry_space_group_name_H-M   'P 1'
_cell_length_a   3.47482900
_cell_length_b   8.99777300
_cell_length_c   11.27177800
_cell_angle_alpha   90.00000000
_cell_angle_beta   90.00000000
_cell_angle_gamma   90.00000000
_symmetry_Int_Tables_number   1
_chemical_formula_structural   ErNbAlB6
_chemical_formula_sum   'Er4 Nb4 Al4 B24'
_cell_volume   352.42028366
_cell_formula_units_Z   4
loop_
 _symmetry_equiv_pos_site_id
 _symmetry_equiv_pos_as_xyz
  1  'x, y, z'
loop_
 _atom_site_type_symbol
 _atom_site_label
 _atom_site_symmetry_multiplicity
 _atom_site_fract_x
 _atom_site_fract_y
 _atom_site_fract_z
 _atom_site_occupancy
  Er  Er0  1  0.000000  0.320229  0.416267  1
  Er  Er1  1  0.000000  0.679771  0.583733  1
  Er  Er2  1  0.000000  0.820229  0.083733  1
  Er  Er3  1  0.000000  0.179771  0.916267  1
  Nb  Nb4  1  0.000000  0.945848  0.372168  1
  Nb  Nb5  1  0.000000  0.054152  0.627832  1
  Nb  Nb6  1  0.000000  0.445848  0.127832  1
  Nb  Nb7  1  0.000000  0.554152  0.872168  1
  Al  Al8  1  0.000000  0.641577  0.319998  1
  Al  Al9  1  0.000000  0.358423  0.680002  1
  Al  Al10  1  0.000000  0.141577  0.180002  1
  Al  Al11  1  0.000000  0.858423  0.819998  1
  B  B12  1  0.500000  0.553397  0.433996  1
  B  B13  1  0.500000  0.446603  0.566004  1
  B  B14  1  0.500000  0.053397  0.066004  1
  B  B15  1  0.500000  0.946603  0.933996  1
  B  B16  1  0.500000  0.755491  0.420269  1
  B  B17  1  0.500000  0.244509  0.579731  1
  B  B18  1  0.500000  0.255491  0.079731  1
  B  B19  1  0.500000  0.744509  0.920269  1
  B  B20  1  0.500000  0.798666  0.262844  1
  B  B21  1  0.500000  0.201334  0.737156  1
  B  B22  1  0.500000  0.298666  0.237156  1
  B  B23  1  0.500000  0.701334  0.762844  1
  B  B24  1  0.500000  0.630591  0.180699  1
  B  B25  1  0.500000  0.369409  0.819301  1
  B  B26  1  0.500000  0.130591  0.319301  1
  B  B27  1  0.500000  0.869409  0.680699  1
  B  B28  1  0.500000  0.979508  0.214022  1
  B  B29  1  0.500000  0.020492  0.785978  1
  B  B30  1  0.500000  0.479508  0.285978  1
  B  B31  1  0.500000  0.520492  0.714022  1
  B  B32  1  0.500000  0.599124  0.026214  1
  B  B33  1  0.500000  0.400876  0.973786  1
  B  B34  1  0.500000  0.099124  0.473786  1
  B  B35  1  0.500000  0.900876  0.526214  1
