# generated using pymatgen
data_Dy3TmLu2(Si3Ru)8
_symmetry_space_group_name_H-M   'P 1'
_cell_length_a   10.08905449
_cell_length_b   10.08905457
_cell_length_c   8.11099208
_cell_angle_alpha   89.88951574
_cell_angle_beta   90.11048763
_cell_angle_gamma   132.59234815
_symmetry_Int_Tables_number   1
_chemical_formula_structural   Dy3TmLu2(Si3Ru)8
_chemical_formula_sum   'Dy3 Tm1 Lu2 Si24 Ru8'
_cell_volume   607.80235543
_cell_formula_units_Z   1
loop_
 _symmetry_equiv_pos_site_id
 _symmetry_equiv_pos_as_xyz
  1  'x, y, z'
loop_
 _atom_site_type_symbol
 _atom_site_label
 _atom_site_symmetry_multiplicity
 _atom_site_fract_x
 _atom_site_fract_y
 _atom_site_fract_z
 _atom_site_occupancy
  Dy  Dy0  1  0.997038  0.497038  0.250000  1
  Dy  Dy1  1  0.497816  0.997816  0.250000  1
  Dy  Dy2  1  0.002178  0.502178  0.750000  1
  Tm  Tm3  1  0.502427  0.002427  0.750000  1
  Lu  Lu4  1  0.500001  0.499918  0.500039  1
  Lu  Lu5  1  0.999918  0.000001  0.999961  1
  Si  Si6  1  0.795176  0.205737  0.500286  1
  Si  Si7  1  0.294012  0.704683  0.999591  1
  Si  Si8  1  0.204683  0.794012  0.500409  1
  Si  Si9  1  0.705737  0.295176  0.999714  1
  Si  Si10  1  0.331848  0.332363  0.833013  1
  Si  Si11  1  0.668046  0.667877  0.167213  1
  Si  Si12  1  0.167877  0.168046  0.332787  1
  Si  Si13  1  0.832363  0.831848  0.666987  1
  Si  Si14  1  0.120945  0.887277  0.728388  1
  Si  Si15  1  0.111161  0.876667  0.271342  1
  Si  Si16  1  0.614185  0.379917  0.229042  1
  Si  Si17  1  0.621725  0.387709  0.772319  1
  Si  Si18  1  0.879917  0.114185  0.270958  1
  Si  Si19  1  0.887709  0.121725  0.727681  1
  Si  Si20  1  0.387277  0.620945  0.771612  1
  Si  Si21  1  0.376667  0.611161  0.228658  1
  Si  Si22  1  0.343537  0.111066  0.504915  1
  Si  Si23  1  0.887019  0.652743  0.494894  1
  Si  Si24  1  0.389049  0.156837  0.003158  1
  Si  Si25  1  0.847251  0.612940  0.995733  1
  Si  Si26  1  0.656837  0.889049  0.496842  1
  Si  Si27  1  0.112940  0.347251  0.504267  1
  Si  Si28  1  0.611066  0.843537  0.995085  1
  Si  Si29  1  0.152743  0.387019  0.005106  1
  Ru  Ru30  1  0.665254  0.327681  0.501713  1
  Ru  Ru31  1  0.172463  0.834868  0.999349  1
  Ru  Ru32  1  0.334868  0.672463  0.500651  1
  Ru  Ru33  1  0.827681  0.165254  0.998287  1
  Ru  Ru34  1  0.125946  0.126741  0.627059  1
  Ru  Ru35  1  0.873963  0.873938  0.372550  1
  Ru  Ru36  1  0.373938  0.373963  0.127450  1
  Ru  Ru37  1  0.626741  0.625946  0.872941  1
