# generated using pymatgen
data_LuZr4
_symmetry_space_group_name_H-M   'P 1'
_cell_length_a   3.25645951
_cell_length_b   6.15659497
_cell_length_c   7.83895520
_cell_angle_alpha   113.15237773
_cell_angle_beta   78.03671492
_cell_angle_gamma   121.81454717
_symmetry_Int_Tables_number   1
_chemical_formula_structural   LuZr4
_chemical_formula_sum   'Lu1 Zr4'
_cell_volume   122.79315443
_cell_formula_units_Z   1
loop_
 _symmetry_equiv_pos_site_id
 _symmetry_equiv_pos_as_xyz
  1  'x, y, z'
loop_
 _atom_site_type_symbol
 _atom_site_label
 _atom_site_symmetry_multiplicity
 _atom_site_fract_x
 _atom_site_fract_y
 _atom_site_fract_z
 _atom_site_occupancy
  Lu  Lu0  1  0.999001  0.543374  0.412270  1
  Zr  Zr1  1  0.998274  0.942006  0.209275  1
  Zr  Zr2  1  0.000412  0.145150  0.614635  1
  Zr  Zr3  1  0.496623  0.756250  0.838895  1
  Zr  Zr4  1  0.499932  0.330782  0.984779  1
