# generated using pymatgen
data_BaSrTiS4
_symmetry_space_group_name_H-M   'P 1'
_cell_length_a   6.85478345
_cell_length_b   6.84145000
_cell_length_c   8.62524100
_cell_angle_alpha   90.00000000
_cell_angle_beta   108.16726111
_cell_angle_gamma   90.00000000
_symmetry_Int_Tables_number   1
_chemical_formula_structural   BaSrTiS4
_chemical_formula_sum   'Ba2 Sr2 Ti2 S8'
_cell_volume   384.33105246
_cell_formula_units_Z   2
loop_
 _symmetry_equiv_pos_site_id
 _symmetry_equiv_pos_as_xyz
  1  'x, y, z'
loop_
 _atom_site_type_symbol
 _atom_site_label
 _atom_site_symmetry_multiplicity
 _atom_site_fract_x
 _atom_site_fract_y
 _atom_site_fract_z
 _atom_site_occupancy
  Ba  Ba0  1  0.227771  0.749999  0.430837  1
  Ba  Ba1  1  0.772229  0.249999  0.569164  1
  Sr  Sr2  1  0.720614  0.249999  0.049468  1
  Sr  Sr3  1  0.279387  0.749999  0.950533  1
  Ti  Ti4  1  0.277172  0.249999  0.191744  1
  Ti  Ti5  1  0.722828  0.749999  0.808256  1
  S  S6  1  0.906484  0.749999  0.072756  1
  S  S7  1  0.499409  0.503703  0.247132  1
  S  S8  1  0.499409  0.996298  0.247132  1
  S  S9  1  0.081973  0.249999  0.361528  1
  S  S10  1  0.918027  0.749999  0.638472  1
  S  S11  1  0.500591  0.003703  0.752868  1
  S  S12  1  0.500591  0.496298  0.752868  1
  S  S13  1  0.093516  0.249999  0.927244  1
