# generated using pymatgen
data_Li2Tb8Hf9Si16Mo
_symmetry_space_group_name_H-M   'P 1'
_cell_length_a   7.27722873
_cell_length_b   7.27722885
_cell_length_c   13.17329160
_cell_angle_alpha   90.06349271
_cell_angle_beta   90.06349142
_cell_angle_gamma   89.76752876
_symmetry_Int_Tables_number   1
_chemical_formula_structural   Li2Tb8Hf9Si16Mo
_chemical_formula_sum   'Li2 Tb8 Hf9 Si16 Mo1'
_cell_volume   697.62535618
_cell_formula_units_Z   1
loop_
 _symmetry_equiv_pos_site_id
 _symmetry_equiv_pos_as_xyz
  1  'x, y, z'
loop_
 _atom_site_type_symbol
 _atom_site_label
 _atom_site_symmetry_multiplicity
 _atom_site_fract_x
 _atom_site_fract_y
 _atom_site_fract_z
 _atom_site_occupancy
  Li  Li0  1  0.177287  0.176161  0.001862  1
  Li  Li1  1  0.823839  0.822713  0.498138  1
  Tb  Tb2  1  0.998609  0.346760  0.213391  1
  Tb  Tb3  1  0.002983  0.655453  0.712563  1
  Tb  Tb4  1  0.151979  0.502188  0.463733  1
  Tb  Tb5  1  0.497812  0.848021  0.036267  1
  Tb  Tb6  1  0.849811  0.498600  0.967397  1
  Tb  Tb7  1  0.501400  0.150189  0.532603  1
  Tb  Tb8  1  0.344547  0.997017  0.787437  1
  Tb  Tb9  1  0.653240  0.001391  0.286609  1
  Hf  Hf10  1  0.677449  0.322551  0.750000  1
  Hf  Hf11  1  0.142630  0.997888  0.377066  1
  Hf  Hf12  1  0.859372  0.001502  0.879212  1
  Hf  Hf13  1  0.510070  0.645281  0.620848  1
  Hf  Hf14  1  0.354719  0.489930  0.879152  1
  Hf  Hf15  1  0.489947  0.357908  0.126005  1
  Hf  Hf16  1  0.642092  0.510053  0.373995  1
  Hf  Hf17  1  0.998498  0.140628  0.620788  1
  Hf  Hf18  1  0.002112  0.857370  0.122934  1
  Si  Si19  1  0.359509  0.296213  0.318284  1
  Si  Si20  1  0.639373  0.703982  0.818372  1
  Si  Si21  1  0.221646  0.865279  0.570715  1
  Si  Si22  1  0.134721  0.778354  0.929285  1
  Si  Si23  1  0.778884  0.135144  0.073010  1
  Si  Si24  1  0.864856  0.221116  0.426990  1
  Si  Si25  1  0.296018  0.360627  0.681628  1
  Si  Si26  1  0.703787  0.640491  0.181716  1
  Si  Si27  1  0.293794  0.048429  0.190039  1
  Si  Si28  1  0.705187  0.948677  0.689553  1
  Si  Si29  1  0.434630  0.790208  0.431031  1
  Si  Si30  1  0.209792  0.565370  0.068969  1
  Si  Si31  1  0.563426  0.208866  0.936287  1
  Si  Si32  1  0.791134  0.436574  0.563713  1
  Si  Si33  1  0.051323  0.294813  0.810447  1
  Si  Si34  1  0.951571  0.706206  0.309961  1
  Mo  Mo35  1  0.321955  0.678045  0.250000  1
