# generated using pymatgen
data_Tb13Dy7(Bi2Os)4
_symmetry_space_group_name_H-M   'P 1'
_cell_length_a   7.99088803
_cell_length_b   9.06262504
_cell_length_c   12.53379004
_cell_angle_alpha   90.00637914
_cell_angle_beta   89.99371877
_cell_angle_gamma   90.00813714
_symmetry_Int_Tables_number   1
_chemical_formula_structural   Tb13Dy7(Bi2Os)4
_chemical_formula_sum   'Tb13 Dy7 Bi8 Os4'
_cell_volume   907.67727535
_cell_formula_units_Z   1
loop_
 _symmetry_equiv_pos_site_id
 _symmetry_equiv_pos_as_xyz
  1  'x, y, z'
loop_
 _atom_site_type_symbol
 _atom_site_label
 _atom_site_symmetry_multiplicity
 _atom_site_fract_x
 _atom_site_fract_y
 _atom_site_fract_z
 _atom_site_occupancy
  Tb  Tb0  1  0.841380  0.749981  0.791972  1
  Tb  Tb1  1  0.158637  0.250013  0.208077  1
  Tb  Tb2  1  0.341272  0.250049  0.708116  1
  Tb  Tb3  1  0.658647  0.749986  0.291901  1
  Tb  Tb4  1  0.374642  0.749946  0.692436  1
  Tb  Tb5  1  0.625246  0.250082  0.307524  1
  Tb  Tb6  1  0.874757  0.250017  0.807611  1
  Tb  Tb7  1  0.125247  0.749989  0.192391  1
  Tb  Tb8  1  0.943019  0.749927  0.504492  1
  Tb  Tb9  1  0.057140  0.250046  0.495479  1
  Tb  Tb10  1  0.442918  0.250006  0.995480  1
  Tb  Tb11  1  0.557065  0.750000  0.004528  1
  Tb  Tb12  1  0.674847  0.041818  0.564069  1
  Dy  Dy13  1  0.325410  0.958073  0.435907  1
  Dy  Dy14  1  0.174428  0.958119  0.935979  1
  Dy  Dy15  1  0.325617  0.541881  0.435982  1
  Dy  Dy16  1  0.825566  0.041845  0.064030  1
  Dy  Dy17  1  0.674454  0.458193  0.564028  1
  Dy  Dy18  1  0.825573  0.458158  0.064037  1
  Dy  Dy19  1  0.174430  0.541887  0.935978  1
  Bi  Bi20  1  0.568215  0.493563  0.827756  1
  Bi  Bi21  1  0.431793  0.506444  0.172239  1
  Bi  Bi22  1  0.068193  0.506446  0.672245  1
  Bi  Bi23  1  0.431799  0.993555  0.172244  1
  Bi  Bi24  1  0.931803  0.493568  0.327752  1
  Bi  Bi25  1  0.568175  0.006436  0.827802  1
  Bi  Bi26  1  0.931786  0.006442  0.327736  1
  Bi  Bi27  1  0.068347  0.993535  0.672301  1
  Os  Os28  1  0.575120  0.749823  0.510606  1
  Os  Os29  1  0.424462  0.250173  0.489320  1
  Os  Os30  1  0.075231  0.249990  0.989377  1
  Os  Os31  1  0.924783  0.750006  0.010602  1
