# generated using pymatgen
data_DyHoIr3Rh
_symmetry_space_group_name_H-M   'P 1'
_cell_length_a   5.36002691
_cell_length_b   5.36002756
_cell_length_c   5.36002670
_cell_angle_alpha   59.78788237
_cell_angle_beta   59.78787358
_cell_angle_gamma   59.78788284
_symmetry_Int_Tables_number   1
_chemical_formula_structural   DyHoIr3Rh
_chemical_formula_sum   'Dy1 Ho1 Ir3 Rh1'
_cell_volume   108.36510934
_cell_formula_units_Z   1
loop_
 _symmetry_equiv_pos_site_id
 _symmetry_equiv_pos_as_xyz
  1  'x, y, z'
loop_
 _atom_site_type_symbol
 _atom_site_label
 _atom_site_symmetry_multiplicity
 _atom_site_fract_x
 _atom_site_fract_y
 _atom_site_fract_z
 _atom_site_occupancy
  Dy  Dy0  1  0.249224  0.249224  0.249224  1
  Ho  Ho1  1  0.000774  0.000774  0.000774  1
  Ir  Ir2  1  0.625016  0.625016  0.124935  1
  Ir  Ir3  1  0.625016  0.124935  0.625016  1
  Ir  Ir4  1  0.124935  0.625016  0.625016  1
  Rh  Rh5  1  0.625034  0.625034  0.625034  1
