# generated using pymatgen
data_Tm11Th(Si3Rh)4
_symmetry_space_group_name_H-M   'P 1'
_cell_length_a   4.22197000
_cell_length_b   10.54925404
_cell_length_c   12.26964953
_cell_angle_alpha   90.21897700
_cell_angle_beta   90.00000000
_cell_angle_gamma   90.00000000
_symmetry_Int_Tables_number   1
_chemical_formula_structural   Tm11Th(Si3Rh)4
_chemical_formula_sum   'Tm11 Th1 Si12 Rh4'
_cell_volume   546.46943967
_cell_formula_units_Z   1
loop_
 _symmetry_equiv_pos_site_id
 _symmetry_equiv_pos_as_xyz
  1  'x, y, z'
loop_
 _atom_site_type_symbol
 _atom_site_label
 _atom_site_symmetry_multiplicity
 _atom_site_fract_x
 _atom_site_fract_y
 _atom_site_fract_z
 _atom_site_occupancy
  Tm  Tm0  1  0.250000  0.878208  0.023035  1
  Tm  Tm1  1  0.250000  0.621019  0.521827  1
  Tm  Tm2  1  0.750000  0.120928  0.982179  1
  Tm  Tm3  1  0.750000  0.382555  0.475391  1
  Tm  Tm4  1  0.250000  0.918870  0.602731  1
  Tm  Tm5  1  0.250000  0.579468  0.103860  1
  Tm  Tm6  1  0.750000  0.079818  0.395397  1
  Tm  Tm7  1  0.750000  0.422606  0.897401  1
  Tm  Tm8  1  0.250000  0.662092  0.800812  1
  Tm  Tm9  1  0.250000  0.837709  0.300409  1
  Tm  Tm10  1  0.750000  0.340254  0.199806  1
  Th  Th11  1  0.750000  0.160361  0.696655  1
  Si  Si12  1  0.250000  0.009645  0.824631  1
  Si  Si13  1  0.250000  0.486905  0.322319  1
  Si  Si14  1  0.750000  0.985390  0.177791  1
  Si  Si15  1  0.750000  0.513942  0.677529  1
  Si  Si16  1  0.250000  0.248871  0.847708  1
  Si  Si17  1  0.250000  0.252621  0.337438  1
  Si  Si18  1  0.750000  0.751751  0.158402  1
  Si  Si19  1  0.750000  0.748011  0.658170  1
  Si  Si20  1  0.250000  0.201508  0.533394  1
  Si  Si21  1  0.250000  0.302731  0.045414  1
  Si  Si22  1  0.750000  0.801530  0.456418  1
  Si  Si23  1  0.750000  0.697351  0.958550  1
  Rh  Rh24  1  0.250000  0.391158  0.683461  1
  Rh  Rh25  1  0.250000  0.109133  0.179628  1
  Rh  Rh26  1  0.750000  0.607935  0.317172  1
  Rh  Rh27  1  0.750000  0.887634  0.822476  1
