# generated using pymatgen
data_PrNd2TlPd3Pb2
_symmetry_space_group_name_H-M   'P 1'
_cell_length_a   7.93238670
_cell_length_b   7.92820085
_cell_length_c   4.05952700
_cell_angle_alpha   90.00000000
_cell_angle_beta   90.00000000
_cell_angle_gamma   120.20378694
_symmetry_Int_Tables_number   1
_chemical_formula_structural   PrNd2TlPd3Pb2
_chemical_formula_sum   'Pr1 Nd2 Tl1 Pd3 Pb2'
_cell_volume   220.64246410
_cell_formula_units_Z   1
loop_
 _symmetry_equiv_pos_site_id
 _symmetry_equiv_pos_as_xyz
  1  'x, y, z'
loop_
 _atom_site_type_symbol
 _atom_site_label
 _atom_site_symmetry_multiplicity
 _atom_site_fract_x
 _atom_site_fract_y
 _atom_site_fract_z
 _atom_site_occupancy
  Pr  Pr0  1  0.997064  0.592524  0.500000  1
  Nd  Nd1  1  0.412820  0.412700  0.500000  1
  Nd  Nd2  1  0.592775  0.996888  0.500000  1
  Tl  Tl3  1  0.738080  0.738737  0.000000  1
  Pd  Pd4  1  0.665651  0.331863  0.000000  1
  Pd  Pd5  1  0.333995  0.667131  0.000000  1
  Pd  Pd6  1  0.002468  0.003101  0.500000  1
  Pb  Pb7  1  0.258285  0.999912  0.000000  1
  Pb  Pb8  1  0.998861  0.257142  0.000000  1
