# generated using pymatgen
data_Ca2Al6(SiRh)3
_symmetry_space_group_name_H-M   'P 1'
_cell_length_a   7.47380986
_cell_length_b   7.45553843
_cell_length_c   9.46403781
_cell_angle_alpha   89.96889163
_cell_angle_beta   90.11143958
_cell_angle_gamma   119.66134659
_symmetry_Int_Tables_number   1
_chemical_formula_structural   Ca2Al6(SiRh)3
_chemical_formula_sum   'Ca4 Al12 Si6 Rh6'
_cell_volume   458.24656762
_cell_formula_units_Z   2
loop_
 _symmetry_equiv_pos_site_id
 _symmetry_equiv_pos_as_xyz
  1  'x, y, z'
loop_
 _atom_site_type_symbol
 _atom_site_label
 _atom_site_symmetry_multiplicity
 _atom_site_fract_x
 _atom_site_fract_y
 _atom_site_fract_z
 _atom_site_occupancy
  Ca  Ca0  1  0.999817  0.663685  0.754082  1
  Ca  Ca1  1  0.000183  0.336315  0.245918  1
  Ca  Ca2  1  0.675066  0.007594  0.757051  1
  Ca  Ca3  1  0.324934  0.992406  0.242949  1
  Al  Al4  1  0.127449  0.127781  0.749742  1
  Al  Al5  1  0.872551  0.872219  0.250258  1
  Al  Al6  1  0.662057  0.997510  0.430173  1
  Al  Al7  1  0.337943  0.002490  0.569827  1
  Al  Al8  1  0.334800  0.333557  0.055154  1
  Al  Al9  1  0.665200  0.666443  0.944846  1
  Al  Al10  1  0.665776  0.669335  0.555378  1
  Al  Al11  1  0.334224  0.330665  0.444622  1
  Al  Al12  1  0.338877  0.548452  0.749638  1
  Al  Al13  1  0.661123  0.451548  0.250362  1
  Al  Al14  1  0.546682  0.343408  0.750660  1
  Al  Al15  1  0.453318  0.656592  0.249340  1
  Si  Si16  1  0.002387  0.329316  0.566382  1
  Si  Si17  1  0.997613  0.670684  0.433618  1
  Si  Si18  1  0.989979  0.665601  0.073521  1
  Si  Si19  1  0.335306  0.008284  0.920311  1
  Si  Si20  1  0.010021  0.334399  0.926479  1
  Si  Si21  1  0.664694  0.991716  0.079689  1
  Rh  Rh22  1  0.687497  0.338509  0.502516  1
  Rh  Rh23  1  0.312503  0.661491  0.497484  1
  Rh  Rh24  1  0.320591  0.678875  0.999983  1
  Rh  Rh25  1  0.679409  0.321125  0.000017  1
  Rh  Rh26  1  0.000000  0.000000  0.500000  1
  Rh  Rh27  1  0.000000  0.000000  0.000000  1
