# generated using pymatgen
data_Cs2MnVSe4
_symmetry_space_group_name_H-M   'P 1'
_cell_length_a   15.05603050
_cell_length_b   13.39929964
_cell_length_c   7.99699971
_cell_angle_alpha   85.50140471
_cell_angle_beta   62.52603882
_cell_angle_gamma   31.97255505
_symmetry_Int_Tables_number   1
_chemical_formula_structural   Cs2MnVSe4
_chemical_formula_sum   'Cs4 Mn2 V2 Se8'
_cell_volume   565.31685993
_cell_formula_units_Z   2
loop_
 _symmetry_equiv_pos_site_id
 _symmetry_equiv_pos_as_xyz
  1  'x, y, z'
loop_
 _atom_site_type_symbol
 _atom_site_label
 _atom_site_symmetry_multiplicity
 _atom_site_fract_x
 _atom_site_fract_y
 _atom_site_fract_z
 _atom_site_occupancy
  Cs  Cs0  1  0.822851  0.822851  0.177149  1
  Cs  Cs1  1  0.427149  0.427149  0.072851  1
  Cs  Cs2  1  0.177149  0.177149  0.822851  1
  Cs  Cs3  1  0.072851  0.072851  0.427149  1
  Mn  Mn4  1  0.500000  0.500000  0.500000  1
  Mn  Mn5  1  0.750000  0.750000  0.750000  1
  V  V6  1  0.000000  0.000000  0.000000  1
  V  V7  1  0.250000  0.250000  0.250000  1
  Se  Se8  1  0.521955  0.874581  0.162725  1
  Se  Se9  1  0.874581  0.521955  0.440740  1
  Se  Se10  1  0.809260  0.087275  0.375419  1
  Se  Se11  1  0.087275  0.809260  0.728045  1
  Se  Se12  1  0.162725  0.440740  0.521955  1
  Se  Se13  1  0.440740  0.162725  0.874581  1
  Se  Se14  1  0.375419  0.728045  0.809260  1
  Se  Se15  1  0.728045  0.375419  0.087275  1
