# generated using pymatgen
data_Tm5GeRhO12
_symmetry_space_group_name_H-M   'P 1'
_cell_length_a   6.73483062
_cell_length_b   6.73482955
_cell_length_c   7.13624456
_cell_angle_alpha   74.43958751
_cell_angle_beta   74.43959145
_cell_angle_gamma   51.12462422
_symmetry_Int_Tables_number   1
_chemical_formula_structural   Tm5GeRhO12
_chemical_formula_sum   'Tm5 Ge1 Rh1 O12'
_cell_volume   240.59434090
_cell_formula_units_Z   1
loop_
 _symmetry_equiv_pos_site_id
 _symmetry_equiv_pos_as_xyz
  1  'x, y, z'
loop_
 _atom_site_type_symbol
 _atom_site_label
 _atom_site_symmetry_multiplicity
 _atom_site_fract_x
 _atom_site_fract_y
 _atom_site_fract_z
 _atom_site_occupancy
  Tm  Tm0  1  0.806154  0.797439  0.360246  1
  Tm  Tm1  1  0.202561  0.193846  0.639754  1
  Tm  Tm2  1  0.189356  0.194018  0.170588  1
  Tm  Tm3  1  0.805982  0.810644  0.829412  1
  Tm  Tm4  1  0.500505  0.499495  0.500000  1
  Ge  Ge5  1  0.253208  0.746792  0.000000  1
  Rh  Rh6  1  0.743830  0.256170  0.000000  1
  O  O7  1  0.400329  0.925628  0.917053  1
  O  O8  1  0.074372  0.599671  0.082947  1
  O  O9  1  0.596826  0.070220  0.084987  1
  O  O10  1  0.929780  0.403174  0.915013  1
  O  O11  1  0.598002  0.098942  0.572498  1
  O  O12  1  0.901058  0.401998  0.427502  1
  O  O13  1  0.402636  0.903119  0.425764  1
  O  O14  1  0.008283  0.991914  0.813321  1
  O  O15  1  0.008086  0.991717  0.186679  1
  O  O16  1  0.490583  0.508433  0.817294  1
  O  O17  1  0.491567  0.509417  0.182706  1
  O  O18  1  0.096881  0.597364  0.574236  1
