# generated using pymatgen
data_La4IrPd3
_symmetry_space_group_name_H-M   'P 1'
_cell_length_a   4.60162400
_cell_length_b   5.85949811
_cell_length_c   7.56217283
_cell_angle_alpha   89.67302371
_cell_angle_beta   90.00000000
_cell_angle_gamma   90.00000000
_symmetry_Int_Tables_number   1
_chemical_formula_structural   La4IrPd3
_chemical_formula_sum   'La4 Ir1 Pd3'
_cell_volume   203.89711209
_cell_formula_units_Z   1
loop_
 _symmetry_equiv_pos_site_id
 _symmetry_equiv_pos_as_xyz
  1  'x, y, z'
loop_
 _atom_site_type_symbol
 _atom_site_label
 _atom_site_symmetry_multiplicity
 _atom_site_fract_x
 _atom_site_fract_y
 _atom_site_fract_z
 _atom_site_occupancy
  La  La0  1  0.250000  0.363822  0.678776  1
  La  La1  1  0.250000  0.135695  0.186920  1
  La  La2  1  0.750000  0.650263  0.325960  1
  La  La3  1  0.750000  0.857885  0.805543  1
  Ir  Ir4  1  0.250000  0.835661  0.544949  1
  Pd  Pd5  1  0.250000  0.649776  0.044366  1
  Pd  Pd6  1  0.750000  0.158625  0.452893  1
  Pd  Pd7  1  0.750000  0.348273  0.960594  1
