# generated using pymatgen
data_Th3AlGa2PtRh2
_symmetry_space_group_name_H-M   'P 1'
_cell_length_a   7.32871583
_cell_length_b   7.26924649
_cell_length_c   4.07658700
_cell_angle_alpha   90.00000000
_cell_angle_beta   90.00000000
_cell_angle_gamma   119.73193745
_symmetry_Int_Tables_number   1
_chemical_formula_structural   Th3AlGa2PtRh2
_chemical_formula_sum   'Th3 Al1 Ga2 Pt1 Rh2'
_cell_volume   188.58684905
_cell_formula_units_Z   1
loop_
 _symmetry_equiv_pos_site_id
 _symmetry_equiv_pos_as_xyz
  1  'x, y, z'
loop_
 _atom_site_type_symbol
 _atom_site_label
 _atom_site_symmetry_multiplicity
 _atom_site_fract_x
 _atom_site_fract_y
 _atom_site_fract_z
 _atom_site_occupancy
  Th  Th0  1  0.000000  0.414230  0.500000  1
  Th  Th1  1  0.580569  0.581980  0.500000  1
  Th  Th2  1  0.419431  0.001410  0.500000  1
  Al  Al3  1  0.000000  0.763295  0.000000  1
  Ga  Ga4  1  0.244605  0.242765  0.000000  1
  Ga  Ga5  1  0.755395  0.998160  0.000000  1
  Pt  Pt6  1  0.000000  0.990371  0.500000  1
  Rh  Rh7  1  0.328101  0.667947  0.000000  1
  Rh  Rh8  1  0.671899  0.339844  0.000000  1
