# generated using pymatgen
data_Y3Sn3RuAu2
_symmetry_space_group_name_H-M   'P 1'
_cell_length_a   7.66610200
_cell_length_b   7.66610193
_cell_length_c   4.00748300
_cell_angle_alpha   90.00000000
_cell_angle_beta   90.00000000
_cell_angle_gamma   120.00000030
_symmetry_Int_Tables_number   1
_chemical_formula_structural   Y3Sn3RuAu2
_chemical_formula_sum   'Y3 Sn3 Ru1 Au2'
_cell_volume   203.96305203
_cell_formula_units_Z   1
loop_
 _symmetry_equiv_pos_site_id
 _symmetry_equiv_pos_as_xyz
  1  'x, y, z'
loop_
 _atom_site_type_symbol
 _atom_site_label
 _atom_site_symmetry_multiplicity
 _atom_site_fract_x
 _atom_site_fract_y
 _atom_site_fract_z
 _atom_site_occupancy
  Y  Y0  1  0.399148  0.000000  0.500000  1
  Y  Y1  1  0.000000  0.399148  0.500000  1
  Y  Y2  1  0.600852  0.600852  0.500000  1
  Sn  Sn3  1  0.749954  0.000000  0.000000  1
  Sn  Sn4  1  0.000000  0.749954  0.000000  1
  Sn  Sn5  1  0.250046  0.250046  0.000000  1
  Ru  Ru6  1  0.000000  0.000000  0.500000  1
  Au  Au7  1  0.333333  0.666667  0.000000  1
  Au  Au8  1  0.666667  0.333333  0.000000  1
