# generated using pymatgen
data_PrThCo4(Si2Ir)2
_symmetry_space_group_name_H-M   'P 1'
_cell_length_a   6.50942729
_cell_length_b   6.40635189
_cell_length_c   6.50942600
_cell_angle_alpha   129.66483126
_cell_angle_beta   113.92282489
_cell_angle_gamma   88.03802901
_symmetry_Int_Tables_number   1
_chemical_formula_structural   PrThCo4(Si2Ir)2
_chemical_formula_sum   'Pr1 Th1 Co4 Si4 Ir2'
_cell_volume   181.02029615
_cell_formula_units_Z   1
loop_
 _symmetry_equiv_pos_site_id
 _symmetry_equiv_pos_as_xyz
  1  'x, y, z'
loop_
 _atom_site_type_symbol
 _atom_site_label
 _atom_site_symmetry_multiplicity
 _atom_site_fract_x
 _atom_site_fract_y
 _atom_site_fract_z
 _atom_site_occupancy
  Pr  Pr0  1  0.745044  0.023012  0.277968  1
  Th  Th1  1  0.255876  0.973899  0.718023  1
  Co  Co2  1  0.492554  0.500814  0.493589  1
  Co  Co3  1  0.007225  0.500814  0.008259  1
  Co  Co4  1  0.272715  0.000976  0.276559  1
  Co  Co5  1  0.724418  0.000976  0.728261  1
  Si  Si6  1  0.082054  0.274194  0.192140  1
  Si  Si7  1  0.908375  0.711282  0.802906  1
  Si  Si8  1  0.416271  0.638907  0.222637  1
  Si  Si9  1  0.592786  0.368340  0.775553  1
  Ir  Ir10  1  0.226463  0.503393  0.727173  1
  Ir  Ir11  1  0.776219  0.503393  0.276929  1
