# generated using pymatgen
data_Mn3Nb2P24Os
_symmetry_space_group_name_H-M   'P 1'
_cell_length_a   5.82257046
_cell_length_b   8.62821841
_cell_length_c   10.65798721
_cell_angle_alpha   102.11201518
_cell_angle_beta   105.89572143
_cell_angle_gamma   109.75862963
_symmetry_Int_Tables_number   1
_chemical_formula_structural   Mn3Nb2P24Os
_chemical_formula_sum   'Mn3 Nb2 P24 Os1'
_cell_volume   456.79716378
_cell_formula_units_Z   1
loop_
 _symmetry_equiv_pos_site_id
 _symmetry_equiv_pos_as_xyz
  1  'x, y, z'
loop_
 _atom_site_type_symbol
 _atom_site_label
 _atom_site_symmetry_multiplicity
 _atom_site_fract_x
 _atom_site_fract_y
 _atom_site_fract_z
 _atom_site_occupancy
  Mn  Mn0  1  0.445421  0.816755  0.453856  1
  Mn  Mn1  1  0.555778  0.183006  0.546374  1
  Mn  Mn2  1  0.325706  0.316664  0.953541  1
  Nb  Nb3  1  0.945207  0.250232  0.250032  1
  Nb  Nb4  1  0.054048  0.750517  0.749383  1
  P  P5  1  0.326628  0.774353  0.002392  1
  P  P6  1  0.154373  0.139292  0.072560  1
  P  P7  1  0.036273  0.617560  0.075055  1
  P  P8  1  0.506010  0.510189  0.166428  1
  P  P9  1  0.456979  0.042292  0.166290  1
  P  P10  1  0.918975  0.939736  0.248783  1
  P  P11  1  0.238782  0.569244  0.261194  1
  P  P12  1  0.752642  0.458582  0.336795  1
  P  P13  1  0.334484  0.981050  0.337709  1
  P  P14  1  0.830959  0.879212  0.427997  1
  P  P15  1  0.444229  0.361620  0.428747  1
  P  P16  1  0.064220  0.731306  0.495161  1
  P  P17  1  0.936333  0.269159  0.504787  1
  P  P18  1  0.556616  0.638033  0.572115  1
  P  P19  1  0.170719  0.121659  0.574488  1
  P  P20  1  0.668824  0.020707  0.663070  1
  P  P21  1  0.246549  0.539846  0.663777  1
  P  P22  1  0.762685  0.429777  0.740726  1
  P  P23  1  0.088730  0.069224  0.757750  1
  P  P24  1  0.541898  0.961530  0.833230  1
  P  P25  1  0.474818  0.468993  0.828466  1
  P  P26  1  0.973391  0.376097  0.924328  1
  P  P27  1  0.850663  0.868597  0.923020  1
  P  P28  1  0.663041  0.230433  0.995269  1
  Os  Os29  1  0.675016  0.684331  0.046673  1
