# generated using pymatgen
data_Na2Ni3P6Rh7
_symmetry_space_group_name_H-M   'P 1'
_cell_length_a   3.75204000
_cell_length_b   10.74474000
_cell_length_c   12.40136900
_cell_angle_alpha   90.00000000
_cell_angle_beta   90.00000000
_cell_angle_gamma   90.00000000
_symmetry_Int_Tables_number   1
_chemical_formula_structural   Na2Ni3P6Rh7
_chemical_formula_sum   'Na4 Ni6 P12 Rh14'
_cell_volume   499.95739976
_cell_formula_units_Z   2
loop_
 _symmetry_equiv_pos_site_id
 _symmetry_equiv_pos_as_xyz
  1  'x, y, z'
loop_
 _atom_site_type_symbol
 _atom_site_label
 _atom_site_symmetry_multiplicity
 _atom_site_fract_x
 _atom_site_fract_y
 _atom_site_fract_z
 _atom_site_occupancy
  Na  Na0  1  0.250000  0.584122  0.708512  1
  Na  Na1  1  0.250000  0.915878  0.208512  1
  Na  Na2  1  0.750000  0.415290  0.292959  1
  Na  Na3  1  0.750000  0.084710  0.792959  1
  Ni  Ni4  1  0.750000  0.114024  0.304593  1
  Ni  Ni5  1  0.750000  0.385976  0.804593  1
  Ni  Ni6  1  0.250000  0.459824  0.931786  1
  Ni  Ni7  1  0.250000  0.040176  0.431786  1
  Ni  Ni8  1  0.750000  0.532993  0.061720  1
  Ni  Ni9  1  0.750000  0.967007  0.561720  1
  P  P10  1  0.250000  0.415937  0.108292  1
  P  P11  1  0.250000  0.084063  0.608292  1
  P  P12  1  0.750000  0.576058  0.886126  1
  P  P13  1  0.750000  0.923942  0.386126  1
  P  P14  1  0.250000  0.266701  0.874298  1
  P  P15  1  0.250000  0.233299  0.374298  1
  P  P16  1  0.750000  0.727194  0.126914  1
  P  P17  1  0.750000  0.772806  0.626914  1
  P  P18  1  0.250000  0.601352  0.389215  1
  P  P19  1  0.250000  0.898648  0.889215  1
  P  P20  1  0.750000  0.401551  0.614930  1
  P  P21  1  0.750000  0.098449  0.114930  1
  Rh  Rh22  1  0.250000  0.707296  0.982327  1
  Rh  Rh23  1  0.250000  0.792704  0.482327  1
  Rh  Rh24  1  0.750000  0.285515  0.012928  1
  Rh  Rh25  1  0.750000  0.214485  0.512928  1
  Rh  Rh26  1  0.250000  0.409667  0.486802  1
  Rh  Rh27  1  0.250000  0.090333  0.986802  1
  Rh  Rh28  1  0.750000  0.595643  0.517854  1
  Rh  Rh29  1  0.750000  0.904357  0.017854  1
  Rh  Rh30  1  0.250000  0.220805  0.184999  1
  Rh  Rh31  1  0.250000  0.279195  0.684999  1
  Rh  Rh32  1  0.750000  0.773856  0.819257  1
  Rh  Rh33  1  0.750000  0.726144  0.319257  1
  Rh  Rh34  1  0.250000  0.890405  0.696490  1
  Rh  Rh35  1  0.250000  0.609595  0.196490  1
