# generated using pymatgen
data_Hf4Al6TcRu
_symmetry_space_group_name_H-M   'P 1'
_cell_length_a   5.25207000
_cell_length_b   5.25207220
_cell_length_c   8.57577500
_cell_angle_alpha   90.00000000
_cell_angle_beta   90.00000000
_cell_angle_gamma   119.99999877
_symmetry_Int_Tables_number   1
_chemical_formula_structural   Hf4Al6TcRu
_chemical_formula_sum   'Hf4 Al6 Tc1 Ru1'
_cell_volume   204.86379247
_cell_formula_units_Z   1
loop_
 _symmetry_equiv_pos_site_id
 _symmetry_equiv_pos_as_xyz
  1  'x, y, z'
loop_
 _atom_site_type_symbol
 _atom_site_label
 _atom_site_symmetry_multiplicity
 _atom_site_fract_x
 _atom_site_fract_y
 _atom_site_fract_z
 _atom_site_occupancy
  Hf  Hf0  1  0.333333  0.666667  0.942700  1
  Hf  Hf1  1  0.666667  0.333333  0.057300  1
  Hf  Hf2  1  0.666667  0.333333  0.448169  1
  Hf  Hf3  1  0.333333  0.666667  0.551831  1
  Al  Al4  1  0.833411  0.166589  0.747663  1
  Al  Al5  1  0.833411  0.666823  0.747663  1
  Al  Al6  1  0.333177  0.166589  0.747663  1
  Al  Al7  1  0.166589  0.833411  0.252337  1
  Al  Al8  1  0.166589  0.333177  0.252337  1
  Al  Al9  1  0.666823  0.833411  0.252337  1
  Tc  Tc10  1  0.000000  0.000000  0.000000  1
  Ru  Ru11  1  0.000000  0.000000  0.500000  1
