# generated using pymatgen
data_Nd3Mg(Ni4As3)2
_symmetry_space_group_name_H-M   'P 1'
_cell_length_a   4.02328200
_cell_length_b   11.18704400
_cell_length_c   12.98549800
_cell_angle_alpha   90.00000000
_cell_angle_beta   90.00000000
_cell_angle_gamma   90.00000000
_symmetry_Int_Tables_number   1
_chemical_formula_structural   Nd3Mg(Ni4As3)2
_chemical_formula_sum   'Nd6 Mg2 Ni16 As12'
_cell_volume   584.45951067
_cell_formula_units_Z   2
loop_
 _symmetry_equiv_pos_site_id
 _symmetry_equiv_pos_as_xyz
  1  'x, y, z'
loop_
 _atom_site_type_symbol
 _atom_site_label
 _atom_site_symmetry_multiplicity
 _atom_site_fract_x
 _atom_site_fract_y
 _atom_site_fract_z
 _atom_site_occupancy
  Nd  Nd0  1  0.000000  0.500000  0.525649  1
  Nd  Nd1  1  0.500000  0.000000  0.474351  1
  Nd  Nd2  1  0.500000  0.818330  0.204935  1
  Nd  Nd3  1  0.500000  0.181670  0.204935  1
  Nd  Nd4  1  0.000000  0.681670  0.795065  1
  Nd  Nd5  1  0.000000  0.318330  0.795065  1
  Mg  Mg6  1  0.500000  0.500000  0.150096  1
  Mg  Mg7  1  0.000000  0.000000  0.849904  1
  Ni  Ni8  1  0.500000  0.500000  0.700791  1
  Ni  Ni9  1  0.000000  0.000000  0.299209  1
  Ni  Ni10  1  0.000000  0.500000  0.985640  1
  Ni  Ni11  1  0.500000  0.000000  0.014360  1
  Ni  Ni12  1  0.500000  0.333927  0.997683  1
  Ni  Ni13  1  0.500000  0.666073  0.997683  1
  Ni  Ni14  1  0.000000  0.166073  0.002317  1
  Ni  Ni15  1  0.000000  0.833927  0.002317  1
  Ni  Ni16  1  0.500000  0.300748  0.427791  1
  Ni  Ni17  1  0.500000  0.699252  0.427791  1
  Ni  Ni18  1  0.000000  0.199252  0.572209  1
  Ni  Ni19  1  0.000000  0.800748  0.572209  1
  Ni  Ni20  1  0.500000  0.882976  0.707296  1
  Ni  Ni21  1  0.500000  0.117024  0.707296  1
  Ni  Ni22  1  0.000000  0.617024  0.292704  1
  Ni  Ni23  1  0.000000  0.382976  0.292704  1
  As  As24  1  0.500000  0.500000  0.881038  1
  As  As25  1  0.000000  0.000000  0.118962  1
  As  As26  1  0.500000  0.500000  0.352759  1
  As  As27  1  0.000000  0.000000  0.647241  1
  As  As28  1  0.500000  0.310124  0.613907  1
  As  As29  1  0.500000  0.689876  0.613907  1
  As  As30  1  0.000000  0.189876  0.386093  1
  As  As31  1  0.000000  0.810124  0.386093  1
  As  As32  1  0.500000  0.840372  0.895432  1
  As  As33  1  0.500000  0.159628  0.895432  1
  As  As34  1  0.000000  0.659628  0.104568  1
  As  As35  1  0.000000  0.340372  0.104568  1
