# generated using pymatgen
data_Ca2Ga4Au3
_symmetry_space_group_name_H-M   'P 1'
_cell_length_a   14.24313000
_cell_length_b   14.24312965
_cell_length_c   4.31510800
_cell_angle_alpha   90.00000000
_cell_angle_beta   90.00000000
_cell_angle_gamma   120.00000082
_symmetry_Int_Tables_number   1
_chemical_formula_structural   Ca2Ga4Au3
_chemical_formula_sum   'Ca8 Ga16 Au12'
_cell_volume   758.11163777
_cell_formula_units_Z   4
loop_
 _symmetry_equiv_pos_site_id
 _symmetry_equiv_pos_as_xyz
  1  'x, y, z'
loop_
 _atom_site_type_symbol
 _atom_site_label
 _atom_site_symmetry_multiplicity
 _atom_site_fract_x
 _atom_site_fract_y
 _atom_site_fract_z
 _atom_site_occupancy
  Ca  Ca0  1  0.448283  0.000000  0.000000  1
  Ca  Ca1  1  0.000000  0.448283  0.000000  1
  Ca  Ca2  1  0.551717  0.551717  0.000000  1
  Ca  Ca3  1  0.333333  0.666667  0.000000  1
  Ca  Ca4  1  0.666667  0.333333  0.000000  1
  Ca  Ca5  1  0.821242  0.000000  0.500000  1
  Ca  Ca6  1  0.000000  0.821242  0.500000  1
  Ca  Ca7  1  0.178758  0.178758  0.500000  1
  Ga  Ga8  1  0.186861  0.384139  0.000000  1
  Ga  Ga9  1  0.615861  0.802722  0.000000  1
  Ga  Ga10  1  0.384139  0.186861  0.000000  1
  Ga  Ga11  1  0.197278  0.813139  0.000000  1
  Ga  Ga12  1  0.802722  0.615861  0.000000  1
  Ga  Ga13  1  0.813139  0.197278  0.000000  1
  Ga  Ga14  1  0.280160  0.000000  0.500000  1
  Ga  Ga15  1  0.000000  0.280160  0.500000  1
  Ga  Ga16  1  0.719840  0.719840  0.500000  1
  Ga  Ga17  1  0.351125  0.471299  0.500000  1
  Ga  Ga18  1  0.528701  0.879826  0.500000  1
  Ga  Ga19  1  0.471299  0.351125  0.500000  1
  Ga  Ga20  1  0.120174  0.648875  0.500000  1
  Ga  Ga21  1  0.879826  0.528701  0.500000  1
  Ga  Ga22  1  0.648875  0.120174  0.500000  1
  Ga  Ga23  1  0.000000  0.000000  0.000000  1
  Au  Au24  1  0.174914  0.492964  0.500000  1
  Au  Au25  1  0.507036  0.681950  0.500000  1
  Au  Au26  1  0.492964  0.174914  0.500000  1
  Au  Au27  1  0.318050  0.825086  0.500000  1
  Au  Au28  1  0.681950  0.507036  0.500000  1
  Au  Au29  1  0.825086  0.318050  0.500000  1
  Au  Au30  1  0.179371  0.000000  0.000000  1
  Au  Au31  1  0.000000  0.179371  0.000000  1
  Au  Au32  1  0.820629  0.820629  0.000000  1
  Au  Au33  1  0.656277  0.000000  0.000000  1
  Au  Au34  1  0.000000  0.656277  0.000000  1
  Au  Au35  1  0.343723  0.343723  0.000000  1
