# generated using pymatgen
data_ErHf(NbSe2)8
_symmetry_space_group_name_H-M   'P 1'
_cell_length_a   7.02603100
_cell_length_b   7.02603133
_cell_length_c   13.83503600
_cell_angle_alpha   90.00000000
_cell_angle_beta   90.00000000
_cell_angle_gamma   119.99999375
_symmetry_Int_Tables_number   1
_chemical_formula_structural   ErHf(NbSe2)8
_chemical_formula_sum   'Er1 Hf1 Nb8 Se16'
_cell_volume   591.46778614
_cell_formula_units_Z   1
loop_
 _symmetry_equiv_pos_site_id
 _symmetry_equiv_pos_as_xyz
  1  'x, y, z'
loop_
 _atom_site_type_symbol
 _atom_site_label
 _atom_site_symmetry_multiplicity
 _atom_site_fract_x
 _atom_site_fract_y
 _atom_site_fract_z
 _atom_site_occupancy
  Er  Er0  1  0.000000  0.000000  0.500000  1
  Hf  Hf1  1  0.000000  0.000000  0.000000  1
  Nb  Nb2  1  0.000000  0.000000  0.242891  1
  Nb  Nb3  1  0.000000  0.000000  0.757109  1
  Nb  Nb4  1  0.506907  0.013814  0.243024  1
  Nb  Nb5  1  0.986186  0.493093  0.243024  1
  Nb  Nb6  1  0.506907  0.493093  0.243024  1
  Nb  Nb7  1  0.493093  0.986186  0.756976  1
  Nb  Nb8  1  0.013814  0.506907  0.756976  1
  Nb  Nb9  1  0.493093  0.506907  0.756976  1
  Se  Se10  1  0.333333  0.666667  0.881075  1
  Se  Se11  1  0.666667  0.333333  0.118925  1
  Se  Se12  1  0.666667  0.333333  0.368253  1
  Se  Se13  1  0.333333  0.666667  0.631747  1
  Se  Se14  1  0.169886  0.830114  0.363167  1
  Se  Se15  1  0.169886  0.339771  0.363167  1
  Se  Se16  1  0.660229  0.830114  0.363167  1
  Se  Se17  1  0.830114  0.169886  0.636833  1
  Se  Se18  1  0.830114  0.660229  0.636833  1
  Se  Se19  1  0.339771  0.169886  0.636833  1
  Se  Se20  1  0.830726  0.169274  0.878094  1
  Se  Se21  1  0.830726  0.661454  0.878094  1
  Se  Se22  1  0.338546  0.169274  0.878094  1
  Se  Se23  1  0.169274  0.830726  0.121906  1
  Se  Se24  1  0.169274  0.338546  0.121906  1
  Se  Se25  1  0.661454  0.830726  0.121906  1
