# generated using pymatgen
data_Y2(ScBi)3
_symmetry_space_group_name_H-M   'P 1'
_cell_length_a   7.95419800
_cell_length_b   9.14077000
_cell_length_c   11.87571900
_cell_angle_alpha   90.00000000
_cell_angle_beta   90.00000000
_cell_angle_gamma   90.00000000
_symmetry_Int_Tables_number   1
_chemical_formula_structural   Y2(ScBi)3
_chemical_formula_sum   'Y8 Sc12 Bi12'
_cell_volume   863.45377331
_cell_formula_units_Z   4
loop_
 _symmetry_equiv_pos_site_id
 _symmetry_equiv_pos_as_xyz
  1  'x, y, z'
loop_
 _atom_site_type_symbol
 _atom_site_label
 _atom_site_symmetry_multiplicity
 _atom_site_fract_x
 _atom_site_fract_y
 _atom_site_fract_z
 _atom_site_occupancy
  Y  Y0  1  0.184941  0.750000  0.720821  1
  Y  Y1  1  0.684941  0.750000  0.779179  1
  Y  Y2  1  0.815059  0.250000  0.279179  1
  Y  Y3  1  0.315059  0.250000  0.220821  1
  Y  Y4  1  0.350539  0.750000  0.217254  1
  Y  Y5  1  0.850539  0.750000  0.282746  1
  Y  Y6  1  0.649461  0.250000  0.782746  1
  Y  Y7  1  0.149461  0.250000  0.717254  1
  Sc  Sc8  1  0.020910  0.750000  0.990505  1
  Sc  Sc9  1  0.520910  0.750000  0.509495  1
  Sc  Sc10  1  0.979090  0.250000  0.009495  1
  Sc  Sc11  1  0.479090  0.250000  0.490505  1
  Sc  Sc12  1  0.305782  0.433352  0.942408  1
  Sc  Sc13  1  0.805782  0.066648  0.557592  1
  Sc  Sc14  1  0.694218  0.933352  0.057592  1
  Sc  Sc15  1  0.194218  0.566648  0.442408  1
  Sc  Sc16  1  0.694218  0.566648  0.057592  1
  Sc  Sc17  1  0.194218  0.933352  0.442408  1
  Sc  Sc18  1  0.305782  0.066648  0.942408  1
  Sc  Sc19  1  0.805782  0.433352  0.557592  1
  Bi  Bi20  1  0.436443  0.003918  0.666340  1
  Bi  Bi21  1  0.936443  0.496082  0.833660  1
  Bi  Bi22  1  0.563557  0.503918  0.333660  1
  Bi  Bi23  1  0.063557  0.996082  0.166340  1
  Bi  Bi24  1  0.563557  0.996082  0.333660  1
  Bi  Bi25  1  0.063557  0.503918  0.166340  1
  Bi  Bi26  1  0.436443  0.496082  0.666340  1
  Bi  Bi27  1  0.936443  0.003918  0.833660  1
  Bi  Bi28  1  0.405705  0.750000  0.959950  1
  Bi  Bi29  1  0.905705  0.750000  0.540050  1
  Bi  Bi30  1  0.594295  0.250000  0.040050  1
  Bi  Bi31  1  0.094295  0.250000  0.459950  1
