# generated using pymatgen
data_Zr6Zn12Cu11Sb
_symmetry_space_group_name_H-M   'P 1'
_cell_length_a   8.69252267
_cell_length_b   8.67231736
_cell_length_c   8.67120600
_cell_angle_alpha   60.00423910
_cell_angle_beta   60.08108833
_cell_angle_gamma   60.09067064
_symmetry_Int_Tables_number   1
_chemical_formula_structural   Zr6Zn12Cu11Sb
_chemical_formula_sum   'Zr6 Zn12 Cu11 Sb1'
_cell_volume   462.83049709
_cell_formula_units_Z   1
loop_
 _symmetry_equiv_pos_site_id
 _symmetry_equiv_pos_as_xyz
  1  'x, y, z'
loop_
 _atom_site_type_symbol
 _atom_site_label
 _atom_site_symmetry_multiplicity
 _atom_site_fract_x
 _atom_site_fract_y
 _atom_site_fract_z
 _atom_site_occupancy
  Zr  Zr0  1  0.732956  0.267028  0.278311  1
  Zr  Zr1  1  0.261752  0.732247  0.731885  1
  Zr  Zr2  1  0.261752  0.732247  0.274115  1
  Zr  Zr3  1  0.732956  0.267028  0.721705  1
  Zr  Zr4  1  0.273303  0.271917  0.727389  1
  Zr  Zr5  1  0.739598  0.725986  0.267209  1
  Zn  Zn6  1  0.876076  0.373878  0.875022  1
  Zn  Zn7  1  0.622777  0.125620  0.125802  1
  Zn  Zn8  1  0.378669  0.872757  0.874286  1
  Zn  Zn9  1  0.333060  0.339129  0.338341  1
  Zn  Zn10  1  0.662277  0.663146  0.656904  1
  Zn  Zn11  1  0.333060  0.339129  0.989471  1
  Zn  Zn12  1  0.332819  0.990164  0.338509  1
  Zn  Zn13  1  0.662277  0.663146  0.017672  1
  Zn  Zn14  1  0.669202  0.002840  0.663978  1
  Zn  Zn15  1  0.001587  0.332985  0.332714  1
  Zn  Zn16  1  0.004477  0.669358  0.663083  1
  Zn  Zn17  1  0.002468  0.991969  0.002781  1
  Cu  Cu18  1  0.123071  0.124105  0.121760  1
  Cu  Cu19  1  0.874859  0.876949  0.876515  1
  Cu  Cu20  1  0.123071  0.124105  0.631064  1
  Cu  Cu21  1  0.127222  0.624138  0.124321  1
  Cu  Cu22  1  0.874859  0.876949  0.371676  1
  Cu  Cu23  1  0.498701  0.001911  0.999671  1
  Cu  Cu24  1  0.998942  0.500397  0.501442  1
  Cu  Cu25  1  0.998942  0.500397  0.999220  1
  Cu  Cu26  1  0.498701  0.001911  0.499720  1
  Cu  Cu27  1  0.999755  0.001846  0.499199  1
  Cu  Cu28  1  0.502827  0.499414  0.998879  1
  Sb  Sb29  1  0.497978  0.507310  0.497357  1
