# generated using pymatgen
data_DyHo2In3Ga2Pt
_symmetry_space_group_name_H-M   'P 1'
_cell_length_a   7.25772001
_cell_length_b   7.25711529
_cell_length_c   4.42312900
_cell_angle_alpha   90.00000000
_cell_angle_beta   90.00000000
_cell_angle_gamma   119.99724805
_symmetry_Int_Tables_number   1
_chemical_formula_structural   DyHo2In3Ga2Pt
_chemical_formula_sum   'Dy1 Ho2 In3 Ga2 Pt1'
_cell_volume   201.76067052
_cell_formula_units_Z   1
loop_
 _symmetry_equiv_pos_site_id
 _symmetry_equiv_pos_as_xyz
  1  'x, y, z'
loop_
 _atom_site_type_symbol
 _atom_site_label
 _atom_site_symmetry_multiplicity
 _atom_site_fract_x
 _atom_site_fract_y
 _atom_site_fract_z
 _atom_site_occupancy
  Dy  Dy0  1  0.000000  0.590910  0.500000  1
  Ho  Ho1  1  0.590977  0.999992  0.500000  1
  Ho  Ho2  1  0.409023  0.409015  0.500000  1
  In  In3  1  0.749599  0.749631  0.000000  1
  In  In4  1  0.000000  0.250343  0.000000  1
  In  In5  1  0.250401  0.000032  0.000000  1
  Ga  Ga6  1  0.333401  0.666690  0.000000  1
  Ga  Ga7  1  0.666599  0.333288  0.000000  1
  Pt  Pt8  1  0.000000  0.000099  0.500000  1
