# generated using pymatgen
data_Hf15ZrBi18
_symmetry_space_group_name_H-M   'P 1'
_cell_length_a   10.82770400
_cell_length_b   10.82770400
_cell_length_c   7.63534500
_cell_angle_alpha   90.00000000
_cell_angle_beta   90.00000000
_cell_angle_gamma   90.00000000
_symmetry_Int_Tables_number   1
_chemical_formula_structural   Hf15ZrBi18
_chemical_formula_sum   'Hf15 Zr1 Bi18'
_cell_volume   895.16154033
_cell_formula_units_Z   1
loop_
 _symmetry_equiv_pos_site_id
 _symmetry_equiv_pos_as_xyz
  1  'x, y, z'
loop_
 _atom_site_type_symbol
 _atom_site_label
 _atom_site_symmetry_multiplicity
 _atom_site_fract_x
 _atom_site_fract_y
 _atom_site_fract_z
 _atom_site_occupancy
  Hf  Hf0  1  0.000069  0.000069  0.999821  1
  Hf  Hf1  1  0.499931  0.000069  0.999821  1
  Hf  Hf2  1  0.000069  0.499931  0.999821  1
  Hf  Hf3  1  0.499931  0.499931  0.999821  1
  Hf  Hf4  1  0.750000  0.105260  0.152920  1
  Hf  Hf5  1  0.750000  0.394739  0.152920  1
  Hf  Hf6  1  0.105260  0.750000  0.152920  1
  Hf  Hf7  1  0.394739  0.750000  0.152920  1
  Hf  Hf8  1  0.250000  0.250000  0.434181  1
  Hf  Hf9  1  0.750000  0.750000  0.566305  1
  Hf  Hf10  1  0.605126  0.249999  0.847574  1
  Hf  Hf11  1  0.894875  0.250000  0.847574  1
  Hf  Hf12  1  0.249999  0.605126  0.847574  1
  Hf  Hf13  1  0.250000  0.894875  0.847574  1
  Hf  Hf14  1  0.250000  0.250000  0.917318  1
  Zr  Zr15  1  0.750000  0.750000  0.081455  1
  Bi  Bi16  1  0.250000  0.016988  0.197033  1
  Bi  Bi17  1  0.016988  0.250000  0.197033  1
  Bi  Bi18  1  0.483011  0.249999  0.197033  1
  Bi  Bi19  1  0.249999  0.483011  0.197033  1
  Bi  Bi20  1  0.583768  0.583768  0.350498  1
  Bi  Bi21  1  0.916232  0.583768  0.350498  1
  Bi  Bi22  1  0.916232  0.916232  0.350498  1
  Bi  Bi23  1  0.583768  0.916232  0.350498  1
  Bi  Bi24  1  0.750000  0.250000  0.499934  1
  Bi  Bi25  1  0.250000  0.750000  0.499934  1
  Bi  Bi26  1  0.415868  0.084132  0.649812  1
  Bi  Bi27  1  0.084132  0.084132  0.649812  1
  Bi  Bi28  1  0.084132  0.415868  0.649812  1
  Bi  Bi29  1  0.415868  0.415868  0.649812  1
  Bi  Bi30  1  0.750000  0.516156  0.802563  1
  Bi  Bi31  1  0.516156  0.750000  0.802563  1
  Bi  Bi32  1  0.983844  0.750000  0.802563  1
  Bi  Bi33  1  0.750000  0.983844  0.802563  1
