# generated using pymatgen
data_U10S19Br
_symmetry_space_group_name_H-M   'P 1'
_cell_length_a   10.17509423
_cell_length_b   10.23558051
_cell_length_c   6.30593691
_cell_angle_alpha   90.38840034
_cell_angle_beta   90.67972174
_cell_angle_gamma   90.00812424
_symmetry_Int_Tables_number   1
_chemical_formula_structural   U10S19Br
_chemical_formula_sum   'U10 S19 Br1'
_cell_volume   656.68937339
_cell_formula_units_Z   1
loop_
 _symmetry_equiv_pos_site_id
 _symmetry_equiv_pos_as_xyz
  1  'x, y, z'
loop_
 _atom_site_type_symbol
 _atom_site_label
 _atom_site_symmetry_multiplicity
 _atom_site_fract_x
 _atom_site_fract_y
 _atom_site_fract_z
 _atom_site_occupancy
  U  U0  1  0.842428  0.138111  0.242901  1
  U  U1  1  0.644310  0.671000  0.243520  1
  U  U2  1  0.347697  0.339920  0.254845  1
  U  U3  1  0.159439  0.849976  0.248817  1
  U  U4  1  0.499710  0.000595  0.857193  1
  U  U5  1  0.341829  0.652121  0.747155  1
  U  U6  1  0.150646  0.161999  0.749156  1
  U  U7  1  0.848438  0.837087  0.745637  1
  U  U8  1  0.650056  0.343031  0.771111  1
  U  U9  1  0.009874  0.505450  0.123992  1
  S  S10  1  0.708705  0.087875  0.622194  1
  S  S11  1  0.588458  0.791533  0.621045  1
  S  S12  1  0.410197  0.208738  0.623723  1
  S  S13  1  0.291759  0.910726  0.619028  1
  S  S14  1  0.710503  0.911859  0.106170  1
  S  S15  1  0.588206  0.206812  0.121254  1
  S  S16  1  0.410681  0.794000  0.107331  1
  S  S17  1  0.291663  0.089555  0.107071  1
  S  S18  1  0.496038  0.500337  0.006319  1
  S  S19  1  0.002486  0.997946  0.994227  1
  S  S20  1  0.211100  0.411279  0.886290  1
  S  S21  1  0.090529  0.711220  0.885099  1
  S  S22  1  0.908491  0.290483  0.896551  1
  S  S23  1  0.788641  0.587944  0.896520  1
  S  S24  1  0.503593  0.499790  0.503310  1
  S  S25  1  0.000532  0.997267  0.500202  1
  S  S26  1  0.210052  0.591674  0.378974  1
  S  S27  1  0.089910  0.291370  0.376390  1
  S  S28  1  0.909521  0.707710  0.375180  1
  Br  Br29  1  0.794508  0.412589  0.388795  1
