# generated using pymatgen
data_Tm9Lu(SiSn3)2
_symmetry_space_group_name_H-M   'P 1'
_cell_length_a   9.08899700
_cell_length_b   9.08899749
_cell_length_c   6.36519400
_cell_angle_alpha   90.00000000
_cell_angle_beta   90.00000000
_cell_angle_gamma   120.00000912
_symmetry_Int_Tables_number   1
_chemical_formula_structural   Tm9Lu(SiSn3)2
_chemical_formula_sum   'Tm9 Lu1 Si2 Sn6'
_cell_volume   455.38023848
_cell_formula_units_Z   1
loop_
 _symmetry_equiv_pos_site_id
 _symmetry_equiv_pos_as_xyz
  1  'x, y, z'
loop_
 _atom_site_type_symbol
 _atom_site_label
 _atom_site_symmetry_multiplicity
 _atom_site_fract_x
 _atom_site_fract_y
 _atom_site_fract_z
 _atom_site_occupancy
  Tm  Tm0  1  0.666667  0.333333  0.000000  1
  Tm  Tm1  1  0.333333  0.666667  0.000000  1
  Tm  Tm2  1  0.333333  0.666667  0.500000  1
  Tm  Tm3  1  0.747067  0.746969  0.750550  1
  Tm  Tm4  1  0.253031  0.000098  0.750550  1
  Tm  Tm5  1  0.999902  0.252933  0.750550  1
  Tm  Tm6  1  0.253031  0.252933  0.249450  1
  Tm  Tm7  1  0.747067  0.000098  0.249450  1
  Tm  Tm8  1  0.999902  0.746969  0.249450  1
  Lu  Lu9  1  0.666667  0.333333  0.500000  1
  Si  Si10  1  0.000000  0.000000  0.000000  1
  Si  Si11  1  0.000000  0.000000  0.500000  1
  Sn  Sn12  1  0.392821  0.392490  0.750017  1
  Sn  Sn13  1  0.607510  0.000331  0.750017  1
  Sn  Sn14  1  0.999669  0.607179  0.750017  1
  Sn  Sn15  1  0.607510  0.607179  0.249983  1
  Sn  Sn16  1  0.392821  0.000331  0.249983  1
  Sn  Sn17  1  0.999669  0.392490  0.249983  1
