# generated using pymatgen
data_LiDy2Co2P6Rh7
_symmetry_space_group_name_H-M   'P 1'
_cell_length_a   3.83703300
_cell_length_b   10.71513700
_cell_length_c   12.46002000
_cell_angle_alpha   90.00000000
_cell_angle_beta   90.00000000
_cell_angle_gamma   90.00000000
_symmetry_Int_Tables_number   1
_chemical_formula_structural   LiDy2Co2P6Rh7
_chemical_formula_sum   'Li2 Dy4 Co4 P12 Rh14'
_cell_volume   512.28542727
_cell_formula_units_Z   2
loop_
 _symmetry_equiv_pos_site_id
 _symmetry_equiv_pos_as_xyz
  1  'x, y, z'
loop_
 _atom_site_type_symbol
 _atom_site_label
 _atom_site_symmetry_multiplicity
 _atom_site_fract_x
 _atom_site_fract_y
 _atom_site_fract_z
 _atom_site_occupancy
  Li  Li0  1  0.250000  0.706156  0.987933  1
  Li  Li1  1  0.250000  0.793844  0.487933  1
  Dy  Dy2  1  0.250000  0.583538  0.708666  1
  Dy  Dy3  1  0.250000  0.916462  0.208666  1
  Dy  Dy4  1  0.750000  0.420264  0.293987  1
  Dy  Dy5  1  0.750000  0.079736  0.793987  1
  Co  Co6  1  0.250000  0.462888  0.934662  1
  Co  Co7  1  0.250000  0.037112  0.434662  1
  Co  Co8  1  0.750000  0.535245  0.063002  1
  Co  Co9  1  0.750000  0.964755  0.563002  1
  P  P10  1  0.250000  0.426138  0.106484  1
  P  P11  1  0.250000  0.073862  0.606484  1
  P  P12  1  0.750000  0.575027  0.890916  1
  P  P13  1  0.750000  0.924973  0.390916  1
  P  P14  1  0.250000  0.270055  0.870530  1
  P  P15  1  0.250000  0.229945  0.370530  1
  P  P16  1  0.750000  0.729363  0.133395  1
  P  P17  1  0.750000  0.770637  0.633395  1
  P  P18  1  0.250000  0.601267  0.388847  1
  P  P19  1  0.250000  0.898733  0.888847  1
  P  P20  1  0.750000  0.401204  0.610287  1
  P  P21  1  0.750000  0.098796  0.110287  1
  Rh  Rh22  1  0.750000  0.288042  0.012347  1
  Rh  Rh23  1  0.750000  0.211958  0.512347  1
  Rh  Rh24  1  0.250000  0.405966  0.480997  1
  Rh  Rh25  1  0.250000  0.094034  0.980997  1
  Rh  Rh26  1  0.750000  0.594501  0.521531  1
  Rh  Rh27  1  0.750000  0.905499  0.021531  1
  Rh  Rh28  1  0.250000  0.230169  0.177487  1
  Rh  Rh29  1  0.250000  0.269831  0.677487  1
  Rh  Rh30  1  0.750000  0.776035  0.825113  1
  Rh  Rh31  1  0.750000  0.723965  0.325113  1
  Rh  Rh32  1  0.250000  0.882336  0.693419  1
  Rh  Rh33  1  0.250000  0.617664  0.193419  1
  Rh  Rh34  1  0.750000  0.114525  0.300399  1
  Rh  Rh35  1  0.750000  0.385475  0.800399  1
