# generated using pymatgen
data_Zr10C7N2
_symmetry_space_group_name_H-M   'P 1'
_cell_length_a   8.80527976
_cell_length_b   8.80087204
_cell_length_c   11.02894696
_cell_angle_alpha   62.86090090
_cell_angle_beta   62.87306831
_cell_angle_gamma   44.44498909
_symmetry_Int_Tables_number   1
_chemical_formula_structural   Zr10C7N2
_chemical_formula_sum   'Zr20 C14 N4'
_cell_volume   520.80190296
_cell_formula_units_Z   2
loop_
 _symmetry_equiv_pos_site_id
 _symmetry_equiv_pos_as_xyz
  1  'x, y, z'
loop_
 _atom_site_type_symbol
 _atom_site_label
 _atom_site_symmetry_multiplicity
 _atom_site_fract_x
 _atom_site_fract_y
 _atom_site_fract_z
 _atom_site_occupancy
  Zr  Zr0  1  0.225924  0.478404  0.947253  1
  Zr  Zr1  1  0.720380  0.966940  0.958546  1
  Zr  Zr2  1  0.565024  0.329997  0.648859  1
  Zr  Zr3  1  0.435555  0.670450  0.350545  1
  Zr  Zr4  1  0.278440  0.032057  0.042635  1
  Zr  Zr5  1  0.082726  0.814297  0.644931  1
  Zr  Zr6  1  0.124491  0.371501  0.750512  1
  Zr  Zr7  1  0.918575  0.184920  0.355012  1
  Zr  Zr8  1  0.967666  0.721436  0.456791  1
  Zr  Zr9  1  0.774110  0.520699  0.051841  1
  Zr  Zr10  1  0.627053  0.876388  0.748797  1
  Zr  Zr11  1  0.814935  0.081683  0.145036  1
  Zr  Zr12  1  0.476885  0.224736  0.447407  1
  Zr  Zr13  1  0.670178  0.434994  0.851016  1
  Zr  Zr14  1  0.521974  0.776011  0.552981  1
  Zr  Zr15  1  0.329232  0.564815  0.148877  1
  Zr  Zr16  1  0.372415  0.124433  0.251355  1
  Zr  Zr17  1  0.185265  0.918574  0.854546  1
  Zr  Zr18  1  0.032084  0.278828  0.543853  1
  Zr  Zr19  1  0.876377  0.628059  0.250245  1
  C  C20  1  0.424580  0.172005  0.852879  1
  C  C21  1  0.625850  0.376778  0.249652  1
  C  C22  1  0.274644  0.529036  0.550633  1
  C  C23  1  0.474953  0.725380  0.950213  1
  C  C24  1  0.324214  0.075282  0.650666  1
  C  C25  1  0.173769  0.423835  0.351326  1
  C  C26  1  0.975052  0.225194  0.952000  1
  C  C27  1  0.826439  0.577647  0.647954  1
  C  C28  1  0.023987  0.775324  0.049199  1
  C  C29  1  0.677049  0.924432  0.349072  1
  C  C30  1  0.725912  0.470597  0.448081  1
  C  C31  1  0.526161  0.273871  0.050212  1
  C  C32  1  0.373574  0.623527  0.750183  1
  C  C33  1  0.221471  0.975460  0.449276  1
  N  N34  1  0.074434  0.322186  0.150429  1
  N  N35  1  0.923583  0.678572  0.850383  1
  N  N36  1  0.577594  0.827282  0.146739  1
  N  N37  1  0.777447  0.024369  0.550064  1
