# generated using pymatgen
data_Tb9Nd7MgHg3Pt4
_symmetry_space_group_name_H-M   'P 1'
_cell_length_a   9.80876785
_cell_length_b   9.83874486
_cell_length_c   9.80890000
_cell_angle_alpha   60.10028676
_cell_angle_beta   59.99954759
_cell_angle_gamma   60.34609956
_symmetry_Int_Tables_number   1
_chemical_formula_structural   Tb9Nd7MgHg3Pt4
_chemical_formula_sum   'Tb9 Nd7 Mg1 Hg3 Pt4'
_cell_volume   671.60030324
_cell_formula_units_Z   1
loop_
 _symmetry_equiv_pos_site_id
 _symmetry_equiv_pos_as_xyz
  1  'x, y, z'
loop_
 _atom_site_type_symbol
 _atom_site_label
 _atom_site_symmetry_multiplicity
 _atom_site_fract_x
 _atom_site_fract_y
 _atom_site_fract_z
 _atom_site_occupancy
  Tb  Tb0  1  0.350678  0.349292  0.349859  1
  Tb  Tb1  1  0.350678  0.349292  0.950172  1
  Tb  Tb2  1  0.349232  0.950330  0.350219  1
  Tb  Tb3  1  0.942912  0.350928  0.353081  1
  Tb  Tb4  1  0.808430  0.193009  0.191184  1
  Tb  Tb5  1  0.188498  0.811966  0.810039  1
  Tb  Tb6  1  0.188498  0.811966  0.189497  1
  Tb  Tb7  1  0.808430  0.193009  0.807376  1
  Tb  Tb8  1  0.186476  0.189921  0.811801  1
  Nd  Nd9  1  0.807864  0.808659  0.191738  1
  Nd  Nd10  1  0.939196  0.561009  0.564366  1
  Nd  Nd11  1  0.558456  0.940122  0.937045  1
  Nd  Nd12  1  0.558456  0.940122  0.564376  1
  Nd  Nd13  1  0.939196  0.561009  0.935428  1
  Nd  Nd14  1  0.559592  0.561637  0.939385  1
  Nd  Nd15  1  0.936187  0.936321  0.563745  1
  Mg  Mg16  1  0.284676  0.572226  0.571550  1
  Hg  Hg17  1  0.581170  0.584425  0.586487  1
  Hg  Hg18  1  0.581170  0.584425  0.247918  1
  Hg  Hg19  1  0.581589  0.248408  0.585002  1
  Pt  Pt20  1  0.141301  0.142857  0.144299  1
  Pt  Pt21  1  0.141301  0.142857  0.571543  1
  Pt  Pt22  1  0.146484  0.568932  0.142292  1
  Pt  Pt23  1  0.569533  0.147277  0.141595  1
