# generated using pymatgen
data_CsK5(LiSn4)2
_symmetry_space_group_name_H-M   'P 1'
_cell_length_a   8.67418300
_cell_length_b   8.67418260
_cell_length_c   10.23425800
_cell_angle_alpha   89.99822977
_cell_angle_beta   90.00177023
_cell_angle_gamma   133.94040307
_symmetry_Int_Tables_number   1
_chemical_formula_structural   CsK5(LiSn4)2
_chemical_formula_sum   'Cs1 K5 Li2 Sn8'
_cell_volume   554.47679449
_cell_formula_units_Z   1
loop_
 _symmetry_equiv_pos_site_id
 _symmetry_equiv_pos_as_xyz
  1  'x, y, z'
loop_
 _atom_site_type_symbol
 _atom_site_label
 _atom_site_symmetry_multiplicity
 _atom_site_fract_x
 _atom_site_fract_y
 _atom_site_fract_z
 _atom_site_occupancy
  Cs  Cs0  1  0.224929  0.775071  0.250000  1
  K  K1  1  0.771726  0.228274  0.750011  1
  K  K2  1  0.613277  0.386723  0.046479  1
  K  K3  1  0.386842  0.613158  0.952653  1
  K  K4  1  0.386846  0.613154  0.547346  1
  K  K5  1  0.613278  0.386722  0.453534  1
  Li  Li6  1  0.999986  0.000014  0.999476  1
  Li  Li7  1  0.999987  0.000013  0.500519  1
  Sn  Sn8  1  0.195458  0.268047  0.250001  1
  Sn  Sn9  1  0.803581  0.729264  0.750006  1
  Sn  Sn10  1  0.731953  0.804542  0.250001  1
  Sn  Sn11  1  0.270736  0.196419  0.750006  1
  Sn  Sn12  1  0.832873  0.167127  0.106704  1
  Sn  Sn13  1  0.167835  0.832165  0.892095  1
  Sn  Sn14  1  0.167829  0.832171  0.607908  1
  Sn  Sn15  1  0.832864  0.167136  0.393261  1
