# generated using pymatgen
data_Y3B6Ir3OsRh4
_symmetry_space_group_name_H-M   'P 1'
_cell_length_a   9.98051602
_cell_length_b   9.16156490
_cell_length_c   5.57134873
_cell_angle_alpha   81.34422771
_cell_angle_beta   65.16074331
_cell_angle_gamma   33.37784467
_symmetry_Int_Tables_number   1
_chemical_formula_structural   Y3B6Ir3OsRh4
_chemical_formula_sum   'Y3 B6 Ir3 Os1 Rh4'
_cell_volume   232.97493458
_cell_formula_units_Z   1
loop_
 _symmetry_equiv_pos_site_id
 _symmetry_equiv_pos_as_xyz
  1  'x, y, z'
loop_
 _atom_site_type_symbol
 _atom_site_label
 _atom_site_symmetry_multiplicity
 _atom_site_fract_x
 _atom_site_fract_y
 _atom_site_fract_z
 _atom_site_occupancy
  Y  Y0  1  0.999976  0.999976  0.000024  1
  Y  Y1  1  0.179530  0.179530  0.820470  1
  Y  Y2  1  0.820327  0.820327  0.179673  1
  B  B3  1  0.820405  0.530375  0.481849  1
  B  B4  1  0.167208  0.482307  0.527627  1
  B  B5  1  0.482307  0.167208  0.822858  1
  B  B6  1  0.668175  0.331636  0.670749  1
  B  B7  1  0.530375  0.820405  0.167370  1
  B  B8  1  0.331636  0.668175  0.329441  1
  Ir  Ir9  1  0.585567  0.585567  0.414433  1
  Ir  Ir10  1  0.249837  0.249837  0.250163  1
  Ir  Ir11  1  0.414603  0.414603  0.085397  1
  Os  Os12  1  0.750112  0.750112  0.749888  1
  Rh  Rh13  1  0.414806  0.414806  0.585194  1
  Rh  Rh14  1  0.584943  0.584943  0.915057  1
  Rh  Rh15  1  0.085321  0.085321  0.414679  1
  Rh  Rh16  1  0.914871  0.914871  0.585129  1
