# generated using pymatgen
data_Er7Lu2Sc11Pt16
_symmetry_space_group_name_H-M   'P 1'
_cell_length_a   7.23303075
_cell_length_b   7.28133333
_cell_length_c   14.19443313
_cell_angle_alpha   90.00767328
_cell_angle_beta   90.36878339
_cell_angle_gamma   90.08581034
_symmetry_Int_Tables_number   1
_chemical_formula_structural   Er7Lu2Sc11Pt16
_chemical_formula_sum   'Er7 Lu2 Sc11 Pt16'
_cell_volume   747.54921545
_cell_formula_units_Z   1
loop_
 _symmetry_equiv_pos_site_id
 _symmetry_equiv_pos_as_xyz
  1  'x, y, z'
loop_
 _atom_site_type_symbol
 _atom_site_label
 _atom_site_symmetry_multiplicity
 _atom_site_fract_x
 _atom_site_fract_y
 _atom_site_fract_z
 _atom_site_occupancy
  Er  Er0  1  0.996021  0.822675  0.909394  1
  Er  Er1  1  0.503702  0.323267  0.092611  1
  Er  Er2  1  0.005174  0.175348  0.403085  1
  Er  Er3  1  0.503895  0.323346  0.406692  1
  Er  Er4  1  0.003781  0.176887  0.092888  1
  Er  Er5  1  0.496772  0.677098  0.909967  1
  Er  Er6  1  0.994929  0.822456  0.592844  1
  Lu  Lu7  1  0.154188  0.333648  0.622656  1
  Lu  Lu8  1  0.499033  0.681476  0.592256  1
  Sc  Sc9  1  0.652990  0.166866  0.625586  1
  Sc  Sc10  1  0.155193  0.332998  0.877010  1
  Sc  Sc11  1  0.345202  0.834456  0.123970  1
  Sc  Sc12  1  0.844305  0.668635  0.374221  1
  Sc  Sc13  1  0.350852  0.834628  0.373604  1
  Sc  Sc14  1  0.844916  0.666092  0.123883  1
  Sc  Sc15  1  0.654885  0.165906  0.877325  1
  Sc  Sc16  1  0.819448  0.501788  0.753238  1
  Sc  Sc17  1  0.322213  0.996998  0.752351  1
  Sc  Sc18  1  0.178380  0.500135  0.249044  1
  Sc  Sc19  1  0.679454  0.001304  0.248008  1
  Pt  Pt20  1  0.685753  0.959405  0.458868  1
  Pt  Pt21  1  0.181797  0.542663  0.041421  1
  Pt  Pt22  1  0.317387  0.042677  0.960466  1
  Pt  Pt23  1  0.810709  0.458718  0.538226  1
  Pt  Pt24  1  0.321638  0.033341  0.539200  1
  Pt  Pt25  1  0.818255  0.457139  0.960097  1
  Pt  Pt26  1  0.682566  0.956967  0.041056  1
  Pt  Pt27  1  0.180893  0.547307  0.455143  1
  Pt  Pt28  1  0.458860  0.384735  0.752513  1
  Pt  Pt29  1  0.955433  0.112410  0.753700  1
  Pt  Pt30  1  0.543243  0.617657  0.248488  1
  Pt  Pt31  1  0.043974  0.881893  0.248613  1
  Pt  Pt32  1  0.679867  0.849343  0.751655  1
  Pt  Pt33  1  0.183000  0.648177  0.752635  1
  Pt  Pt34  1  0.316743  0.148500  0.248754  1
  Pt  Pt35  1  0.814550  0.353059  0.248529  1
