# generated using pymatgen
data_Ho8Tl3Ir
_symmetry_space_group_name_H-M   'P 1'
_cell_length_a   10.34685400
_cell_length_b   10.34685364
_cell_length_c   7.10957400
_cell_angle_alpha   90.00000000
_cell_angle_beta   90.00000000
_cell_angle_gamma   120.00000114
_symmetry_Int_Tables_number   1
_chemical_formula_structural   Ho8Tl3Ir
_chemical_formula_sum   'Ho16 Tl6 Ir2'
_cell_volume   659.15998103
_cell_formula_units_Z   2
loop_
 _symmetry_equiv_pos_site_id
 _symmetry_equiv_pos_as_xyz
  1  'x, y, z'
loop_
 _atom_site_type_symbol
 _atom_site_label
 _atom_site_symmetry_multiplicity
 _atom_site_fract_x
 _atom_site_fract_y
 _atom_site_fract_z
 _atom_site_occupancy
  Ho  Ho0  1  0.534799  0.069598  0.507126  1
  Ho  Ho1  1  0.930402  0.465201  0.507126  1
  Ho  Ho2  1  0.534799  0.465201  0.507126  1
  Ho  Ho3  1  0.465201  0.930402  0.007126  1
  Ho  Ho4  1  0.069598  0.534799  0.007126  1
  Ho  Ho5  1  0.465201  0.534799  0.007126  1
  Ho  Ho6  1  0.176205  0.352407  0.710849  1
  Ho  Ho7  1  0.647593  0.823795  0.710849  1
  Ho  Ho8  1  0.176205  0.823795  0.710849  1
  Ho  Ho9  1  0.823795  0.647593  0.210849  1
  Ho  Ho10  1  0.352407  0.176205  0.210849  1
  Ho  Ho11  1  0.823795  0.176205  0.210849  1
  Ho  Ho12  1  0.666667  0.333333  0.888363  1
  Ho  Ho13  1  0.333333  0.666667  0.388363  1
  Ho  Ho14  1  0.000000  0.000000  0.490637  1
  Ho  Ho15  1  0.000000  0.000000  0.990637  1
  Tl  Tl16  1  0.836818  0.673636  0.755397  1
  Tl  Tl17  1  0.326364  0.163182  0.755397  1
  Tl  Tl18  1  0.836818  0.163182  0.755397  1
  Tl  Tl19  1  0.163182  0.326364  0.255397  1
  Tl  Tl20  1  0.673636  0.836818  0.255397  1
  Tl  Tl21  1  0.163182  0.836818  0.255397  1
  Ir  Ir22  1  0.666667  0.333333  0.279904  1
  Ir  Ir23  1  0.333333  0.666667  0.779904  1
