# generated using pymatgen
data_Ho2ScB4Mo3Ru10
_symmetry_space_group_name_H-M   'P 1'
_cell_length_a   9.52176358
_cell_length_b   9.52786647
_cell_length_c   3.05202200
_cell_angle_alpha   90.00000000
_cell_angle_beta   90.00000000
_cell_angle_gamma   90.09040527
_symmetry_Int_Tables_number   1
_chemical_formula_structural   Ho2ScB4Mo3Ru10
_chemical_formula_sum   'Ho2 Sc1 B4 Mo3 Ru10'
_cell_volume   276.88547584
_cell_formula_units_Z   1
loop_
 _symmetry_equiv_pos_site_id
 _symmetry_equiv_pos_as_xyz
  1  'x, y, z'
loop_
 _atom_site_type_symbol
 _atom_site_label
 _atom_site_symmetry_multiplicity
 _atom_site_fract_x
 _atom_site_fract_y
 _atom_site_fract_z
 _atom_site_occupancy
  Ho  Ho0  1  0.174694  0.824218  0.000000  1
  Ho  Ho1  1  0.325904  0.325651  0.000000  1
  Sc  Sc2  1  0.675407  0.677222  0.000000  1
  B  B3  1  0.624081  0.378263  0.000000  1
  B  B4  1  0.383854  0.618731  0.000000  1
  B  B5  1  0.118604  0.121484  0.000000  1
  B  B6  1  0.874656  0.877528  0.000000  1
  Mo  Mo7  1  0.496543  0.996041  0.000000  1
  Mo  Mo8  1  0.000650  0.504219  0.000000  1
  Mo  Mo9  1  0.822238  0.177604  0.000000  1
  Ru  Ru10  1  0.509878  0.502067  0.500000  1
  Ru  Ru11  1  0.988157  0.008557  0.500000  1
  Ru  Ru12  1  0.584156  0.211757  0.500000  1
  Ru  Ru13  1  0.437185  0.782259  0.500000  1
  Ru  Ru14  1  0.056280  0.280726  0.500000  1
  Ru  Ru15  1  0.923169  0.716592  0.500000  1
  Ru  Ru16  1  0.280669  0.070692  0.500000  1
  Ru  Ru17  1  0.716429  0.939759  0.500000  1
  Ru  Ru18  1  0.218547  0.567777  0.500000  1
  Ru  Ru19  1  0.788899  0.418854  0.500000  1
