# generated using pymatgen
data_Y6InSiOs
_symmetry_space_group_name_H-M   'P 1'
_cell_length_a   8.56308408
_cell_length_b   8.56308397
_cell_length_c   8.56308517
_cell_angle_alpha   112.50596262
_cell_angle_beta   110.76313252
_cell_angle_gamma   105.23122242
_symmetry_Int_Tables_number   1
_chemical_formula_structural   Y6InSiOs
_chemical_formula_sum   'Y12 In2 Si2 Os2'
_cell_volume   481.27115236
_cell_formula_units_Z   2
loop_
 _symmetry_equiv_pos_site_id
 _symmetry_equiv_pos_as_xyz
  1  'x, y, z'
loop_
 _atom_site_type_symbol
 _atom_site_label
 _atom_site_symmetry_multiplicity
 _atom_site_fract_x
 _atom_site_fract_y
 _atom_site_fract_z
 _atom_site_occupancy
  Y  Y0  1  0.440251  0.239256  0.200995  1
  Y  Y1  1  0.559749  0.760744  0.799005  1
  Y  Y2  1  0.038261  0.239256  0.799005  1
  Y  Y3  1  0.961739  0.760744  0.200995  1
  Y  Y4  1  0.185310  0.273929  0.459239  1
  Y  Y5  1  0.814690  0.726071  0.540761  1
  Y  Y6  1  0.185310  0.726071  0.911381  1
  Y  Y7  1  0.814690  0.273929  0.088619  1
  Y  Y8  1  0.332443  0.641947  0.309505  1
  Y  Y9  1  0.667557  0.358053  0.690495  1
  Y  Y10  1  0.332443  0.022940  0.690495  1
  Y  Y11  1  0.667557  0.977060  0.309505  1
  In  In12  1  0.500000  0.500000  0.000000  1
  In  In13  1  0.000000  0.000000  0.000000  1
  Si  Si14  1  0.113706  0.613706  0.500000  1
  Si  Si15  1  0.886294  0.386294  0.500000  1
  Os  Os16  1  0.336274  0.000000  0.336274  1
  Os  Os17  1  0.663726  0.000000  0.663726  1
