# generated using pymatgen
data_Cs3LuIrBr9
_symmetry_space_group_name_H-M   'P 1'
_cell_length_a   7.92566800
_cell_length_b   7.92566628
_cell_length_c   19.73572900
_cell_angle_alpha   90.00000000
_cell_angle_beta   90.00000000
_cell_angle_gamma   119.99999048
_symmetry_Int_Tables_number   1
_chemical_formula_structural   Cs3LuIrBr9
_chemical_formula_sum   'Cs6 Lu2 Ir2 Br18'
_cell_volume   1073.63214126
_cell_formula_units_Z   2
loop_
 _symmetry_equiv_pos_site_id
 _symmetry_equiv_pos_as_xyz
  1  'x, y, z'
loop_
 _atom_site_type_symbol
 _atom_site_label
 _atom_site_symmetry_multiplicity
 _atom_site_fract_x
 _atom_site_fract_y
 _atom_site_fract_z
 _atom_site_occupancy
  Cs  Cs0  1  0.333333  0.666667  0.069136  1
  Cs  Cs1  1  0.666667  0.333333  0.930864  1
  Cs  Cs2  1  0.666667  0.333333  0.570154  1
  Cs  Cs3  1  0.333333  0.666667  0.429846  1
  Cs  Cs4  1  0.000000  0.000000  0.253592  1
  Cs  Cs5  1  0.000000  0.000000  0.746408  1
  Lu  Lu6  1  0.666667  0.333333  0.162574  1
  Lu  Lu7  1  0.333333  0.666667  0.837426  1
  Ir  Ir8  1  0.333333  0.666667  0.668210  1
  Ir  Ir9  1  0.666667  0.333333  0.331790  1
  Br  Br10  1  0.184209  0.368417  0.595672  1
  Br  Br11  1  0.815791  0.631583  0.404328  1
  Br  Br12  1  0.631583  0.815791  0.595672  1
  Br  Br13  1  0.831259  0.662520  0.090800  1
  Br  Br14  1  0.368417  0.184209  0.404328  1
  Br  Br15  1  0.168741  0.337480  0.909200  1
  Br  Br16  1  0.184209  0.815791  0.595672  1
  Br  Br17  1  0.337480  0.168741  0.090800  1
  Br  Br18  1  0.815791  0.184209  0.404328  1
  Br  Br19  1  0.662520  0.831259  0.909200  1
  Br  Br20  1  0.831259  0.168741  0.090800  1
  Br  Br21  1  0.168741  0.831259  0.909200  1
  Br  Br22  1  0.512543  0.025087  0.258164  1
  Br  Br23  1  0.487457  0.974913  0.741836  1
  Br  Br24  1  0.974913  0.487457  0.258164  1
  Br  Br25  1  0.025087  0.512543  0.741836  1
  Br  Br26  1  0.512543  0.487457  0.258164  1
  Br  Br27  1  0.487457  0.512543  0.741836  1
