# generated using pymatgen
data_YHoEr(P3Pd10)2
_symmetry_space_group_name_H-M   'P 1'
_cell_length_a   8.68127912
_cell_length_b   8.68127945
_cell_length_c   8.68128000
_cell_angle_alpha   59.99999790
_cell_angle_beta   59.99999664
_cell_angle_gamma   60.00000122
_symmetry_Int_Tables_number   1
_chemical_formula_structural   YHoEr(P3Pd10)2
_chemical_formula_sum   'Y1 Ho1 Er1 P6 Pd20'
_cell_volume   462.63257398
_cell_formula_units_Z   1
loop_
 _symmetry_equiv_pos_site_id
 _symmetry_equiv_pos_as_xyz
  1  'x, y, z'
loop_
 _atom_site_type_symbol
 _atom_site_label
 _atom_site_symmetry_multiplicity
 _atom_site_fract_x
 _atom_site_fract_y
 _atom_site_fract_z
 _atom_site_occupancy
  Y  Y0  1  0.250000  0.250000  0.250000  1
  Ho  Ho1  1  0.750000  0.750000  0.750000  1
  Er  Er2  1  0.000000  0.000000  0.000000  1
  P  P3  1  0.736828  0.263172  0.263172  1
  P  P4  1  0.736828  0.736828  0.263172  1
  P  P5  1  0.736828  0.263172  0.736828  1
  P  P6  1  0.263172  0.736828  0.263172  1
  P  P7  1  0.263172  0.736828  0.736828  1
  P  P8  1  0.263172  0.263172  0.736828  1
  Pd  Pd9  1  0.345073  0.999974  0.999974  1
  Pd  Pd10  1  0.999974  0.654978  0.345073  1
  Pd  Pd11  1  0.345073  0.999974  0.654978  1
  Pd  Pd12  1  0.999974  0.654978  0.999974  1
  Pd  Pd13  1  0.654978  0.345073  0.999974  1
  Pd  Pd14  1  0.615584  0.615584  0.153246  1
  Pd  Pd15  1  0.384505  0.846486  0.384505  1
  Pd  Pd16  1  0.153246  0.615584  0.615584  1
  Pd  Pd17  1  0.654978  0.999974  0.345073  1
  Pd  Pd18  1  0.999974  0.345073  0.654978  1
  Pd  Pd19  1  0.654978  0.999974  0.999974  1
  Pd  Pd20  1  0.999974  0.999974  0.345073  1
  Pd  Pd21  1  0.615584  0.153246  0.615584  1
  Pd  Pd22  1  0.345073  0.654978  0.999974  1
  Pd  Pd23  1  0.384505  0.384505  0.384505  1
  Pd  Pd24  1  0.615584  0.615584  0.615584  1
  Pd  Pd25  1  0.384505  0.384505  0.846486  1
  Pd  Pd26  1  0.999974  0.999974  0.654978  1
  Pd  Pd27  1  0.846486  0.384505  0.384505  1
  Pd  Pd28  1  0.999974  0.345073  0.999974  1
