# generated using pymatgen
data_Hf4FeCo2Si4Ir
_symmetry_space_group_name_H-M   'P 1'
_cell_length_a   3.89251300
_cell_length_b   6.40309949
_cell_length_c   7.17976188
_cell_angle_alpha   89.77690980
_cell_angle_beta   90.00000000
_cell_angle_gamma   90.00000000
_symmetry_Int_Tables_number   1
_chemical_formula_structural   Hf4FeCo2Si4Ir
_chemical_formula_sum   'Hf4 Fe1 Co2 Si4 Ir1'
_cell_volume   178.94809103
_cell_formula_units_Z   1
loop_
 _symmetry_equiv_pos_site_id
 _symmetry_equiv_pos_as_xyz
  1  'x, y, z'
loop_
 _atom_site_type_symbol
 _atom_site_label
 _atom_site_symmetry_multiplicity
 _atom_site_fract_x
 _atom_site_fract_y
 _atom_site_fract_z
 _atom_site_occupancy
  Hf  Hf0  1  0.250000  0.003447  0.314601  1
  Hf  Hf1  1  0.250000  0.515821  0.196608  1
  Hf  Hf2  1  0.750000  0.987347  0.681480  1
  Hf  Hf3  1  0.750000  0.490690  0.803535  1
  Fe  Fe4  1  0.750000  0.845316  0.063756  1
  Co  Co5  1  0.250000  0.646555  0.568608  1
  Co  Co6  1  0.750000  0.354544  0.432011  1
  Si  Si7  1  0.250000  0.282739  0.600580  1
  Si  Si8  1  0.250000  0.780320  0.888911  1
  Si  Si9  1  0.750000  0.718417  0.389300  1
  Si  Si10  1  0.750000  0.216767  0.125042  1
  Ir  Ir11  1  0.250000  0.158037  0.935566  1
