# generated using pymatgen
data_CeLuTcB6
_symmetry_space_group_name_H-M   'P 1'
_cell_length_a   3.69752500
_cell_length_b   9.12566300
_cell_length_c   11.52399000
_cell_angle_alpha   90.00000000
_cell_angle_beta   90.00000000
_cell_angle_gamma   90.00000000
_symmetry_Int_Tables_number   1
_chemical_formula_structural   CeLuTcB6
_chemical_formula_sum   'Ce4 Lu4 Tc4 B24'
_cell_volume   388.84670085
_cell_formula_units_Z   4
loop_
 _symmetry_equiv_pos_site_id
 _symmetry_equiv_pos_as_xyz
  1  'x, y, z'
loop_
 _atom_site_type_symbol
 _atom_site_label
 _atom_site_symmetry_multiplicity
 _atom_site_fract_x
 _atom_site_fract_y
 _atom_site_fract_z
 _atom_site_occupancy
  Ce  Ce0  1  0.000000  0.322343  0.414278  1
  Ce  Ce1  1  0.000000  0.677657  0.585722  1
  Ce  Ce2  1  0.000000  0.822343  0.085722  1
  Ce  Ce3  1  0.000000  0.177657  0.914278  1
  Lu  Lu4  1  0.000000  0.944694  0.372244  1
  Lu  Lu5  1  0.000000  0.055306  0.627756  1
  Lu  Lu6  1  0.000000  0.444694  0.127756  1
  Lu  Lu7  1  0.000000  0.555306  0.872244  1
  Tc  Tc8  1  0.000000  0.639634  0.320075  1
  Tc  Tc9  1  0.000000  0.360366  0.679925  1
  Tc  Tc10  1  0.000000  0.139634  0.179925  1
  Tc  Tc11  1  0.000000  0.860366  0.820075  1
  B  B12  1  0.500000  0.555082  0.431560  1
  B  B13  1  0.500000  0.444918  0.568440  1
  B  B14  1  0.500000  0.055082  0.068440  1
  B  B15  1  0.500000  0.944918  0.931560  1
  B  B16  1  0.500000  0.750727  0.418488  1
  B  B17  1  0.500000  0.249273  0.581512  1
  B  B18  1  0.500000  0.250727  0.081512  1
  B  B19  1  0.500000  0.749273  0.918488  1
  B  B20  1  0.500000  0.792510  0.265832  1
  B  B21  1  0.500000  0.207490  0.734168  1
  B  B22  1  0.500000  0.292510  0.234168  1
  B  B23  1  0.500000  0.707490  0.765832  1
  B  B24  1  0.500000  0.630825  0.185199  1
  B  B25  1  0.500000  0.369175  0.814801  1
  B  B26  1  0.500000  0.130825  0.314801  1
  B  B27  1  0.500000  0.869175  0.685199  1
  B  B28  1  0.500000  0.983493  0.213398  1
  B  B29  1  0.500000  0.016507  0.786602  1
  B  B30  1  0.500000  0.483493  0.286602  1
  B  B31  1  0.500000  0.516507  0.713398  1
  B  B32  1  0.500000  0.602625  0.028298  1
  B  B33  1  0.500000  0.397375  0.971702  1
  B  B34  1  0.500000  0.102625  0.471702  1
  B  B35  1  0.500000  0.897375  0.528298  1
