# generated using pymatgen
data_CaTlWF7
_symmetry_space_group_name_H-M   'P 1'
_cell_length_a   6.57591200
_cell_length_b   6.57591024
_cell_length_c   8.61514000
_cell_angle_alpha   90.00000000
_cell_angle_beta   90.00000000
_cell_angle_gamma   116.60887193
_symmetry_Int_Tables_number   1
_chemical_formula_structural   CaTlWF7
_chemical_formula_sum   'Ca2 Tl2 W2 F14'
_cell_volume   333.08338166
_cell_formula_units_Z   2
loop_
 _symmetry_equiv_pos_site_id
 _symmetry_equiv_pos_as_xyz
  1  'x, y, z'
loop_
 _atom_site_type_symbol
 _atom_site_label
 _atom_site_symmetry_multiplicity
 _atom_site_fract_x
 _atom_site_fract_y
 _atom_site_fract_z
 _atom_site_occupancy
  Ca  Ca0  1  0.309817  0.690183  0.750000  1
  Ca  Ca1  1  0.690183  0.309817  0.250000  1
  Tl  Tl2  1  0.000000  0.000000  0.000000  1
  Tl  Tl3  1  0.000000  0.000000  0.500000  1
  W  W4  1  0.694083  0.305917  0.750000  1
  W  W5  1  0.305917  0.694083  0.250000  1
  F  F6  1  0.512203  0.487797  0.750000  1
  F  F7  1  0.487797  0.512203  0.250000  1
  F  F8  1  0.699702  0.300298  0.989454  1
  F  F9  1  0.300298  0.699702  0.010546  1
  F  F10  1  0.300298  0.699702  0.489454  1
  F  F11  1  0.699702  0.300298  0.510546  1
  F  F12  1  0.673633  0.979822  0.750000  1
  F  F13  1  0.326367  0.020178  0.250000  1
  F  F14  1  0.020178  0.326367  0.750000  1
  F  F15  1  0.979822  0.673633  0.250000  1
  F  F16  1  0.351411  0.067767  0.750000  1
  F  F17  1  0.648589  0.932233  0.250000  1
  F  F18  1  0.932233  0.648589  0.750000  1
  F  F19  1  0.067767  0.351411  0.250000  1
