# generated using pymatgen
data_LaTh(NiAs)4
_symmetry_space_group_name_H-M   'P 1'
_cell_length_a   4.25560800
_cell_length_b   4.25560800
_cell_length_c   9.45966100
_cell_angle_alpha   90.00000000
_cell_angle_beta   90.00000000
_cell_angle_gamma   90.00000000
_symmetry_Int_Tables_number   1
_chemical_formula_structural   LaTh(NiAs)4
_chemical_formula_sum   'La1 Th1 Ni4 As4'
_cell_volume   171.31634744
_cell_formula_units_Z   1
loop_
 _symmetry_equiv_pos_site_id
 _symmetry_equiv_pos_as_xyz
  1  'x, y, z'
loop_
 _atom_site_type_symbol
 _atom_site_label
 _atom_site_symmetry_multiplicity
 _atom_site_fract_x
 _atom_site_fract_y
 _atom_site_fract_z
 _atom_site_occupancy
  La  La0  1  0.500000  0.000000  0.255137  1
  Th  Th1  1  0.000000  0.500000  0.742824  1
  Ni  Ni2  1  0.000000  0.500000  0.113989  1
  Ni  Ni3  1  0.000000  0.000000  0.506662  1
  Ni  Ni4  1  0.500000  0.000000  0.878585  1
  Ni  Ni5  1  0.500000  0.500000  0.506662  1
  As  As6  1  0.000000  0.500000  0.372673  1
  As  As7  1  0.000000  0.000000  0.997660  1
  As  As8  1  0.500000  0.000000  0.628148  1
  As  As9  1  0.500000  0.500000  0.997660  1
