# generated using pymatgen
data_SrEu(Sn2Pd)2
_symmetry_space_group_name_H-M   'P 1'
_cell_length_a   6.23677005
_cell_length_b   6.23677009
_cell_length_c   7.60332700
_cell_angle_alpha   90.00000000
_cell_angle_beta   90.00000000
_cell_angle_gamma   137.11831139
_symmetry_Int_Tables_number   1
_chemical_formula_structural   SrEu(Sn2Pd)2
_chemical_formula_sum   'Sr1 Eu1 Sn4 Pd2'
_cell_volume   201.25319687
_cell_formula_units_Z   1
loop_
 _symmetry_equiv_pos_site_id
 _symmetry_equiv_pos_as_xyz
  1  'x, y, z'
loop_
 _atom_site_type_symbol
 _atom_site_label
 _atom_site_symmetry_multiplicity
 _atom_site_fract_x
 _atom_site_fract_y
 _atom_site_fract_z
 _atom_site_occupancy
  Sr  Sr0  1  0.068802  0.931198  0.250000  1
  Eu  Eu1  1  0.930425  0.069575  0.750000  1
  Sn  Sn2  1  0.645904  0.354096  0.949401  1
  Sn  Sn3  1  0.354650  0.645350  0.046015  1
  Sn  Sn4  1  0.354650  0.645350  0.453985  1
  Sn  Sn5  1  0.645904  0.354096  0.550599  1
  Pd  Pd6  1  0.204596  0.795404  0.750000  1
  Pd  Pd7  1  0.795072  0.204928  0.250000  1
