# generated using pymatgen
data_Sc20CoSiBi10
_symmetry_space_group_name_H-M   'P 1'
_cell_length_a   7.63225527
_cell_length_b   8.89007800
_cell_length_c   11.33652547
_cell_angle_alpha   90.00000000
_cell_angle_beta   90.03171074
_cell_angle_gamma   90.00000000
_symmetry_Int_Tables_number   1
_chemical_formula_structural   Sc20CoSiBi10
_chemical_formula_sum   'Sc20 Co1 Si1 Bi10'
_cell_volume   769.19837907
_cell_formula_units_Z   1
loop_
 _symmetry_equiv_pos_site_id
 _symmetry_equiv_pos_as_xyz
  1  'x, y, z'
loop_
 _atom_site_type_symbol
 _atom_site_label
 _atom_site_symmetry_multiplicity
 _atom_site_fract_x
 _atom_site_fract_y
 _atom_site_fract_z
 _atom_site_occupancy
  Sc  Sc0  1  0.188373  0.041623  0.936491  1
  Sc  Sc1  1  0.316179  0.019065  0.439493  1
  Sc  Sc2  1  0.316179  0.480935  0.439493  1
  Sc  Sc3  1  0.344426  0.750000  0.696312  1
  Sc  Sc4  1  0.459312  0.750000  0.002700  1
  Sc  Sc5  1  0.162093  0.250000  0.220375  1
  Sc  Sc6  1  0.814612  0.925921  0.061712  1
  Sc  Sc7  1  0.622162  0.750000  0.303983  1
  Sc  Sc8  1  0.048547  0.750000  0.502411  1
  Sc  Sc9  1  0.674959  0.922653  0.560527  1
  Sc  Sc10  1  0.188373  0.458377  0.936491  1
  Sc  Sc11  1  0.340015  0.250000  0.721023  1
  Sc  Sc12  1  0.169731  0.750000  0.214370  1
  Sc  Sc13  1  0.989002  0.250000  0.492735  1
  Sc  Sc14  1  0.674959  0.577347  0.560527  1
  Sc  Sc15  1  0.684801  0.250000  0.269178  1
  Sc  Sc16  1  0.814612  0.574079  0.061712  1
  Sc  Sc17  1  0.514913  0.250000  0.993127  1
  Sc  Sc18  1  0.822646  0.250000  0.771893  1
  Sc  Sc19  1  0.859840  0.750000  0.797834  1
  Co  Co20  1  0.418340  0.750000  0.483673  1
  Si  Si21  1  0.086977  0.750000  0.981439  1
  Bi  Bi22  1  0.063085  0.491880  0.675658  1
  Bi  Bi23  1  0.565653  0.510953  0.825453  1
  Bi  Bi24  1  0.931676  0.987245  0.324734  1
  Bi  Bi25  1  0.434637  0.010105  0.173912  1
  Bi  Bi26  1  0.565653  0.989047  0.825453  1
  Bi  Bi27  1  0.434637  0.489895  0.173912  1
  Bi  Bi28  1  0.063085  0.008120  0.675658  1
  Bi  Bi29  1  0.931676  0.512755  0.324734  1
  Bi  Bi30  1  0.593100  0.250000  0.524699  1
  Bi  Bi31  1  0.905743  0.250000  0.028290  1
