# generated using pymatgen
data_V2HN
_symmetry_space_group_name_H-M   'P 1'
_cell_length_a   4.99784458
_cell_length_b   4.99784453
_cell_length_c   4.99784588
_cell_angle_alpha   32.87476766
_cell_angle_beta   32.87477024
_cell_angle_gamma   32.87475628
_symmetry_Int_Tables_number   1
_chemical_formula_structural   V2HN
_chemical_formula_sum   'V2 H1 N1'
_cell_volume   32.72618529
_cell_formula_units_Z   1
loop_
 _symmetry_equiv_pos_site_id
 _symmetry_equiv_pos_as_xyz
  1  'x, y, z'
loop_
 _atom_site_type_symbol
 _atom_site_label
 _atom_site_symmetry_multiplicity
 _atom_site_fract_x
 _atom_site_fract_y
 _atom_site_fract_z
 _atom_site_occupancy
  V  V0  1  0.249822  0.249822  0.249822  1
  V  V1  1  0.750178  0.750178  0.750178  1
  H  H2  1  0.000000  0.000000  0.000000  1
  N  N3  1  0.500000  0.500000  0.500000  1
