# generated using pymatgen
data_Dy17Ho3(Bi2Os)4
_symmetry_space_group_name_H-M   'P 1'
_cell_length_a   7.96460107
_cell_length_b   9.03012536
_cell_length_c   12.51160445
_cell_angle_alpha   90.02949516
_cell_angle_beta   89.99162014
_cell_angle_gamma   89.98694269
_symmetry_Int_Tables_number   1
_chemical_formula_structural   Dy17Ho3(Bi2Os)4
_chemical_formula_sum   'Dy17 Ho3 Bi8 Os4'
_cell_volume   899.85128170
_cell_formula_units_Z   1
loop_
 _symmetry_equiv_pos_site_id
 _symmetry_equiv_pos_as_xyz
  1  'x, y, z'
loop_
 _atom_site_type_symbol
 _atom_site_label
 _atom_site_symmetry_multiplicity
 _atom_site_fract_x
 _atom_site_fract_y
 _atom_site_fract_z
 _atom_site_occupancy
  Dy  Dy0  1  0.839520  0.749858  0.791977  1
  Dy  Dy1  1  0.160437  0.250125  0.207981  1
  Dy  Dy2  1  0.339518  0.250139  0.708084  1
  Dy  Dy3  1  0.660609  0.749907  0.291919  1
  Dy  Dy4  1  0.374933  0.749847  0.690954  1
  Dy  Dy5  1  0.625294  0.250192  0.309088  1
  Dy  Dy6  1  0.874888  0.250256  0.809161  1
  Dy  Dy7  1  0.125102  0.749738  0.190814  1
  Dy  Dy8  1  0.943249  0.749836  0.504297  1
  Dy  Dy9  1  0.056453  0.250090  0.495742  1
  Dy  Dy10  1  0.443420  0.250235  0.995670  1
  Dy  Dy11  1  0.556659  0.749767  0.004297  1
  Dy  Dy12  1  0.674084  0.041673  0.564745  1
  Dy  Dy13  1  0.325818  0.958373  0.435238  1
  Dy  Dy14  1  0.174122  0.958317  0.935234  1
  Dy  Dy15  1  0.326165  0.541566  0.435341  1
  Dy  Dy16  1  0.825837  0.041650  0.064751  1
  Ho  Ho17  1  0.673481  0.458377  0.564688  1
  Ho  Ho18  1  0.826855  0.458422  0.064599  1
  Ho  Ho19  1  0.173090  0.541679  0.935395  1
  Bi  Bi20  1  0.566432  0.493331  0.827518  1
  Bi  Bi21  1  0.433612  0.506651  0.172411  1
  Bi  Bi22  1  0.066468  0.506658  0.672503  1
  Bi  Bi23  1  0.433317  0.993283  0.172519  1
  Bi  Bi24  1  0.933324  0.493290  0.327422  1
  Bi  Bi25  1  0.566667  0.006717  0.827490  1
  Bi  Bi26  1  0.933353  0.006720  0.327477  1
  Bi  Bi27  1  0.066651  0.993300  0.672530  1
  Os  Os28  1  0.575774  0.749755  0.509870  1
  Os  Os29  1  0.424901  0.250238  0.490255  1
  Os  Os30  1  0.075239  0.250524  0.990257  1
  Os  Os31  1  0.924728  0.749485  0.009773  1
