# generated using pymatgen
data_ZrSc(NbSe2)8
_symmetry_space_group_name_H-M   'P 1'
_cell_length_a   7.00600000
_cell_length_b   7.00600002
_cell_length_c   13.57090100
_cell_angle_alpha   90.00000000
_cell_angle_beta   90.00000000
_cell_angle_gamma   119.99999991
_symmetry_Int_Tables_number   1
_chemical_formula_structural   ZrSc(NbSe2)8
_chemical_formula_sum   'Zr1 Sc1 Nb8 Se16'
_cell_volume   576.87216158
_cell_formula_units_Z   1
loop_
 _symmetry_equiv_pos_site_id
 _symmetry_equiv_pos_as_xyz
  1  'x, y, z'
loop_
 _atom_site_type_symbol
 _atom_site_label
 _atom_site_symmetry_multiplicity
 _atom_site_fract_x
 _atom_site_fract_y
 _atom_site_fract_z
 _atom_site_occupancy
  Zr  Zr0  1  0.000000  0.000000  0.500000  1
  Sc  Sc1  1  0.000000  0.000000  0.000000  1
  Nb  Nb2  1  0.000000  0.000000  0.249054  1
  Nb  Nb3  1  0.000000  0.000000  0.750946  1
  Nb  Nb4  1  0.506975  0.013949  0.248346  1
  Nb  Nb5  1  0.986051  0.493025  0.248346  1
  Nb  Nb6  1  0.506975  0.493025  0.248346  1
  Nb  Nb7  1  0.493025  0.986051  0.751654  1
  Nb  Nb8  1  0.013949  0.506975  0.751654  1
  Nb  Nb9  1  0.493025  0.506975  0.751654  1
  Se  Se10  1  0.333333  0.666667  0.878873  1
  Se  Se11  1  0.666667  0.333333  0.121127  1
  Se  Se12  1  0.666667  0.333333  0.375367  1
  Se  Se13  1  0.333333  0.666667  0.624633  1
  Se  Se14  1  0.169555  0.830445  0.372020  1
  Se  Se15  1  0.169555  0.339111  0.372020  1
  Se  Se16  1  0.660889  0.830445  0.372020  1
  Se  Se17  1  0.830445  0.169555  0.627980  1
  Se  Se18  1  0.830445  0.660889  0.627980  1
  Se  Se19  1  0.339111  0.169555  0.627980  1
  Se  Se20  1  0.830642  0.169358  0.873990  1
  Se  Se21  1  0.830642  0.661284  0.873990  1
  Se  Se22  1  0.338716  0.169358  0.873990  1
  Se  Se23  1  0.169358  0.830642  0.126010  1
  Se  Se24  1  0.169358  0.338716  0.126010  1
  Se  Se25  1  0.661284  0.830642  0.126010  1
