# generated using pymatgen
data_Ho4MgAl2InRh4
_symmetry_space_group_name_H-M   'P 1'
_cell_length_a   4.17165800
_cell_length_b   6.99719704
_cell_length_c   8.26912942
_cell_angle_alpha   90.69942686
_cell_angle_beta   90.00000000
_cell_angle_gamma   90.00000000
_symmetry_Int_Tables_number   1
_chemical_formula_structural   Ho4MgAl2InRh4
_chemical_formula_sum   'Ho4 Mg1 Al2 In1 Rh4'
_cell_volume   241.35718404
_cell_formula_units_Z   1
loop_
 _symmetry_equiv_pos_site_id
 _symmetry_equiv_pos_as_xyz
  1  'x, y, z'
loop_
 _atom_site_type_symbol
 _atom_site_label
 _atom_site_symmetry_multiplicity
 _atom_site_fract_x
 _atom_site_fract_y
 _atom_site_fract_z
 _atom_site_occupancy
  Ho  Ho0  1  0.250000  0.545383  0.173173  1
  Ho  Ho1  1  0.750000  0.456201  0.827199  1
  Ho  Ho2  1  0.750000  0.965078  0.683988  1
  Ho  Ho3  1  0.250000  0.031915  0.315427  1
  Mg  Mg4  1  0.750000  0.360720  0.435705  1
  Al  Al5  1  0.750000  0.864409  0.058020  1
  Al  Al6  1  0.250000  0.134407  0.943230  1
  In  In7  1  0.250000  0.639281  0.564787  1
  Rh  Rh8  1  0.250000  0.768528  0.890551  1
  Rh  Rh9  1  0.750000  0.235320  0.109782  1
  Rh  Rh10  1  0.750000  0.754116  0.359682  1
  Rh  Rh11  1  0.250000  0.244641  0.638455  1
