# generated using pymatgen
data_SrAlCo7O16
_symmetry_space_group_name_H-M   'P 1'
_cell_length_a   5.71353392
_cell_length_b   6.81193798
_cell_length_c   6.91901858
_cell_angle_alpha   88.70742704
_cell_angle_beta   78.31152742
_cell_angle_gamma   77.73370092
_symmetry_Int_Tables_number   1
_chemical_formula_structural   SrAlCo7O16
_chemical_formula_sum   'Sr1 Al1 Co7 O16'
_cell_volume   257.62648887
_cell_formula_units_Z   1
loop_
 _symmetry_equiv_pos_site_id
 _symmetry_equiv_pos_as_xyz
  1  'x, y, z'
loop_
 _atom_site_type_symbol
 _atom_site_label
 _atom_site_symmetry_multiplicity
 _atom_site_fract_x
 _atom_site_fract_y
 _atom_site_fract_z
 _atom_site_occupancy
  Sr  Sr0  1  0.004509  0.987771  0.005300  1
  Al  Al1  1  0.580699  0.517277  0.179312  1
  Co  Co2  1  0.086494  0.507625  0.183117  1
  Co  Co3  1  0.171993  0.817482  0.518693  1
  Co  Co4  1  0.666048  0.817109  0.524428  1
  Co  Co5  1  0.335992  0.183193  0.479890  1
  Co  Co6  1  0.837057  0.185545  0.482752  1
  Co  Co7  1  0.430380  0.484560  0.816115  1
  Co  Co8  1  0.927996  0.487877  0.816377  1
  O  O9  1  0.835871  0.647687  0.050474  1
  O  O10  1  0.326206  0.648657  0.048345  1
  O  O11  1  0.981604  0.703085  0.380642  1
  O  O12  1  0.482428  0.702240  0.388187  1
  O  O13  1  0.854693  0.959914  0.649657  1
  O  O14  1  0.347613  0.959686  0.652341  1
  O  O15  1  0.340965  0.373029  0.283555  1
  O  O16  1  0.840613  0.362505  0.283581  1
  O  O17  1  0.167965  0.633230  0.714936  1
  O  O18  1  0.666395  0.630972  0.715585  1
  O  O19  1  0.151737  0.040262  0.353713  1
  O  O20  1  0.657046  0.039218  0.355790  1
  O  O21  1  0.024023  0.303846  0.615505  1
  O  O22  1  0.523767  0.305641  0.612560  1
  O  O23  1  0.179134  0.350125  0.945892  1
  O  O24  1  0.685872  0.351463  0.943247  1
