# generated using pymatgen
data_Eu3Ga2(SbP)2
_symmetry_space_group_name_H-M   'P 1'
_cell_length_a   8.62840233
_cell_length_b   8.62840291
_cell_length_c   6.81766919
_cell_angle_alpha   90.24323218
_cell_angle_beta   90.24324321
_cell_angle_gamma   75.62418729
_symmetry_Int_Tables_number   1
_chemical_formula_structural   Eu3Ga2(SbP)2
_chemical_formula_sum   'Eu6 Ga4 Sb4 P4'
_cell_volume   491.67078560
_cell_formula_units_Z   2
loop_
 _symmetry_equiv_pos_site_id
 _symmetry_equiv_pos_as_xyz
  1  'x, y, z'
loop_
 _atom_site_type_symbol
 _atom_site_label
 _atom_site_symmetry_multiplicity
 _atom_site_fract_x
 _atom_site_fract_y
 _atom_site_fract_z
 _atom_site_occupancy
  Eu  Eu0  1  0.000005  0.734923  0.517578  1
  Eu  Eu1  1  0.265077  0.999995  0.982422  1
  Eu  Eu2  1  0.999995  0.265077  0.482422  1
  Eu  Eu3  1  0.734923  0.000005  0.017578  1
  Eu  Eu4  1  0.416060  0.583940  0.250000  1
  Eu  Eu5  1  0.583940  0.416060  0.750000  1
  Ga  Ga6  1  0.805382  0.593597  0.103260  1
  Ga  Ga7  1  0.406403  0.194618  0.396740  1
  Ga  Ga8  1  0.194618  0.406403  0.896740  1
  Ga  Ga9  1  0.593597  0.805382  0.603260  1
  Sb  Sb10  1  0.065114  0.714125  0.017894  1
  Sb  Sb11  1  0.285875  0.934886  0.482106  1
  Sb  Sb12  1  0.934886  0.285875  0.982106  1
  Sb  Sb13  1  0.714125  0.065114  0.517894  1
  P  P14  1  0.739062  0.563043  0.441561  1
  P  P15  1  0.436957  0.260938  0.058439  1
  P  P16  1  0.260938  0.436957  0.558439  1
  P  P17  1  0.563043  0.739062  0.941561  1
