# generated using pymatgen
data_Zr6MnNb4Al12(IrRu)3
_symmetry_space_group_name_H-M   'P 1'
_cell_length_a   8.84626013
_cell_length_b   8.84625957
_cell_length_c   8.84682800
_cell_angle_alpha   60.00212234
_cell_angle_beta   60.00212445
_cell_angle_gamma   60.00000218
_symmetry_Int_Tables_number   1
_chemical_formula_structural   Zr6MnNb4Al12(IrRu)3
_chemical_formula_sum   'Zr6 Mn1 Nb4 Al12 Ir3 Ru3'
_cell_volume   489.55998781
_cell_formula_units_Z   1
loop_
 _symmetry_equiv_pos_site_id
 _symmetry_equiv_pos_as_xyz
  1  'x, y, z'
loop_
 _atom_site_type_symbol
 _atom_site_label
 _atom_site_symmetry_multiplicity
 _atom_site_fract_x
 _atom_site_fract_y
 _atom_site_fract_z
 _atom_site_occupancy
  Zr  Zr0  1  0.694040  0.694040  0.306488  1
  Zr  Zr1  1  0.305431  0.694040  0.306488  1
  Zr  Zr2  1  0.694040  0.305431  0.306488  1
  Zr  Zr3  1  0.307327  0.307327  0.692982  1
  Zr  Zr4  1  0.692363  0.307327  0.692982  1
  Zr  Zr5  1  0.307327  0.692363  0.692982  1
  Mn  Mn6  1  0.000607  0.000607  0.998179  1
  Nb  Nb7  1  0.882060  0.882060  0.353818  1
  Nb  Nb8  1  0.883692  0.352478  0.880137  1
  Nb  Nb9  1  0.352478  0.883692  0.880137  1
  Nb  Nb10  1  0.883692  0.883692  0.880137  1
  Al  Al11  1  0.119306  0.119306  0.642084  1
  Al  Al12  1  0.118276  0.642753  0.120695  1
  Al  Al13  1  0.642753  0.118276  0.120695  1
  Al  Al14  1  0.118276  0.118276  0.120695  1
  Al  Al15  1  0.661596  0.661596  0.015212  1
  Al  Al16  1  0.663590  0.010840  0.661978  1
  Al  Al17  1  0.010840  0.663590  0.661978  1
  Al  Al18  1  0.663590  0.663590  0.661978  1
  Al  Al19  1  0.336407  0.336407  0.990781  1
  Al  Al20  1  0.334636  0.994010  0.336720  1
  Al  Al21  1  0.994010  0.334636  0.336720  1
  Al  Al22  1  0.334636  0.334636  0.336720  1
  Ir  Ir23  1  0.500965  0.500965  0.998919  1
  Ir  Ir24  1  0.999150  0.500965  0.998919  1
  Ir  Ir25  1  0.500965  0.999150  0.998919  1
  Ru  Ru26  1  0.998291  0.998291  0.502055  1
  Ru  Ru27  1  0.501363  0.998291  0.502055  1
  Ru  Ru28  1  0.998291  0.501363  0.502055  1
