# generated using pymatgen
data_Na5Si2AgSe7
_symmetry_space_group_name_H-M   'P 1'
_cell_length_a   7.18536480
_cell_length_b   7.18536486
_cell_length_c   15.61202462
_cell_angle_alpha   80.90618981
_cell_angle_beta   80.90618940
_cell_angle_gamma   96.57330562
_symmetry_Int_Tables_number   1
_chemical_formula_structural   Na5Si2AgSe7
_chemical_formula_sum   'Na10 Si4 Ag2 Se14'
_cell_volume   777.82532207
_cell_formula_units_Z   2
loop_
 _symmetry_equiv_pos_site_id
 _symmetry_equiv_pos_as_xyz
  1  'x, y, z'
loop_
 _atom_site_type_symbol
 _atom_site_label
 _atom_site_symmetry_multiplicity
 _atom_site_fract_x
 _atom_site_fract_y
 _atom_site_fract_z
 _atom_site_occupancy
  Na  Na0  1  0.022946  0.734728  0.581405  1
  Na  Na1  1  0.265272  0.977054  0.918595  1
  Na  Na2  1  0.977054  0.265272  0.418595  1
  Na  Na3  1  0.734728  0.022946  0.081405  1
  Na  Na4  1  0.500000  0.500000  0.500000  1
  Na  Na5  1  0.500000  0.500000  0.000000  1
  Na  Na6  1  0.964806  0.518473  0.141338  1
  Na  Na7  1  0.481527  0.035194  0.358662  1
  Na  Na8  1  0.035194  0.481527  0.858662  1
  Na  Na9  1  0.518473  0.964806  0.641338  1
  Si  Si10  1  0.918733  0.764534  0.358437  1
  Si  Si11  1  0.235466  0.081267  0.141563  1
  Si  Si12  1  0.081267  0.235466  0.641563  1
  Si  Si13  1  0.764534  0.918733  0.858437  1
  Ag  Ag14  1  0.414115  0.585885  0.250000  1
  Ag  Ag15  1  0.585885  0.414115  0.750000  1
  Se  Se16  1  0.740638  0.871219  0.470808  1
  Se  Se17  1  0.128781  0.259362  0.029192  1
  Se  Se18  1  0.259362  0.128781  0.529192  1
  Se  Se19  1  0.871219  0.740638  0.970808  1
  Se  Se20  1  0.197633  0.677925  0.391916  1
  Se  Se21  1  0.322075  0.802367  0.108084  1
  Se  Se22  1  0.802367  0.322075  0.608084  1
  Se  Se23  1  0.677925  0.197633  0.891916  1
  Se  Se24  1  0.744883  0.519193  0.315963  1
  Se  Se25  1  0.480807  0.255117  0.184037  1
  Se  Se26  1  0.255117  0.480807  0.684037  1
  Se  Se27  1  0.519193  0.744883  0.815963  1
  Se  Se28  1  0.959890  0.040110  0.250000  1
  Se  Se29  1  0.040110  0.959890  0.750000  1
