# generated using pymatgen
data_Ho2TmAlZn2Ge2Pd
_symmetry_space_group_name_H-M   'P 1'
_cell_length_a   6.87988600
_cell_length_b   6.87988618
_cell_length_c   4.28201300
_cell_angle_alpha   90.00000000
_cell_angle_beta   90.00000000
_cell_angle_gamma   119.89588928
_symmetry_Int_Tables_number   1
_chemical_formula_structural   Ho2TmAlZn2Ge2Pd
_chemical_formula_sum   'Ho2 Tm1 Al1 Zn2 Ge2 Pd1'
_cell_volume   175.70971186
_cell_formula_units_Z   1
loop_
 _symmetry_equiv_pos_site_id
 _symmetry_equiv_pos_as_xyz
  1  'x, y, z'
loop_
 _atom_site_type_symbol
 _atom_site_label
 _atom_site_symmetry_multiplicity
 _atom_site_fract_x
 _atom_site_fract_y
 _atom_site_fract_z
 _atom_site_occupancy
  Ho  Ho0  1  0.585814  0.999408  0.000000  1
  Ho  Ho1  1  0.996134  0.578448  0.000000  1
  Tm  Tm2  1  0.417256  0.420470  0.000000  1
  Al  Al3  1  0.227075  0.000210  0.500000  1
  Zn  Zn4  1  0.999144  0.238072  0.500000  1
  Zn  Zn5  1  0.760652  0.761569  0.500000  1
  Ge  Ge6  1  0.334023  0.668873  0.500000  1
  Ge  Ge7  1  0.662254  0.330786  0.500000  1
  Pd  Pd8  1  0.017649  0.002164  0.000000  1
