# generated using pymatgen
data_La16Dy3TmSn16
_symmetry_space_group_name_H-M   'P 1'
_cell_length_a   8.41565801
_cell_length_b   8.50987401
_cell_length_c   16.27202500
_cell_angle_alpha   90.00000000
_cell_angle_beta   90.00000000
_cell_angle_gamma   90.00620840
_symmetry_Int_Tables_number   1
_chemical_formula_structural   La16Dy3TmSn16
_chemical_formula_sum   'La16 Dy3 Tm1 Sn16'
_cell_volume   1165.34041776
_cell_formula_units_Z   1
loop_
 _symmetry_equiv_pos_site_id
 _symmetry_equiv_pos_as_xyz
  1  'x, y, z'
loop_
 _atom_site_type_symbol
 _atom_site_label
 _atom_site_symmetry_multiplicity
 _atom_site_fract_x
 _atom_site_fract_y
 _atom_site_fract_z
 _atom_site_occupancy
  La  La0  1  0.972774  0.818926  0.899433  1
  La  La1  1  0.472772  0.680992  0.600612  1
  La  La2  1  0.527338  0.318704  0.100628  1
  La  La3  1  0.027070  0.181017  0.399345  1
  La  La4  1  0.972774  0.818926  0.600567  1
  La  La5  1  0.472772  0.680992  0.899388  1
  La  La6  1  0.527338  0.318704  0.399372  1
  La  La7  1  0.027070  0.181017  0.100655  1
  La  La8  1  0.879523  0.660531  0.382256  1
  La  La9  1  0.380059  0.839831  0.117762  1
  La  La10  1  0.620266  0.160371  0.617632  1
  La  La11  1  0.120280  0.339627  0.882298  1
  La  La12  1  0.120280  0.339627  0.617702  1
  La  La13  1  0.620266  0.160371  0.882368  1
  La  La14  1  0.380059  0.839831  0.382238  1
  La  La15  1  0.879523  0.660531  0.117744  1
  Dy  Dy16  1  0.288236  0.002938  0.750000  1
  Dy  Dy17  1  0.788243  0.497070  0.750000  1
  Dy  Dy18  1  0.211768  0.502742  0.250000  1
  Tm  Tm19  1  0.712215  0.996945  0.250000  1
  Sn  Sn20  1  0.781256  0.470288  0.546120  1
  Sn  Sn21  1  0.281193  0.029725  0.953850  1
  Sn  Sn22  1  0.718709  0.970446  0.453495  1
  Sn  Sn23  1  0.218731  0.529696  0.046157  1
  Sn  Sn24  1  0.218731  0.529696  0.453843  1
  Sn  Sn25  1  0.718709  0.970446  0.046505  1
  Sn  Sn26  1  0.281193  0.029725  0.546150  1
  Sn  Sn27  1  0.781256  0.470288  0.953880  1
  Sn  Sn28  1  0.168252  0.644758  0.750000  1
  Sn  Sn29  1  0.668357  0.855303  0.750000  1
  Sn  Sn30  1  0.331590  0.144755  0.250000  1
  Sn  Sn31  1  0.831732  0.354783  0.250000  1
  Sn  Sn32  1  0.923442  0.117701  0.750000  1
  Sn  Sn33  1  0.423557  0.382287  0.750000  1
  Sn  Sn34  1  0.576562  0.618006  0.250000  1
  Sn  Sn35  1  0.076104  0.882406  0.250000  1
