# generated using pymatgen
data_Ca8Cd3In5
_symmetry_space_group_name_H-M   'P 1'
_cell_length_a   7.71099400
_cell_length_b   7.71709800
_cell_length_c   7.56373600
_cell_angle_alpha   89.99997030
_cell_angle_beta   90.00135233
_cell_angle_gamma   89.99986636
_symmetry_Int_Tables_number   1
_chemical_formula_structural   Ca8Cd3In5
_chemical_formula_sum   'Ca8 Cd3 In5'
_cell_volume   450.09142887
_cell_formula_units_Z   1
loop_
 _symmetry_equiv_pos_site_id
 _symmetry_equiv_pos_as_xyz
  1  'x, y, z'
loop_
 _atom_site_type_symbol
 _atom_site_label
 _atom_site_symmetry_multiplicity
 _atom_site_fract_x
 _atom_site_fract_y
 _atom_site_fract_z
 _atom_site_occupancy
  Ca  Ca0  1  0.498912  0.999287  0.250749  1
  Ca  Ca1  1  0.498969  0.500889  0.250824  1
  Ca  Ca2  1  0.001046  0.999111  0.253099  1
  Ca  Ca3  1  0.001020  0.500722  0.253028  1
  Ca  Ca4  1  0.001231  0.999258  0.747044  1
  Ca  Ca5  1  0.001130  0.500803  0.746952  1
  Ca  Ca6  1  0.499167  0.999099  0.749311  1
  Ca  Ca7  1  0.499032  0.500809  0.749158  1
  Cd  Cd8  1  0.247987  0.749921  0.000067  1
  Cd  Cd9  1  0.747894  0.250111  0.500029  1
  Cd  Cd10  1  0.252062  0.749991  0.500144  1
  In  In11  1  0.248808  0.250029  0.999585  1
  In  In12  1  0.749058  0.750001  0.499998  1
  In  In13  1  0.251051  0.249881  0.499922  1
  In  In14  1  0.751230  0.749803  0.999816  1
  In  In15  1  0.751402  0.250285  0.000272  1
