# generated using pymatgen
data_Tb3Nd2Tm3(WO6)4
_symmetry_space_group_name_H-M   'P 1'
_cell_length_a   5.44682505
_cell_length_b   7.75485676
_cell_length_c   11.49661469
_cell_angle_alpha   75.68803819
_cell_angle_beta   90.00234210
_cell_angle_gamma   90.09705510
_symmetry_Int_Tables_number   1
_chemical_formula_structural   Tb3Nd2Tm3(WO6)4
_chemical_formula_sum   'Tb3 Nd2 Tm3 W4 O24'
_cell_volume   470.53749185
_cell_formula_units_Z   1
loop_
 _symmetry_equiv_pos_site_id
 _symmetry_equiv_pos_as_xyz
  1  'x, y, z'
loop_
 _atom_site_type_symbol
 _atom_site_label
 _atom_site_symmetry_multiplicity
 _atom_site_fract_x
 _atom_site_fract_y
 _atom_site_fract_z
 _atom_site_occupancy
  Tb  Tb0  1  0.741842  0.999553  0.751185  1
  Tb  Tb1  1  0.257788  0.999390  0.248479  1
  Tb  Tb2  1  0.814127  0.202891  0.423481  1
  Nd  Nd3  1  0.683956  0.500368  0.750397  1
  Nd  Nd4  1  0.315455  0.500779  0.248845  1
  Tm  Tm5  1  0.185730  0.795187  0.577867  1
  Tm  Tm6  1  0.815265  0.795719  0.077576  1
  Tm  Tm7  1  0.184429  0.204237  0.922498  1
  W  W8  1  0.253582  0.727636  0.884932  1
  W  W9  1  0.746521  0.727927  0.384915  1
  W  W10  1  0.253154  0.272801  0.616347  1
  W  W11  1  0.745691  0.272826  0.114065  1
  O  O12  1  0.046329  0.942482  0.897452  1
  O  O13  1  0.536751  0.842406  0.932478  1
  O  O14  1  0.959592  0.939153  0.397172  1
  O  O15  1  0.452074  0.794155  0.726478  1
  O  O16  1  0.465891  0.844692  0.432256  1
  O  O17  1  0.985369  0.719272  0.769453  1
  O  O18  1  0.548404  0.795098  0.225903  1
  O  O19  1  0.856791  0.641373  0.546640  1
  O  O20  1  0.346745  0.492240  0.888033  1
  O  O21  1  0.013624  0.718027  0.268561  1
  O  O22  1  0.347707  0.508564  0.613430  1
  O  O23  1  0.857062  0.358614  0.952866  1
  O  O24  1  0.142780  0.641978  0.046445  1
  O  O25  1  0.649275  0.493856  0.387753  1
  O  O26  1  0.984061  0.280908  0.730776  1
  O  O27  1  0.653188  0.508331  0.111783  1
  O  O28  1  0.148248  0.359979  0.454106  1
  O  O29  1  0.451538  0.206523  0.774844  1
  O  O30  1  0.015541  0.281405  0.228411  1
  O  O31  1  0.532938  0.154397  0.570932  1
  O  O32  1  0.544785  0.206579  0.271141  1
  O  O33  1  0.046600  0.056695  0.604109  1
  O  O34  1  0.463992  0.156671  0.066070  1
  O  O35  1  0.953177  0.057286  0.102319  1
