# generated using pymatgen
data_La3PrInIr
_symmetry_space_group_name_H-M   'P 1'
_cell_length_a   10.06924178
_cell_length_b   10.06903997
_cell_length_c   10.13034900
_cell_angle_alpha   60.17434859
_cell_angle_beta   60.17241611
_cell_angle_gamma   60.01084201
_symmetry_Int_Tables_number   1
_chemical_formula_structural   La3PrInIr
_chemical_formula_sum   'La12 Pr4 In4 Ir4'
_cell_volume   728.22098246
_cell_formula_units_Z   4
loop_
 _symmetry_equiv_pos_site_id
 _symmetry_equiv_pos_as_xyz
  1  'x, y, z'
loop_
 _atom_site_type_symbol
 _atom_site_label
 _atom_site_symmetry_multiplicity
 _atom_site_fract_x
 _atom_site_fract_y
 _atom_site_fract_z
 _atom_site_occupancy
  La  La0  1  0.436520  0.061099  0.437898  1
  La  La1  1  0.060940  0.436298  0.438302  1
  La  La2  1  0.809272  0.809320  0.190578  1
  La  La3  1  0.193957  0.807357  0.193197  1
  La  La4  1  0.807414  0.194011  0.193171  1
  La  La5  1  0.191973  0.191963  0.809320  1
  La  La6  1  0.808638  0.190697  0.809420  1
  La  La7  1  0.190818  0.808682  0.809267  1
  La  La8  1  0.652075  0.652087  0.042308  1
  La  La9  1  0.651152  0.043155  0.651776  1
  La  La10  1  0.043116  0.651107  0.651847  1
  La  La11  1  0.652741  0.652847  0.651810  1
  Pr  Pr12  1  0.440200  0.439797  0.057114  1
  Pr  Pr13  1  0.062756  0.438564  0.059894  1
  Pr  Pr14  1  0.438600  0.062768  0.059857  1
  Pr  Pr15  1  0.061058  0.061093  0.438921  1
  In  In16  1  0.418464  0.418674  0.745256  1
  In  In17  1  0.420493  0.741447  0.419419  1
  In  In18  1  0.741403  0.420568  0.419438  1
  In  In19  1  0.420180  0.420187  0.421104  1
  Ir  Ir20  1  0.858648  0.858671  0.422168  1
  Ir  Ir21  1  0.858180  0.421846  0.859576  1
  Ir  Ir22  1  0.421905  0.858195  0.859649  1
  Ir  Ir23  1  0.859497  0.859566  0.858709  1
