# generated using pymatgen
data_Ba2ErGaO5
_symmetry_space_group_name_H-M   'P 1'
_cell_length_a   6.10699600
_cell_length_b   7.83230950
_cell_length_c   12.68197528
_cell_angle_alpha   92.01963556
_cell_angle_beta   90.00000000
_cell_angle_gamma   90.00000000
_symmetry_Int_Tables_number   1
_chemical_formula_structural   Ba2ErGaO5
_chemical_formula_sum   'Ba8 Er4 Ga4 O20'
_cell_volume   606.22593865
_cell_formula_units_Z   4
loop_
 _symmetry_equiv_pos_site_id
 _symmetry_equiv_pos_as_xyz
  1  'x, y, z'
loop_
 _atom_site_type_symbol
 _atom_site_label
 _atom_site_symmetry_multiplicity
 _atom_site_fract_x
 _atom_site_fract_y
 _atom_site_fract_z
 _atom_site_occupancy
  Ba  Ba0  1  0.762637  0.481860  0.346649  1
  Ba  Ba1  1  0.737363  0.981860  0.846649  1
  Ba  Ba2  1  0.237363  0.518140  0.653351  1
  Ba  Ba3  1  0.262637  0.018140  0.153351  1
  Ba  Ba4  1  0.755677  0.993205  0.381075  1
  Ba  Ba5  1  0.744323  0.493205  0.881075  1
  Ba  Ba6  1  0.244323  0.006795  0.618925  1
  Ba  Ba7  1  0.255677  0.506795  0.118925  1
  Er  Er8  1  0.749727  0.266447  0.629272  1
  Er  Er9  1  0.750273  0.766447  0.129272  1
  Er  Er10  1  0.250273  0.733553  0.370728  1
  Er  Er11  1  0.249727  0.233553  0.870728  1
  Ga  Ga12  1  0.734749  0.741860  0.581977  1
  Ga  Ga13  1  0.765251  0.241860  0.081977  1
  Ga  Ga14  1  0.265251  0.258140  0.418023  1
  Ga  Ga15  1  0.234749  0.758140  0.918023  1
  O  O16  1  0.758400  0.972591  0.629153  1
  O  O17  1  0.741600  0.472591  0.129153  1
  O  O18  1  0.241600  0.027409  0.370847  1
  O  O19  1  0.258400  0.527409  0.870847  1
  O  O20  1  0.729178  0.066592  0.176076  1
  O  O21  1  0.770822  0.566592  0.676076  1
  O  O22  1  0.270822  0.933408  0.823924  1
  O  O23  1  0.229178  0.433408  0.323924  1
  O  O24  1  0.541707  0.744764  0.271209  1
  O  O25  1  0.958293  0.244764  0.771209  1
  O  O26  1  0.458293  0.255236  0.728791  1
  O  O27  1  0.041707  0.755236  0.228791  1
  O  O28  1  0.547509  0.222200  0.976421  1
  O  O29  1  0.952491  0.722200  0.476421  1
  O  O30  1  0.452491  0.777800  0.023579  1
  O  O31  1  0.047509  0.277800  0.523579  1
  O  O32  1  0.044271  0.228001  0.019323  1
  O  O33  1  0.455729  0.728001  0.519323  1
  O  O34  1  0.955729  0.771999  0.980677  1
  O  O35  1  0.544271  0.271999  0.480677  1
