# generated using pymatgen
data_Tb5Dy7(Zn3C)4
_symmetry_space_group_name_H-M   'P 1'
_cell_length_a   9.18574926
_cell_length_b   9.18398943
_cell_length_c   9.18398975
_cell_angle_alpha   59.93015063
_cell_angle_beta   59.99365873
_cell_angle_gamma   59.99366544
_symmetry_Int_Tables_number   1
_chemical_formula_structural   Tb5Dy7(Zn3C)4
_chemical_formula_sum   'Tb5 Dy7 Zn12 C4'
_cell_volume   547.50867446
_cell_formula_units_Z   1
loop_
 _symmetry_equiv_pos_site_id
 _symmetry_equiv_pos_as_xyz
  1  'x, y, z'
loop_
 _atom_site_type_symbol
 _atom_site_label
 _atom_site_symmetry_multiplicity
 _atom_site_fract_x
 _atom_site_fract_y
 _atom_site_fract_z
 _atom_site_occupancy
  Tb  Tb0  1  0.447480  0.447463  0.052659  1
  Tb  Tb1  1  0.052398  0.447463  0.052659  1
  Tb  Tb2  1  0.447599  0.052401  0.052401  1
  Tb  Tb3  1  0.052398  0.052659  0.447463  1
  Tb  Tb4  1  0.447480  0.052659  0.447463  1
  Dy  Dy5  1  0.052903  0.447097  0.447097  1
  Dy  Dy6  1  0.803453  0.803105  0.196861  1
  Dy  Dy7  1  0.196581  0.803105  0.196861  1
  Dy  Dy8  1  0.803330  0.196670  0.196670  1
  Dy  Dy9  1  0.196581  0.196861  0.803105  1
  Dy  Dy10  1  0.803453  0.196861  0.803105  1
  Dy  Dy11  1  0.196500  0.803500  0.803500  1
  Zn  Zn12  1  0.826470  0.825968  0.521094  1
  Zn  Zn13  1  0.826470  0.521094  0.825968  1
  Zn  Zn14  1  0.521206  0.826298  0.826298  1
  Zn  Zn15  1  0.826199  0.826298  0.826298  1
  Zn  Zn16  1  0.423876  0.424024  0.728223  1
  Zn  Zn17  1  0.423876  0.728223  0.424024  1
  Zn  Zn18  1  0.728430  0.423908  0.423908  1
  Zn  Zn19  1  0.423754  0.423908  0.423908  1
  Zn  Zn20  1  0.624999  0.624949  0.125053  1
  Zn  Zn21  1  0.624999  0.125053  0.624949  1
  Zn  Zn22  1  0.125010  0.624836  0.624836  1
  Zn  Zn23  1  0.625317  0.624836  0.624836  1
  C  C24  1  0.123864  0.125582  0.626691  1
  C  C25  1  0.123864  0.626691  0.125582  1
  C  C26  1  0.627310  0.124243  0.124243  1
  C  C27  1  0.124203  0.124243  0.124243  1
