# generated using pymatgen
data_Hf5Zn6GaRh12
_symmetry_space_group_name_H-M   'P 1'
_cell_length_a   4.45682700
_cell_length_b   6.22102500
_cell_length_c   13.23953600
_cell_angle_alpha   89.99999998
_cell_angle_beta   89.99894062
_cell_angle_gamma   89.99557841
_symmetry_Int_Tables_number   1
_chemical_formula_structural   Hf5Zn6GaRh12
_chemical_formula_sum   'Hf5 Zn6 Ga1 Rh12'
_cell_volume   367.07980071
_cell_formula_units_Z   1
loop_
 _symmetry_equiv_pos_site_id
 _symmetry_equiv_pos_as_xyz
  1  'x, y, z'
loop_
 _atom_site_type_symbol
 _atom_site_label
 _atom_site_symmetry_multiplicity
 _atom_site_fract_x
 _atom_site_fract_y
 _atom_site_fract_z
 _atom_site_occupancy
  Hf  Hf0  1  0.000008  0.000000  0.995618  1
  Hf  Hf1  1  0.499827  0.500001  0.164687  1
  Hf  Hf2  1  0.999841  0.000003  0.333340  1
  Hf  Hf3  1  0.500009  0.499999  0.501946  1
  Hf  Hf4  1  0.000164  0.000001  0.671063  1
  Zn  Zn5  1  0.999985  0.500000  0.001926  1
  Zn  Zn6  1  0.499842  0.999999  0.161100  1
  Zn  Zn7  1  0.999837  0.499997  0.333335  1
  Zn  Zn8  1  0.500008  0.000001  0.505560  1
  Zn  Zn9  1  0.000159  0.499999  0.664728  1
  Zn  Zn10  1  0.500156  0.999998  0.833336  1
  Ga  Ga11  1  0.500164  0.499996  0.833354  1
  Rh  Rh12  1  0.499972  0.256823  0.993717  1
  Rh  Rh13  1  0.500050  0.743181  0.993716  1
  Rh  Rh14  1  0.999798  0.249346  0.165808  1
  Rh  Rh15  1  0.999838  0.750655  0.165808  1
  Rh  Rh16  1  0.499887  0.249266  0.333308  1
  Rh  Rh17  1  0.499767  0.750729  0.333311  1
  Rh  Rh18  1  0.999981  0.249351  0.500883  1
  Rh  Rh19  1  0.000024  0.750648  0.500883  1
  Rh  Rh20  1  0.500137  0.256904  0.672954  1
  Rh  Rh21  1  0.500212  0.743097  0.672954  1
  Rh  Rh22  1  0.000111  0.261925  0.833333  1
  Rh  Rh23  1  0.000220  0.738080  0.833333  1
