# generated using pymatgen
data_Pr2Ho3Ta3(Ni4P3)4
_symmetry_space_group_name_H-M   'P 1'
_cell_length_a   12.50662400
_cell_length_b   12.50662355
_cell_length_c   3.80027700
_cell_angle_alpha   90.00000000
_cell_angle_beta   90.00000000
_cell_angle_gamma   120.00000649
_symmetry_Int_Tables_number   1
_chemical_formula_structural   Pr2Ho3Ta3(Ni4P3)4
_chemical_formula_sum   'Pr2 Ho3 Ta3 Ni16 P12'
_cell_volume   514.78517050
_cell_formula_units_Z   1
loop_
 _symmetry_equiv_pos_site_id
 _symmetry_equiv_pos_as_xyz
  1  'x, y, z'
loop_
 _atom_site_type_symbol
 _atom_site_label
 _atom_site_symmetry_multiplicity
 _atom_site_fract_x
 _atom_site_fract_y
 _atom_site_fract_z
 _atom_site_occupancy
  Pr  Pr0  1  0.666667  0.333333  0.000000  1
  Pr  Pr1  1  0.333333  0.666667  0.000000  1
  Ho  Ho2  1  0.814574  0.814574  0.500000  1
  Ho  Ho3  1  0.185426  0.000000  0.500000  1
  Ho  Ho4  1  0.000000  0.185426  0.500000  1
  Ta  Ta5  1  0.439904  0.439904  0.000000  1
  Ta  Ta6  1  0.560096  0.000000  0.000000  1
  Ta  Ta7  1  0.000000  0.560096  0.000000  1
  Ni  Ni8  1  0.879154  0.359787  0.500000  1
  Ni  Ni9  1  0.640213  0.519367  0.500000  1
  Ni  Ni10  1  0.480633  0.120846  0.500000  1
  Ni  Ni11  1  0.359787  0.879154  0.500000  1
  Ni  Ni12  1  0.519367  0.640213  0.500000  1
  Ni  Ni13  1  0.120846  0.480633  0.500000  1
  Ni  Ni14  1  0.808254  0.179769  0.000000  1
  Ni  Ni15  1  0.820231  0.628485  0.000000  1
  Ni  Ni16  1  0.371515  0.191746  0.000000  1
  Ni  Ni17  1  0.179769  0.808254  0.000000  1
  Ni  Ni18  1  0.628485  0.820231  0.000000  1
  Ni  Ni19  1  0.191746  0.371515  0.000000  1
  Ni  Ni20  1  0.276266  0.276266  0.500000  1
  Ni  Ni21  1  0.723734  0.000000  0.500000  1
  Ni  Ni22  1  0.000000  0.723734  0.500000  1
  Ni  Ni23  1  0.000000  0.000000  0.000000  1
  P  P24  1  0.689524  0.163202  0.500000  1
  P  P25  1  0.836798  0.526321  0.500000  1
  P  P26  1  0.473679  0.310476  0.500000  1
  P  P27  1  0.163202  0.689524  0.500000  1
  P  P28  1  0.526321  0.836798  0.500000  1
  P  P29  1  0.310476  0.473679  0.500000  1
  P  P30  1  0.175997  0.175997  0.000000  1
  P  P31  1  0.824003  0.000000  0.000000  1
  P  P32  1  0.000000  0.824003  0.000000  1
  P  P33  1  0.638776  0.638776  0.000000  1
  P  P34  1  0.361224  0.000000  0.000000  1
  P  P35  1  0.000000  0.361224  0.000000  1
