# generated using pymatgen
data_Nd20Si15Ni
_symmetry_space_group_name_H-M   'P 1'
_cell_length_a   7.81296727
_cell_length_b   7.92607045
_cell_length_c   15.11351577
_cell_angle_alpha   89.49645089
_cell_angle_beta   89.73337496
_cell_angle_gamma   89.78596807
_symmetry_Int_Tables_number   1
_chemical_formula_structural   Nd20Si15Ni
_chemical_formula_sum   'Nd20 Si15 Ni1'
_cell_volume   935.86886089
_cell_formula_units_Z   1
loop_
 _symmetry_equiv_pos_site_id
 _symmetry_equiv_pos_as_xyz
  1  'x, y, z'
loop_
 _atom_site_type_symbol
 _atom_site_label
 _atom_site_symmetry_multiplicity
 _atom_site_fract_x
 _atom_site_fract_y
 _atom_site_fract_z
 _atom_site_occupancy
  Nd  Nd0  1  0.131708  0.511262  0.747400  1
  Nd  Nd1  1  0.808540  0.334140  0.612669  1
  Nd  Nd2  1  0.455510  0.687147  0.897813  1
  Nd  Nd3  1  0.955195  0.813782  0.896885  1
  Nd  Nd4  1  0.187135  0.681864  0.120950  1
  Nd  Nd5  1  0.692060  0.818467  0.121413  1
  Nd  Nd6  1  0.307579  0.180739  0.877957  1
  Nd  Nd7  1  0.189930  0.675945  0.379921  1
  Nd  Nd8  1  0.043898  0.187768  0.104191  1
  Nd  Nd9  1  0.312027  0.182160  0.620635  1
  Nd  Nd10  1  0.860493  0.490928  0.262390  1
  Nd  Nd11  1  0.363975  0.005125  0.252584  1
  Nd  Nd12  1  0.538003  0.311659  0.397274  1
  Nd  Nd13  1  0.808679  0.318622  0.878718  1
  Nd  Nd14  1  0.961668  0.818195  0.600002  1
  Nd  Nd15  1  0.456727  0.688373  0.603691  1
  Nd  Nd16  1  0.043430  0.181645  0.398337  1
  Nd  Nd17  1  0.693268  0.811408  0.384190  1
  Nd  Nd18  1  0.637573  0.996685  0.748566  1
  Nd  Nd19  1  0.546006  0.312394  0.103575  1
  Si  Si20  1  0.482250  0.601101  0.247081  1
  Si  Si21  1  0.252870  0.376939  0.247840  1
  Si  Si22  1  0.515539  0.401854  0.750406  1
  Si  Si23  1  0.630757  0.025660  0.958324  1
  Si  Si24  1  0.015096  0.104708  0.748186  1
  Si  Si25  1  0.744196  0.623640  0.749746  1
  Si  Si26  1  0.752233  0.118888  0.249897  1
  Si  Si27  1  0.365867  0.969511  0.460229  1
  Si  Si28  1  0.982374  0.897250  0.249244  1
  Si  Si29  1  0.366355  0.975255  0.041794  1
  Si  Si30  1  0.634415  0.025708  0.541503  1
  Si  Si31  1  0.133139  0.473765  0.958763  1
  Si  Si32  1  0.139156  0.474658  0.540727  1
  Si  Si33  1  0.867206  0.525394  0.040146  1
  Si  Si34  1  0.245107  0.879936  0.750742  1
  Ni  Ni35  1  0.880033  0.517424  0.456208  1
