# generated using pymatgen
data_CaLa18NdGa12
_symmetry_space_group_name_H-M   'P 1'
_cell_length_a   7.97172300
_cell_length_b   7.97172300
_cell_length_c   14.96008300
_cell_angle_alpha   90.00000000
_cell_angle_beta   90.00000000
_cell_angle_gamma   90.00000000
_symmetry_Int_Tables_number   1
_chemical_formula_structural   CaLa18NdGa12
_chemical_formula_sum   'Ca1 La18 Nd1 Ga12'
_cell_volume   950.68885364
_cell_formula_units_Z   1
loop_
 _symmetry_equiv_pos_site_id
 _symmetry_equiv_pos_as_xyz
  1  'x, y, z'
loop_
 _atom_site_type_symbol
 _atom_site_label
 _atom_site_symmetry_multiplicity
 _atom_site_fract_x
 _atom_site_fract_y
 _atom_site_fract_z
 _atom_site_occupancy
  Ca  Ca0  1  0.500000  0.000000  0.767120  1
  La  La1  1  0.339056  0.311746  0.103631  1
  La  La2  1  0.836737  0.813195  0.897309  1
  La  La3  1  0.839285  0.182013  0.396895  1
  La  La4  1  0.163263  0.186805  0.897309  1
  La  La5  1  0.660944  0.688254  0.103631  1
  La  La6  1  0.000000  0.500000  0.708125  1
  La  La7  1  0.819039  0.839378  0.603150  1
  La  La8  1  0.317987  0.339285  0.396895  1
  La  La9  1  0.188254  0.839056  0.103631  1
  La  La10  1  0.180961  0.160622  0.603150  1
  La  La11  1  0.811746  0.160944  0.103631  1
  La  La12  1  0.339378  0.680961  0.603150  1
  La  La13  1  0.500000  0.000000  0.292117  1
  La  La14  1  0.686805  0.336737  0.897309  1
  La  La15  1  0.660622  0.319039  0.603150  1
  La  La16  1  0.313195  0.663263  0.897309  1
  La  La17  1  0.160715  0.817987  0.396895  1
  La  La18  1  0.682013  0.660715  0.396895  1
  Nd  Nd19  1  0.000000  0.500000  0.221138  1
  Ga  Ga20  1  0.618855  0.381614  0.249573  1
  Ga  Ga21  1  0.881601  0.118317  0.752136  1
  Ga  Ga22  1  0.500000  0.000000  0.500276  1
  Ga  Ga23  1  0.881614  0.881145  0.249573  1
  Ga  Ga24  1  0.000000  0.500000  0.013768  1
  Ga  Ga25  1  0.118399  0.881683  0.752136  1
  Ga  Ga26  1  0.381683  0.381601  0.752136  1
  Ga  Ga27  1  0.118386  0.118855  0.249573  1
  Ga  Ga28  1  0.381145  0.618386  0.249573  1
  Ga  Ga29  1  0.618317  0.618399  0.752136  1
  Ga  Ga30  1  0.500000  0.000000  0.986375  1
  Ga  Ga31  1  0.000000  0.500000  0.500305  1
