# generated using pymatgen
data_Ba3Bi(BrO)3
_symmetry_space_group_name_H-M   'P 1'
_cell_length_a   7.14875100
_cell_length_b   12.21453700
_cell_length_c   12.48342700
_cell_angle_alpha   90.00000000
_cell_angle_beta   90.00000000
_cell_angle_gamma   90.00000000
_symmetry_Int_Tables_number   1
_chemical_formula_structural   Ba3Bi(BrO)3
_chemical_formula_sum   'Ba12 Bi4 Br12 O12'
_cell_volume   1090.03641237
_cell_formula_units_Z   4
loop_
 _symmetry_equiv_pos_site_id
 _symmetry_equiv_pos_as_xyz
  1  'x, y, z'
loop_
 _atom_site_type_symbol
 _atom_site_label
 _atom_site_symmetry_multiplicity
 _atom_site_fract_x
 _atom_site_fract_y
 _atom_site_fract_z
 _atom_site_occupancy
  Ba  Ba0  1  0.163181  0.068159  0.891484  1
  Ba  Ba1  1  0.642868  0.250000  0.980695  1
  Ba  Ba2  1  0.663181  0.068159  0.608516  1
  Ba  Ba3  1  0.163181  0.431841  0.891484  1
  Ba  Ba4  1  0.336819  0.931841  0.391484  1
  Ba  Ba5  1  0.357132  0.750000  0.019305  1
  Ba  Ba6  1  0.836819  0.568159  0.108516  1
  Ba  Ba7  1  0.336819  0.568159  0.391484  1
  Ba  Ba8  1  0.836819  0.931841  0.108516  1
  Ba  Ba9  1  0.142868  0.250000  0.519305  1
  Ba  Ba10  1  0.663181  0.431841  0.608516  1
  Ba  Ba11  1  0.857132  0.750000  0.480695  1
  Bi  Bi12  1  0.092219  0.250000  0.123070  1
  Bi  Bi13  1  0.592219  0.250000  0.376930  1
  Bi  Bi14  1  0.907781  0.750000  0.876930  1
  Bi  Bi15  1  0.407781  0.750000  0.623070  1
  Br  Br16  1  0.893445  0.018328  0.360485  1
  Br  Br17  1  0.095694  0.750000  0.233805  1
  Br  Br18  1  0.106555  0.518328  0.639515  1
  Br  Br19  1  0.595694  0.750000  0.266195  1
  Br  Br20  1  0.606555  0.981672  0.860485  1
  Br  Br21  1  0.904306  0.250000  0.766195  1
  Br  Br22  1  0.393445  0.018328  0.139515  1
  Br  Br23  1  0.393445  0.481672  0.139515  1
  Br  Br24  1  0.606555  0.518328  0.860485  1
  Br  Br25  1  0.893445  0.481672  0.360485  1
  Br  Br26  1  0.404306  0.250000  0.733805  1
  Br  Br27  1  0.106555  0.981672  0.639515  1
  O  O28  1  0.076526  0.872902  0.949130  1
  O  O29  1  0.423474  0.372902  0.449130  1
  O  O30  1  0.923474  0.127098  0.050870  1
  O  O31  1  0.576526  0.627098  0.550870  1
  O  O32  1  0.721326  0.750000  0.006696  1
  O  O33  1  0.278674  0.250000  0.993304  1
  O  O34  1  0.778674  0.250000  0.506696  1
  O  O35  1  0.923474  0.372902  0.050870  1
  O  O36  1  0.576526  0.872902  0.550870  1
  O  O37  1  0.423474  0.127098  0.449130  1
  O  O38  1  0.221326  0.750000  0.493304  1
  O  O39  1  0.076526  0.627098  0.949130  1
