# generated using pymatgen
data_Y6Tm5In9Rh4
_symmetry_space_group_name_H-M   'P 1'
_cell_length_a   13.10459883
_cell_length_b   13.10459800
_cell_length_c   3.63635000
_cell_angle_alpha   90.00000000
_cell_angle_beta   90.00000000
_cell_angle_gamma   111.09167470
_symmetry_Int_Tables_number   1
_chemical_formula_structural   Y6Tm5In9Rh4
_chemical_formula_sum   'Y6 Tm5 In9 Rh4'
_cell_volume   582.63620784
_cell_formula_units_Z   1
loop_
 _symmetry_equiv_pos_site_id
 _symmetry_equiv_pos_as_xyz
  1  'x, y, z'
loop_
 _atom_site_type_symbol
 _atom_site_label
 _atom_site_symmetry_multiplicity
 _atom_site_fract_x
 _atom_site_fract_y
 _atom_site_fract_z
 _atom_site_occupancy
  Y  Y0  1  0.374291  0.625709  0.000000  1
  Y  Y1  1  0.838453  0.161547  0.000000  1
  Y  Y2  1  0.161395  0.838605  0.000000  1
  Y  Y3  1  0.999960  0.000040  0.000000  1
  Y  Y4  1  0.312228  0.311767  0.000000  1
  Y  Y5  1  0.688233  0.687772  0.000000  1
  Tm  Tm6  1  0.076767  0.418053  0.000000  1
  Tm  Tm7  1  0.922247  0.581158  0.000000  1
  Tm  Tm8  1  0.418842  0.077753  0.000000  1
  Tm  Tm9  1  0.581947  0.923233  0.000000  1
  Tm  Tm10  1  0.625123  0.374877  0.000000  1
  In  In11  1  0.841529  0.368882  0.500000  1
  In  In12  1  0.157288  0.630770  0.500000  1
  In  In13  1  0.369230  0.842712  0.500000  1
  In  In14  1  0.631118  0.158471  0.500000  1
  In  In15  1  0.075253  0.219637  0.500000  1
  In  In16  1  0.924751  0.780044  0.500000  1
  In  In17  1  0.219956  0.075249  0.500000  1
  In  In18  1  0.780363  0.924747  0.500000  1
  In  In19  1  0.500463  0.499537  0.500000  1
  Rh  Rh20  1  0.241857  0.447671  0.500000  1
  Rh  Rh21  1  0.756302  0.549921  0.500000  1
  Rh  Rh22  1  0.450079  0.243698  0.500000  1
  Rh  Rh23  1  0.552329  0.758143  0.500000  1
