# generated using pymatgen
data_NbAlZnNi12Sb
_symmetry_space_group_name_H-M   'P 1'
_cell_length_a   3.65314800
_cell_length_b   3.65314800
_cell_length_c   14.34763500
_cell_angle_alpha   90.00000000
_cell_angle_beta   90.00000000
_cell_angle_gamma   90.00000000
_symmetry_Int_Tables_number   1
_chemical_formula_structural   NbAlZnNi12Sb
_chemical_formula_sum   'Nb1 Al1 Zn1 Ni12 Sb1'
_cell_volume   191.47622386
_cell_formula_units_Z   1
loop_
 _symmetry_equiv_pos_site_id
 _symmetry_equiv_pos_as_xyz
  1  'x, y, z'
loop_
 _atom_site_type_symbol
 _atom_site_label
 _atom_site_symmetry_multiplicity
 _atom_site_fract_x
 _atom_site_fract_y
 _atom_site_fract_z
 _atom_site_occupancy
  Nb  Nb0  1  0.000000  0.000000  0.750911  1
  Al  Al1  1  0.000000  0.000000  0.501060  1
  Zn  Zn2  1  0.000000  0.000000  0.998155  1
  Ni  Ni3  1  0.500000  0.500000  0.000003  1
  Ni  Ni4  1  0.500000  0.500000  0.251926  1
  Ni  Ni5  1  0.500000  0.500000  0.500928  1
  Ni  Ni6  1  0.500000  0.500000  0.748575  1
  Ni  Ni7  1  0.500000  0.000000  0.119832  1
  Ni  Ni8  1  0.500000  0.000000  0.381578  1
  Ni  Ni9  1  0.500000  0.000000  0.622452  1
  Ni  Ni10  1  0.500000  0.000000  0.875987  1
  Ni  Ni11  1  0.000000  0.500000  0.119832  1
  Ni  Ni12  1  0.000000  0.500000  0.381578  1
  Ni  Ni13  1  0.000000  0.500000  0.622452  1
  Ni  Ni14  1  0.000000  0.500000  0.875987  1
  Sb  Sb15  1  0.000000  0.000000  0.248744  1
