# generated using pymatgen
data_Er7Tm(Si4W3)4
_symmetry_space_group_name_H-M   'P 1'
_cell_length_a   6.74544278
_cell_length_b   6.91601984
_cell_length_c   12.86401435
_cell_angle_alpha   90.01243996
_cell_angle_beta   89.99510475
_cell_angle_gamma   90.00108833
_symmetry_Int_Tables_number   1
_chemical_formula_structural   Er7Tm(Si4W3)4
_chemical_formula_sum   'Er7 Tm1 Si16 W12'
_cell_volume   600.12704222
_cell_formula_units_Z   1
loop_
 _symmetry_equiv_pos_site_id
 _symmetry_equiv_pos_as_xyz
  1  'x, y, z'
loop_
 _atom_site_type_symbol
 _atom_site_label
 _atom_site_symmetry_multiplicity
 _atom_site_fract_x
 _atom_site_fract_y
 _atom_site_fract_z
 _atom_site_occupancy
  Er  Er0  1  0.495051  0.667980  0.593293  1
  Er  Er1  1  0.995306  0.831998  0.906734  1
  Er  Er2  1  0.505124  0.331942  0.093427  1
  Er  Er3  1  0.004785  0.168365  0.406862  1
  Er  Er4  1  0.504723  0.331937  0.406974  1
  Er  Er5  1  0.004742  0.168207  0.093386  1
  Er  Er6  1  0.495121  0.668099  0.906386  1
  Tm  Tm7  1  0.994707  0.831618  0.593021  1
  Si  Si8  1  0.662400  0.958533  0.453502  1
  Si  Si9  1  0.162613  0.541491  0.046709  1
  Si  Si10  1  0.337962  0.041823  0.953033  1
  Si  Si11  1  0.837385  0.458286  0.546756  1
  Si  Si12  1  0.337124  0.041310  0.546679  1
  Si  Si13  1  0.837506  0.458451  0.953147  1
  Si  Si14  1  0.662369  0.958173  0.046795  1
  Si  Si15  1  0.162543  0.541809  0.453352  1
  Si  Si16  1  0.464001  0.371450  0.749989  1
  Si  Si17  1  0.964325  0.127878  0.749630  1
  Si  Si18  1  0.536062  0.628507  0.250048  1
  Si  Si19  1  0.035969  0.871897  0.250141  1
  Si  Si20  1  0.697370  0.864961  0.749832  1
  Si  Si21  1  0.196859  0.634832  0.749788  1
  Si  Si22  1  0.302836  0.135112  0.250192  1
  Si  Si23  1  0.802908  0.365355  0.250358  1
  W  W24  1  0.668179  0.163139  0.625388  1
  W  W25  1  0.168027  0.336422  0.874464  1
  W  W26  1  0.331595  0.836799  0.125236  1
  W  W27  1  0.831697  0.663729  0.374994  1
  W  W28  1  0.331684  0.836633  0.374727  1
  W  W29  1  0.831994  0.663484  0.125462  1
  W  W30  1  0.668777  0.163262  0.874670  1
  W  W31  1  0.168361  0.336595  0.625122  1
  W  W32  1  0.833429  0.500654  0.749785  1
  W  W33  1  0.333208  0.999012  0.749701  1
  W  W34  1  0.166698  0.499535  0.250141  1
  W  W35  1  0.666559  0.000724  0.250271  1
