# generated using pymatgen
data_Pr20Tl5Si6Tc
_symmetry_space_group_name_H-M   'P 1'
_cell_length_a   8.10287263
_cell_length_b   8.11072512
_cell_length_c   14.84206300
_cell_angle_alpha   89.65460094
_cell_angle_beta   89.73352670
_cell_angle_gamma   90.32987235
_symmetry_Int_Tables_number   1
_chemical_formula_structural   Pr20Tl5Si6Tc
_chemical_formula_sum   'Pr20 Tl5 Si6 Tc1'
_cell_volume   975.37834439
_cell_formula_units_Z   1
loop_
 _symmetry_equiv_pos_site_id
 _symmetry_equiv_pos_as_xyz
  1  'x, y, z'
loop_
 _atom_site_type_symbol
 _atom_site_label
 _atom_site_symmetry_multiplicity
 _atom_site_fract_x
 _atom_site_fract_y
 _atom_site_fract_z
 _atom_site_occupancy
  Pr  Pr0  1  0.820627  0.833756  0.611220  1
  Pr  Pr1  1  0.180869  0.823438  0.107894  1
  Pr  Pr2  1  0.164794  0.814142  0.392348  1
  Pr  Pr3  1  0.001399  0.499746  0.730424  1
  Pr  Pr4  1  0.815776  0.195062  0.385910  1
  Pr  Pr5  1  0.672726  0.657978  0.385631  1
  Pr  Pr6  1  0.669724  0.317674  0.614885  1
  Pr  Pr7  1  0.332339  0.681713  0.613664  1
  Pr  Pr8  1  0.988627  0.502494  0.233725  1
  Pr  Pr9  1  0.662701  0.670305  0.115134  1
  Pr  Pr10  1  0.682211  0.328286  0.884724  1
  Pr  Pr11  1  0.829633  0.816751  0.887555  1
  Pr  Pr12  1  0.341142  0.347392  0.387921  1
  Pr  Pr13  1  0.180744  0.170085  0.611544  1
  Pr  Pr14  1  0.803618  0.174305  0.113883  1
  Pr  Pr15  1  0.318117  0.666098  0.886180  1
  Pr  Pr16  1  0.352205  0.338717  0.110713  1
  Pr  Pr17  1  0.520711  0.994642  0.271046  1
  Pr  Pr18  1  0.166025  0.176926  0.888681  1
  Pr  Pr19  1  0.498680  0.001675  0.769491  1
  Tl  Tl20  1  0.999487  0.497492  0.502624  1
  Tl  Tl21  1  0.495583  0.995802  0.500407  1
  Tl  Tl22  1  0.495958  0.997039  0.997376  1
  Tl  Tl23  1  0.132281  0.121397  0.248483  1
  Tl  Tl24  1  0.999888  0.496678  0.000123  1
  Si  Si25  1  0.114395  0.884019  0.749713  1
  Si  Si26  1  0.384264  0.381657  0.750556  1
  Si  Si27  1  0.377291  0.624001  0.249388  1
  Si  Si28  1  0.879808  0.871836  0.249217  1
  Si  Si29  1  0.617243  0.615846  0.749412  1
  Si  Si30  1  0.884885  0.115063  0.749925  1
  Tc  Tc31  1  0.616247  0.387982  0.250202  1
