# generated using pymatgen
data_Th21Fe8Sb7C12
_symmetry_space_group_name_H-M   'P 1'
_cell_length_a   11.33371100
_cell_length_b   11.33371157
_cell_length_c   11.33371100
_cell_angle_alpha   120.00000126
_cell_angle_beta   90.00000000
_cell_angle_gamma   120.00000126
_symmetry_Int_Tables_number   1
_chemical_formula_structural   Th21Fe8Sb7C12
_chemical_formula_sum   'Th21 Fe8 Sb7 C12'
_cell_volume   1029.44087956
_cell_formula_units_Z   1
loop_
 _symmetry_equiv_pos_site_id
 _symmetry_equiv_pos_as_xyz
  1  'x, y, z'
loop_
 _atom_site_type_symbol
 _atom_site_label
 _atom_site_symmetry_multiplicity
 _atom_site_fract_x
 _atom_site_fract_y
 _atom_site_fract_z
 _atom_site_occupancy
  Th  Th0  1  0.406407  0.270938  0.135469  1
  Th  Th1  1  0.864532  0.270938  0.135469  1
  Th  Th2  1  0.864532  0.729063  0.135469  1
  Th  Th3  1  0.500000  0.000000  0.161931  1
  Th  Th4  1  0.161931  0.661931  0.161931  1
  Th  Th5  1  0.500000  0.661931  0.161931  1
  Th  Th6  1  0.135469  0.270938  0.406407  1
  Th  Th7  1  0.838069  0.000000  0.500000  1
  Th  Th8  1  0.500000  0.000000  0.500000  1
  Th  Th9  1  0.838069  0.338069  0.500000  1
  Th  Th10  1  0.161931  0.000000  0.500000  1
  Th  Th11  1  0.500000  0.338069  0.500000  1
  Th  Th12  1  0.161931  0.661931  0.500000  1
  Th  Th13  1  0.500000  0.661931  0.500000  1
  Th  Th14  1  0.864532  0.729063  0.593594  1
  Th  Th15  1  0.500000  0.000000  0.838069  1
  Th  Th16  1  0.838069  0.338069  0.838069  1
  Th  Th17  1  0.500000  0.338069  0.838069  1
  Th  Th18  1  0.135469  0.270938  0.864532  1
  Th  Th19  1  0.135469  0.729063  0.864532  1
  Th  Th20  1  0.593594  0.729063  0.864532  1
  Fe  Fe21  1  0.688743  0.377487  0.066230  1
  Fe  Fe22  1  0.688743  0.377487  0.311257  1
  Fe  Fe23  1  0.688743  0.622513  0.311257  1
  Fe  Fe24  1  0.933769  0.622513  0.311257  1
  Fe  Fe25  1  0.066230  0.377487  0.688743  1
  Fe  Fe26  1  0.311257  0.377487  0.688743  1
  Fe  Fe27  1  0.311257  0.622513  0.688743  1
  Fe  Fe28  1  0.311257  0.622513  0.933769  1
  Sb  Sb29  1  0.000000  0.000000  0.000000  1
  Sb  Sb30  1  0.219831  0.000000  0.219831  1
  Sb  Sb31  1  0.219831  0.439662  0.219831  1
  Sb  Sb32  1  0.780168  0.000000  0.219831  1
  Sb  Sb33  1  0.219831  0.000000  0.780168  1
  Sb  Sb34  1  0.780168  0.560337  0.780168  1
  Sb  Sb35  1  0.780169  0.000000  0.780169  1
  C  C36  1  0.892365  0.500000  0.107636  1
  C  C37  1  0.607636  0.215273  0.107636  1
  C  C38  1  0.607636  0.500000  0.107636  1
  C  C39  1  0.607636  0.500000  0.392364  1
  C  C40  1  0.892365  0.500000  0.392364  1
  C  C41  1  0.892365  0.784728  0.392364  1
  C  C42  1  0.107636  0.215273  0.607636  1
  C  C43  1  0.107636  0.500000  0.607636  1
  C  C44  1  0.392364  0.500000  0.607636  1
  C  C45  1  0.107636  0.500000  0.892365  1
  C  C46  1  0.392364  0.500000  0.892365  1
  C  C47  1  0.392364  0.784728  0.892365  1
