# generated using pymatgen
data_Gd2Er3InSb2
_symmetry_space_group_name_H-M   'P 1'
_cell_length_a   8.95911700
_cell_length_b   8.92290224
_cell_length_c   6.43908700
_cell_angle_alpha   90.00000000
_cell_angle_beta   90.00000000
_cell_angle_gamma   119.86637462
_symmetry_Int_Tables_number   1
_chemical_formula_structural   Gd2Er3InSb2
_chemical_formula_sum   'Gd4 Er6 In2 Sb4'
_cell_volume   446.38487518
_cell_formula_units_Z   2
loop_
 _symmetry_equiv_pos_site_id
 _symmetry_equiv_pos_as_xyz
  1  'x, y, z'
loop_
 _atom_site_type_symbol
 _atom_site_label
 _atom_site_symmetry_multiplicity
 _atom_site_fract_x
 _atom_site_fract_y
 _atom_site_fract_z
 _atom_site_occupancy
  Gd  Gd0  1  0.001814  0.757882  0.750000  1
  Gd  Gd1  1  0.001814  0.243933  0.250000  1
  Gd  Gd2  1  0.757965  0.759336  0.250000  1
  Gd  Gd3  1  0.757965  0.998629  0.750000  1
  Er  Er4  1  0.242182  0.238301  0.750000  1
  Er  Er5  1  0.242182  0.003883  0.250000  1
  Er  Er6  1  0.332847  0.666423  0.500000  1
  Er  Er7  1  0.664374  0.332187  0.000000  1
  Er  Er8  1  0.664374  0.332187  0.500000  1
  Er  Er9  1  0.332847  0.666423  0.000000  1
  In  In10  1  0.395850  0.000169  0.750000  1
  In  In11  1  0.395850  0.395681  0.250000  1
  Sb  Sb12  1  0.001174  0.609136  0.250000  1
  Sb  Sb13  1  0.001174  0.392038  0.750000  1
  Sb  Sb14  1  0.603794  0.603136  0.750000  1
  Sb  Sb15  1  0.603794  0.000659  0.250000  1
