# generated using pymatgen
data_Ho5Er11MgCd3Ir4
_symmetry_space_group_name_H-M   'P 1'
_cell_length_a   9.60366259
_cell_length_b   9.60260680
_cell_length_c   9.60260630
_cell_angle_alpha   59.69799257
_cell_angle_beta   59.69530406
_cell_angle_gamma   59.69530538
_symmetry_Int_Tables_number   1
_chemical_formula_structural   Ho5Er11MgCd3Ir4
_chemical_formula_sum   'Ho5 Er11 Mg1 Cd3 Ir4'
_cell_volume   621.86016737
_cell_formula_units_Z   1
loop_
 _symmetry_equiv_pos_site_id
 _symmetry_equiv_pos_as_xyz
  1  'x, y, z'
loop_
 _atom_site_type_symbol
 _atom_site_label
 _atom_site_symmetry_multiplicity
 _atom_site_fract_x
 _atom_site_fract_y
 _atom_site_fract_z
 _atom_site_occupancy
  Ho  Ho0  1  0.812195  0.187782  0.187782  1
  Ho  Ho1  1  0.812924  0.189176  0.812819  1
  Ho  Ho2  1  0.187793  0.812201  0.187669  1
  Ho  Ho3  1  0.812924  0.812819  0.189176  1
  Ho  Ho4  1  0.187793  0.187669  0.812201  1
  Er  Er5  1  0.599138  0.599174  0.599174  1
  Er  Er6  1  0.598460  0.598514  0.205412  1
  Er  Er7  1  0.598460  0.205412  0.598514  1
  Er  Er8  1  0.205323  0.598539  0.598539  1
  Er  Er9  1  0.059555  0.439596  0.439596  1
  Er  Er10  1  0.436933  0.061706  0.061706  1
  Er  Er11  1  0.439525  0.059550  0.439653  1
  Er  Er12  1  0.061700  0.436944  0.061664  1
  Er  Er13  1  0.439525  0.439653  0.059550  1
  Er  Er14  1  0.061700  0.061664  0.436944  1
  Er  Er15  1  0.189359  0.812786  0.812786  1
  Mg  Mg16  1  0.826194  0.826129  0.826129  1
  Cd  Cd17  1  0.831190  0.831188  0.506111  1
  Cd  Cd18  1  0.831190  0.506111  0.831188  1
  Cd  Cd19  1  0.506014  0.831199  0.831199  1
  Ir  Ir20  1  0.391808  0.391808  0.391808  1
  Ir  Ir21  1  0.392623  0.392735  0.824995  1
  Ir  Ir22  1  0.392623  0.824995  0.392735  1
  Ir  Ir23  1  0.825054  0.392650  0.392650  1
