# generated using pymatgen
data_Hf3In3PtRh
_symmetry_space_group_name_H-M   'P 1'
_cell_length_a   7.47262100
_cell_length_b   7.47262208
_cell_length_c   3.34944700
_cell_angle_alpha   90.00000000
_cell_angle_beta   90.00000000
_cell_angle_gamma   120.00000850
_symmetry_Int_Tables_number   1
_chemical_formula_structural   Hf3In3PtRh
_chemical_formula_sum   'Hf3 In3 Pt1 Rh1'
_cell_volume   161.97563064
_cell_formula_units_Z   1
loop_
 _symmetry_equiv_pos_site_id
 _symmetry_equiv_pos_as_xyz
  1  'x, y, z'
loop_
 _atom_site_type_symbol
 _atom_site_label
 _atom_site_symmetry_multiplicity
 _atom_site_fract_x
 _atom_site_fract_y
 _atom_site_fract_z
 _atom_site_occupancy
  Hf  Hf0  1  0.423166  0.006661  0.500000  1
  Hf  Hf1  1  0.583495  0.576834  0.500000  1
  Hf  Hf2  1  0.993339  0.416505  0.500000  1
  In  In3  1  0.768105  0.001331  0.000000  1
  In  In4  1  0.233226  0.231895  0.000000  1
  In  In5  1  0.998669  0.766774  0.000000  1
  Pt  Pt6  1  0.333333  0.666667  0.000000  1
  Rh  Rh7  1  0.666667  0.333333  0.000000  1
