# generated using pymatgen
data_Tm19CdRh12
_symmetry_space_group_name_H-M   'P 1'
_cell_length_a   10.73011600
_cell_length_b   10.73011600
_cell_length_c   6.25688600
_cell_angle_alpha   90.00000000
_cell_angle_beta   90.00000000
_cell_angle_gamma   90.00000000
_symmetry_Int_Tables_number   1
_chemical_formula_structural   Tm19CdRh12
_chemical_formula_sum   'Tm19 Cd1 Rh12'
_cell_volume   720.38900588
_cell_formula_units_Z   1
loop_
 _symmetry_equiv_pos_site_id
 _symmetry_equiv_pos_as_xyz
  1  'x, y, z'
loop_
 _atom_site_type_symbol
 _atom_site_label
 _atom_site_symmetry_multiplicity
 _atom_site_fract_x
 _atom_site_fract_y
 _atom_site_fract_z
 _atom_site_occupancy
  Tm  Tm0  1  0.281862  0.083942  0.378528  1
  Tm  Tm1  1  0.292138  0.910999  0.879614  1
  Tm  Tm2  1  0.707862  0.089001  0.879614  1
  Tm  Tm3  1  0.718138  0.916058  0.378528  1
  Tm  Tm4  1  0.589094  0.791778  0.880102  1
  Tm  Tm5  1  0.586542  0.207961  0.376859  1
  Tm  Tm6  1  0.413458  0.792039  0.376859  1
  Tm  Tm7  1  0.410906  0.208222  0.880102  1
  Tm  Tm8  1  0.207961  0.413458  0.623141  1
  Tm  Tm9  1  0.208222  0.589094  0.119898  1
  Tm  Tm10  1  0.791778  0.410906  0.119898  1
  Tm  Tm11  1  0.792039  0.586542  0.623141  1
  Tm  Tm12  1  0.910999  0.707862  0.120386  1
  Tm  Tm13  1  0.916058  0.281862  0.621472  1
  Tm  Tm14  1  0.083942  0.718138  0.621472  1
  Tm  Tm15  1  0.089001  0.292138  0.120386  1
  Tm  Tm16  1  0.000000  0.000000  0.000000  1
  Tm  Tm17  1  0.500000  0.500000  0.000000  1
  Tm  Tm18  1  0.500000  0.500000  0.500000  1
  Cd  Cd19  1  0.000000  0.000000  0.500000  1
  Rh  Rh20  1  0.843530  0.159041  0.240101  1
  Rh  Rh21  1  0.840959  0.843530  0.759899  1
  Rh  Rh22  1  0.159041  0.156470  0.759899  1
  Rh  Rh23  1  0.156470  0.840959  0.240101  1
  Rh  Rh24  1  0.654918  0.346272  0.746694  1
  Rh  Rh25  1  0.653728  0.654918  0.253306  1
  Rh  Rh26  1  0.346272  0.345082  0.253306  1
  Rh  Rh27  1  0.345082  0.653728  0.746694  1
  Rh  Rh28  1  0.500000  0.000000  0.126348  1
  Rh  Rh29  1  0.500000  0.000000  0.621785  1
  Rh  Rh30  1  0.000000  0.500000  0.873652  1
  Rh  Rh31  1  0.000000  0.500000  0.378215  1
