# generated using pymatgen
data_Sr4Ru3RhO16
_symmetry_space_group_name_H-M   'P 1'
_cell_length_a   5.01801200
_cell_length_b   5.50315588
_cell_length_c   12.73047700
_cell_angle_alpha   90.00000000
_cell_angle_beta   90.00000000
_cell_angle_gamma   89.80496211
_symmetry_Int_Tables_number   1
_chemical_formula_structural   Sr4Ru3RhO16
_chemical_formula_sum   'Sr4 Ru3 Rh1 O16'
_cell_volume   351.54884132
_cell_formula_units_Z   1
loop_
 _symmetry_equiv_pos_site_id
 _symmetry_equiv_pos_as_xyz
  1  'x, y, z'
loop_
 _atom_site_type_symbol
 _atom_site_label
 _atom_site_symmetry_multiplicity
 _atom_site_fract_x
 _atom_site_fract_y
 _atom_site_fract_z
 _atom_site_occupancy
  Sr  Sr0  1  0.750000  0.000000  0.659612  1
  Sr  Sr1  1  0.250000  0.500000  0.844396  1
  Sr  Sr2  1  0.250000  0.000000  0.344216  1
  Sr  Sr3  1  0.750000  0.500000  0.154765  1
  Ru  Ru4  1  0.750000  0.500000  0.421914  1
  Ru  Ru5  1  0.250000  0.000000  0.074694  1
  Ru  Ru6  1  0.250000  0.500000  0.576712  1
  Rh  Rh7  1  0.750000  0.000000  0.927350  1
  O  O8  1  0.132094  0.285228  0.675611  1
  O  O9  1  0.631433  0.218646  0.824625  1
  O  O10  1  0.868567  0.781354  0.824625  1
  O  O11  1  0.367906  0.714772  0.675611  1
  O  O12  1  0.867947  0.714658  0.321982  1
  O  O13  1  0.361800  0.783095  0.175219  1
  O  O14  1  0.138200  0.216905  0.175219  1
  O  O15  1  0.632053  0.285342  0.321982  1
  O  O16  1  0.546025  0.305610  0.537714  1
  O  O17  1  0.063391  0.192957  0.960118  1
  O  O18  1  0.436609  0.807043  0.960118  1
  O  O19  1  0.953975  0.694390  0.537714  1
  O  O20  1  0.454004  0.692768  0.460937  1
  O  O21  1  0.944755  0.812221  0.041965  1
  O  O22  1  0.555245  0.187779  0.041965  1
  O  O23  1  0.045996  0.307232  0.460937  1
