# generated using pymatgen
data_SrNd4Co4Br
_symmetry_space_group_name_H-M   'P 1'
_cell_length_a   4.01135600
_cell_length_b   4.01135483
_cell_length_c   19.07953000
_cell_angle_alpha   90.00000000
_cell_angle_beta   90.00000000
_cell_angle_gamma   119.99997669
_symmetry_Int_Tables_number   1
_chemical_formula_structural   SrNd4Co4Br
_chemical_formula_sum   'Sr1 Nd4 Co4 Br1'
_cell_volume   265.87695231
_cell_formula_units_Z   1
loop_
 _symmetry_equiv_pos_site_id
 _symmetry_equiv_pos_as_xyz
  1  'x, y, z'
loop_
 _atom_site_type_symbol
 _atom_site_label
 _atom_site_symmetry_multiplicity
 _atom_site_fract_x
 _atom_site_fract_y
 _atom_site_fract_z
 _atom_site_occupancy
  Sr  Sr0  1  0.333333  0.666667  0.250000  1
  Nd  Nd1  1  0.000000  0.000000  0.069929  1
  Nd  Nd2  1  0.000000  0.000000  0.877382  1
  Nd  Nd3  1  0.000000  0.000000  0.622618  1
  Nd  Nd4  1  0.000000  0.000000  0.430071  1
  Co  Co5  1  0.333333  0.666667  0.525882  1
  Co  Co6  1  0.666667  0.333333  0.526346  1
  Co  Co7  1  0.666667  0.333333  0.973654  1
  Co  Co8  1  0.333333  0.666667  0.974118  1
  Br  Br9  1  0.666667  0.333333  0.750000  1
