# generated using pymatgen
data_TbEr2Mg3AgSn2
_symmetry_space_group_name_H-M   'P 1'
_cell_length_a   7.50575571
_cell_length_b   7.50575531
_cell_length_c   4.50126200
_cell_angle_alpha   90.00000000
_cell_angle_beta   90.00000000
_cell_angle_gamma   120.09744908
_symmetry_Int_Tables_number   1
_chemical_formula_structural   TbEr2Mg3AgSn2
_chemical_formula_sum   'Tb1 Er2 Mg3 Ag1 Sn2'
_cell_volume   219.39486215
_cell_formula_units_Z   1
loop_
 _symmetry_equiv_pos_site_id
 _symmetry_equiv_pos_as_xyz
  1  'x, y, z'
loop_
 _atom_site_type_symbol
 _atom_site_label
 _atom_site_symmetry_multiplicity
 _atom_site_fract_x
 _atom_site_fract_y
 _atom_site_fract_z
 _atom_site_occupancy
  Tb  Tb0  1  0.415052  0.415052  0.500000  1
  Er  Er1  1  0.585316  0.000195  0.500000  1
  Er  Er2  1  0.000195  0.585316  0.500000  1
  Mg  Mg3  1  0.763046  0.763046  0.000000  1
  Mg  Mg4  1  0.237159  0.999696  0.000000  1
  Mg  Mg5  1  0.999696  0.237159  0.000000  1
  Ag  Ag6  1  0.999189  0.999189  0.500000  1
  Sn  Sn7  1  0.667454  0.332893  0.000000  1
  Sn  Sn8  1  0.332893  0.667454  0.000000  1
