# generated using pymatgen
data_BaGa2SnAu
_symmetry_space_group_name_H-M   'P 1'
_cell_length_a   6.54924540
_cell_length_b   6.54924560
_cell_length_c   6.54924569
_cell_angle_alpha   136.96453616
_cell_angle_beta   136.96453979
_cell_angle_gamma   62.49262018
_symmetry_Int_Tables_number   1
_chemical_formula_structural   BaGa2SnAu
_chemical_formula_sum   'Ba1 Ga2 Sn1 Au1'
_cell_volume   129.24241686
_cell_formula_units_Z   1
loop_
 _symmetry_equiv_pos_site_id
 _symmetry_equiv_pos_as_xyz
  1  'x, y, z'
loop_
 _atom_site_type_symbol
 _atom_site_label
 _atom_site_symmetry_multiplicity
 _atom_site_fract_x
 _atom_site_fract_y
 _atom_site_fract_z
 _atom_site_occupancy
  Ba  Ba0  1  0.999165  0.999165  0.000000  1
  Ga  Ga1  1  0.760070  0.260070  0.500000  1
  Ga  Ga2  1  0.260070  0.760070  0.500000  1
  Sn  Sn3  1  0.618286  0.618286  0.000000  1
  Au  Au4  1  0.362409  0.362409  0.000000  1
