# generated using pymatgen
data_Li3Y5(Ni4As3)4
_symmetry_space_group_name_H-M   'P 1'
_cell_length_a   12.57375600
_cell_length_b   12.57375640
_cell_length_c   3.91768200
_cell_angle_alpha   90.00000000
_cell_angle_beta   90.00000000
_cell_angle_gamma   120.00000421
_symmetry_Int_Tables_number   1
_chemical_formula_structural   Li3Y5(Ni4As3)4
_chemical_formula_sum   'Li3 Y5 Ni16 As12'
_cell_volume   536.40135350
_cell_formula_units_Z   1
loop_
 _symmetry_equiv_pos_site_id
 _symmetry_equiv_pos_as_xyz
  1  'x, y, z'
loop_
 _atom_site_type_symbol
 _atom_site_label
 _atom_site_symmetry_multiplicity
 _atom_site_fract_x
 _atom_site_fract_y
 _atom_site_fract_z
 _atom_site_occupancy
  Li  Li0  1  0.567417  0.567417  0.000000  1
  Li  Li1  1  0.432583  0.000000  0.000000  1
  Li  Li2  1  0.000000  0.432583  0.000000  1
  Y  Y3  1  0.188382  0.188382  0.500000  1
  Y  Y4  1  0.811618  0.000000  0.500000  1
  Y  Y5  1  0.000000  0.811618  0.500000  1
  Y  Y6  1  0.333333  0.666667  0.000000  1
  Y  Y7  1  0.666667  0.333333  0.000000  1
  Ni  Ni8  1  0.719298  0.719298  0.500000  1
  Ni  Ni9  1  0.280702  0.000000  0.500000  1
  Ni  Ni10  1  0.000000  0.280702  0.500000  1
  Ni  Ni11  1  0.184789  0.381912  0.000000  1
  Ni  Ni12  1  0.618088  0.802877  0.000000  1
  Ni  Ni13  1  0.197123  0.815211  0.000000  1
  Ni  Ni14  1  0.802877  0.618088  0.000000  1
  Ni  Ni15  1  0.815211  0.197123  0.000000  1
  Ni  Ni16  1  0.381912  0.184789  0.000000  1
  Ni  Ni17  1  0.357347  0.479132  0.500000  1
  Ni  Ni18  1  0.520868  0.878216  0.500000  1
  Ni  Ni19  1  0.121784  0.642653  0.500000  1
  Ni  Ni20  1  0.878216  0.520868  0.500000  1
  Ni  Ni21  1  0.642653  0.121784  0.500000  1
  Ni  Ni22  1  0.479132  0.357347  0.500000  1
  Ni  Ni23  1  0.000000  0.000000  0.000000  1
  As  As24  1  0.821263  0.821263  0.000000  1
  As  As25  1  0.178737  0.000000  0.000000  1
  As  As26  1  0.000000  0.178737  0.000000  1
  As  As27  1  0.167788  0.480078  0.500000  1
  As  As28  1  0.519922  0.687709  0.500000  1
  As  As29  1  0.312291  0.832212  0.500000  1
  As  As30  1  0.687709  0.519922  0.500000  1
  As  As31  1  0.832212  0.312291  0.500000  1
  As  As32  1  0.480078  0.167788  0.500000  1
  As  As33  1  0.365665  0.365665  0.000000  1
  As  As34  1  0.634335  0.000000  0.000000  1
  As  As35  1  0.000000  0.634335  0.000000  1
