# generated using pymatgen
data_MgZr4(ReTc)12
_symmetry_space_group_name_H-M   'P 1'
_cell_length_a   8.46211450
_cell_length_b   8.46211456
_cell_length_c   8.46211400
_cell_angle_alpha   109.47122169
_cell_angle_beta   109.47122184
_cell_angle_gamma   109.47122606
_symmetry_Int_Tables_number   1
_chemical_formula_structural   MgZr4(ReTc)12
_chemical_formula_sum   'Mg1 Zr4 Re12 Tc12'
_cell_volume   466.46035400
_cell_formula_units_Z   1
loop_
 _symmetry_equiv_pos_site_id
 _symmetry_equiv_pos_as_xyz
  1  'x, y, z'
loop_
 _atom_site_type_symbol
 _atom_site_label
 _atom_site_symmetry_multiplicity
 _atom_site_fract_x
 _atom_site_fract_y
 _atom_site_fract_z
 _atom_site_occupancy
  Mg  Mg0  1  0.000000  0.000000  0.000000  1
  Zr  Zr1  1  0.630203  0.000000  0.000000  1
  Zr  Zr2  1  0.000000  0.630203  0.000000  1
  Zr  Zr3  1  0.000000  0.000000  0.630203  1
  Zr  Zr4  1  0.369797  0.369797  0.369797  1
  Re  Re5  1  0.375689  0.193677  0.000000  1
  Re  Re6  1  0.182015  0.806323  0.806323  1
  Re  Re7  1  0.375689  0.000000  0.193677  1
  Re  Re8  1  0.193677  0.375689  0.000000  1
  Re  Re9  1  0.000000  0.375689  0.193677  1
  Re  Re10  1  0.806323  0.182015  0.806323  1
  Re  Re11  1  0.806323  0.806323  0.182015  1
  Re  Re12  1  0.000000  0.193677  0.375689  1
  Re  Re13  1  0.193677  0.000000  0.375689  1
  Re  Re14  1  0.624311  0.624311  0.817985  1
  Re  Re15  1  0.817985  0.624311  0.624311  1
  Re  Re16  1  0.624311  0.817985  0.624311  1
  Tc  Tc17  1  0.395627  0.674866  0.000000  1
  Tc  Tc18  1  0.720760  0.325134  0.325134  1
  Tc  Tc19  1  0.395627  0.000000  0.674866  1
  Tc  Tc20  1  0.674866  0.395627  0.000000  1
  Tc  Tc21  1  0.000000  0.395627  0.674866  1
  Tc  Tc22  1  0.325134  0.720760  0.325134  1
  Tc  Tc23  1  0.325134  0.325134  0.720760  1
  Tc  Tc24  1  0.000000  0.674866  0.395627  1
  Tc  Tc25  1  0.674866  0.000000  0.395627  1
  Tc  Tc26  1  0.604373  0.604373  0.279240  1
  Tc  Tc27  1  0.279240  0.604373  0.604373  1
  Tc  Tc28  1  0.604373  0.279240  0.604373  1
