# generated using pymatgen
data_Nb8V2Si4Ge2B
_symmetry_space_group_name_H-M   'P 1'
_cell_length_a   7.57035000
_cell_length_b   7.58047400
_cell_length_c   5.21266700
_cell_angle_alpha   90.00001854
_cell_angle_beta   89.99996288
_cell_angle_gamma   119.95583064
_symmetry_Int_Tables_number   1
_chemical_formula_structural   Nb8V2Si4Ge2B
_chemical_formula_sum   'Nb8 V2 Si4 Ge2 B1'
_cell_volume   259.17676112
_cell_formula_units_Z   1
loop_
 _symmetry_equiv_pos_site_id
 _symmetry_equiv_pos_as_xyz
  1  'x, y, z'
loop_
 _atom_site_type_symbol
 _atom_site_label
 _atom_site_symmetry_multiplicity
 _atom_site_fract_x
 _atom_site_fract_y
 _atom_site_fract_z
 _atom_site_occupancy
  Nb  Nb0  1  0.003468  0.758094  0.250018  1
  Nb  Nb1  1  0.245373  0.241906  0.250018  1
  Nb  Nb2  1  0.753426  0.000000  0.250388  1
  Nb  Nb3  1  0.999861  0.244536  0.748545  1
  Nb  Nb4  1  0.755326  0.755464  0.748545  1
  Nb  Nb5  1  0.246264  0.000000  0.750097  1
  Nb  Nb6  1  0.333893  0.669390  0.502830  1
  Nb  Nb7  1  0.664504  0.330610  0.502830  1
  V  V8  1  0.664292  0.330563  0.997916  1
  V  V9  1  0.333728  0.669437  0.997916  1
  Si  Si10  1  0.401751  0.000000  0.228363  1
  Si  Si11  1  0.999595  0.600396  0.769483  1
  Si  Si12  1  0.399199  0.399604  0.769483  1
  Si  Si13  1  0.599717  0.000000  0.771747  1
  Ge  Ge14  1  0.000374  0.400925  0.230888  1
  Ge  Ge15  1  0.599449  0.599075  0.230888  1
  B  B16  1  0.999780  0.000000  0.500043  1
