# generated using pymatgen
data_TmLu7(ReB6)4
_symmetry_space_group_name_H-M   'P 1'
_cell_length_a   3.62342800
_cell_length_b   9.06986800
_cell_length_c   11.42291300
_cell_angle_alpha   90.00078290
_cell_angle_beta   90.00000000
_cell_angle_gamma   90.00000000
_symmetry_Int_Tables_number   1
_chemical_formula_structural   TmLu7(ReB6)4
_chemical_formula_sum   'Tm1 Lu7 Re4 B24'
_cell_volume   375.40276894
_cell_formula_units_Z   1
loop_
 _symmetry_equiv_pos_site_id
 _symmetry_equiv_pos_as_xyz
  1  'x, y, z'
loop_
 _atom_site_type_symbol
 _atom_site_label
 _atom_site_symmetry_multiplicity
 _atom_site_fract_x
 _atom_site_fract_y
 _atom_site_fract_z
 _atom_site_occupancy
  Tm  Tm0  1  0.000000  0.323098  0.413732  1
  Lu  Lu1  1  0.000000  0.676747  0.586298  1
  Lu  Lu2  1  0.000000  0.823218  0.086198  1
  Lu  Lu3  1  0.000000  0.176749  0.913734  1
  Lu  Lu4  1  0.000000  0.943567  0.370490  1
  Lu  Lu5  1  0.000000  0.056321  0.629622  1
  Lu  Lu6  1  0.000000  0.443650  0.129355  1
  Lu  Lu7  1  0.000000  0.556417  0.870640  1
  Re  Re8  1  0.000000  0.639271  0.320485  1
  Re  Re9  1  0.000000  0.361080  0.679678  1
  Re  Re10  1  0.000000  0.138837  0.179197  1
  Re  Re11  1  0.000000  0.860979  0.820661  1
  B  B12  1  0.500000  0.553411  0.433620  1
  B  B13  1  0.500000  0.446996  0.566652  1
  B  B14  1  0.500000  0.053053  0.066210  1
  B  B15  1  0.500000  0.946833  0.933644  1
  B  B16  1  0.500000  0.750786  0.419714  1
  B  B17  1  0.500000  0.249286  0.580741  1
  B  B18  1  0.500000  0.250606  0.080105  1
  B  B19  1  0.500000  0.749336  0.919726  1
  B  B20  1  0.500000  0.793684  0.264937  1
  B  B21  1  0.500000  0.206362  0.735188  1
  B  B22  1  0.500000  0.293477  0.234616  1
  B  B23  1  0.500000  0.706385  0.765053  1
  B  B24  1  0.500000  0.630952  0.184300  1
  B  B25  1  0.500000  0.369238  0.815713  1
  B  B26  1  0.500000  0.130549  0.315293  1
  B  B27  1  0.500000  0.869144  0.684461  1
  B  B28  1  0.500000  0.981032  0.211979  1
  B  B29  1  0.500000  0.018789  0.787942  1
  B  B30  1  0.500000  0.481476  0.287628  1
  B  B31  1  0.500000  0.518971  0.712283  1
  B  B32  1  0.500000  0.599503  0.027718  1
  B  B33  1  0.500000  0.400577  0.972245  1
  B  B34  1  0.500000  0.099044  0.472391  1
  B  B35  1  0.500000  0.900575  0.527752  1
