# generated using pymatgen
data_Dy4Ho12MgCd3Pt4
_symmetry_space_group_name_H-M   'P 1'
_cell_length_a   9.67070267
_cell_length_b   9.67070194
_cell_length_c   9.67070202
_cell_angle_alpha   60.00777869
_cell_angle_beta   60.00777873
_cell_angle_gamma   60.00777957
_symmetry_Int_Tables_number   1
_chemical_formula_structural   Dy4Ho12MgCd3Pt4
_chemical_formula_sum   'Dy4 Ho12 Mg1 Cd3 Pt4'
_cell_volume   639.64000562
_cell_formula_units_Z   1
loop_
 _symmetry_equiv_pos_site_id
 _symmetry_equiv_pos_as_xyz
  1  'x, y, z'
loop_
 _atom_site_type_symbol
 _atom_site_label
 _atom_site_symmetry_multiplicity
 _atom_site_fract_x
 _atom_site_fract_y
 _atom_site_fract_z
 _atom_site_occupancy
  Dy  Dy0  1  0.352196  0.352196  0.352196  1
  Dy  Dy1  1  0.351810  0.351810  0.944434  1
  Dy  Dy2  1  0.351810  0.944434  0.351810  1
  Dy  Dy3  1  0.944434  0.351810  0.351810  1
  Ho  Ho4  1  0.809902  0.190566  0.190566  1
  Ho  Ho5  1  0.189637  0.811584  0.811584  1
  Ho  Ho6  1  0.190566  0.809902  0.190566  1
  Ho  Ho7  1  0.811584  0.189637  0.811584  1
  Ho  Ho8  1  0.190566  0.190566  0.809902  1
  Ho  Ho9  1  0.811584  0.811584  0.189637  1
  Ho  Ho10  1  0.935233  0.565861  0.565861  1
  Ho  Ho11  1  0.565426  0.935576  0.935576  1
  Ho  Ho12  1  0.565861  0.935233  0.565861  1
  Ho  Ho13  1  0.935576  0.565426  0.935576  1
  Ho  Ho14  1  0.565861  0.565861  0.935233  1
  Ho  Ho15  1  0.935576  0.935576  0.565426  1
  Mg  Mg16  1  0.575915  0.575915  0.575915  1
  Cd  Cd17  1  0.582224  0.582224  0.252026  1
  Cd  Cd18  1  0.582224  0.252026  0.582224  1
  Cd  Cd19  1  0.252026  0.582224  0.582224  1
  Pt  Pt20  1  0.143265  0.143265  0.143265  1
  Pt  Pt21  1  0.142754  0.142754  0.571215  1
  Pt  Pt22  1  0.142754  0.571215  0.142754  1
  Pt  Pt23  1  0.571215  0.142754  0.142754  1
