# generated using pymatgen
data_Ca2LuIn(BO4)2
_symmetry_space_group_name_H-M   'P 1'
_cell_length_a   3.50743300
_cell_length_b   9.62412417
_cell_length_c   10.43638498
_cell_angle_alpha   89.35753139
_cell_angle_beta   90.00000000
_cell_angle_gamma   90.00000000
_symmetry_Int_Tables_number   1
_chemical_formula_structural   Ca2LuIn(BO4)2
_chemical_formula_sum   'Ca4 Lu2 In2 B4 O16'
_cell_volume   352.26815791
_cell_formula_units_Z   2
loop_
 _symmetry_equiv_pos_site_id
 _symmetry_equiv_pos_as_xyz
  1  'x, y, z'
loop_
 _atom_site_type_symbol
 _atom_site_label
 _atom_site_symmetry_multiplicity
 _atom_site_fract_x
 _atom_site_fract_y
 _atom_site_fract_z
 _atom_site_occupancy
  Ca  Ca0  1  0.250000  0.669823  0.088818  1
  Ca  Ca1  1  0.750000  0.330177  0.911182  1
  Ca  Ca2  1  0.750000  0.157541  0.416799  1
  Ca  Ca3  1  0.250000  0.842459  0.583201  1
  Lu  Lu4  1  0.250000  0.082390  0.109874  1
  Lu  Lu5  1  0.750000  0.917610  0.890126  1
  In  In6  1  0.750000  0.570170  0.385179  1
  In  In7  1  0.250000  0.429830  0.614821  1
  B  B8  1  0.250000  0.361663  0.195722  1
  B  B9  1  0.750000  0.638337  0.804278  1
  B  B10  1  0.750000  0.871048  0.308204  1
  B  B11  1  0.250000  0.128952  0.691796  1
  O  O12  1  0.250000  0.493157  0.251736  1
  O  O13  1  0.750000  0.506843  0.748264  1
  O  O14  1  0.750000  0.993279  0.235269  1
  O  O15  1  0.250000  0.006721  0.764731  1
  O  O16  1  0.250000  0.240641  0.268903  1
  O  O17  1  0.750000  0.759359  0.731097  1
  O  O18  1  0.750000  0.741286  0.246723  1
  O  O19  1  0.250000  0.258714  0.753277  1
  O  O20  1  0.250000  0.352434  0.062609  1
  O  O21  1  0.750000  0.647566  0.937391  1
  O  O22  1  0.750000  0.881909  0.439171  1
  O  O23  1  0.250000  0.118091  0.560829  1
  O  O24  1  0.250000  0.619847  0.500086  1
  O  O25  1  0.750000  0.380153  0.499914  1
  O  O26  1  0.750000  0.114553  0.991750  1
  O  O27  1  0.250000  0.885447  0.008250  1
