# generated using pymatgen
data_Lu2Fe3P7Ru9
_symmetry_space_group_name_H-M   'P 1'
_cell_length_a   3.83125700
_cell_length_b   9.27317919
_cell_length_c   9.27208522
_cell_angle_alpha   120.00766007
_cell_angle_beta   90.00000000
_cell_angle_gamma   90.00000000
_symmetry_Int_Tables_number   1
_chemical_formula_structural   Lu2Fe3P7Ru9
_chemical_formula_sum   'Lu2 Fe3 P7 Ru9'
_cell_volume   285.26235053
_cell_formula_units_Z   1
loop_
 _symmetry_equiv_pos_site_id
 _symmetry_equiv_pos_as_xyz
  1  'x, y, z'
loop_
 _atom_site_type_symbol
 _atom_site_label
 _atom_site_symmetry_multiplicity
 _atom_site_fract_x
 _atom_site_fract_y
 _atom_site_fract_z
 _atom_site_occupancy
  Lu  Lu0  1  0.000000  0.666631  0.333268  1
  Lu  Lu1  1  0.500000  0.333339  0.666734  1
  Fe  Fe2  1  0.000000  0.888658  0.731520  1
  Fe  Fe3  1  0.000000  0.268513  0.157157  1
  Fe  Fe4  1  0.000000  0.842865  0.111433  1
  P  P5  1  0.000000  0.109997  0.697411  1
  P  P6  1  0.000000  0.302551  0.412494  1
  P  P7  1  0.000000  0.587581  0.890105  1
  P  P8  1  0.500000  0.718657  0.601852  1
  P  P9  1  0.500000  0.398111  0.116817  1
  P  P10  1  0.500000  0.883224  0.281311  1
  P  P11  1  0.000000  0.999916  0.999928  1
  Ru  Ru12  1  0.000000  0.362144  0.938758  1
  Ru  Ru13  1  0.000000  0.061267  0.423393  1
  Ru  Ru14  1  0.000000  0.576594  0.637869  1
  Ru  Ru15  1  0.500000  0.946018  0.560930  1
  Ru  Ru16  1  0.500000  0.438988  0.385059  1
  Ru  Ru17  1  0.500000  0.614978  0.054016  1
  Ru  Ru18  1  0.500000  0.116970  0.911493  1
  Ru  Ru19  1  0.500000  0.088441  0.205440  1
  Ru  Ru20  1  0.500000  0.794558  0.883013  1
