# generated using pymatgen
data_HoEr3CoHg
_symmetry_space_group_name_H-M   'P 1'
_cell_length_a   9.39081804
_cell_length_b   9.39081880
_cell_length_c   9.39081800
_cell_angle_alpha   60.00000282
_cell_angle_beta   60.00000015
_cell_angle_gamma   60.00000684
_symmetry_Int_Tables_number   1
_chemical_formula_structural   HoEr3CoHg
_chemical_formula_sum   'Ho4 Er12 Co4 Hg4'
_cell_volume   585.59228257
_cell_formula_units_Z   4
loop_
 _symmetry_equiv_pos_site_id
 _symmetry_equiv_pos_as_xyz
  1  'x, y, z'
loop_
 _atom_site_type_symbol
 _atom_site_label
 _atom_site_symmetry_multiplicity
 _atom_site_fract_x
 _atom_site_fract_y
 _atom_site_fract_z
 _atom_site_occupancy
  Ho  Ho0  1  0.597809  0.597809  0.597809  1
  Ho  Ho1  1  0.597809  0.597809  0.206573  1
  Ho  Ho2  1  0.597809  0.206573  0.597809  1
  Ho  Ho3  1  0.206573  0.597809  0.597809  1
  Er  Er4  1  0.061665  0.438335  0.438335  1
  Er  Er5  1  0.438335  0.061665  0.061665  1
  Er  Er6  1  0.438335  0.061665  0.438335  1
  Er  Er7  1  0.061665  0.438335  0.061665  1
  Er  Er8  1  0.438335  0.438335  0.061665  1
  Er  Er9  1  0.061665  0.061665  0.438335  1
  Er  Er10  1  0.188318  0.811682  0.811682  1
  Er  Er11  1  0.811682  0.188318  0.188318  1
  Er  Er12  1  0.811682  0.188318  0.811682  1
  Er  Er13  1  0.188318  0.811682  0.188318  1
  Er  Er14  1  0.811682  0.811682  0.188318  1
  Er  Er15  1  0.188318  0.188318  0.811682  1
  Co  Co16  1  0.391005  0.391005  0.391005  1
  Co  Co17  1  0.391005  0.391005  0.826986  1
  Co  Co18  1  0.391005  0.826986  0.391005  1
  Co  Co19  1  0.826986  0.391005  0.391005  1
  Hg  Hg20  1  0.834026  0.834026  0.834026  1
  Hg  Hg21  1  0.834026  0.834026  0.497921  1
  Hg  Hg22  1  0.834026  0.497921  0.834026  1
  Hg  Hg23  1  0.497921  0.834026  0.834026  1
