# generated using pymatgen
data_NdZn3InPd2
_symmetry_space_group_name_H-M   'P 1'
_cell_length_a   5.33546400
_cell_length_b   8.67590700
_cell_length_c   11.15214200
_cell_angle_alpha   90.00000000
_cell_angle_beta   90.00000000
_cell_angle_gamma   90.00000000
_symmetry_Int_Tables_number   1
_chemical_formula_structural   NdZn3InPd2
_chemical_formula_sum   'Nd4 Zn12 In4 Pd8'
_cell_volume   516.23253570
_cell_formula_units_Z   4
loop_
 _symmetry_equiv_pos_site_id
 _symmetry_equiv_pos_as_xyz
  1  'x, y, z'
loop_
 _atom_site_type_symbol
 _atom_site_label
 _atom_site_symmetry_multiplicity
 _atom_site_fract_x
 _atom_site_fract_y
 _atom_site_fract_z
 _atom_site_occupancy
  Nd  Nd0  1  0.750000  0.744991  0.442836  1
  Nd  Nd1  1  0.250000  0.255009  0.557164  1
  Nd  Nd2  1  0.250000  0.755009  0.942836  1
  Nd  Nd3  1  0.750000  0.244991  0.057164  1
  Zn  Zn4  1  0.497321  0.938344  0.685102  1
  Zn  Zn5  1  0.502679  0.061656  0.314898  1
  Zn  Zn6  1  0.502679  0.561656  0.185102  1
  Zn  Zn7  1  0.997321  0.061656  0.314898  1
  Zn  Zn8  1  0.497321  0.438344  0.814898  1
  Zn  Zn9  1  0.002679  0.938344  0.685102  1
  Zn  Zn10  1  0.002679  0.438344  0.814898  1
  Zn  Zn11  1  0.997321  0.561656  0.185102  1
  Zn  Zn12  1  0.750000  0.690692  0.758677  1
  Zn  Zn13  1  0.250000  0.309308  0.241323  1
  Zn  Zn14  1  0.250000  0.809308  0.258677  1
  Zn  Zn15  1  0.750000  0.190692  0.741323  1
  In  In16  1  0.750000  0.866519  0.132621  1
  In  In17  1  0.250000  0.133481  0.867379  1
  In  In18  1  0.250000  0.633481  0.632621  1
  In  In19  1  0.750000  0.366519  0.367379  1
  Pd  Pd20  1  0.750000  0.592135  0.984071  1
  Pd  Pd21  1  0.250000  0.407865  0.015929  1
  Pd  Pd22  1  0.250000  0.907865  0.484071  1
  Pd  Pd23  1  0.750000  0.092135  0.515929  1
  Pd  Pd24  1  0.750000  0.946510  0.893598  1
  Pd  Pd25  1  0.250000  0.053490  0.106402  1
  Pd  Pd26  1  0.250000  0.553490  0.393598  1
  Pd  Pd27  1  0.750000  0.446510  0.606402  1
