# generated using pymatgen
data_MgTa3TiRe24
_symmetry_space_group_name_H-M   'P 1'
_cell_length_a   8.42586679
_cell_length_b   8.42592820
_cell_length_c   8.42581300
_cell_angle_alpha   109.51946643
_cell_angle_beta   109.51801283
_cell_angle_gamma   109.51941812
_symmetry_Int_Tables_number   1
_chemical_formula_structural   MgTa3TiRe24
_chemical_formula_sum   'Mg1 Ta3 Ti1 Re24'
_cell_volume   459.67636703
_cell_formula_units_Z   1
loop_
 _symmetry_equiv_pos_site_id
 _symmetry_equiv_pos_as_xyz
  1  'x, y, z'
loop_
 _atom_site_type_symbol
 _atom_site_label
 _atom_site_symmetry_multiplicity
 _atom_site_fract_x
 _atom_site_fract_y
 _atom_site_fract_z
 _atom_site_occupancy
  Mg  Mg0  1  0.001972  0.001981  0.001999  1
  Ta  Ta1  1  0.634254  0.000154  0.000138  1
  Ta  Ta2  1  0.000151  0.634241  0.000135  1
  Ta  Ta3  1  0.000122  0.000123  0.634201  1
  Ti  Ti4  1  0.366394  0.366393  0.366383  1
  Re  Re5  1  0.398402  0.680909  0.000526  1
  Re  Re6  1  0.717832  0.319884  0.319862  1
  Re  Re7  1  0.398484  0.000571  0.680917  1
  Re  Re8  1  0.680923  0.398395  0.000541  1
  Re  Re9  1  0.000588  0.398505  0.680909  1
  Re  Re10  1  0.319890  0.717864  0.319885  1
  Re  Re11  1  0.319900  0.319912  0.717843  1
  Re  Re12  1  0.000521  0.680886  0.398435  1
  Re  Re13  1  0.680912  0.000518  0.398411  1
  Re  Re14  1  0.601222  0.601242  0.281768  1
  Re  Re15  1  0.281794  0.601256  0.601285  1
  Re  Re16  1  0.601256  0.281794  0.601305  1
  Re  Re17  1  0.375156  0.193586  0.000789  1
  Re  Re18  1  0.180857  0.804822  0.804800  1
  Re  Re19  1  0.375201  0.000836  0.193650  1
  Re  Re20  1  0.193619  0.375174  0.000812  1
  Re  Re21  1  0.000844  0.375203  0.193616  1
  Re  Re22  1  0.804814  0.180872  0.804780  1
  Re  Re23  1  0.804793  0.804784  0.180889  1
  Re  Re24  1  0.000818  0.193584  0.375207  1
  Re  Re25  1  0.193641  0.000829  0.375218  1
  Re  Re26  1  0.624093  0.624094  0.817500  1
  Re  Re27  1  0.817470  0.624071  0.624089  1
  Re  Re28  1  0.624079  0.817520  0.624110  1
