# generated using pymatgen
data_Sc2Ti3SbRh10
_symmetry_space_group_name_H-M   'P 1'
_cell_length_a   4.11166200
_cell_length_b   5.53188936
_cell_length_c   10.84567138
_cell_angle_alpha   90.48717667
_cell_angle_beta   90.00000000
_cell_angle_gamma   90.00000000
_symmetry_Int_Tables_number   1
_chemical_formula_structural   Sc2Ti3SbRh10
_chemical_formula_sum   'Sc2 Ti3 Sb1 Rh10'
_cell_volume   246.67868995
_cell_formula_units_Z   1
loop_
 _symmetry_equiv_pos_site_id
 _symmetry_equiv_pos_as_xyz
  1  'x, y, z'
loop_
 _atom_site_type_symbol
 _atom_site_label
 _atom_site_symmetry_multiplicity
 _atom_site_fract_x
 _atom_site_fract_y
 _atom_site_fract_z
 _atom_site_occupancy
  Sc  Sc0  1  0.500000  0.326989  0.144710  1
  Sc  Sc1  1  0.500000  0.673011  0.855290  1
  Ti  Ti2  1  0.000000  0.500000  0.500000  1
  Ti  Ti3  1  0.500000  0.835739  0.358616  1
  Ti  Ti4  1  0.500000  0.164261  0.641384  1
  Sb  Sb5  1  0.000000  0.000000  0.000000  1
  Rh  Rh6  1  0.000000  0.000000  0.500000  1
  Rh  Rh7  1  0.000000  0.500000  0.000000  1
  Rh  Rh8  1  0.000000  0.071685  0.252677  1
  Rh  Rh9  1  0.000000  0.928315  0.747323  1
  Rh  Rh10  1  0.000000  0.582861  0.267037  1
  Rh  Rh11  1  0.000000  0.417139  0.732963  1
  Rh  Rh12  1  0.500000  0.308675  0.399596  1
  Rh  Rh13  1  0.500000  0.691325  0.600404  1
  Rh  Rh14  1  0.500000  0.806371  0.121802  1
  Rh  Rh15  1  0.500000  0.193629  0.878198  1
