# generated using pymatgen
data_Y12Th4Mg3CdIr4
_symmetry_space_group_name_H-M   'P 1'
_cell_length_a   9.80860337
_cell_length_b   9.84238181
_cell_length_c   9.84238200
_cell_angle_alpha   59.99999936
_cell_angle_beta   59.88601527
_cell_angle_gamma   59.88601412
_symmetry_Int_Tables_number   1
_chemical_formula_structural   Y12Th4Mg3CdIr4
_chemical_formula_sum   'Y12 Th4 Mg3 Cd1 Ir4'
_cell_volume   670.72146523
_cell_formula_units_Z   1
loop_
 _symmetry_equiv_pos_site_id
 _symmetry_equiv_pos_as_xyz
  1  'x, y, z'
loop_
 _atom_site_type_symbol
 _atom_site_label
 _atom_site_symmetry_multiplicity
 _atom_site_fract_x
 _atom_site_fract_y
 _atom_site_fract_z
 _atom_site_occupancy
  Y  Y0  1  0.812287  0.187964  0.187964  1
  Y  Y1  1  0.189523  0.811160  0.811160  1
  Y  Y2  1  0.189523  0.811160  0.188158  1
  Y  Y3  1  0.812287  0.187964  0.811786  1
  Y  Y4  1  0.189523  0.188158  0.811160  1
  Y  Y5  1  0.812287  0.811786  0.187964  1
  Y  Y6  1  0.937409  0.564674  0.564674  1
  Y  Y7  1  0.566761  0.933745  0.933745  1
  Y  Y8  1  0.566761  0.933745  0.565750  1
  Y  Y9  1  0.937409  0.564674  0.933242  1
  Y  Y10  1  0.566761  0.565750  0.933745  1
  Y  Y11  1  0.937409  0.933242  0.564674  1
  Th  Th12  1  0.348116  0.347643  0.347643  1
  Th  Th13  1  0.348116  0.347643  0.956599  1
  Th  Th14  1  0.348116  0.956599  0.347643  1
  Th  Th15  1  0.956167  0.347944  0.347944  1
  Mg  Mg16  1  0.577202  0.581498  0.581498  1
  Mg  Mg17  1  0.577202  0.581498  0.259802  1
  Mg  Mg18  1  0.577202  0.259802  0.581498  1
  Cd  Cd19  1  0.250010  0.583330  0.583330  1
  Ir  Ir20  1  0.142985  0.143461  0.143461  1
  Ir  Ir21  1  0.142985  0.143461  0.570092  1
  Ir  Ir22  1  0.142985  0.570092  0.143461  1
  Ir  Ir23  1  0.570975  0.143008  0.143008  1
