# generated using pymatgen
data_Tm6Sc4Si5Bi
_symmetry_space_group_name_H-M   'P 1'
_cell_length_a   8.31781179
_cell_length_b   8.31781174
_cell_length_c   6.01293800
_cell_angle_alpha   90.00000000
_cell_angle_beta   90.00000000
_cell_angle_gamma   120.15189425
_symmetry_Int_Tables_number   1
_chemical_formula_structural   Tm6Sc4Si5Bi
_chemical_formula_sum   'Tm6 Sc4 Si5 Bi1'
_cell_volume   359.72346733
_cell_formula_units_Z   1
loop_
 _symmetry_equiv_pos_site_id
 _symmetry_equiv_pos_as_xyz
  1  'x, y, z'
loop_
 _atom_site_type_symbol
 _atom_site_label
 _atom_site_symmetry_multiplicity
 _atom_site_fract_x
 _atom_site_fract_y
 _atom_site_fract_z
 _atom_site_occupancy
  Tm  Tm0  1  0.767504  0.767504  0.250000  1
  Tm  Tm1  1  0.241399  0.984531  0.250000  1
  Tm  Tm2  1  0.984531  0.241399  0.250000  1
  Tm  Tm3  1  0.240545  0.240545  0.750000  1
  Tm  Tm4  1  0.753000  0.998389  0.750000  1
  Tm  Tm5  1  0.998389  0.753000  0.750000  1
  Sc  Sc6  1  0.677129  0.330422  0.505533  1
  Sc  Sc7  1  0.330422  0.677129  0.505533  1
  Sc  Sc8  1  0.330422  0.677129  0.994467  1
  Sc  Sc9  1  0.677129  0.330422  0.994467  1
  Si  Si10  1  0.600475  0.997961  0.250000  1
  Si  Si11  1  0.997961  0.600475  0.250000  1
  Si  Si12  1  0.604591  0.604591  0.750000  1
  Si  Si13  1  0.396475  0.002536  0.750000  1
  Si  Si14  1  0.002536  0.396475  0.750000  1
  Bi  Bi15  1  0.397493  0.397493  0.250000  1
