# generated using pymatgen
data_YNb5(B2Ru5)2
_symmetry_space_group_name_H-M   'P 1'
_cell_length_a   9.53265119
_cell_length_b   9.53265119
_cell_length_c   3.05515300
_cell_angle_alpha   90.00000000
_cell_angle_beta   90.00000000
_cell_angle_gamma   90.33274047
_symmetry_Int_Tables_number   1
_chemical_formula_structural   YNb5(B2Ru5)2
_chemical_formula_sum   'Y1 Nb5 B4 Ru10'
_cell_volume   277.62146683
_cell_formula_units_Z   1
loop_
 _symmetry_equiv_pos_site_id
 _symmetry_equiv_pos_as_xyz
  1  'x, y, z'
loop_
 _atom_site_type_symbol
 _atom_site_label
 _atom_site_symmetry_multiplicity
 _atom_site_fract_x
 _atom_site_fract_y
 _atom_site_fract_z
 _atom_site_occupancy
  Y  Y0  1  0.824393  0.675607  0.000000  1
  Nb  Nb1  1  0.178523  0.321477  0.000000  1
  Nb  Nb2  1  0.324343  0.823310  0.000000  1
  Nb  Nb3  1  0.676690  0.175657  0.000000  1
  Nb  Nb4  1  0.500523  0.500360  0.000000  1
  Nb  Nb5  1  0.999640  0.999477  0.000000  1
  B  B6  1  0.618833  0.881167  0.000000  1
  B  B7  1  0.377530  0.122470  0.000000  1
  B  B8  1  0.122970  0.620083  0.000000  1
  B  B9  1  0.879917  0.377030  0.000000  1
  Ru  Ru10  1  0.558542  0.724772  0.500000  1
  Ru  Ru11  1  0.426911  0.282590  0.500000  1
  Ru  Ru12  1  0.082055  0.782740  0.500000  1
  Ru  Ru13  1  0.930491  0.216555  0.500000  1
  Ru  Ru14  1  0.283445  0.569509  0.500000  1
  Ru  Ru15  1  0.717260  0.417945  0.500000  1
  Ru  Ru16  1  0.217410  0.073089  0.500000  1
  Ru  Ru17  1  0.775228  0.941458  0.500000  1
  Ru  Ru18  1  0.496289  0.003711  0.500000  1
  Ru  Ru19  1  0.009008  0.490992  0.500000  1
