# generated using pymatgen
data_Yb12Y7LuPb16
_symmetry_space_group_name_H-M   'P 1'
_cell_length_a   8.03842165
_cell_length_b   8.64089337
_cell_length_c   16.45908800
_cell_angle_alpha   90.01058934
_cell_angle_beta   90.02305111
_cell_angle_gamma   90.09232925
_symmetry_Int_Tables_number   1
_chemical_formula_structural   Yb12Y7LuPb16
_chemical_formula_sum   'Yb12 Y7 Lu1 Pb16'
_cell_volume   1143.23257236
_cell_formula_units_Z   1
loop_
 _symmetry_equiv_pos_site_id
 _symmetry_equiv_pos_as_xyz
  1  'x, y, z'
loop_
 _atom_site_type_symbol
 _atom_site_label
 _atom_site_symmetry_multiplicity
 _atom_site_fract_x
 _atom_site_fract_y
 _atom_site_fract_z
 _atom_site_occupancy
  Yb  Yb0  1  0.178986  0.338985  0.620560  1
  Yb  Yb1  1  0.503214  0.690342  0.592883  1
  Yb  Yb2  1  0.002585  0.810536  0.909216  1
  Yb  Yb3  1  0.493643  0.308496  0.091799  1
  Yb  Yb4  1  0.997376  0.191671  0.407707  1
  Yb  Yb5  1  0.494644  0.308787  0.408721  1
  Yb  Yb6  1  0.996435  0.190224  0.091983  1
  Yb  Yb7  1  0.502192  0.689632  0.907301  1
  Yb  Yb8  1  0.004095  0.809450  0.591008  1
  Yb  Yb9  1  0.335807  0.990627  0.749318  1
  Yb  Yb10  1  0.162964  0.489146  0.249691  1
  Yb  Yb11  1  0.664003  0.009591  0.250566  1
  Y  Y12  1  0.675238  0.160161  0.622058  1
  Y  Y13  1  0.175646  0.338003  0.878925  1
  Y  Y14  1  0.324340  0.837522  0.121289  1
  Y  Y15  1  0.826105  0.659807  0.378654  1
  Y  Y16  1  0.323706  0.838395  0.378225  1
  Y  Y17  1  0.824362  0.661150  0.120896  1
  Y  Y18  1  0.675501  0.160196  0.879017  1
  Lu  Lu19  1  0.838942  0.508531  0.748465  1
  Pb  Pb20  1  0.679853  0.963694  0.458244  1
  Pb  Pb21  1  0.175630  0.534502  0.041929  1
  Pb  Pb22  1  0.323545  0.034732  0.957519  1
  Pb  Pb23  1  0.820334  0.468022  0.545066  1
  Pb  Pb24  1  0.329365  0.034532  0.542304  1
  Pb  Pb25  1  0.822626  0.467584  0.953949  1
  Pb  Pb26  1  0.676641  0.964752  0.042511  1
  Pb  Pb27  1  0.173914  0.536614  0.456219  1
  Pb  Pb28  1  0.482254  0.381186  0.753628  1
  Pb  Pb29  1  0.973431  0.130192  0.749770  1
  Pb  Pb30  1  0.524759  0.629718  0.249807  1
  Pb  Pb31  1  0.024140  0.869828  0.248733  1
  Pb  Pb32  1  0.716937  0.860130  0.751210  1
  Pb  Pb33  1  0.206216  0.633697  0.752341  1
  Pb  Pb34  1  0.286162  0.132150  0.249340  1
  Pb  Pb35  1  0.784408  0.367417  0.249149  1
