# generated using pymatgen
data_Fe6Mo6C
_symmetry_space_group_name_H-M   'P 1'
_cell_length_a   7.71057700
_cell_length_b   7.71079386
_cell_length_c   7.71048900
_cell_angle_alpha   119.99869641
_cell_angle_beta   90.00000000
_cell_angle_gamma   120.00193011
_symmetry_Int_Tables_number   1
_chemical_formula_structural   Fe6Mo6C
_chemical_formula_sum   'Fe12 Mo12 C2'
_cell_volume   324.15205771
_cell_formula_units_Z   2
loop_
 _symmetry_equiv_pos_site_id
 _symmetry_equiv_pos_as_xyz
  1  'x, y, z'
loop_
 _atom_site_type_symbol
 _atom_site_label
 _atom_site_symmetry_multiplicity
 _atom_site_fract_x
 _atom_site_fract_y
 _atom_site_fract_z
 _atom_site_occupancy
  Fe  Fe0  1  0.375000  0.750001  0.124999  1
  Fe  Fe1  1  0.578618  0.157315  0.421316  1
  Fe  Fe2  1  0.263800  0.842556  0.421278  1
  Fe  Fe3  1  0.578627  0.842641  0.421320  1
  Fe  Fe4  1  0.171382  0.342684  0.513999  1
  Fe  Fe5  1  0.875001  0.250001  0.625000  1
  Fe  Fe6  1  0.375000  0.250001  0.625001  1
  Fe  Fe7  1  0.375000  0.750001  0.625001  1
  Fe  Fe8  1  0.578617  0.157315  0.736000  1
  Fe  Fe9  1  0.171382  0.342684  0.828684  1
  Fe  Fe10  1  0.171373  0.657360  0.828680  1
  Fe  Fe11  1  0.486200  0.657445  0.828722  1
  Mo  Mo12  1  0.552753  0.105420  0.052711  1
  Mo  Mo13  1  0.552711  0.499996  0.052691  1
  Mo  Mo14  1  0.947336  0.500031  0.052791  1
  Mo  Mo15  1  0.197288  0.000004  0.197309  1
  Mo  Mo16  1  0.802663  0.999969  0.197209  1
  Mo  Mo17  1  0.197246  0.394579  0.197289  1
  Mo  Mo18  1  0.552711  0.499996  0.447306  1
  Mo  Mo19  1  0.947336  0.500031  0.447240  1
  Mo  Mo20  1  0.947350  0.894554  0.447277  1
  Mo  Mo21  1  0.197288  0.000004  0.802693  1
  Mo  Mo22  1  0.802663  0.999969  0.802759  1
  Mo  Mo23  1  0.802649  0.605445  0.802722  1
  C  C24  1  0.000048  0.000040  0.000020  1
  C  C25  1  0.749952  0.499960  0.249980  1
