# generated using pymatgen
data_ScInF6
_symmetry_space_group_name_H-M   'P 1'
_cell_length_a   5.83033793
_cell_length_b   5.83033804
_cell_length_c   5.83033891
_cell_angle_alpha   60.03378076
_cell_angle_beta   60.03377782
_cell_angle_gamma   60.03378527
_symmetry_Int_Tables_number   1
_chemical_formula_structural   ScInF6
_chemical_formula_sum   'Sc1 In1 F6'
_cell_volume   140.24865219
_cell_formula_units_Z   1
loop_
 _symmetry_equiv_pos_site_id
 _symmetry_equiv_pos_as_xyz
  1  'x, y, z'
loop_
 _atom_site_type_symbol
 _atom_site_label
 _atom_site_symmetry_multiplicity
 _atom_site_fract_x
 _atom_site_fract_y
 _atom_site_fract_z
 _atom_site_occupancy
  Sc  Sc0  1  0.500000  0.500000  0.500000  1
  In  In1  1  0.000000  0.000000  0.000000  1
  F  F2  1  0.745836  0.230302  0.277990  1
  F  F3  1  0.277990  0.745836  0.230302  1
  F  F4  1  0.230302  0.277990  0.745836  1
  F  F5  1  0.254164  0.769698  0.722010  1
  F  F6  1  0.722010  0.254164  0.769698  1
  F  F7  1  0.769698  0.722010  0.254164  1
