# generated using pymatgen
data_NdHoTm2Ni13C4
_symmetry_space_group_name_H-M   'P 1'
_cell_length_a   3.85809300
_cell_length_b   8.38681406
_cell_length_c   8.38681321
_cell_angle_alpha   91.04316711
_cell_angle_beta   90.00000000
_cell_angle_gamma   90.00000000
_symmetry_Int_Tables_number   1
_chemical_formula_structural   NdHoTm2Ni13C4
_chemical_formula_sum   'Nd1 Ho1 Tm2 Ni13 C4'
_cell_volume   271.32804906
_cell_formula_units_Z   1
loop_
 _symmetry_equiv_pos_site_id
 _symmetry_equiv_pos_as_xyz
  1  'x, y, z'
loop_
 _atom_site_type_symbol
 _atom_site_label
 _atom_site_symmetry_multiplicity
 _atom_site_fract_x
 _atom_site_fract_y
 _atom_site_fract_z
 _atom_site_occupancy
  Nd  Nd0  1  0.500000  0.347262  0.347262  1
  Ho  Ho1  1  0.500000  0.652280  0.652280  1
  Tm  Tm2  1  0.500000  0.186438  0.812776  1
  Tm  Tm3  1  0.500000  0.812776  0.186438  1
  Ni  Ni4  1  0.500000  0.994057  0.503954  1
  Ni  Ni5  1  0.500000  0.503954  0.994057  1
  Ni  Ni6  1  0.000000  0.997685  0.997685  1
  Ni  Ni7  1  0.000000  0.786890  0.430557  1
  Ni  Ni8  1  0.000000  0.216672  0.573657  1
  Ni  Ni9  1  0.000000  0.573657  0.216672  1
  Ni  Ni10  1  0.000000  0.430557  0.786890  1
  Ni  Ni11  1  0.000000  0.927474  0.709158  1
  Ni  Ni12  1  0.000000  0.067475  0.288122  1
  Ni  Ni13  1  0.000000  0.288122  0.067475  1
  Ni  Ni14  1  0.000000  0.709158  0.927474  1
  Ni  Ni15  1  0.500000  0.875615  0.875615  1
  Ni  Ni16  1  0.500000  0.118583  0.118583  1
  C  C17  1  0.000000  0.561020  0.447087  1
  C  C18  1  0.000000  0.447087  0.561020  1
  C  C19  1  0.000000  0.003118  0.500121  1
  C  C20  1  0.000000  0.500121  0.003118  1
