# generated using pymatgen
data_YPa3(InNi2)2
_symmetry_space_group_name_H-M   'P 1'
_cell_length_a   7.47360467
_cell_length_b   7.47360441
_cell_length_c   3.52880100
_cell_angle_alpha   90.00000000
_cell_angle_beta   90.00000000
_cell_angle_gamma   91.50549943
_symmetry_Int_Tables_number   1
_chemical_formula_structural   YPa3(InNi2)2
_chemical_formula_sum   'Y1 Pa3 In2 Ni4'
_cell_volume   197.03231241
_cell_formula_units_Z   1
loop_
 _symmetry_equiv_pos_site_id
 _symmetry_equiv_pos_as_xyz
  1  'x, y, z'
loop_
 _atom_site_type_symbol
 _atom_site_label
 _atom_site_symmetry_multiplicity
 _atom_site_fract_x
 _atom_site_fract_y
 _atom_site_fract_z
 _atom_site_occupancy
  Y  Y0  1  0.826305  0.673695  0.500000  1
  Pa  Pa1  1  0.674179  0.172555  0.500000  1
  Pa  Pa2  1  0.327445  0.825821  0.500000  1
  Pa  Pa3  1  0.170282  0.329718  0.500000  1
  In  In4  1  0.505627  0.502320  0.000000  1
  In  In5  1  0.997680  0.994373  0.000000  1
  Ni  Ni6  1  0.141350  0.618718  0.000000  1
  Ni  Ni7  1  0.881282  0.358650  0.000000  1
  Ni  Ni8  1  0.608212  0.891788  0.000000  1
  Ni  Ni9  1  0.367639  0.132361  0.000000  1
