# generated using pymatgen
data_KRbSrCeSe8
_symmetry_space_group_name_H-M   'P 1'
_cell_length_a   6.41034100
_cell_length_b   6.41034100
_cell_length_c   8.72713800
_cell_angle_alpha   90.00000000
_cell_angle_beta   90.00000000
_cell_angle_gamma   90.00000000
_symmetry_Int_Tables_number   1
_chemical_formula_structural   KRbSrCeSe8
_chemical_formula_sum   'K1 Rb1 Sr1 Ce1 Se8'
_cell_volume   358.61967160
_cell_formula_units_Z   1
loop_
 _symmetry_equiv_pos_site_id
 _symmetry_equiv_pos_as_xyz
  1  'x, y, z'
loop_
 _atom_site_type_symbol
 _atom_site_label
 _atom_site_symmetry_multiplicity
 _atom_site_fract_x
 _atom_site_fract_y
 _atom_site_fract_z
 _atom_site_occupancy
  K  K0  1  0.000000  0.000000  0.500000  1
  Rb  Rb1  1  0.500000  0.500000  0.500000  1
  Sr  Sr2  1  0.500000  0.500000  0.000000  1
  Ce  Ce3  1  0.000000  0.000000  0.000000  1
  Se  Se4  1  0.652681  0.887723  0.213764  1
  Se  Se5  1  0.112277  0.652681  0.213764  1
  Se  Se6  1  0.887723  0.347319  0.213764  1
  Se  Se7  1  0.652681  0.112277  0.786236  1
  Se  Se8  1  0.347319  0.887723  0.786236  1
  Se  Se9  1  0.347319  0.112277  0.213764  1
  Se  Se10  1  0.887723  0.652681  0.786236  1
  Se  Se11  1  0.112277  0.347319  0.786236  1
