# generated using pymatgen
data_Ca6Ga5SnIr4
_symmetry_space_group_name_H-M   'P 1'
_cell_length_a   5.83696800
_cell_length_b   8.17981700
_cell_length_c   15.14784300
_cell_angle_alpha   90.00000000
_cell_angle_beta   90.00000000
_cell_angle_gamma   90.00000000
_symmetry_Int_Tables_number   1
_chemical_formula_structural   Ca6Ga5SnIr4
_chemical_formula_sum   'Ca12 Ga10 Sn2 Ir8'
_cell_volume   723.23876396
_cell_formula_units_Z   2
loop_
 _symmetry_equiv_pos_site_id
 _symmetry_equiv_pos_as_xyz
  1  'x, y, z'
loop_
 _atom_site_type_symbol
 _atom_site_label
 _atom_site_symmetry_multiplicity
 _atom_site_fract_x
 _atom_site_fract_y
 _atom_site_fract_z
 _atom_site_occupancy
  Ca  Ca0  1  0.888600  0.454378  0.105618  1
  Ca  Ca1  1  0.388600  0.045622  0.894382  1
  Ca  Ca2  1  0.609949  0.952047  0.393764  1
  Ca  Ca3  1  0.109949  0.547953  0.606236  1
  Ca  Ca4  1  0.109949  0.547953  0.893764  1
  Ca  Ca5  1  0.609949  0.952047  0.106236  1
  Ca  Ca6  1  0.388600  0.045622  0.605618  1
  Ca  Ca7  1  0.888600  0.454378  0.394382  1
  Ca  Ca8  1  0.372026  0.301979  0.250000  1
  Ca  Ca9  1  0.872026  0.198021  0.750000  1
  Ca  Ca10  1  0.118715  0.799178  0.250000  1
  Ca  Ca11  1  0.618715  0.700822  0.750000  1
  Ga  Ga12  1  0.574880  0.641925  0.250000  1
  Ga  Ga13  1  0.074880  0.858075  0.750000  1
  Ga  Ga14  1  0.381871  0.325692  0.040153  1
  Ga  Ga15  1  0.881871  0.174308  0.959847  1
  Ga  Ga16  1  0.125769  0.821195  0.461407  1
  Ga  Ga17  1  0.625769  0.678805  0.538593  1
  Ga  Ga18  1  0.625769  0.678805  0.961407  1
  Ga  Ga19  1  0.125769  0.821195  0.038593  1
  Ga  Ga20  1  0.881871  0.174308  0.540153  1
  Ga  Ga21  1  0.381871  0.325692  0.459847  1
  Sn  Sn22  1  0.891041  0.152052  0.250000  1
  Sn  Sn23  1  0.391041  0.347948  0.750000  1
  Ir  Ir24  1  0.119891  0.108517  0.093601  1
  Ir  Ir25  1  0.619891  0.391483  0.906399  1
  Ir  Ir26  1  0.395589  0.613248  0.399375  1
  Ir  Ir27  1  0.895589  0.886752  0.600625  1
  Ir  Ir28  1  0.895589  0.886752  0.899375  1
  Ir  Ir29  1  0.395589  0.613248  0.100625  1
  Ir  Ir30  1  0.619891  0.391483  0.593601  1
  Ir  Ir31  1  0.119891  0.108517  0.406399  1
