# generated using pymatgen
data_Y3In3CoNiHg
_symmetry_space_group_name_H-M   'P 1'
_cell_length_a   7.81405900
_cell_length_b   7.81405823
_cell_length_c   3.72554900
_cell_angle_alpha   90.00000000
_cell_angle_beta   90.00000000
_cell_angle_gamma   119.99999903
_symmetry_Int_Tables_number   1
_chemical_formula_structural   Y3In3CoNiHg
_chemical_formula_sum   'Y3 In3 Co1 Ni1 Hg1'
_cell_volume   197.00363746
_cell_formula_units_Z   1
loop_
 _symmetry_equiv_pos_site_id
 _symmetry_equiv_pos_as_xyz
  1  'x, y, z'
loop_
 _atom_site_type_symbol
 _atom_site_label
 _atom_site_symmetry_multiplicity
 _atom_site_fract_x
 _atom_site_fract_y
 _atom_site_fract_z
 _atom_site_occupancy
  Y  Y0  1  0.033034  0.606497  0.500000  1
  Y  Y1  1  0.573462  0.966966  0.500000  1
  Y  Y2  1  0.393503  0.426538  0.500000  1
  In  In3  1  0.005513  0.252513  0.000000  1
  In  In4  1  0.247000  0.994487  0.000000  1
  In  In5  1  0.747487  0.753000  0.000000  1
  Co  Co6  1  0.333333  0.666667  0.000000  1
  Ni  Ni7  1  0.000000  0.000000  0.500000  1
  Hg  Hg8  1  0.666667  0.333333  0.000000  1
