# generated using pymatgen
data_Rb2Na2Zr6FeBrCl17
_symmetry_space_group_name_H-M   'P 1'
_cell_length_a   10.04331012
_cell_length_b   10.02353505
_cell_length_c   10.11101300
_cell_angle_alpha   119.39138577
_cell_angle_beta   101.90686463
_cell_angle_gamma   100.24263837
_symmetry_Int_Tables_number   1
_chemical_formula_structural   Rb2Na2Zr6FeBrCl17
_chemical_formula_sum   'Rb2 Na2 Zr6 Fe1 Br1 Cl17'
_cell_volume   819.96655095
_cell_formula_units_Z   1
loop_
 _symmetry_equiv_pos_site_id
 _symmetry_equiv_pos_as_xyz
  1  'x, y, z'
loop_
 _atom_site_type_symbol
 _atom_site_label
 _atom_site_symmetry_multiplicity
 _atom_site_fract_x
 _atom_site_fract_y
 _atom_site_fract_z
 _atom_site_occupancy
  Rb  Rb0  1  0.684267  0.236176  0.548832  1
  Rb  Rb1  1  0.308273  0.770840  0.453554  1
  Na  Na2  1  0.614692  0.518786  0.191808  1
  Na  Na3  1  0.381698  0.468198  0.797341  1
  Zr  Zr4  1  0.159227  0.077689  0.263539  1
  Zr  Zr5  1  0.843377  0.923897  0.740206  1
  Zr  Zr6  1  0.855247  0.158512  0.134118  1
  Zr  Zr7  1  0.146812  0.841889  0.868845  1
  Zr  Zr8  1  0.152985  0.237307  0.028788  1
  Zr  Zr9  1  0.848794  0.763535  0.973824  1
  Fe  Fe10  1  0.001128  0.000311  0.001356  1
  Br  Br11  1  0.655482  0.844798  0.445586  1
  Cl  Cl12  1  0.009270  0.419765  0.170771  1
  Cl  Cl13  1  0.991450  0.580462  0.830258  1
  Cl  Cl14  1  0.327306  0.336263  0.310108  1
  Cl  Cl15  1  0.674744  0.665168  0.692126  1
  Cl  Cl16  1  0.328895  0.496395  0.067450  1
  Cl  Cl17  1  0.669775  0.501126  0.929089  1
  Cl  Cl18  1  0.007559  0.828731  0.248099  1
  Cl  Cl19  1  0.994210  0.172067  0.754744  1
  Cl  Cl20  1  0.700484  0.325997  0.279083  1
  Cl  Cl21  1  0.300263  0.673257  0.722061  1
  Cl  Cl22  1  0.313747  0.084446  0.889242  1
  Cl  Cl23  1  0.686891  0.915405  0.110262  1
  Cl  Cl24  1  0.013512  0.245445  0.418527  1
  Cl  Cl25  1  0.987988  0.755239  0.584280  1
  Cl  Cl26  1  0.320919  0.914309  0.138808  1
  Cl  Cl27  1  0.681125  0.086457  0.864026  1
  Cl  Cl28  1  0.339878  0.157530  0.543269  1
