# generated using pymatgen
data_Y2PaInGa2Rh3
_symmetry_space_group_name_H-M   'P 1'
_cell_length_a   7.35128038
_cell_length_b   7.54540466
_cell_length_c   3.78340100
_cell_angle_alpha   90.00000000
_cell_angle_beta   90.00000000
_cell_angle_gamma   120.16279546
_symmetry_Int_Tables_number   1
_chemical_formula_structural   Y2PaInGa2Rh3
_chemical_formula_sum   'Y2 Pa1 In1 Ga2 Rh3'
_cell_volume   181.44447884
_cell_formula_units_Z   1
loop_
 _symmetry_equiv_pos_site_id
 _symmetry_equiv_pos_as_xyz
  1  'x, y, z'
loop_
 _atom_site_type_symbol
 _atom_site_label
 _atom_site_symmetry_multiplicity
 _atom_site_fract_x
 _atom_site_fract_y
 _atom_site_fract_z
 _atom_site_occupancy
  Y  Y0  1  0.393995  0.394711  0.500000  1
  Y  Y1  1  0.593479  0.014001  0.500000  1
  Pa  Pa2  1  0.004456  0.578863  0.500000  1
  In  In3  1  0.731834  0.747921  0.000000  1
  Ga  Ga4  1  0.996238  0.236313  0.000000  1
  Ga  Ga5  1  0.264069  0.005975  0.000000  1
  Rh  Rh6  1  0.292354  0.660635  0.000000  1
  Rh  Rh7  1  0.020455  0.001691  0.500000  1
  Rh  Rh8  1  0.703120  0.359893  0.000000  1
