# generated using pymatgen
data_HoEr19Si15Rh
_symmetry_space_group_name_H-M   'P 1'
_cell_length_a   7.37412963
_cell_length_b   7.61582392
_cell_length_c   14.45330700
_cell_angle_alpha   90.29128661
_cell_angle_beta   90.34363861
_cell_angle_gamma   90.18966405
_symmetry_Int_Tables_number   1
_chemical_formula_structural   HoEr19Si15Rh
_chemical_formula_sum   'Ho1 Er19 Si15 Rh1'
_cell_volume   811.66915553
_cell_formula_units_Z   1
loop_
 _symmetry_equiv_pos_site_id
 _symmetry_equiv_pos_as_xyz
  1  'x, y, z'
loop_
 _atom_site_type_symbol
 _atom_site_label
 _atom_site_symmetry_multiplicity
 _atom_site_fract_x
 _atom_site_fract_y
 _atom_site_fract_z
 _atom_site_occupancy
  Ho  Ho0  1  0.024906  0.818511  0.599378  1
  Er  Er1  1  0.525536  0.683556  0.597833  1
  Er  Er2  1  0.321369  0.818909  0.121816  1
  Er  Er3  1  0.816878  0.679971  0.122459  1
  Er  Er4  1  0.851450  0.506296  0.749250  1
  Er  Er5  1  0.471304  0.315939  0.099463  1
  Er  Er6  1  0.028129  0.818166  0.901524  1
  Er  Er7  1  0.472202  0.316084  0.401791  1
  Er  Er8  1  0.652686  0.012206  0.257573  1
  Er  Er9  1  0.529558  0.682412  0.900497  1
  Er  Er10  1  0.681145  0.179817  0.877578  1
  Er  Er11  1  0.178186  0.321158  0.623874  1
  Er  Er12  1  0.184222  0.322869  0.875663  1
  Er  Er13  1  0.816524  0.688004  0.382205  1
  Er  Er14  1  0.323343  0.825127  0.377860  1
  Er  Er15  1  0.352519  0.990553  0.747550  1
  Er  Er16  1  0.682988  0.165099  0.618205  1
  Er  Er17  1  0.147355  0.490257  0.252118  1
  Er  Er18  1  0.971323  0.181307  0.098239  1
  Er  Er19  1  0.971791  0.177225  0.401307  1
  Si  Si20  1  0.233650  0.628860  0.750999  1
  Si  Si21  1  0.343674  0.028877  0.540881  1
  Si  Si22  1  0.027047  0.892913  0.246596  1
  Si  Si23  1  0.733445  0.869444  0.752338  1
  Si  Si24  1  0.265818  0.128373  0.246210  1
  Si  Si25  1  0.851048  0.471354  0.541695  1
  Si  Si26  1  0.481425  0.391934  0.748702  1
  Si  Si27  1  0.148117  0.530983  0.461353  1
  Si  Si28  1  0.147324  0.527980  0.039956  1
  Si  Si29  1  0.977670  0.104386  0.751977  1
  Si  Si30  1  0.768411  0.375799  0.248835  1
  Si  Si31  1  0.351057  0.029946  0.959877  1
  Si  Si32  1  0.856093  0.471429  0.959181  1
  Si  Si33  1  0.646737  0.970960  0.039194  1
  Si  Si34  1  0.521876  0.603296  0.248426  1
  Rh  Rh35  1  0.643196  0.979997  0.457595  1
