# generated using pymatgen
data_Ca3Si5PPd20
_symmetry_space_group_name_H-M   'P 1'
_cell_length_a   8.71952354
_cell_length_b   8.71952366
_cell_length_c   8.72002200
_cell_angle_alpha   59.99810940
_cell_angle_beta   59.99810896
_cell_angle_gamma   60.00378388
_symmetry_Int_Tables_number   1
_chemical_formula_structural   Ca3Si5PPd20
_chemical_formula_sum   'Ca3 Si5 P1 Pd20'
_cell_volume   468.80053906
_cell_formula_units_Z   1
loop_
 _symmetry_equiv_pos_site_id
 _symmetry_equiv_pos_as_xyz
  1  'x, y, z'
loop_
 _atom_site_type_symbol
 _atom_site_label
 _atom_site_symmetry_multiplicity
 _atom_site_fract_x
 _atom_site_fract_y
 _atom_site_fract_z
 _atom_site_occupancy
  Ca  Ca0  1  0.249115  0.249115  0.250885  1
  Ca  Ca1  1  0.749115  0.749115  0.750885  1
  Ca  Ca2  1  0.000725  0.000725  0.999275  1
  Si  Si3  1  0.731998  0.266480  0.268002  1
  Si  Si4  1  0.266480  0.731998  0.733520  1
  Si  Si5  1  0.266480  0.731998  0.268002  1
  Si  Si6  1  0.731998  0.266480  0.733520  1
  Si  Si7  1  0.268065  0.268065  0.731935  1
  P  P8  1  0.734232  0.734232  0.265768  1
  Pd  Pd9  1  0.384296  0.384296  0.384133  1
  Pd  Pd10  1  0.615668  0.615668  0.613745  1
  Pd  Pd11  1  0.384296  0.384296  0.847274  1
  Pd  Pd12  1  0.386255  0.845083  0.384332  1
  Pd  Pd13  1  0.615668  0.615668  0.154917  1
  Pd  Pd14  1  0.615867  0.152726  0.615704  1
  Pd  Pd15  1  0.845083  0.386255  0.384332  1
  Pd  Pd16  1  0.152726  0.615867  0.615704  1
  Pd  Pd17  1  0.344882  0.999871  0.000129  1
  Pd  Pd18  1  0.655198  0.998679  0.001321  1
  Pd  Pd19  1  0.999871  0.344882  0.655118  1
  Pd  Pd20  1  0.998679  0.655198  0.344802  1
  Pd  Pd21  1  0.999871  0.344882  0.000129  1
  Pd  Pd22  1  0.655198  0.998679  0.344802  1
  Pd  Pd23  1  0.998679  0.655198  0.001321  1
  Pd  Pd24  1  0.344882  0.999871  0.655118  1
  Pd  Pd25  1  0.001168  0.001168  0.344256  1
  Pd  Pd26  1  0.001168  0.001168  0.653409  1
  Pd  Pd27  1  0.655744  0.346591  0.998832  1
  Pd  Pd28  1  0.346591  0.655744  0.998832  1
