# generated using pymatgen
data_Ho16In4IrRu2Rh
_symmetry_space_group_name_H-M   'P 1'
_cell_length_a   9.63189314
_cell_length_b   9.62380315
_cell_length_c   9.60333641
_cell_angle_alpha   59.87813166
_cell_angle_beta   59.90158792
_cell_angle_gamma   59.97219191
_symmetry_Int_Tables_number   1
_chemical_formula_structural   Ho16In4IrRu2Rh
_chemical_formula_sum   'Ho16 In4 Ir1 Ru2 Rh1'
_cell_volume   628.27450549
_cell_formula_units_Z   1
loop_
 _symmetry_equiv_pos_site_id
 _symmetry_equiv_pos_as_xyz
  1  'x, y, z'
loop_
 _atom_site_type_symbol
 _atom_site_label
 _atom_site_symmetry_multiplicity
 _atom_site_fract_x
 _atom_site_fract_y
 _atom_site_fract_z
 _atom_site_occupancy
  Ho  Ho0  1  0.190157  0.189254  0.807950  1
  Ho  Ho1  1  0.597636  0.598293  0.206434  1
  Ho  Ho2  1  0.443123  0.059592  0.440244  1
  Ho  Ho3  1  0.442394  0.440163  0.060075  1
  Ho  Ho4  1  0.812638  0.189254  0.807950  1
  Ho  Ho5  1  0.191110  0.808262  0.189794  1
  Ho  Ho6  1  0.442670  0.057064  0.057597  1
  Ho  Ho7  1  0.188483  0.812553  0.810482  1
  Ho  Ho8  1  0.057368  0.440163  0.060075  1
  Ho  Ho9  1  0.810834  0.808262  0.189794  1
  Ho  Ho10  1  0.204684  0.598644  0.598020  1
  Ho  Ho11  1  0.059239  0.440981  0.440541  1
  Ho  Ho12  1  0.057040  0.059592  0.440244  1
  Ho  Ho13  1  0.807773  0.192564  0.191890  1
  Ho  Ho14  1  0.598337  0.205131  0.598195  1
  Ho  Ho15  1  0.598652  0.598644  0.598020  1
  In  In16  1  0.832905  0.832264  0.832223  1
  In  In17  1  0.833146  0.832615  0.501095  1
  In  In18  1  0.502608  0.832264  0.832223  1
  In  In19  1  0.833074  0.501307  0.832544  1
  Ir  Ir20  1  0.389273  0.829056  0.392397  1
  Ru  Ru21  1  0.387815  0.391195  0.391643  1
  Ru  Ru22  1  0.829346  0.391195  0.391643  1
  Rh  Rh23  1  0.389696  0.391684  0.828925  1
