# generated using pymatgen
data_GdH6Ir
_symmetry_space_group_name_H-M   'P 1'
_cell_length_a   4.69410774
_cell_length_b   4.69410859
_cell_length_c   4.69782262
_cell_angle_alpha   57.31304371
_cell_angle_beta   57.31305515
_cell_angle_gamma   57.32412603
_symmetry_Int_Tables_number   1
_chemical_formula_structural   GdH6Ir
_chemical_formula_sum   'Gd1 H6 Ir1'
_cell_volume   68.67464088
_cell_formula_units_Z   1
loop_
 _symmetry_equiv_pos_site_id
 _symmetry_equiv_pos_as_xyz
  1  'x, y, z'
loop_
 _atom_site_type_symbol
 _atom_site_label
 _atom_site_symmetry_multiplicity
 _atom_site_fract_x
 _atom_site_fract_y
 _atom_site_fract_z
 _atom_site_occupancy
  Gd  Gd0  1  0.500000  0.500000  0.500000  1
  H  H1  1  0.565540  0.099179  0.099342  1
  H  H2  1  0.099179  0.565540  0.099342  1
  H  H3  1  0.901010  0.901010  0.433952  1
  H  H4  1  0.098990  0.098990  0.566047  1
  H  H5  1  0.900821  0.434459  0.900658  1
  H  H6  1  0.434459  0.900821  0.900658  1
  Ir  Ir7  1  0.000000  0.000000  0.000000  1
