# generated using pymatgen
data_NdY12Th3(MgCo)4
_symmetry_space_group_name_H-M   'P 1'
_cell_length_a   9.67075594
_cell_length_b   9.67897701
_cell_length_c   9.67905900
_cell_angle_alpha   60.00097126
_cell_angle_beta   59.97414339
_cell_angle_gamma   59.97548022
_symmetry_Int_Tables_number   1
_chemical_formula_structural   NdY12Th3(MgCo)4
_chemical_formula_sum   'Nd1 Y12 Th3 Mg4 Co4'
_cell_volume   640.39179195
_cell_formula_units_Z   1
loop_
 _symmetry_equiv_pos_site_id
 _symmetry_equiv_pos_as_xyz
  1  'x, y, z'
loop_
 _atom_site_type_symbol
 _atom_site_label
 _atom_site_symmetry_multiplicity
 _atom_site_fract_x
 _atom_site_fract_y
 _atom_site_fract_z
 _atom_site_occupancy
  Nd  Nd0  1  0.957794  0.347392  0.347403  1
  Y  Y1  1  0.812641  0.186924  0.186925  1
  Y  Y2  1  0.187649  0.813108  0.813104  1
  Y  Y3  1  0.187649  0.813115  0.186137  1
  Y  Y4  1  0.812636  0.186925  0.813515  1
  Y  Y5  1  0.187650  0.186135  0.813112  1
  Y  Y6  1  0.812631  0.813520  0.186925  1
  Y  Y7  1  0.935767  0.564727  0.564729  1
  Y  Y8  1  0.562788  0.936732  0.936730  1
  Y  Y9  1  0.562788  0.936732  0.563750  1
  Y  Y10  1  0.935768  0.564727  0.934778  1
  Y  Y11  1  0.562790  0.563750  0.936731  1
  Y  Y12  1  0.935768  0.934778  0.564727  1
  Th  Th13  1  0.341374  0.344743  0.344777  1
  Th  Th14  1  0.341365  0.344734  0.969115  1
  Th  Th15  1  0.341348  0.969133  0.344751  1
  Mg  Mg16  1  0.579155  0.580052  0.580052  1
  Mg  Mg17  1  0.579154  0.580053  0.260741  1
  Mg  Mg18  1  0.579154  0.260743  0.580052  1
  Mg  Mg19  1  0.257997  0.580668  0.580668  1
  Co  Co20  1  0.154156  0.138891  0.138889  1
  Co  Co21  1  0.154157  0.138889  0.568064  1
  Co  Co22  1  0.154147  0.568085  0.138884  1
  Co  Co23  1  0.563669  0.145445  0.145443  1
