# generated using pymatgen
data_CeZn9Cd2
_symmetry_space_group_name_H-M   'P 1'
_cell_length_a   5.35416200
_cell_length_b   8.76519300
_cell_length_c   8.76519300
_cell_angle_alpha   90.00000000
_cell_angle_beta   90.00000000
_cell_angle_gamma   90.00000000
_symmetry_Int_Tables_number   1
_chemical_formula_structural   CeZn9Cd2
_chemical_formula_sum   'Ce2 Zn18 Cd4'
_cell_volume   411.35281522
_cell_formula_units_Z   2
loop_
 _symmetry_equiv_pos_site_id
 _symmetry_equiv_pos_as_xyz
  1  'x, y, z'
loop_
 _atom_site_type_symbol
 _atom_site_label
 _atom_site_symmetry_multiplicity
 _atom_site_fract_x
 _atom_site_fract_y
 _atom_site_fract_z
 _atom_site_occupancy
  Ce  Ce0  1  0.000000  0.000000  0.000000  1
  Ce  Ce1  1  0.000000  0.500000  0.500000  1
  Zn  Zn2  1  0.235835  0.181748  0.681748  1
  Zn  Zn3  1  0.764165  0.818252  0.318252  1
  Zn  Zn4  1  0.235835  0.818252  0.318252  1
  Zn  Zn5  1  0.235835  0.318252  0.181748  1
  Zn  Zn6  1  0.764165  0.318252  0.181748  1
  Zn  Zn7  1  0.764165  0.181748  0.681748  1
  Zn  Zn8  1  0.764165  0.681748  0.818252  1
  Zn  Zn9  1  0.235835  0.681748  0.818252  1
  Zn  Zn10  1  0.500000  0.049201  0.204911  1
  Zn  Zn11  1  0.500000  0.950799  0.795089  1
  Zn  Zn12  1  0.500000  0.795089  0.049201  1
  Zn  Zn13  1  0.500000  0.450799  0.704911  1
  Zn  Zn14  1  0.500000  0.204911  0.950799  1
  Zn  Zn15  1  0.500000  0.549201  0.295089  1
  Zn  Zn16  1  0.500000  0.704911  0.549201  1
  Zn  Zn17  1  0.500000  0.295089  0.450799  1
  Zn  Zn18  1  0.500000  0.000000  0.500000  1
  Zn  Zn19  1  0.500000  0.500000  0.000000  1
  Cd  Cd20  1  0.000000  0.621128  0.121128  1
  Cd  Cd21  1  0.000000  0.378872  0.878872  1
  Cd  Cd22  1  0.000000  0.878872  0.621128  1
  Cd  Cd23  1  0.000000  0.121128  0.378872  1
