# generated using pymatgen
data_Lu4Ga3Co4Sn
_symmetry_space_group_name_H-M   'P 1'
_cell_length_a   4.38359500
_cell_length_b   6.93951619
_cell_length_c   6.97244390
_cell_angle_alpha   90.73049114
_cell_angle_beta   90.00000000
_cell_angle_gamma   90.00000000
_symmetry_Int_Tables_number   1
_chemical_formula_structural   Lu4Ga3Co4Sn
_chemical_formula_sum   'Lu4 Ga3 Co4 Sn1'
_cell_volume   212.08470371
_cell_formula_units_Z   1
loop_
 _symmetry_equiv_pos_site_id
 _symmetry_equiv_pos_as_xyz
  1  'x, y, z'
loop_
 _atom_site_type_symbol
 _atom_site_label
 _atom_site_symmetry_multiplicity
 _atom_site_fract_x
 _atom_site_fract_y
 _atom_site_fract_z
 _atom_site_occupancy
  Lu  Lu0  1  0.750000  0.527192  0.809870  1
  Lu  Lu1  1  0.750000  0.005923  0.701155  1
  Lu  Lu2  1  0.250000  0.482904  0.193839  1
  Lu  Lu3  1  0.250000  0.975420  0.294845  1
  Ga  Ga4  1  0.750000  0.200610  0.103877  1
  Ga  Ga5  1  0.750000  0.698439  0.393828  1
  Ga  Ga6  1  0.250000  0.801994  0.896169  1
  Co  Co7  1  0.750000  0.348223  0.428409  1
  Co  Co8  1  0.750000  0.844650  0.061485  1
  Co  Co9  1  0.250000  0.665292  0.561501  1
  Co  Co10  1  0.250000  0.154005  0.947530  1
  Sn  Sn11  1  0.250000  0.295350  0.607492  1
