# generated using pymatgen
data_Nd6Cr(MoC4)3
_symmetry_space_group_name_H-M   'P 1'
_cell_length_a   8.44429300
_cell_length_b   8.44429103
_cell_length_c   5.27119400
_cell_angle_alpha   90.00000000
_cell_angle_beta   90.00000000
_cell_angle_gamma   119.99998030
_symmetry_Int_Tables_number   1
_chemical_formula_structural   Nd6Cr(MoC4)3
_chemical_formula_sum   'Nd6 Cr1 Mo3 C12'
_cell_volume   325.51140141
_cell_formula_units_Z   1
loop_
 _symmetry_equiv_pos_site_id
 _symmetry_equiv_pos_as_xyz
  1  'x, y, z'
loop_
 _atom_site_type_symbol
 _atom_site_label
 _atom_site_symmetry_multiplicity
 _atom_site_fract_x
 _atom_site_fract_y
 _atom_site_fract_z
 _atom_site_occupancy
  Nd  Nd0  1  0.618971  0.690430  0.750000  1
  Nd  Nd1  1  0.933045  0.613734  0.250000  1
  Nd  Nd2  1  0.680688  0.066955  0.250000  1
  Nd  Nd3  1  0.309570  0.928540  0.750000  1
  Nd  Nd4  1  0.071460  0.381029  0.750000  1
  Nd  Nd5  1  0.386266  0.319312  0.250000  1
  Cr  Cr6  1  0.333333  0.666667  0.250000  1
  Mo  Mo7  1  0.000000  0.000000  0.494079  1
  Mo  Mo8  1  0.000000  0.000000  0.005921  1
  Mo  Mo9  1  0.666667  0.333333  0.750000  1
  C  C10  1  0.961156  0.774568  0.750000  1
  C  C11  1  0.197704  0.958911  0.250000  1
  C  C12  1  0.761208  0.802296  0.250000  1
  C  C13  1  0.225432  0.186588  0.750000  1
  C  C14  1  0.813412  0.038844  0.750000  1
  C  C15  1  0.041089  0.238792  0.250000  1
  C  C16  1  0.869786  0.587486  0.750000  1
  C  C17  1  0.282884  0.856414  0.250000  1
  C  C18  1  0.573528  0.717116  0.250000  1
  C  C19  1  0.412514  0.282299  0.750000  1
  C  C20  1  0.143586  0.426472  0.250000  1
  C  C21  1  0.717701  0.130214  0.750000  1
