# generated using pymatgen
data_Ac3Si4Ge
_symmetry_space_group_name_H-M   'P 1'
_cell_length_a   7.20318626
_cell_length_b   7.20318389
_cell_length_c   9.20427700
_cell_angle_alpha   90.00000000
_cell_angle_beta   90.00000000
_cell_angle_gamma   119.65680547
_symmetry_Int_Tables_number   1
_chemical_formula_structural   Ac3Si4Ge
_chemical_formula_sum   'Ac6 Si8 Ge2'
_cell_volume   415.01232660
_cell_formula_units_Z   2
loop_
 _symmetry_equiv_pos_site_id
 _symmetry_equiv_pos_as_xyz
  1  'x, y, z'
loop_
 _atom_site_type_symbol
 _atom_site_label
 _atom_site_symmetry_multiplicity
 _atom_site_fract_x
 _atom_site_fract_y
 _atom_site_fract_z
 _atom_site_occupancy
  Ac  Ac0  1  0.669608  0.669608  0.000000  1
  Ac  Ac1  1  0.331175  0.995039  0.997692  1
  Ac  Ac2  1  0.995039  0.331175  0.002308  1
  Ac  Ac3  1  0.669608  0.669608  0.500000  1
  Ac  Ac4  1  0.331175  0.995039  0.502308  1
  Ac  Ac5  1  0.995039  0.331175  0.497692  1
  Si  Si6  1  0.669620  0.333693  0.750000  1
  Si  Si7  1  0.333693  0.669620  0.250000  1
  Si  Si8  1  0.996667  0.997254  0.750000  1
  Si  Si9  1  0.997254  0.996667  0.250000  1
  Si  Si10  1  0.658418  0.988845  0.750000  1
  Si  Si11  1  0.011877  0.670014  0.750000  1
  Si  Si12  1  0.988845  0.658418  0.250000  1
  Si  Si13  1  0.670014  0.011877  0.250000  1
  Ge  Ge14  1  0.326522  0.355446  0.750000  1
  Ge  Ge15  1  0.355446  0.326522  0.250000  1
