# generated using pymatgen
data_Y6Ho4Sn5Bi
_symmetry_space_group_name_H-M   'P 1'
_cell_length_a   8.99931900
_cell_length_b   8.99616065
_cell_length_c   6.51316200
_cell_angle_alpha   90.00000000
_cell_angle_beta   90.00000000
_cell_angle_gamma   120.01161055
_symmetry_Int_Tables_number   1
_chemical_formula_structural   Y6Ho4Sn5Bi
_chemical_formula_sum   'Y6 Ho4 Sn5 Bi1'
_cell_volume   456.60276665
_cell_formula_units_Z   1
loop_
 _symmetry_equiv_pos_site_id
 _symmetry_equiv_pos_as_xyz
  1  'x, y, z'
loop_
 _atom_site_type_symbol
 _atom_site_label
 _atom_site_symmetry_multiplicity
 _atom_site_fract_x
 _atom_site_fract_y
 _atom_site_fract_z
 _atom_site_occupancy
  Y  Y0  1  0.994625  0.757169  0.750000  1
  Y  Y1  1  0.000400  0.239570  0.250000  1
  Y  Y2  1  0.760830  0.760430  0.250000  1
  Y  Y3  1  0.764256  0.000000  0.750000  1
  Y  Y4  1  0.237456  0.242831  0.750000  1
  Y  Y5  1  0.238204  0.000000  0.250000  1
  Ho  Ho6  1  0.332566  0.662601  0.498342  1
  Ho  Ho7  1  0.669967  0.337399  0.001658  1
  Ho  Ho8  1  0.669967  0.337399  0.498342  1
  Ho  Ho9  1  0.332566  0.662601  0.001658  1
  Sn  Sn10  1  0.395731  0.394353  0.250000  1
  Sn  Sn11  1  0.001378  0.605647  0.250000  1
  Sn  Sn12  1  0.999574  0.396068  0.750000  1
  Sn  Sn13  1  0.603505  0.603932  0.750000  1
  Sn  Sn14  1  0.604991  0.000000  0.250000  1
  Bi  Bi15  1  0.393986  0.000000  0.750000  1
