# generated using pymatgen
data_PmTmCu4
_symmetry_space_group_name_H-M   'P 1'
_cell_length_a   5.52132428
_cell_length_b   5.52132552
_cell_length_c   5.52132431
_cell_angle_alpha   134.29618820
_cell_angle_beta   96.59753115
_cell_angle_gamma   100.76247094
_symmetry_Int_Tables_number   1
_chemical_formula_structural   PmTmCu4
_chemical_formula_sum   'Pm1 Tm1 Cu4'
_cell_volume   110.91662320
_cell_formula_units_Z   1
loop_
 _symmetry_equiv_pos_site_id
 _symmetry_equiv_pos_as_xyz
  1  'x, y, z'
loop_
 _atom_site_type_symbol
 _atom_site_label
 _atom_site_symmetry_multiplicity
 _atom_site_fract_x
 _atom_site_fract_y
 _atom_site_fract_z
 _atom_site_occupancy
  Pm  Pm0  1  0.500000  0.500000  0.000000  1
  Tm  Tm1  1  0.000000  0.000000  0.000000  1
  Cu  Cu2  1  0.589464  0.256989  0.332476  1
  Cu  Cu3  1  0.075489  0.743012  0.332477  1
  Cu  Cu4  1  0.924512  0.256989  0.667525  1
  Cu  Cu5  1  0.410536  0.743012  0.667524  1
