# generated using pymatgen
data_SmAs4(RuRh2)2
_symmetry_space_group_name_H-M   'P 1'
_cell_length_a   7.19732138
_cell_length_b   7.25579183
_cell_length_c   3.89285800
_cell_angle_alpha   90.00000000
_cell_angle_beta   90.00000000
_cell_angle_gamma   120.26910556
_symmetry_Int_Tables_number   1
_chemical_formula_structural   SmAs4(RuRh2)2
_chemical_formula_sum   'Sm1 As4 Ru2 Rh4'
_cell_volume   175.57829814
_cell_formula_units_Z   1
loop_
 _symmetry_equiv_pos_site_id
 _symmetry_equiv_pos_as_xyz
  1  'x, y, z'
loop_
 _atom_site_type_symbol
 _atom_site_label
 _atom_site_symmetry_multiplicity
 _atom_site_fract_x
 _atom_site_fract_y
 _atom_site_fract_z
 _atom_site_occupancy
  Sm  Sm0  1  0.000885  0.000442  0.000000  1
  As  As1  1  0.803385  0.614303  0.500000  1
  As  As2  1  0.335881  0.667941  0.000000  1
  As  As3  1  0.388184  0.194091  0.500000  1
  As  As4  1  0.803385  0.189082  0.500000  1
  Ru  Ru5  1  0.536831  0.068837  0.000000  1
  Ru  Ru6  1  0.536831  0.467994  0.000000  1
  Rh  Rh7  1  0.599039  0.799520  0.500000  1
  Rh  Rh8  1  0.197150  0.394004  0.500000  1
  Rh  Rh9  1  0.197150  0.803147  0.500000  1
  Rh  Rh10  1  0.934612  0.467306  0.000000  1
