# generated using pymatgen
data_Ce4Cd2PtAu3
_symmetry_space_group_name_H-M   'P 1'
_cell_length_a   8.08603913
_cell_length_b   8.08603893
_cell_length_c   3.82605100
_cell_angle_alpha   90.00000000
_cell_angle_beta   90.00000000
_cell_angle_gamma   90.06100868
_symmetry_Int_Tables_number   1
_chemical_formula_structural   Ce4Cd2PtAu3
_chemical_formula_sum   'Ce4 Cd2 Pt1 Au3'
_cell_volume   250.16248089
_cell_formula_units_Z   1
loop_
 _symmetry_equiv_pos_site_id
 _symmetry_equiv_pos_as_xyz
  1  'x, y, z'
loop_
 _atom_site_type_symbol
 _atom_site_label
 _atom_site_symmetry_multiplicity
 _atom_site_fract_x
 _atom_site_fract_y
 _atom_site_fract_z
 _atom_site_occupancy
  Ce  Ce0  1  0.671746  0.171746  0.500000  1
  Ce  Ce1  1  0.316405  0.816405  0.500000  1
  Ce  Ce2  1  0.176265  0.338731  0.500000  1
  Ce  Ce3  1  0.838731  0.676265  0.500000  1
  Cd  Cd4  1  0.001049  0.000936  0.000000  1
  Cd  Cd5  1  0.500936  0.501049  0.000000  1
  Pt  Pt6  1  0.127511  0.627511  0.000000  1
  Au  Au7  1  0.871267  0.371267  0.000000  1
  Au  Au8  1  0.626245  0.869846  0.000000  1
  Au  Au9  1  0.369846  0.126245  0.000000  1
