# generated using pymatgen
data_AcTmI26
_symmetry_space_group_name_H-M   'P 1'
_cell_length_a   13.18460828
_cell_length_b   11.69157084
_cell_length_c   15.59673269
_cell_angle_alpha   123.87879849
_cell_angle_beta   87.79803692
_cell_angle_gamma   104.55288068
_symmetry_Int_Tables_number   1
_chemical_formula_structural   AcTmI26
_chemical_formula_sum   'Ac1 Tm1 I26'
_cell_volume   1916.46715973
_cell_formula_units_Z   1
loop_
 _symmetry_equiv_pos_site_id
 _symmetry_equiv_pos_as_xyz
  1  'x, y, z'
loop_
 _atom_site_type_symbol
 _atom_site_label
 _atom_site_symmetry_multiplicity
 _atom_site_fract_x
 _atom_site_fract_y
 _atom_site_fract_z
 _atom_site_occupancy
  Ac  Ac0  1  0.677140  0.136222  0.064696  1
  Tm  Tm1  1  0.324051  0.863926  0.936544  1
  I  I2  1  0.379821  0.655934  0.973206  1
  I  I3  1  0.604409  0.340129  0.007826  1
  I  I4  1  0.581895  0.808469  0.390712  1
  I  I5  1  0.422556  0.193217  0.603242  1
  I  I6  1  0.737586  0.699313  0.018154  1
  I  I7  1  0.269703  0.306682  0.990100  1
  I  I8  1  0.725044  0.975867  0.178423  1
  I  I9  1  0.283574  0.024806  0.842598  1
  I  I10  1  0.432645  0.134058  0.135019  1
  I  I11  1  0.538880  0.844042  0.853266  1
  I  I12  1  0.225937  0.647253  0.708868  1
  I  I13  1  0.771434  0.359405  0.316191  1
  I  I14  1  0.115496  0.819655  0.999052  1
  I  I15  1  0.908540  0.193315  0.004790  1
  I  I16  1  0.086120  0.087967  0.216188  1
  I  I17  1  0.920998  0.912167  0.785305  1
  I  I18  1  0.279447  0.912794  0.454458  1
  I  I19  1  0.724489  0.088826  0.538503  1
  I  I20  1  0.321991  0.414049  0.647935  1
  I  I21  1  0.677590  0.584981  0.354600  1
  I  I22  1  0.854014  0.383862  0.698256  1
  I  I23  1  0.149794  0.620251  0.295460  1
  I  I24  1  0.942973  0.674332  0.594927  1
  I  I25  1  0.047812  0.316241  0.403324  1
  I  I26  1  0.256981  0.625860  0.126132  1
  I  I27  1  0.739081  0.376377  0.862227  1
