# generated using pymatgen
data_Ca8DyYIr4
_symmetry_space_group_name_H-M   'P 1'
_cell_length_a   6.62176383
_cell_length_b   7.40138036
_cell_length_c   8.65442943
_cell_angle_alpha   97.38030349
_cell_angle_beta   112.49265871
_cell_angle_gamma   89.99999648
_symmetry_Int_Tables_number   1
_chemical_formula_structural   Ca8DyYIr4
_chemical_formula_sum   'Ca8 Dy1 Y1 Ir4'
_cell_volume   388.08313958
_cell_formula_units_Z   1
loop_
 _symmetry_equiv_pos_site_id
 _symmetry_equiv_pos_as_xyz
  1  'x, y, z'
loop_
 _atom_site_type_symbol
 _atom_site_label
 _atom_site_symmetry_multiplicity
 _atom_site_fract_x
 _atom_site_fract_y
 _atom_site_fract_z
 _atom_site_occupancy
  Ca  Ca0  1  0.803890  0.081169  0.825752  1
  Ca  Ca1  1  0.978139  0.418831  0.174248  1
  Ca  Ca2  1  0.196015  0.918741  0.174087  1
  Ca  Ca3  1  0.021927  0.581259  0.825913  1
  Ca  Ca4  1  0.204352  0.181689  0.564091  1
  Ca  Ca5  1  0.640259  0.318311  0.435909  1
  Ca  Ca6  1  0.795649  0.818233  0.435842  1
  Ca  Ca7  1  0.359808  0.681767  0.564158  1
  Dy  Dy8  1  0.561675  0.750000  0.000000  1
  Y  Y9  1  0.437651  0.250000  0.000000  1
  Ir  Ir10  1  0.597959  0.427631  0.790571  1
  Ir  Ir11  1  0.807387  0.072369  0.209429  1
  Ir  Ir12  1  0.402340  0.573680  0.209391  1
  Ir  Ir13  1  0.192950  0.926320  0.790609  1
