# generated using pymatgen
data_ZrSc5Mn5Si12Ru
_symmetry_space_group_name_H-M   'P 1'
_cell_length_a   9.85470359
_cell_length_b   9.88067876
_cell_length_c   9.85231193
_cell_angle_alpha   149.81445679
_cell_angle_beta   132.58704884
_cell_angle_gamma   57.26600321
_symmetry_Int_Tables_number   1
_chemical_formula_structural   ZrSc5Mn5Si12Ru
_chemical_formula_sum   'Zr1 Sc5 Mn5 Si12 Ru1'
_cell_volume   352.59118124
_cell_formula_units_Z   1
loop_
 _symmetry_equiv_pos_site_id
 _symmetry_equiv_pos_as_xyz
  1  'x, y, z'
loop_
 _atom_site_type_symbol
 _atom_site_label
 _atom_site_symmetry_multiplicity
 _atom_site_fract_x
 _atom_site_fract_y
 _atom_site_fract_z
 _atom_site_occupancy
  Zr  Zr0  1  0.355528  0.362651  0.002077  1
  Sc  Sc1  1  0.352065  0.091625  0.258376  1
  Sc  Sc2  1  0.647204  0.908105  0.740520  1
  Sc  Sc3  1  0.167162  0.908077  0.259686  1
  Sc  Sc4  1  0.833467  0.092393  0.741224  1
  Sc  Sc5  1  0.644002  0.638159  0.999280  1
  Mn  Mn6  1  0.500095  0.500231  0.499810  1
  Mn  Mn7  1  0.999965  0.000452  0.499522  1
  Mn  Mn8  1  0.000277  0.500552  0.000206  1
  Mn  Mn9  1  0.248844  0.499554  0.748348  1
  Mn  Mn10  1  0.751777  0.500897  0.251707  1
  Si  Si11  1  0.001437  0.751202  0.750587  1
  Si  Si12  1  0.997268  0.247341  0.249257  1
  Si  Si13  1  0.499625  0.246960  0.747849  1
  Si  Si14  1  0.500878  0.753469  0.253082  1
  Si  Si15  1  0.193980  0.194980  0.990615  1
  Si  Si16  1  0.804630  0.800845  0.006761  1
  Si  Si17  1  0.286066  0.795690  0.498862  1
  Si  Si18  1  0.714052  0.205901  0.502439  1
  Si  Si19  1  0.715988  0.373479  0.357060  1
  Si  Si20  1  0.284896  0.627046  0.643248  1
  Si  Si21  1  0.986978  0.639994  0.352330  1
  Si  Si22  1  0.012819  0.360814  0.647055  1
  Ru  Ru23  1  0.500997  0.999585  0.000099  1
