# generated using pymatgen
data_Pr2Al6Ga6Ir
_symmetry_space_group_name_H-M   'P 1'
_cell_length_a   6.04559300
_cell_length_b   6.04559300
_cell_length_c   15.89885800
_cell_angle_alpha   90.00000000
_cell_angle_beta   90.00000000
_cell_angle_gamma   90.00000000
_symmetry_Int_Tables_number   1
_chemical_formula_structural   Pr2Al6Ga6Ir
_chemical_formula_sum   'Pr4 Al12 Ga12 Ir2'
_cell_volume   581.09045689
_cell_formula_units_Z   2
loop_
 _symmetry_equiv_pos_site_id
 _symmetry_equiv_pos_as_xyz
  1  'x, y, z'
loop_
 _atom_site_type_symbol
 _atom_site_label
 _atom_site_symmetry_multiplicity
 _atom_site_fract_x
 _atom_site_fract_y
 _atom_site_fract_z
 _atom_site_occupancy
  Pr  Pr0  1  0.750000  0.250000  0.246612  1
  Pr  Pr1  1  0.250000  0.750000  0.246612  1
  Pr  Pr2  1  0.250000  0.750000  0.752759  1
  Pr  Pr3  1  0.750000  0.250000  0.752759  1
  Al  Al4  1  0.499944  0.999944  0.914263  1
  Al  Al5  1  0.999944  0.000056  0.914263  1
  Al  Al6  1  0.500056  0.499944  0.914263  1
  Al  Al7  1  0.000056  0.500056  0.914263  1
  Al  Al8  1  0.499889  0.999889  0.085530  1
  Al  Al9  1  0.999889  0.000111  0.085530  1
  Al  Al10  1  0.500111  0.499889  0.085530  1
  Al  Al11  1  0.000111  0.500111  0.085530  1
  Al  Al12  1  0.581670  0.081670  0.432660  1
  Al  Al13  1  0.081670  0.918330  0.432660  1
  Al  Al14  1  0.418330  0.581670  0.432660  1
  Al  Al15  1  0.918330  0.418330  0.432660  1
  Ga  Ga16  1  0.250000  0.250000  0.188220  1
  Ga  Ga17  1  0.750000  0.750000  0.188220  1
  Ga  Ga18  1  0.750000  0.750000  0.811787  1
  Ga  Ga19  1  0.250000  0.250000  0.811787  1
  Ga  Ga20  1  0.250000  0.250000  0.343905  1
  Ga  Ga21  1  0.750000  0.750000  0.343905  1
  Ga  Ga22  1  0.750000  0.750000  0.655669  1
  Ga  Ga23  1  0.250000  0.250000  0.655669  1
  Ga  Ga24  1  0.417708  0.917708  0.568072  1
  Ga  Ga25  1  0.917708  0.082292  0.568072  1
  Ga  Ga26  1  0.582292  0.417708  0.568072  1
  Ga  Ga27  1  0.082292  0.582292  0.568072  1
  Ir  Ir28  1  0.750000  0.250000  0.999997  1
  Ir  Ir29  1  0.250000  0.750000  0.999997  1
