# generated using pymatgen
data_VSb3F18
_symmetry_space_group_name_H-M   'P 1'
_cell_length_a   8.81770900
_cell_length_b   8.81770875
_cell_length_c   9.56125900
_cell_angle_alpha   90.00000000
_cell_angle_beta   90.00000000
_cell_angle_gamma   119.99999718
_symmetry_Int_Tables_number   1
_chemical_formula_structural   VSb3F18
_chemical_formula_sum   'V2 Sb6 F36'
_cell_volume   643.80928988
_cell_formula_units_Z   2
loop_
 _symmetry_equiv_pos_site_id
 _symmetry_equiv_pos_as_xyz
  1  'x, y, z'
loop_
 _atom_site_type_symbol
 _atom_site_label
 _atom_site_symmetry_multiplicity
 _atom_site_fract_x
 _atom_site_fract_y
 _atom_site_fract_z
 _atom_site_occupancy
  V  V0  1  0.000000  0.000000  0.000000  1
  V  V1  1  0.000000  0.000000  0.500000  1
  Sb  Sb2  1  0.656704  0.000000  0.750000  1
  Sb  Sb3  1  0.343296  0.343296  0.750000  1
  Sb  Sb4  1  0.000000  0.656704  0.750000  1
  Sb  Sb5  1  0.656704  0.656704  0.250000  1
  Sb  Sb6  1  0.000000  0.343296  0.250000  1
  Sb  Sb7  1  0.343296  0.000000  0.250000  1
  F  F8  1  0.470148  0.898926  0.877707  1
  F  F9  1  0.428778  0.529852  0.877707  1
  F  F10  1  0.101074  0.571222  0.877707  1
  F  F11  1  0.470148  0.571222  0.377707  1
  F  F12  1  0.101074  0.529852  0.377707  1
  F  F13  1  0.428778  0.898926  0.377707  1
  F  F14  1  0.529852  0.101074  0.122293  1
  F  F15  1  0.571222  0.470148  0.122293  1
  F  F16  1  0.898926  0.428778  0.122293  1
  F  F17  1  0.529852  0.428778  0.622293  1
  F  F18  1  0.898926  0.470148  0.622293  1
  F  F19  1  0.571222  0.101074  0.622293  1
  F  F20  1  0.792570  0.917342  0.874864  1
  F  F21  1  0.124772  0.207430  0.874864  1
  F  F22  1  0.082658  0.875228  0.874864  1
  F  F23  1  0.792570  0.875228  0.374864  1
  F  F24  1  0.082658  0.207430  0.374864  1
  F  F25  1  0.124772  0.917342  0.374864  1
  F  F26  1  0.207430  0.082658  0.125136  1
  F  F27  1  0.875228  0.792570  0.125136  1
  F  F28  1  0.917342  0.124772  0.125136  1
  F  F29  1  0.207430  0.124772  0.625136  1
  F  F30  1  0.917342  0.792570  0.625136  1
  F  F31  1  0.875228  0.082658  0.625136  1
  F  F32  1  0.790843  0.210231  0.849821  1
  F  F33  1  0.419387  0.209157  0.849821  1
  F  F34  1  0.789769  0.580613  0.849821  1
  F  F35  1  0.790843  0.580613  0.349821  1
  F  F36  1  0.789769  0.209157  0.349821  1
  F  F37  1  0.419387  0.210231  0.349821  1
  F  F38  1  0.209157  0.789769  0.150179  1
  F  F39  1  0.580613  0.790843  0.150179  1
  F  F40  1  0.210231  0.419387  0.150179  1
  F  F41  1  0.209157  0.419387  0.650179  1
  F  F42  1  0.210231  0.790843  0.650179  1
  F  F43  1  0.580613  0.789769  0.650179  1
