# generated using pymatgen
data_Er7Tm3Cd3Rh
_symmetry_space_group_name_H-M   'P 1'
_cell_length_a   9.48997501
_cell_length_b   9.48997478
_cell_length_c   9.65426900
_cell_angle_alpha   89.99718652
_cell_angle_beta   90.00281348
_cell_angle_gamma   119.99561938
_symmetry_Int_Tables_number   1
_chemical_formula_structural   Er7Tm3Cd3Rh
_chemical_formula_sum   'Er14 Tm6 Cd6 Rh2'
_cell_volume   753.00753631
_cell_formula_units_Z   2
loop_
 _symmetry_equiv_pos_site_id
 _symmetry_equiv_pos_as_xyz
  1  'x, y, z'
loop_
 _atom_site_type_symbol
 _atom_site_label
 _atom_site_symmetry_multiplicity
 _atom_site_fract_x
 _atom_site_fract_y
 _atom_site_fract_z
 _atom_site_occupancy
  Er  Er0  1  0.542018  0.457982  0.250280  1
  Er  Er1  1  0.542206  0.084215  0.250571  1
  Er  Er2  1  0.915785  0.457794  0.250571  1
  Er  Er3  1  0.457545  0.542455  0.749533  1
  Er  Er4  1  0.457928  0.915618  0.749285  1
  Er  Er5  1  0.084382  0.542072  0.749285  1
  Er  Er6  1  0.791139  0.581846  0.558504  1
  Er  Er7  1  0.418154  0.208861  0.558504  1
  Er  Er8  1  0.790923  0.209077  0.941103  1
  Er  Er9  1  0.790994  0.582023  0.941368  1
  Er  Er10  1  0.417977  0.209006  0.941368  1
  Er  Er11  1  0.209027  0.790973  0.058968  1
  Er  Er12  1  0.208846  0.417931  0.058992  1
  Er  Er13  1  0.582069  0.791154  0.058992  1
  Tm  Tm14  1  0.999752  0.000248  0.499954  1
  Tm  Tm15  1  0.000013  0.999987  0.999822  1
  Tm  Tm16  1  0.209290  0.790710  0.441293  1
  Tm  Tm17  1  0.209202  0.418773  0.441373  1
  Tm  Tm18  1  0.581227  0.790798  0.441373  1
  Tm  Tm19  1  0.791083  0.208917  0.558458  1
  Cd  Cd20  1  0.885517  0.114483  0.250127  1
  Cd  Cd21  1  0.885637  0.771134  0.250066  1
  Cd  Cd22  1  0.228866  0.114363  0.250066  1
  Cd  Cd23  1  0.114524  0.885476  0.749926  1
  Cd  Cd24  1  0.114375  0.228920  0.749919  1
  Cd  Cd25  1  0.771080  0.885625  0.749919  1
  Rh  Rh26  1  0.333231  0.666769  0.250969  1
  Rh  Rh27  1  0.667210  0.332790  0.749408  1
