# generated using pymatgen
data_Sc12GaNi4Hg
_symmetry_space_group_name_H-M   'P 1'
_cell_length_a   7.73992620
_cell_length_b   7.73992683
_cell_length_c   7.73992561
_cell_angle_alpha   111.27133918
_cell_angle_beta   110.80373298
_cell_angle_gamma   106.38241411
_symmetry_Int_Tables_number   1
_chemical_formula_structural   Sc12GaNi4Hg
_chemical_formula_sum   'Sc12 Ga1 Ni4 Hg1'
_cell_volume   356.15558013
_cell_formula_units_Z   1
loop_
 _symmetry_equiv_pos_site_id
 _symmetry_equiv_pos_as_xyz
  1  'x, y, z'
loop_
 _atom_site_type_symbol
 _atom_site_label
 _atom_site_symmetry_multiplicity
 _atom_site_fract_x
 _atom_site_fract_y
 _atom_site_fract_z
 _atom_site_occupancy
  Sc  Sc0  1  0.437608  0.236758  0.200850  1
  Sc  Sc1  1  0.562392  0.763242  0.799150  1
  Sc  Sc2  1  0.035907  0.236758  0.799150  1
  Sc  Sc3  1  0.964093  0.763242  0.200850  1
  Sc  Sc4  1  0.183167  0.281973  0.465141  1
  Sc  Sc5  1  0.816833  0.718027  0.534859  1
  Sc  Sc6  1  0.183167  0.718027  0.901194  1
  Sc  Sc7  1  0.816833  0.281973  0.098806  1
  Sc  Sc8  1  0.325654  0.624288  0.298634  1
  Sc  Sc9  1  0.674346  0.375712  0.701366  1
  Sc  Sc10  1  0.325654  0.027020  0.701366  1
  Sc  Sc11  1  0.674346  0.972980  0.298634  1
  Ga  Ga12  1  0.000000  0.000000  0.000000  1
  Ni  Ni13  1  0.348678  0.000000  0.348678  1
  Ni  Ni14  1  0.651322  0.000000  0.651322  1
  Ni  Ni15  1  0.127314  0.627314  0.500000  1
  Ni  Ni16  1  0.872686  0.372686  0.500000  1
  Hg  Hg17  1  0.500000  0.500000  0.000000  1
