# generated using pymatgen
data_NdHo2Er(WO6)2
_symmetry_space_group_name_H-M   'P 1'
_cell_length_a   5.43153400
_cell_length_b   7.75215961
_cell_length_c   11.51611074
_cell_angle_alpha   75.47928144
_cell_angle_beta   90.00000000
_cell_angle_gamma   90.00000000
_symmetry_Int_Tables_number   1
_chemical_formula_structural   NdHo2Er(WO6)2
_chemical_formula_sum   'Nd2 Ho4 Er2 W4 O24'
_cell_volume   469.40962186
_cell_formula_units_Z   2
loop_
 _symmetry_equiv_pos_site_id
 _symmetry_equiv_pos_as_xyz
  1  'x, y, z'
loop_
 _atom_site_type_symbol
 _atom_site_label
 _atom_site_symmetry_multiplicity
 _atom_site_fract_x
 _atom_site_fract_y
 _atom_site_fract_z
 _atom_site_occupancy
  Nd  Nd0  1  0.685536  0.500000  0.250000  1
  Nd  Nd1  1  0.314578  0.500000  0.750000  1
  Ho  Ho2  1  0.185150  0.203110  0.422988  1
  Ho  Ho3  1  0.185150  0.796890  0.077012  1
  Ho  Ho4  1  0.742687  0.000000  0.250000  1
  Ho  Ho5  1  0.257371  0.000000  0.750000  1
  Er  Er6  1  0.814873  0.796516  0.577246  1
  Er  Er7  1  0.814873  0.203484  0.922754  1
  W  W8  1  0.254663  0.272028  0.115600  1
  W  W9  1  0.254663  0.727972  0.384400  1
  W  W10  1  0.745553  0.727828  0.884104  1
  W  W11  1  0.745553  0.272172  0.615896  1
  O  O12  1  0.456030  0.204262  0.273428  1
  O  O13  1  0.456030  0.795738  0.226572  1
  O  O14  1  0.544577  0.795652  0.726052  1
  O  O15  1  0.544577  0.204348  0.773948  1
  O  O16  1  0.043119  0.058713  0.103797  1
  O  O17  1  0.043119  0.941287  0.396203  1
  O  O18  1  0.955993  0.942087  0.896007  1
  O  O19  1  0.955993  0.057913  0.603993  1
  O  O20  1  0.985583  0.280404  0.230546  1
  O  O21  1  0.985583  0.719596  0.269454  1
  O  O22  1  0.014371  0.719822  0.769145  1
  O  O23  1  0.014371  0.280178  0.730855  1
  O  O24  1  0.853572  0.359263  0.454088  1
  O  O25  1  0.853572  0.640737  0.045912  1
  O  O26  1  0.145480  0.641044  0.546124  1
  O  O27  1  0.145480  0.358956  0.953876  1
  O  O28  1  0.651388  0.507568  0.612922  1
  O  O29  1  0.651388  0.492432  0.887078  1
  O  O30  1  0.348985  0.492919  0.387159  1
  O  O31  1  0.348985  0.507081  0.112841  1
  O  O32  1  0.464020  0.154815  0.569917  1
  O  O33  1  0.464020  0.845185  0.930083  1
  O  O34  1  0.536555  0.845068  0.430791  1
  O  O35  1  0.536555  0.154932  0.069209  1
