# generated using pymatgen
data_Yb6Si4Ir3Pd
_symmetry_space_group_name_H-M   'P 1'
_cell_length_a   5.70418936
_cell_length_b   7.65456879
_cell_length_c   13.35795822
_cell_angle_alpha   89.73871040
_cell_angle_beta   89.75900520
_cell_angle_gamma   90.33016015
_symmetry_Int_Tables_number   1
_chemical_formula_structural   Yb6Si4Ir3Pd
_chemical_formula_sum   'Yb12 Si8 Ir6 Pd2'
_cell_volume   583.22902434
_cell_formula_units_Z   2
loop_
 _symmetry_equiv_pos_site_id
 _symmetry_equiv_pos_as_xyz
  1  'x, y, z'
loop_
 _atom_site_type_symbol
 _atom_site_label
 _atom_site_symmetry_multiplicity
 _atom_site_fract_x
 _atom_site_fract_y
 _atom_site_fract_z
 _atom_site_occupancy
  Yb  Yb0  1  0.644009  0.237078  0.253560  1
  Yb  Yb1  1  0.355991  0.762922  0.746440  1
  Yb  Yb2  1  0.365541  0.738759  0.251602  1
  Yb  Yb3  1  0.634459  0.261241  0.748398  1
  Yb  Yb4  1  0.136426  0.388172  0.099141  1
  Yb  Yb5  1  0.863574  0.611828  0.900859  1
  Yb  Yb6  1  0.861819  0.606422  0.597822  1
  Yb  Yb7  1  0.861244  0.895320  0.401382  1
  Yb  Yb8  1  0.138181  0.393578  0.402178  1
  Yb  Yb9  1  0.138756  0.104680  0.598618  1
  Yb  Yb10  1  0.140035  0.102474  0.899866  1
  Yb  Yb11  1  0.859965  0.897526  0.100134  1
  Si  Si12  1  0.161312  0.089329  0.250787  1
  Si  Si13  1  0.838688  0.910671  0.749213  1
  Si  Si14  1  0.850556  0.593263  0.251220  1
  Si  Si15  1  0.149444  0.406737  0.748780  1
  Si  Si16  1  0.615860  0.238575  0.997618  1
  Si  Si17  1  0.384140  0.761425  0.002382  1
  Si  Si18  1  0.410788  0.748945  0.500307  1
  Si  Si19  1  0.589212  0.251055  0.499693  1
  Ir  Ir20  1  0.368224  0.036753  0.093546  1
  Ir  Ir21  1  0.631776  0.963247  0.906454  1
  Ir  Ir22  1  0.638827  0.973256  0.591611  1
  Ir  Ir23  1  0.638341  0.527006  0.407707  1
  Ir  Ir24  1  0.361173  0.026744  0.408389  1
  Ir  Ir25  1  0.361659  0.472994  0.592293  1
  Pd  Pd26  1  0.367850  0.473751  0.910020  1
  Pd  Pd27  1  0.632150  0.526249  0.089980  1
