# generated using pymatgen
data_La2ThSn7
_symmetry_space_group_name_H-M   'P 1'
_cell_length_a   13.12576970
_cell_length_b   13.12577040
_cell_length_c   4.65952300
_cell_angle_alpha   90.00000000
_cell_angle_beta   90.00000000
_cell_angle_gamma   159.09316352
_symmetry_Int_Tables_number   1
_chemical_formula_structural   La2ThSn7
_chemical_formula_sum   'La2 Th1 Sn7'
_cell_volume   286.46798500
_cell_formula_units_Z   1
loop_
 _symmetry_equiv_pos_site_id
 _symmetry_equiv_pos_as_xyz
  1  'x, y, z'
loop_
 _atom_site_type_symbol
 _atom_site_label
 _atom_site_symmetry_multiplicity
 _atom_site_fract_x
 _atom_site_fract_y
 _atom_site_fract_z
 _atom_site_occupancy
  La  La0  1  0.183368  0.816632  0.000000  1
  La  La1  1  0.816632  0.183368  0.000000  1
  Th  Th2  1  0.000000  0.000000  0.000000  1
  Sn  Sn3  1  0.288737  0.711263  0.500000  1
  Sn  Sn4  1  0.711263  0.288737  0.500000  1
  Sn  Sn5  1  0.405047  0.594953  0.000000  1
  Sn  Sn6  1  0.594953  0.405047  0.000000  1
  Sn  Sn7  1  0.093490  0.906510  0.500000  1
  Sn  Sn8  1  0.906510  0.093490  0.500000  1
  Sn  Sn9  1  0.500000  0.500000  0.500000  1
