# generated using pymatgen
data_YNp3(Al3Ir)6
_symmetry_space_group_name_H-M   'P 1'
_cell_length_a   7.58006848
_cell_length_b   7.58281672
_cell_length_c   9.45318100
_cell_angle_alpha   90.00000000
_cell_angle_beta   90.00000000
_cell_angle_gamma   119.57419436
_symmetry_Int_Tables_number   1
_chemical_formula_structural   YNp3(Al3Ir)6
_chemical_formula_sum   'Y1 Np3 Al18 Ir6'
_cell_volume   472.56306568
_cell_formula_units_Z   1
loop_
 _symmetry_equiv_pos_site_id
 _symmetry_equiv_pos_as_xyz
  1  'x, y, z'
loop_
 _atom_site_type_symbol
 _atom_site_label
 _atom_site_symmetry_multiplicity
 _atom_site_fract_x
 _atom_site_fract_y
 _atom_site_fract_z
 _atom_site_occupancy
  Y  Y0  1  0.994505  0.670378  0.250000  1
  Np  Np1  1  0.004105  0.327788  0.750000  1
  Np  Np2  1  0.671161  0.996199  0.250000  1
  Np  Np3  1  0.329369  0.004530  0.750000  1
  Al  Al4  1  0.128124  0.128676  0.250000  1
  Al  Al5  1  0.869470  0.869499  0.750000  1
  Al  Al6  1  0.001440  0.335718  0.074627  1
  Al  Al7  1  0.999211  0.664442  0.924411  1
  Al  Al8  1  0.999211  0.664442  0.575589  1
  Al  Al9  1  0.334760  0.000627  0.425471  1
  Al  Al10  1  0.001440  0.335718  0.425373  1
  Al  Al11  1  0.664434  0.999010  0.574307  1
  Al  Al12  1  0.664434  0.999010  0.925693  1
  Al  Al13  1  0.334760  0.000627  0.074529  1
  Al  Al14  1  0.333823  0.333793  0.552930  1
  Al  Al15  1  0.667067  0.667025  0.445709  1
  Al  Al16  1  0.667067  0.667025  0.054291  1
  Al  Al17  1  0.333823  0.333793  0.947070  1
  Al  Al18  1  0.341344  0.549316  0.250000  1
  Al  Al19  1  0.659964  0.452658  0.750000  1
  Al  Al20  1  0.547597  0.339445  0.250000  1
  Al  Al21  1  0.451737  0.659180  0.750000  1
  Ir  Ir22  1  0.671807  0.329021  0.999908  1
  Ir  Ir23  1  0.328370  0.671872  0.999625  1
  Ir  Ir24  1  0.328370  0.671872  0.500375  1
  Ir  Ir25  1  0.671807  0.329021  0.500092  1
  Ir  Ir26  1  0.000398  0.999659  0.999451  1
  Ir  Ir27  1  0.000398  0.999659  0.500549  1
