# generated using pymatgen
data_Th3Sn2RuRh2Pb
_symmetry_space_group_name_H-M   'P 1'
_cell_length_a   7.62028306
_cell_length_b   7.62638229
_cell_length_c   4.11936000
_cell_angle_alpha   90.00000000
_cell_angle_beta   90.00000000
_cell_angle_gamma   119.73842829
_symmetry_Int_Tables_number   1
_chemical_formula_structural   Th3Sn2RuRh2Pb
_chemical_formula_sum   'Th3 Sn2 Ru1 Rh2 Pb1'
_cell_volume   207.86852351
_cell_formula_units_Z   1
loop_
 _symmetry_equiv_pos_site_id
 _symmetry_equiv_pos_as_xyz
  1  'x, y, z'
loop_
 _atom_site_type_symbol
 _atom_site_label
 _atom_site_symmetry_multiplicity
 _atom_site_fract_x
 _atom_site_fract_y
 _atom_site_fract_z
 _atom_site_occupancy
  Th  Th0  1  0.412463  0.407542  0.500000  1
  Th  Th1  1  0.590094  0.008544  0.500000  1
  Th  Th2  1  0.999895  0.585279  0.500000  1
  Sn  Sn3  1  0.252435  0.000489  0.000000  1
  Sn  Sn4  1  0.999887  0.251853  0.000000  1
  Ru  Ru5  1  0.663097  0.323868  0.000000  1
  Rh  Rh6  1  0.322362  0.662596  0.000000  1
  Rh  Rh7  1  0.012162  0.011949  0.500000  1
  Pb  Pb8  1  0.747606  0.747881  0.000000  1
