# generated using pymatgen
data_Rb2EuOsO6
_symmetry_space_group_name_H-M   'P 1'
_cell_length_a   6.08317938
_cell_length_b   6.08319008
_cell_length_c   6.08323500
_cell_angle_alpha   120.00036518
_cell_angle_beta   120.00018612
_cell_angle_gamma   60.00054558
_symmetry_Int_Tables_number   1
_chemical_formula_structural   Rb2EuOsO6
_chemical_formula_sum   'Rb2 Eu1 Os1 O6'
_cell_volume   159.17746619
_cell_formula_units_Z   1
loop_
 _symmetry_equiv_pos_site_id
 _symmetry_equiv_pos_as_xyz
  1  'x, y, z'
loop_
 _atom_site_type_symbol
 _atom_site_label
 _atom_site_symmetry_multiplicity
 _atom_site_fract_x
 _atom_site_fract_y
 _atom_site_fract_z
 _atom_site_occupancy
  Rb  Rb0  1  0.749998  0.749998  0.249998  1
  Rb  Rb1  1  0.250000  0.250000  0.749999  1
  Eu  Eu2  1  0.500000  0.500000  0.499999  1
  Os  Os3  1  0.000000  0.000000  0.000000  1
  O  O4  1  0.220850  0.220850  0.220849  1
  O  O5  1  0.779154  0.220845  0.220845  1
  O  O6  1  0.220844  0.779155  0.220844  1
  O  O7  1  0.779151  0.779151  0.779150  1
  O  O8  1  0.779155  0.220845  0.779155  1
  O  O9  1  0.220846  0.779154  0.779154  1
