# generated using pymatgen
data_Tl12Hg5Au
_symmetry_space_group_name_H-M   'P 1'
_cell_length_a   17.08007965
_cell_length_b   17.08007952
_cell_length_c   7.59830700
_cell_angle_alpha   98.91503964
_cell_angle_beta   98.91503957
_cell_angle_gamma   14.46249778
_symmetry_Int_Tables_number   1
_chemical_formula_structural   Tl12Hg5Au
_chemical_formula_sum   'Tl12 Hg5 Au1'
_cell_volume   546.80315098
_cell_formula_units_Z   1
loop_
 _symmetry_equiv_pos_site_id
 _symmetry_equiv_pos_as_xyz
  1  'x, y, z'
loop_
 _atom_site_type_symbol
 _atom_site_label
 _atom_site_symmetry_multiplicity
 _atom_site_fract_x
 _atom_site_fract_y
 _atom_site_fract_z
 _atom_site_occupancy
  Tl  Tl0  1  0.108810  0.108810  0.084249  1
  Tl  Tl1  1  0.221575  0.221575  0.115104  1
  Tl  Tl2  1  0.339382  0.339382  0.171232  1
  Tl  Tl3  1  0.450203  0.450203  0.235762  1
  Tl  Tl4  1  0.551086  0.551086  0.310425  1
  Tl  Tl5  1  0.781447  0.781447  0.402502  1
  Tl  Tl6  1  0.218553  0.218553  0.597499  1
  Tl  Tl7  1  0.448914  0.448914  0.689575  1
  Tl  Tl8  1  0.549797  0.549797  0.764237  1
  Tl  Tl9  1  0.660617  0.660617  0.828768  1
  Tl  Tl10  1  0.778424  0.778424  0.884895  1
  Tl  Tl11  1  0.891191  0.891191  0.915752  1
  Hg  Hg12  1  0.000000  0.000000  0.000000  1
  Hg  Hg13  1  0.665203  0.665203  0.332484  1
  Hg  Hg14  1  0.889614  0.889614  0.439025  1
  Hg  Hg15  1  0.110386  0.110386  0.560976  1
  Hg  Hg16  1  0.334797  0.334797  0.667516  1
  Au  Au17  1  0.000000  0.000000  0.500000  1
