# generated using pymatgen
data_PrSc2Ni9
_symmetry_space_group_name_H-M   'P 1'
_cell_length_a   8.46194464
_cell_length_b   8.46194456
_cell_length_c   8.46194517
_cell_angle_alpha   33.79629660
_cell_angle_beta   33.79629924
_cell_angle_gamma   33.79628618
_symmetry_Int_Tables_number   1
_chemical_formula_structural   PrSc2Ni9
_chemical_formula_sum   'Pr1 Sc2 Ni9'
_cell_volume   167.05215182
_cell_formula_units_Z   1
loop_
 _symmetry_equiv_pos_site_id
 _symmetry_equiv_pos_as_xyz
  1  'x, y, z'
loop_
 _atom_site_type_symbol
 _atom_site_label
 _atom_site_symmetry_multiplicity
 _atom_site_fract_x
 _atom_site_fract_y
 _atom_site_fract_z
 _atom_site_occupancy
  Pr  Pr0  1  0.000000  0.000000  0.000000  1
  Sc  Sc1  1  0.857701  0.857701  0.857701  1
  Sc  Sc2  1  0.142299  0.142299  0.142299  1
  Ni  Ni3  1  0.082852  0.587247  0.587247  1
  Ni  Ni4  1  0.917148  0.412753  0.412753  1
  Ni  Ni5  1  0.666750  0.666750  0.666750  1
  Ni  Ni6  1  0.587247  0.587247  0.082852  1
  Ni  Ni7  1  0.412753  0.917148  0.412753  1
  Ni  Ni8  1  0.333250  0.333250  0.333250  1
  Ni  Ni9  1  0.500000  0.500000  0.500000  1
  Ni  Ni10  1  0.412753  0.412753  0.917148  1
  Ni  Ni11  1  0.587247  0.082852  0.587247  1
