# generated using pymatgen
data_Tb6AlNiOs
_symmetry_space_group_name_H-M   'P 1'
_cell_length_a   8.44060473
_cell_length_b   8.44057968
_cell_length_c   8.44060516
_cell_angle_alpha   112.79794785
_cell_angle_beta   110.80900476
_cell_angle_gamma   104.90787568
_symmetry_Int_Tables_number   1
_chemical_formula_structural   Tb6AlNiOs
_chemical_formula_sum   'Tb12 Al2 Ni2 Os2'
_cell_volume   460.57968383
_cell_formula_units_Z   2
loop_
 _symmetry_equiv_pos_site_id
 _symmetry_equiv_pos_as_xyz
  1  'x, y, z'
loop_
 _atom_site_type_symbol
 _atom_site_label
 _atom_site_symmetry_multiplicity
 _atom_site_fract_x
 _atom_site_fract_y
 _atom_site_fract_z
 _atom_site_occupancy
  Tb  Tb0  1  0.047790  0.741669  0.306121  1
  Tb  Tb1  1  0.952210  0.258331  0.693879  1
  Tb  Tb2  1  0.564452  0.258331  0.306121  1
  Tb  Tb3  1  0.435548  0.741669  0.693879  1
  Tb  Tb4  1  0.670268  0.856500  0.186232  1
  Tb  Tb5  1  0.329731  0.515964  0.186233  1
  Tb  Tb6  1  0.329732  0.143500  0.813768  1
  Tb  Tb7  1  0.670269  0.484036  0.813767  1
  Tb  Tb8  1  0.181618  0.220597  0.402214  1
  Tb  Tb9  1  0.818382  0.220597  0.038979  1
  Tb  Tb10  1  0.181618  0.779403  0.961021  1
  Tb  Tb11  1  0.818382  0.779403  0.597786  1
  Al  Al12  1  0.000000  0.500000  0.500000  1
  Al  Al13  1  0.500000  0.000000  0.500000  1
  Ni  Ni14  1  0.884429  0.884428  0.999999  1
  Ni  Ni15  1  0.115571  0.115572  0.000001  1
  Os  Os16  1  0.675377  0.500000  0.175377  1
  Os  Os17  1  0.324623  0.500000  0.824623  1
