# generated using pymatgen
data_Y6Al24Ir5Os3
_symmetry_space_group_name_H-M   'P 1'
_cell_length_a   8.86020967
_cell_length_b   8.84845578
_cell_length_c   9.52101144
_cell_angle_alpha   89.99999814
_cell_angle_beta   89.72175605
_cell_angle_gamma   119.95611687
_symmetry_Int_Tables_number   1
_chemical_formula_structural   Y6Al24Ir5Os3
_chemical_formula_sum   'Y6 Al24 Ir5 Os3'
_cell_volume   646.71100873
_cell_formula_units_Z   1
loop_
 _symmetry_equiv_pos_site_id
 _symmetry_equiv_pos_as_xyz
  1  'x, y, z'
loop_
 _atom_site_type_symbol
 _atom_site_label
 _atom_site_symmetry_multiplicity
 _atom_site_fract_x
 _atom_site_fract_y
 _atom_site_fract_z
 _atom_site_occupancy
  Y  Y0  1  0.191258  0.385718  0.251184  1
  Y  Y1  1  0.808742  0.614282  0.748816  1
  Y  Y2  1  0.614833  0.807416  0.250762  1
  Y  Y3  1  0.385167  0.192584  0.749238  1
  Y  Y4  1  0.191258  0.805541  0.251184  1
  Y  Y5  1  0.808742  0.194459  0.748816  1
  Al  Al6  1  0.333558  0.666780  0.022279  1
  Al  Al7  1  0.666442  0.333220  0.977721  1
  Al  Al8  1  0.668134  0.334067  0.521594  1
  Al  Al9  1  0.331866  0.665933  0.478406  1
  Al  Al10  1  0.162221  0.327189  0.574964  1
  Al  Al11  1  0.837779  0.672811  0.425036  1
  Al  Al12  1  0.673704  0.836852  0.576038  1
  Al  Al13  1  0.836500  0.673422  0.075191  1
  Al  Al14  1  0.326296  0.163148  0.423962  1
  Al  Al15  1  0.163500  0.326578  0.924809  1
  Al  Al16  1  0.162221  0.835033  0.574964  1
  Al  Al17  1  0.325809  0.162904  0.076341  1
  Al  Al18  1  0.837779  0.164967  0.425036  1
  Al  Al19  1  0.674191  0.837096  0.923659  1
  Al  Al20  1  0.836500  0.163078  0.075191  1
  Al  Al21  1  0.163500  0.836922  0.924809  1
  Al  Al22  1  0.561691  0.123919  0.249669  1
  Al  Al23  1  0.438309  0.876081  0.750331  1
  Al  Al24  1  0.875482  0.437741  0.251048  1
  Al  Al25  1  0.124518  0.562259  0.748952  1
  Al  Al26  1  0.561691  0.437771  0.249669  1
  Al  Al27  1  0.438309  0.562229  0.750331  1
  Al  Al28  1  0.999719  0.999860  0.250174  1
  Al  Al29  1  0.000281  0.000140  0.749826  1
  Ir  Ir30  1  0.500000  0.000000  0.000000  1
  Ir  Ir31  1  0.000000  0.500000  0.000000  1
  Ir  Ir32  1  0.500000  0.000000  0.500000  1
  Ir  Ir33  1  0.500000  0.500000  0.000000  1
  Ir  Ir34  1  0.500000  0.500000  0.500000  1
  Os  Os35  1  0.000000  0.500000  0.500000  1
  Os  Os36  1  0.000000  0.000000  0.000000  1
  Os  Os37  1  0.000000  0.000000  0.500000  1
