# generated using pymatgen
data_Yb7Pr(MnN3)4
_symmetry_space_group_name_H-M   'P 1'
_cell_length_a   5.83671764
_cell_length_b   5.83671749
_cell_length_c   11.55422594
_cell_angle_alpha   90.43185725
_cell_angle_beta   89.56814336
_cell_angle_gamma   125.46446052
_symmetry_Int_Tables_number   1
_chemical_formula_structural   Yb7Pr(MnN3)4
_chemical_formula_sum   'Yb7 Pr1 Mn4 N12'
_cell_volume   320.58312357
_cell_formula_units_Z   1
loop_
 _symmetry_equiv_pos_site_id
 _symmetry_equiv_pos_as_xyz
  1  'x, y, z'
loop_
 _atom_site_type_symbol
 _atom_site_label
 _atom_site_symmetry_multiplicity
 _atom_site_fract_x
 _atom_site_fract_y
 _atom_site_fract_z
 _atom_site_occupancy
  Yb  Yb0  1  0.550500  0.449500  0.648785  1
  Yb  Yb1  1  0.048095  0.951905  0.853414  1
  Yb  Yb2  1  0.945284  0.054716  0.140632  1
  Yb  Yb3  1  0.144165  0.855835  0.426757  1
  Yb  Yb4  1  0.860720  0.139280  0.579455  1
  Yb  Yb5  1  0.357506  0.642494  0.921810  1
  Yb  Yb6  1  0.638933  0.361067  0.075214  1
  Pr  Pr7  1  0.454543  0.545457  0.352077  1
  Mn  Mn8  1  0.248308  0.751692  0.158138  1
  Mn  Mn9  1  0.745238  0.254762  0.840102  1
  Mn  Mn10  1  0.246569  0.753431  0.661044  1
  Mn  Mn11  1  0.757064  0.242936  0.341728  1
  N  N12  1  0.151726  0.848274  0.035378  1
  N  N13  1  0.842672  0.157328  0.963000  1
  N  N14  1  0.347874  0.652126  0.535801  1
  N  N15  1  0.657243  0.342757  0.466629  1
  N  N16  1  0.419714  0.580286  0.132918  1
  N  N17  1  0.576936  0.423064  0.866381  1
  N  N18  1  0.078531  0.921469  0.635528  1
  N  N19  1  0.927920  0.072080  0.364633  1
  N  N20  1  0.958507  0.539225  0.250633  1
  N  N21  1  0.541272  0.960096  0.749654  1
  N  N22  1  0.039904  0.458728  0.749654  1
  N  N23  1  0.460775  0.041493  0.250633  1
