# generated using pymatgen
data_Nd2BeCu17Si8
_symmetry_space_group_name_H-M   'P 1'
_cell_length_a   8.13986906
_cell_length_b   8.10307115
_cell_length_c   8.05172337
_cell_angle_alpha   60.51136046
_cell_angle_beta   60.05651858
_cell_angle_gamma   59.43213405
_symmetry_Int_Tables_number   1
_chemical_formula_structural   Nd2BeCu17Si8
_chemical_formula_sum   'Nd2 Be1 Cu17 Si8'
_cell_volume   375.45976555
_cell_formula_units_Z   1
loop_
 _symmetry_equiv_pos_site_id
 _symmetry_equiv_pos_as_xyz
  1  'x, y, z'
loop_
 _atom_site_type_symbol
 _atom_site_label
 _atom_site_symmetry_multiplicity
 _atom_site_fract_x
 _atom_site_fract_y
 _atom_site_fract_z
 _atom_site_occupancy
  Nd  Nd0  1  0.250000  0.250000  0.250000  1
  Nd  Nd1  1  0.750000  0.750000  0.750000  1
  Be  Be2  1  0.000000  0.000000  0.000000  1
  Cu  Cu3  1  0.712841  0.287159  0.061682  1
  Cu  Cu4  1  0.287159  0.712841  0.938318  1
  Cu  Cu5  1  0.197795  0.802205  0.439670  1
  Cu  Cu6  1  0.802205  0.197795  0.560330  1
  Cu  Cu7  1  0.439670  0.560330  0.197795  1
  Cu  Cu8  1  0.560330  0.439670  0.802205  1
  Cu  Cu9  1  0.061682  0.938318  0.712841  1
  Cu  Cu10  1  0.938318  0.061682  0.287159  1
  Cu  Cu11  1  0.444801  0.191035  0.808965  1
  Cu  Cu12  1  0.191035  0.444801  0.555199  1
  Cu  Cu13  1  0.940500  0.699595  0.059500  1
  Cu  Cu14  1  0.699595  0.940500  0.300405  1
  Cu  Cu15  1  0.555199  0.808965  0.191035  1
  Cu  Cu16  1  0.808965  0.555199  0.444801  1
  Cu  Cu17  1  0.059500  0.300405  0.940500  1
  Cu  Cu18  1  0.300405  0.059500  0.699595  1
  Cu  Cu19  1  0.500000  0.500000  0.500000  1
  Si  Si20  1  0.709409  0.057960  0.942040  1
  Si  Si21  1  0.057960  0.709409  0.290591  1
  Si  Si22  1  0.205359  0.556438  0.794641  1
  Si  Si23  1  0.556438  0.205359  0.443562  1
  Si  Si24  1  0.290591  0.942040  0.057960  1
  Si  Si25  1  0.942040  0.290591  0.709409  1
  Si  Si26  1  0.794641  0.443562  0.205359  1
  Si  Si27  1  0.443562  0.794641  0.556438  1
