# generated using pymatgen
data_Sm7Lu(OsI4)2
_symmetry_space_group_name_H-M   'P 1'
_cell_length_a   11.14317878
_cell_length_b   11.05927980
_cell_length_c   6.31365640
_cell_angle_alpha   90.14835493
_cell_angle_beta   90.23732940
_cell_angle_gamma   89.99404166
_symmetry_Int_Tables_number   1
_chemical_formula_structural   Sm7Lu(OsI4)2
_chemical_formula_sum   'Sm7 Lu1 Os2 I8'
_cell_volume   778.05751928
_cell_formula_units_Z   1
loop_
 _symmetry_equiv_pos_site_id
 _symmetry_equiv_pos_as_xyz
  1  'x, y, z'
loop_
 _atom_site_type_symbol
 _atom_site_label
 _atom_site_symmetry_multiplicity
 _atom_site_fract_x
 _atom_site_fract_y
 _atom_site_fract_z
 _atom_site_occupancy
  Sm  Sm0  1  0.082114  0.790127  0.499293  1
  Sm  Sm1  1  0.083898  0.208838  0.001766  1
  Sm  Sm2  1  0.207239  0.085105  0.502039  1
  Sm  Sm3  1  0.917001  0.791353  0.997910  1
  Sm  Sm4  1  0.914021  0.208319  0.500345  1
  Sm  Sm5  1  0.208644  0.915827  0.001106  1
  Sm  Sm6  1  0.791282  0.917307  0.497709  1
  Lu  Lu7  1  0.808658  0.078421  0.998491  1
  Os  Os8  1  0.001224  0.999502  0.250171  1
  Os  Os9  1  0.001258  0.999485  0.749557  1
  I  I10  1  0.633690  0.156541  0.501643  1
  I  I11  1  0.840241  0.632642  0.500132  1
  I  I12  1  0.364904  0.158208  0.000109  1
  I  I13  1  0.153157  0.368985  0.499887  1
  I  I14  1  0.636340  0.857009  0.999465  1
  I  I15  1  0.364489  0.842881  0.500092  1
  I  I16  1  0.155675  0.631479  0.999914  1
  I  I17  1  0.836164  0.357970  0.000371  1
