# generated using pymatgen
data_Hf5Zr3(TaGa3)4
_symmetry_space_group_name_H-M   'P 1'
_cell_length_a   5.54732400
_cell_length_b   8.47196953
_cell_length_c   9.17904258
_cell_angle_alpha   90.04068111
_cell_angle_beta   90.00000000
_cell_angle_gamma   90.00000000
_symmetry_Int_Tables_number   1
_chemical_formula_structural   Hf5Zr3(TaGa3)4
_chemical_formula_sum   'Hf5 Zr3 Ta4 Ga12'
_cell_volume   431.38515164
_cell_formula_units_Z   1
loop_
 _symmetry_equiv_pos_site_id
 _symmetry_equiv_pos_as_xyz
  1  'x, y, z'
loop_
 _atom_site_type_symbol
 _atom_site_label
 _atom_site_symmetry_multiplicity
 _atom_site_fract_x
 _atom_site_fract_y
 _atom_site_fract_z
 _atom_site_occupancy
  Hf  Hf0  1  0.250000  0.031810  0.622906  1
  Hf  Hf1  1  0.750000  0.364949  0.180794  1
  Hf  Hf2  1  0.250000  0.633917  0.819179  1
  Hf  Hf3  1  0.750000  0.865720  0.818985  1
  Hf  Hf4  1  0.250000  0.134547  0.180041  1
  Zr  Zr5  1  0.750000  0.469499  0.621498  1
  Zr  Zr6  1  0.250000  0.531554  0.378352  1
  Zr  Zr7  1  0.750000  0.968376  0.378681  1
  Ta  Ta8  1  0.000082  0.750330  0.109643  1
  Ta  Ta9  1  0.499833  0.249488  0.889847  1
  Ta  Ta10  1  0.000167  0.249488  0.889847  1
  Ta  Ta11  1  0.499918  0.750330  0.109643  1
  Ga  Ga12  1  0.001037  0.750834  0.573457  1
  Ga  Ga13  1  0.498946  0.249474  0.427241  1
  Ga  Ga14  1  0.001054  0.249474  0.427241  1
  Ga  Ga15  1  0.498963  0.750834  0.573457  1
  Ga  Ga16  1  0.750000  0.044094  0.080053  1
  Ga  Ga17  1  0.250000  0.955424  0.919665  1
  Ga  Ga18  1  0.750000  0.544121  0.920248  1
  Ga  Ga19  1  0.250000  0.455892  0.079718  1
  Ga  Ga20  1  0.750000  0.131394  0.654615  1
  Ga  Ga21  1  0.250000  0.869526  0.345641  1
  Ga  Ga22  1  0.750000  0.630935  0.344840  1
  Ga  Ga23  1  0.250000  0.367993  0.654406  1
