# generated using pymatgen
data_NaHo(PS3)2
_symmetry_space_group_name_H-M   'P 1'
_cell_length_a   6.99249689
_cell_length_b   7.18993530
_cell_length_c   9.17552013
_cell_angle_alpha   86.84525238
_cell_angle_beta   87.52335580
_cell_angle_gamma   87.70674659
_symmetry_Int_Tables_number   1
_chemical_formula_structural   NaHo(PS3)2
_chemical_formula_sum   'Na2 Ho2 P4 S12'
_cell_volume   459.84781926
_cell_formula_units_Z   2
loop_
 _symmetry_equiv_pos_site_id
 _symmetry_equiv_pos_as_xyz
  1  'x, y, z'
loop_
 _atom_site_type_symbol
 _atom_site_label
 _atom_site_symmetry_multiplicity
 _atom_site_fract_x
 _atom_site_fract_y
 _atom_site_fract_z
 _atom_site_occupancy
  Na  Na0  1  0.469335  0.398753  0.268688  1
  Na  Na1  1  0.530665  0.601247  0.731313  1
  Ho  Ho2  1  0.978679  0.119851  0.747432  1
  Ho  Ho3  1  0.021323  0.880149  0.252568  1
  P  P4  1  0.648843  0.037022  0.028885  1
  P  P5  1  0.351157  0.962979  0.971114  1
  P  P6  1  0.934940  0.392012  0.436096  1
  P  P7  1  0.065060  0.607990  0.563904  1
  S  S8  1  0.141925  0.181189  0.438989  1
  S  S9  1  0.858075  0.818812  0.561011  1
  S  S10  1  0.291862  0.700756  0.437451  1
  S  S11  1  0.708137  0.299245  0.562550  1
  S  S12  1  0.124855  0.480222  0.759086  1
  S  S13  1  0.875143  0.519779  0.240914  1
  S  S14  1  0.165335  0.163114  0.050623  1
  S  S15  1  0.834665  0.836886  0.949377  1
  S  S16  1  0.647759  0.028414  0.250595  1
  S  S17  1  0.352241  0.971588  0.749405  1
  S  S18  1  0.298511  0.711450  0.069917  1
  S  S19  1  0.701489  0.288551  0.930083  1
