# generated using pymatgen
data_Be5Co2Si
_symmetry_space_group_name_H-M   'P 1'
_cell_length_a   4.57165557
_cell_length_b   4.49538158
_cell_length_c   4.14451876
_cell_angle_alpha   122.83931020
_cell_angle_beta   89.78184111
_cell_angle_gamma   90.41391821
_symmetry_Int_Tables_number   1
_chemical_formula_structural   Be5Co2Si
_chemical_formula_sum   'Be5 Co2 Si1'
_cell_volume   71.56205420
_cell_formula_units_Z   1
loop_
 _symmetry_equiv_pos_site_id
 _symmetry_equiv_pos_as_xyz
  1  'x, y, z'
loop_
 _atom_site_type_symbol
 _atom_site_label
 _atom_site_symmetry_multiplicity
 _atom_site_fract_x
 _atom_site_fract_y
 _atom_site_fract_z
 _atom_site_occupancy
  Be  Be0  1  0.695829  0.679257  0.636807  1
  Be  Be1  1  0.498545  0.175924  0.137267  1
  Be  Be2  1  0.195856  0.684991  0.644755  1
  Be  Be3  1  0.695971  0.180655  0.639868  1
  Be  Be4  1  0.893679  0.684081  0.137460  1
  Co  Co5  1  0.400014  0.678205  0.142593  1
  Co  Co6  1  0.992052  0.187748  0.142252  1
  Si  Si7  1  0.195975  0.181760  0.638513  1
