# generated using pymatgen
data_TbTm2Co8P6Ru
_symmetry_space_group_name_H-M   'P 1'
_cell_length_a   3.69345000
_cell_length_b   10.49151300
_cell_length_c   12.22229900
_cell_angle_alpha   90.00000000
_cell_angle_beta   90.00000000
_cell_angle_gamma   90.00000000
_symmetry_Int_Tables_number   1
_chemical_formula_structural   TbTm2Co8P6Ru
_chemical_formula_sum   'Tb2 Tm4 Co16 P12 Ru2'
_cell_volume   473.61260356
_cell_formula_units_Z   2
loop_
 _symmetry_equiv_pos_site_id
 _symmetry_equiv_pos_as_xyz
  1  'x, y, z'
loop_
 _atom_site_type_symbol
 _atom_site_label
 _atom_site_symmetry_multiplicity
 _atom_site_fract_x
 _atom_site_fract_y
 _atom_site_fract_z
 _atom_site_occupancy
  Tb  Tb0  1  0.000000  0.500000  0.524725  1
  Tb  Tb1  1  0.500000  0.000000  0.475275  1
  Tm  Tm2  1  0.500000  0.817630  0.206807  1
  Tm  Tm3  1  0.500000  0.182370  0.206807  1
  Tm  Tm4  1  0.000000  0.682370  0.793193  1
  Tm  Tm5  1  0.000000  0.317630  0.793193  1
  Co  Co6  1  0.500000  0.500000  0.705055  1
  Co  Co7  1  0.000000  0.000000  0.294945  1
  Co  Co8  1  0.000000  0.500000  0.986640  1
  Co  Co9  1  0.500000  0.000000  0.013360  1
  Co  Co10  1  0.500000  0.332399  0.990052  1
  Co  Co11  1  0.500000  0.667601  0.990052  1
  Co  Co12  1  0.000000  0.167601  0.009948  1
  Co  Co13  1  0.000000  0.832399  0.009948  1
  Co  Co14  1  0.500000  0.297143  0.430801  1
  Co  Co15  1  0.500000  0.702857  0.430801  1
  Co  Co16  1  0.000000  0.202857  0.569199  1
  Co  Co17  1  0.000000  0.797143  0.569199  1
  Co  Co18  1  0.500000  0.878746  0.708401  1
  Co  Co19  1  0.500000  0.121254  0.708401  1
  Co  Co20  1  0.000000  0.621254  0.291599  1
  Co  Co21  1  0.000000  0.378746  0.291599  1
  P  P22  1  0.500000  0.500000  0.881581  1
  P  P23  1  0.000000  0.000000  0.118419  1
  P  P24  1  0.500000  0.500000  0.349522  1
  P  P25  1  0.000000  0.000000  0.650478  1
  P  P26  1  0.500000  0.311193  0.617264  1
  P  P27  1  0.500000  0.688807  0.617264  1
  P  P28  1  0.000000  0.188807  0.382736  1
  P  P29  1  0.000000  0.811193  0.382736  1
  P  P30  1  0.500000  0.845853  0.892769  1
  P  P31  1  0.500000  0.154147  0.892769  1
  P  P32  1  0.000000  0.654147  0.107231  1
  P  P33  1  0.000000  0.345853  0.107231  1
  Ru  Ru34  1  0.500000  0.500000  0.159014  1
  Ru  Ru35  1  0.000000  0.000000  0.840986  1
