# generated using pymatgen
data_Er3Al2GaPdAu2
_symmetry_space_group_name_H-M   'P 1'
_cell_length_a   7.25675000
_cell_length_b   7.23420016
_cell_length_c   4.03306100
_cell_angle_alpha   90.00000000
_cell_angle_beta   90.00000000
_cell_angle_gamma   120.10316702
_symmetry_Int_Tables_number   1
_chemical_formula_structural   Er3Al2GaPdAu2
_chemical_formula_sum   'Er3 Al2 Ga1 Pd1 Au2'
_cell_volume   183.16634623
_cell_formula_units_Z   1
loop_
 _symmetry_equiv_pos_site_id
 _symmetry_equiv_pos_as_xyz
  1  'x, y, z'
loop_
 _atom_site_type_symbol
 _atom_site_label
 _atom_site_symmetry_multiplicity
 _atom_site_fract_x
 _atom_site_fract_y
 _atom_site_fract_z
 _atom_site_occupancy
  Er  Er0  1  0.414757  0.000000  0.500000  1
  Er  Er1  1  0.995920  0.405267  0.500000  1
  Er  Er2  1  0.590653  0.594733  0.500000  1
  Al  Al3  1  0.003207  0.764985  0.000000  1
  Al  Al4  1  0.238221  0.235015  0.000000  1
  Ga  Ga5  1  0.759782  0.000000  0.000000  1
  Pd  Pd6  1  0.006519  0.000000  0.500000  1
  Au  Au7  1  0.325063  0.659187  0.000000  1
  Au  Au8  1  0.665878  0.340813  0.000000  1
