# generated using pymatgen
data_Dy2YHo3Os2
_symmetry_space_group_name_H-M   'P 1'
_cell_length_a   6.31203997
_cell_length_b   7.38409500
_cell_length_c   9.05882883
_cell_angle_alpha   90.00000000
_cell_angle_beta   90.09059670
_cell_angle_gamma   90.00000000
_symmetry_Int_Tables_number   1
_chemical_formula_structural   Dy2YHo3Os2
_chemical_formula_sum   'Dy4 Y2 Ho6 Os4'
_cell_volume   422.21973290
_cell_formula_units_Z   2
loop_
 _symmetry_equiv_pos_site_id
 _symmetry_equiv_pos_as_xyz
  1  'x, y, z'
loop_
 _atom_site_type_symbol
 _atom_site_label
 _atom_site_symmetry_multiplicity
 _atom_site_fract_x
 _atom_site_fract_y
 _atom_site_fract_z
 _atom_site_occupancy
  Dy  Dy0  1  0.331238  0.675775  0.062276  1
  Dy  Dy1  1  0.168762  0.175775  0.437724  1
  Dy  Dy2  1  0.130170  0.461189  0.749983  1
  Dy  Dy3  1  0.369830  0.961189  0.750017  1
  Y  Y4  1  0.870285  0.537982  0.250071  1
  Y  Y5  1  0.629715  0.037982  0.249929  1
  Ho  Ho6  1  0.668504  0.324523  0.563464  1
  Ho  Ho7  1  0.831496  0.824523  0.936536  1
  Ho  Ho8  1  0.668603  0.324263  0.936552  1
  Ho  Ho9  1  0.831397  0.824263  0.563448  1
  Ho  Ho10  1  0.331303  0.675487  0.437759  1
  Ho  Ho11  1  0.168697  0.175487  0.062241  1
  Os  Os12  1  0.043504  0.884489  0.250039  1
  Os  Os13  1  0.456496  0.384489  0.249961  1
  Os  Os14  1  0.959977  0.116293  0.750328  1
  Os  Os15  1  0.540023  0.616293  0.749672  1
