# generated using pymatgen
data_Nd16Ho3LuPb16
_symmetry_space_group_name_H-M   'P 1'
_cell_length_a   8.36415201
_cell_length_b   8.47558301
_cell_length_c   16.15788700
_cell_angle_alpha   90.00000000
_cell_angle_beta   90.00000000
_cell_angle_gamma   89.99457005
_symmetry_Int_Tables_number   1
_chemical_formula_structural   Nd16Ho3LuPb16
_chemical_formula_sum   'Nd16 Ho3 Lu1 Pb16'
_cell_volume   1145.44980694
_cell_formula_units_Z   1
loop_
 _symmetry_equiv_pos_site_id
 _symmetry_equiv_pos_as_xyz
  1  'x, y, z'
loop_
 _atom_site_type_symbol
 _atom_site_label
 _atom_site_symmetry_multiplicity
 _atom_site_fract_x
 _atom_site_fract_y
 _atom_site_fract_z
 _atom_site_occupancy
  Nd  Nd0  1  0.626113  0.158170  0.619575  1
  Nd  Nd1  1  0.126115  0.341928  0.880266  1
  Nd  Nd2  1  0.374553  0.842293  0.119969  1
  Nd  Nd3  1  0.873463  0.658420  0.380071  1
  Nd  Nd4  1  0.374553  0.842293  0.380031  1
  Nd  Nd5  1  0.873463  0.658420  0.119929  1
  Nd  Nd6  1  0.626113  0.158170  0.880425  1
  Nd  Nd7  1  0.126115  0.341928  0.619734  1
  Nd  Nd8  1  0.469729  0.678353  0.599630  1
  Nd  Nd9  1  0.969860  0.821524  0.900566  1
  Nd  Nd10  1  0.530387  0.321047  0.099595  1
  Nd  Nd11  1  0.029888  0.178187  0.400314  1
  Nd  Nd12  1  0.530387  0.321047  0.400405  1
  Nd  Nd13  1  0.029888  0.178187  0.099686  1
  Nd  Nd14  1  0.469729  0.678353  0.900370  1
  Nd  Nd15  1  0.969860  0.821524  0.599434  1
  Ho  Ho16  1  0.794599  0.496198  0.750000  1
  Ho  Ho17  1  0.294729  0.003817  0.750000  1
  Ho  Ho18  1  0.205297  0.503571  0.250000  1
  Lu  Lu19  1  0.706158  0.995723  0.250000  1
  Pb  Pb20  1  0.715948  0.968131  0.453891  1
  Pb  Pb21  1  0.216055  0.532432  0.045713  1
  Pb  Pb22  1  0.283844  0.032393  0.954596  1
  Pb  Pb23  1  0.783802  0.468029  0.545359  1
  Pb  Pb24  1  0.283844  0.032393  0.545404  1
  Pb  Pb25  1  0.783802  0.468029  0.954641  1
  Pb  Pb26  1  0.715948  0.968131  0.046109  1
  Pb  Pb27  1  0.216055  0.532432  0.454287  1
  Pb  Pb28  1  0.431960  0.375643  0.750000  1
  Pb  Pb29  1  0.931786  0.124036  0.750000  1
  Pb  Pb30  1  0.568213  0.624181  0.250000  1
  Pb  Pb31  1  0.067523  0.876102  0.250000  1
  Pb  Pb32  1  0.660061  0.846634  0.750000  1
  Pb  Pb33  1  0.160078  0.653475  0.750000  1
  Pb  Pb34  1  0.340132  0.153541  0.250000  1
  Pb  Pb35  1  0.839950  0.345264  0.250000  1
