# generated using pymatgen
data_Ca2Y3Ni16(MoAs4)3
_symmetry_space_group_name_H-M   'P 1'
_cell_length_a   12.61995000
_cell_length_b   12.61995024
_cell_length_c   3.85918500
_cell_angle_alpha   90.00000000
_cell_angle_beta   90.00000000
_cell_angle_gamma   120.00000460
_symmetry_Int_Tables_number   1
_chemical_formula_structural   Ca2Y3Ni16(MoAs4)3
_chemical_formula_sum   'Ca2 Y3 Ni16 Mo3 As12'
_cell_volume   532.28164034
_cell_formula_units_Z   1
loop_
 _symmetry_equiv_pos_site_id
 _symmetry_equiv_pos_as_xyz
  1  'x, y, z'
loop_
 _atom_site_type_symbol
 _atom_site_label
 _atom_site_symmetry_multiplicity
 _atom_site_fract_x
 _atom_site_fract_y
 _atom_site_fract_z
 _atom_site_occupancy
  Ca  Ca0  1  0.333333  0.666667  0.000000  1
  Ca  Ca1  1  0.666667  0.333333  0.000000  1
  Y  Y2  1  0.185963  0.185963  0.500000  1
  Y  Y3  1  0.814037  0.000000  0.500000  1
  Y  Y4  1  0.000000  0.814037  0.500000  1
  Ni  Ni5  1  0.718288  0.718288  0.500000  1
  Ni  Ni6  1  0.281712  0.000000  0.500000  1
  Ni  Ni7  1  0.000000  0.281712  0.500000  1
  Ni  Ni8  1  0.182200  0.375538  0.000000  1
  Ni  Ni9  1  0.624462  0.806662  0.000000  1
  Ni  Ni10  1  0.193338  0.817800  0.000000  1
  Ni  Ni11  1  0.806662  0.624462  0.000000  1
  Ni  Ni12  1  0.817800  0.193338  0.000000  1
  Ni  Ni13  1  0.375538  0.182200  0.000000  1
  Ni  Ni14  1  0.359575  0.481876  0.500000  1
  Ni  Ni15  1  0.518124  0.877701  0.500000  1
  Ni  Ni16  1  0.122299  0.640425  0.500000  1
  Ni  Ni17  1  0.877701  0.518124  0.500000  1
  Ni  Ni18  1  0.640425  0.122299  0.500000  1
  Ni  Ni19  1  0.481876  0.359575  0.500000  1
  Ni  Ni20  1  0.000000  0.000000  0.000000  1
  Mo  Mo21  1  0.562643  0.562643  0.000000  1
  Mo  Mo22  1  0.437357  0.000000  0.000000  1
  Mo  Mo23  1  0.000000  0.437357  0.000000  1
  As  As24  1  0.821531  0.821531  0.000000  1
  As  As25  1  0.178469  0.000000  0.000000  1
  As  As26  1  0.000000  0.178469  0.000000  1
  As  As27  1  0.167402  0.481236  0.500000  1
  As  As28  1  0.518764  0.686165  0.500000  1
  As  As29  1  0.313835  0.832598  0.500000  1
  As  As30  1  0.686165  0.518764  0.500000  1
  As  As31  1  0.832598  0.313835  0.500000  1
  As  As32  1  0.481236  0.167402  0.500000  1
  As  As33  1  0.364710  0.364710  0.000000  1
  As  As34  1  0.635290  0.000000  0.000000  1
  As  As35  1  0.000000  0.635290  0.000000  1
