# generated using pymatgen
data_TbNdScAlPt2
_symmetry_space_group_name_H-M   'P 1'
_cell_length_a   4.47796900
_cell_length_b   7.32957500
_cell_length_c   8.01733900
_cell_angle_alpha   90.00000000
_cell_angle_beta   90.00000000
_cell_angle_gamma   90.00000000
_symmetry_Int_Tables_number   1
_chemical_formula_structural   TbNdScAlPt2
_chemical_formula_sum   'Tb2 Nd2 Sc2 Al2 Pt4'
_cell_volume   263.14197095
_cell_formula_units_Z   2
loop_
 _symmetry_equiv_pos_site_id
 _symmetry_equiv_pos_as_xyz
  1  'x, y, z'
loop_
 _atom_site_type_symbol
 _atom_site_label
 _atom_site_symmetry_multiplicity
 _atom_site_fract_x
 _atom_site_fract_y
 _atom_site_fract_z
 _atom_site_occupancy
  Tb  Tb0  1  0.750000  0.444672  0.177795  1
  Tb  Tb1  1  0.250000  0.055328  0.677795  1
  Nd  Nd2  1  0.750000  0.978142  0.328116  1
  Nd  Nd3  1  0.250000  0.521858  0.828116  1
  Sc  Sc4  1  0.750000  0.874592  0.933259  1
  Sc  Sc5  1  0.250000  0.625408  0.433259  1
  Al  Al6  1  0.750000  0.357715  0.564780  1
  Al  Al7  1  0.250000  0.142285  0.064780  1
  Pt  Pt8  1  0.750000  0.720505  0.615634  1
  Pt  Pt9  1  0.750000  0.232103  0.880416  1
  Pt  Pt10  1  0.250000  0.267897  0.380416  1
  Pt  Pt11  1  0.250000  0.779495  0.115634  1
