# generated using pymatgen
data_Sc3MoP3Rh2
_symmetry_space_group_name_H-M   'P 1'
_cell_length_a   6.73407315
_cell_length_b   3.63249000
_cell_length_c   6.61919147
_cell_angle_alpha   90.00000000
_cell_angle_beta   120.57557090
_cell_angle_gamma   90.00000000
_symmetry_Int_Tables_number   1
_chemical_formula_structural   Sc3MoP3Rh2
_chemical_formula_sum   'Sc3 Mo1 P3 Rh2'
_cell_volume   139.40221197
_cell_formula_units_Z   1
loop_
 _symmetry_equiv_pos_site_id
 _symmetry_equiv_pos_as_xyz
  1  'x, y, z'
loop_
 _atom_site_type_symbol
 _atom_site_label
 _atom_site_symmetry_multiplicity
 _atom_site_fract_x
 _atom_site_fract_y
 _atom_site_fract_z
 _atom_site_occupancy
  Sc  Sc0  1  0.592772  0.000000  0.000004  1
  Sc  Sc1  1  0.416318  0.000000  0.413077  1
  Sc  Sc2  1  0.003235  0.000000  0.586912  1
  Mo  Mo3  1  0.242463  0.500000  0.000002  1
  P  P4  1  0.998672  0.000000  0.999999  1
  P  P5  1  0.665797  0.500000  0.333668  1
  P  P6  1  0.332125  0.500000  0.666327  1
  Rh  Rh7  1  0.998307  0.500000  0.248111  1
  Rh  Rh8  1  0.750200  0.500000  0.751902  1
