# generated using pymatgen
data_Er3Tm4Lu3(In2Pt)4
_symmetry_space_group_name_H-M   'P 1'
_cell_length_a   3.60173000
_cell_length_b   8.07391101
_cell_length_c   18.07477804
_cell_angle_alpha   89.99306585
_cell_angle_beta   90.00000000
_cell_angle_gamma   90.00000000
_symmetry_Int_Tables_number   1
_chemical_formula_structural   Er3Tm4Lu3(In2Pt)4
_chemical_formula_sum   'Er3 Tm4 Lu3 In8 Pt4'
_cell_volume   525.61540029
_cell_formula_units_Z   1
loop_
 _symmetry_equiv_pos_site_id
 _symmetry_equiv_pos_as_xyz
  1  'x, y, z'
loop_
 _atom_site_type_symbol
 _atom_site_label
 _atom_site_symmetry_multiplicity
 _atom_site_fract_x
 _atom_site_fract_y
 _atom_site_fract_z
 _atom_site_occupancy
  Er  Er0  1  0.000000  0.116751  0.415009  1
  Er  Er1  1  0.000000  0.000051  0.999926  1
  Er  Er2  1  0.000000  0.500176  0.500092  1
  Tm  Tm3  1  0.000000  0.243953  0.220865  1
  Tm  Tm4  1  0.000000  0.756202  0.778988  1
  Tm  Tm5  1  0.000000  0.256273  0.721025  1
  Tm  Tm6  1  0.000000  0.743685  0.278826  1
  Lu  Lu7  1  0.000000  0.883677  0.586088  1
  Lu  Lu8  1  0.000000  0.383697  0.914109  1
  Lu  Lu9  1  0.000000  0.616356  0.085781  1
  In  In10  1  0.500000  0.424163  0.351292  1
  In  In11  1  0.500000  0.576713  0.648515  1
  In  In12  1  0.500000  0.076893  0.851529  1
  In  In13  1  0.500000  0.923080  0.148325  1
  In  In14  1  0.500000  0.292889  0.066246  1
  In  In15  1  0.500000  0.707036  0.933707  1
  In  In16  1  0.500000  0.207368  0.566850  1
  In  In17  1  0.500000  0.791748  0.433665  1
  Pt  Pt18  1  0.500000  0.025145  0.303293  1
  Pt  Pt19  1  0.500000  0.974104  0.695846  1
  Pt  Pt20  1  0.500000  0.474282  0.804279  1
  Pt  Pt21  1  0.500000  0.525757  0.195744  1
