# generated using pymatgen
data_SmHo12Th7Sn16
_symmetry_space_group_name_H-M   'P 1'
_cell_length_a   8.11070591
_cell_length_b   8.21298686
_cell_length_c   15.50635000
_cell_angle_alpha   90.06579992
_cell_angle_beta   90.24789118
_cell_angle_gamma   89.90406492
_symmetry_Int_Tables_number   1
_chemical_formula_structural   SmHo12Th7Sn16
_chemical_formula_sum   'Sm1 Ho12 Th7 Sn16'
_cell_volume   1032.91458199
_cell_formula_units_Z   1
loop_
 _symmetry_equiv_pos_site_id
 _symmetry_equiv_pos_as_xyz
  1  'x, y, z'
loop_
 _atom_site_type_symbol
 _atom_site_label
 _atom_site_symmetry_multiplicity
 _atom_site_fract_x
 _atom_site_fract_y
 _atom_site_fract_z
 _atom_site_occupancy
  Sm  Sm0  1  0.520828  0.322972  0.901813  1
  Ho  Ho1  1  0.360121  0.835749  0.875827  1
  Ho  Ho2  1  0.858696  0.663148  0.624052  1
  Ho  Ho3  1  0.640548  0.164056  0.376196  1
  Ho  Ho4  1  0.138188  0.336313  0.123427  1
  Ho  Ho5  1  0.639297  0.163725  0.123679  1
  Ho  Ho6  1  0.141079  0.336474  0.376234  1
  Ho  Ho7  1  0.359192  0.837386  0.624517  1
  Ho  Ho8  1  0.861780  0.662880  0.876088  1
  Ho  Ho9  1  0.188922  0.498983  0.750106  1
  Ho  Ho10  1  0.689840  0.001017  0.749977  1
  Ho  Ho11  1  0.810729  0.501679  0.250085  1
  Ho  Ho12  1  0.310655  0.997989  0.250192  1
  Th  Th13  1  0.018002  0.179224  0.596314  1
  Th  Th14  1  0.482778  0.679008  0.403850  1
  Th  Th15  1  0.981312  0.821009  0.096245  1
  Th  Th16  1  0.482191  0.679362  0.097024  1
  Th  Th17  1  0.983181  0.821258  0.404415  1
  Th  Th18  1  0.516233  0.320806  0.595357  1
  Th  Th19  1  0.017013  0.177421  0.903721  1
  Sn  Sn20  1  0.298576  0.037134  0.042875  1
  Sn  Sn21  1  0.800682  0.460466  0.458128  1
  Sn  Sn22  1  0.699504  0.960767  0.541998  1
  Sn  Sn23  1  0.203262  0.537299  0.957760  1
  Sn  Sn24  1  0.699294  0.959868  0.957885  1
  Sn  Sn25  1  0.198922  0.541259  0.541664  1
  Sn  Sn26  1  0.300759  0.039747  0.458256  1
  Sn  Sn27  1  0.798107  0.460361  0.041924  1
  Sn  Sn28  1  0.555997  0.621958  0.749232  1
  Sn  Sn29  1  0.055593  0.878668  0.750018  1
  Sn  Sn30  1  0.443651  0.377596  0.249798  1
  Sn  Sn31  1  0.944008  0.122211  0.249959  1
  Sn  Sn32  1  0.325230  0.145240  0.751056  1
  Sn  Sn33  1  0.823189  0.356757  0.749792  1
  Sn  Sn34  1  0.676978  0.857473  0.250413  1
  Sn  Sn35  1  0.175665  0.642741  0.250121  1
