# generated using pymatgen
data_SrCa3Al4(BO4)4
_symmetry_space_group_name_H-M   'P 1'
_cell_length_a   5.83982488
_cell_length_b   8.43694956
_cell_length_c   8.81362448
_cell_angle_alpha   61.49542219
_cell_angle_beta   90.06554669
_cell_angle_gamma   89.77547568
_symmetry_Int_Tables_number   1
_chemical_formula_structural   SrCa3Al4(BO4)4
_chemical_formula_sum   'Sr1 Ca3 Al4 B4 O16'
_cell_volume   381.60459341
_cell_formula_units_Z   1
loop_
 _symmetry_equiv_pos_site_id
 _symmetry_equiv_pos_as_xyz
  1  'x, y, z'
loop_
 _atom_site_type_symbol
 _atom_site_label
 _atom_site_symmetry_multiplicity
 _atom_site_fract_x
 _atom_site_fract_y
 _atom_site_fract_z
 _atom_site_occupancy
  Sr  Sr0  1  0.503082  0.052180  0.183801  1
  Ca  Ca1  1  0.009476  0.763461  0.187502  1
  Ca  Ca2  1  0.009137  0.233979  0.812781  1
  Ca  Ca3  1  0.508499  0.949725  0.807890  1
  Al  Al4  1  0.238581  0.286000  0.413813  1
  Al  Al5  1  0.739934  0.310277  0.408869  1
  Al  Al6  1  0.737609  0.688464  0.594756  1
  Al  Al7  1  0.234729  0.713659  0.594437  1
  B  B8  1  0.981616  0.160639  0.219445  1
  B  B9  1  0.475061  0.625277  0.216959  1
  B  B10  1  0.473567  0.372533  0.775648  1
  B  B11  1  0.975720  0.844156  0.782908  1
  O  O12  1  0.965230  0.077762  0.117664  1
  O  O13  1  0.445319  0.805560  0.107067  1
  O  O14  1  0.784430  0.224136  0.260710  1
  O  O15  1  0.277704  0.520585  0.269948  1
  O  O16  1  0.191743  0.182020  0.280896  1
  O  O17  1  0.691568  0.549393  0.275335  1
  O  O18  1  0.988715  0.731181  0.471891  1
  O  O19  1  0.488487  0.789633  0.477117  1
  O  O20  1  0.495016  0.202503  0.527849  1
  O  O21  1  0.990693  0.269565  0.532472  1
  O  O22  1  0.690567  0.449412  0.727145  1
  O  O23  1  0.190813  0.822374  0.726236  1
  O  O24  1  0.275981  0.478220  0.737798  1
  O  O25  1  0.780033  0.782362  0.737223  1
  O  O26  1  0.444565  0.189498  0.867212  1
  O  O27  1  0.946924  0.925448  0.884629  1
