# generated using pymatgen
data_Ce5Ta2C7
_symmetry_space_group_name_H-M   'P 1'
_cell_length_a   8.76902015
_cell_length_b   8.76902033
_cell_length_c   3.48283500
_cell_angle_alpha   90.00000000
_cell_angle_beta   90.00000000
_cell_angle_gamma   125.33066885
_symmetry_Int_Tables_number   1
_chemical_formula_structural   Ce5Ta2C7
_chemical_formula_sum   'Ce5 Ta2 C7'
_cell_volume   218.49109328
_cell_formula_units_Z   1
loop_
 _symmetry_equiv_pos_site_id
 _symmetry_equiv_pos_as_xyz
  1  'x, y, z'
loop_
 _atom_site_type_symbol
 _atom_site_label
 _atom_site_symmetry_multiplicity
 _atom_site_fract_x
 _atom_site_fract_y
 _atom_site_fract_z
 _atom_site_occupancy
  Ce  Ce0  1  0.315810  0.056808  0.500000  1
  Ce  Ce1  1  0.684190  0.943192  0.500000  1
  Ce  Ce2  1  0.056808  0.315810  0.500000  1
  Ce  Ce3  1  0.943192  0.684190  0.500000  1
  Ce  Ce4  1  0.500000  0.500000  0.000000  1
  Ta  Ta5  1  0.290267  0.709733  0.000000  1
  Ta  Ta6  1  0.709733  0.290267  0.000000  1
  C  C7  1  0.170378  0.170378  0.000000  1
  C  C8  1  0.829622  0.829622  0.000000  1
  C  C9  1  0.000000  0.000000  0.000000  1
  C  C10  1  0.375228  0.624772  0.500000  1
  C  C11  1  0.624772  0.375228  0.500000  1
  C  C12  1  0.500000  0.000000  0.000000  1
  C  C13  1  0.000000  0.500000  0.000000  1
