# generated using pymatgen
data_YbTlAg2(Pt2O7)2
_symmetry_space_group_name_H-M   'P 1'
_cell_length_a   7.24704147
_cell_length_b   7.24704199
_cell_length_c   7.32482089
_cell_angle_alpha   59.43865028
_cell_angle_beta   59.43864711
_cell_angle_gamma   59.20363910
_symmetry_Int_Tables_number   1
_chemical_formula_structural   YbTlAg2(Pt2O7)2
_chemical_formula_sum   'Yb1 Tl1 Ag2 Pt4 O14'
_cell_volume   268.05786219
_cell_formula_units_Z   1
loop_
 _symmetry_equiv_pos_site_id
 _symmetry_equiv_pos_as_xyz
  1  'x, y, z'
loop_
 _atom_site_type_symbol
 _atom_site_label
 _atom_site_symmetry_multiplicity
 _atom_site_fract_x
 _atom_site_fract_y
 _atom_site_fract_z
 _atom_site_occupancy
  Yb  Yb0  1  0.625000  0.625000  0.625000  1
  Tl  Tl1  1  0.625000  0.625000  0.125000  1
  Ag  Ag2  1  0.625000  0.125000  0.625000  1
  Ag  Ag3  1  0.125000  0.625000  0.625000  1
  Pt  Pt4  1  0.125000  0.125000  0.125000  1
  Pt  Pt5  1  0.625000  0.125000  0.125000  1
  Pt  Pt6  1  0.125000  0.625000  0.125000  1
  Pt  Pt7  1  0.125000  0.125000  0.625000  1
  O  O8  1  0.038485  0.458903  0.456125  1
  O  O9  1  0.786388  0.786388  0.216446  1
  O  O10  1  0.790882  0.210785  0.204269  1
  O  O11  1  0.458903  0.038485  0.456125  1
  O  O12  1  0.768666  0.768666  0.734137  1
  O  O13  1  0.045858  0.045858  0.453852  1
  O  O14  1  0.039215  0.459118  0.045731  1
  O  O15  1  0.791097  0.211515  0.793875  1
  O  O16  1  0.210785  0.790882  0.204269  1
  O  O17  1  0.204142  0.204142  0.796148  1
  O  O18  1  0.481334  0.481334  0.515863  1
  O  O19  1  0.459118  0.039215  0.045731  1
  O  O20  1  0.463612  0.463612  0.033554  1
  O  O21  1  0.211515  0.791097  0.793875  1
