# generated using pymatgen
data_Tm4MoRu6W
_symmetry_space_group_name_H-M   'P 1'
_cell_length_a   5.56314201
_cell_length_b   5.14689333
_cell_length_c   9.01354400
_cell_angle_alpha   90.00000000
_cell_angle_beta   90.00000000
_cell_angle_gamma   122.91870005
_symmetry_Int_Tables_number   1
_chemical_formula_structural   Tm4MoRu6W
_chemical_formula_sum   'Tm4 Mo1 Ru6 W1'
_cell_volume   216.64659660
_cell_formula_units_Z   1
loop_
 _symmetry_equiv_pos_site_id
 _symmetry_equiv_pos_as_xyz
  1  'x, y, z'
loop_
 _atom_site_type_symbol
 _atom_site_label
 _atom_site_symmetry_multiplicity
 _atom_site_fract_x
 _atom_site_fract_y
 _atom_site_fract_z
 _atom_site_occupancy
  Tm  Tm0  1  0.670023  0.340377  0.566049  1
  Tm  Tm1  1  0.331322  0.662187  0.433594  1
  Tm  Tm2  1  0.331322  0.662187  0.066406  1
  Tm  Tm3  1  0.670023  0.340377  0.933951  1
  Mo  Mo4  1  0.836848  0.674909  0.250000  1
  Ru  Ru5  1  0.001662  0.002581  0.499757  1
  Ru  Ru6  1  0.001662  0.002581  0.000243  1
  Ru  Ru7  1  0.167412  0.815189  0.750000  1
  Ru  Ru8  1  0.648897  0.815414  0.750000  1
  Ru  Ru9  1  0.833397  0.183100  0.250000  1
  Ru  Ru10  1  0.347655  0.182437  0.250000  1
  W  W11  1  0.159779  0.318663  0.750000  1
