# generated using pymatgen
data_Y2Al8SiIrRh2
_symmetry_space_group_name_H-M   'P 1'
_cell_length_a   7.53450439
_cell_length_b   7.53450454
_cell_length_c   9.37154303
_cell_angle_alpha   89.99517372
_cell_angle_beta   89.99517475
_cell_angle_gamma   119.50178528
_symmetry_Int_Tables_number   1
_chemical_formula_structural   Y2Al8SiIrRh2
_chemical_formula_sum   'Y4 Al16 Si2 Ir2 Rh4'
_cell_volume   463.03050723
_cell_formula_units_Z   2
loop_
 _symmetry_equiv_pos_site_id
 _symmetry_equiv_pos_as_xyz
  1  'x, y, z'
loop_
 _atom_site_type_symbol
 _atom_site_label
 _atom_site_symmetry_multiplicity
 _atom_site_fract_x
 _atom_site_fract_y
 _atom_site_fract_z
 _atom_site_occupancy
  Y  Y0  1  0.994820  0.675316  0.250335  1
  Y  Y1  1  0.005180  0.324684  0.749665  1
  Y  Y2  1  0.675316  0.994820  0.250335  1
  Y  Y3  1  0.324684  0.005180  0.749665  1
  Al  Al4  1  0.001490  0.336214  0.076353  1
  Al  Al5  1  0.998510  0.663786  0.923647  1
  Al  Al6  1  0.998179  0.663603  0.576448  1
  Al  Al7  1  0.336397  0.001821  0.423552  1
  Al  Al8  1  0.001821  0.336397  0.423552  1
  Al  Al9  1  0.663603  0.998179  0.576448  1
  Al  Al10  1  0.663786  0.998510  0.923647  1
  Al  Al11  1  0.336214  0.001490  0.076353  1
  Al  Al12  1  0.335463  0.335463  0.555669  1
  Al  Al13  1  0.664537  0.664537  0.444331  1
  Al  Al14  1  0.664400  0.664400  0.055997  1
  Al  Al15  1  0.335600  0.335600  0.944003  1
  Al  Al16  1  0.335117  0.548776  0.249057  1
  Al  Al17  1  0.664883  0.451224  0.750943  1
  Al  Al18  1  0.548776  0.335117  0.249057  1
  Al  Al19  1  0.451224  0.664883  0.750943  1
  Si  Si20  1  0.128219  0.128219  0.250063  1
  Si  Si21  1  0.871781  0.871781  0.749937  1
  Ir  Ir22  1  0.328251  0.671749  0.500000  1
  Ir  Ir23  1  0.671749  0.328251  0.500000  1
  Rh  Rh24  1  0.671851  0.328149  0.000000  1
  Rh  Rh25  1  0.328149  0.671851  0.000000  1
  Rh  Rh26  1  0.000000  0.000000  0.000000  1
  Rh  Rh27  1  0.000000  0.000000  0.500000  1
