# generated using pymatgen
data_Tb5NdAl24Os5Pt3
_symmetry_space_group_name_H-M   'P 1'
_cell_length_a   8.84932146
_cell_length_b   8.86310692
_cell_length_c   9.58867862
_cell_angle_alpha   90.11148697
_cell_angle_beta   89.78970800
_cell_angle_gamma   119.51664603
_symmetry_Int_Tables_number   1
_chemical_formula_structural   Tb5NdAl24Os5Pt3
_chemical_formula_sum   'Tb5 Nd1 Al24 Os5 Pt3'
_cell_volume   654.45103296
_cell_formula_units_Z   1
loop_
 _symmetry_equiv_pos_site_id
 _symmetry_equiv_pos_as_xyz
  1  'x, y, z'
loop_
 _atom_site_type_symbol
 _atom_site_label
 _atom_site_symmetry_multiplicity
 _atom_site_fract_x
 _atom_site_fract_y
 _atom_site_fract_z
 _atom_site_occupancy
  Tb  Tb0  1  0.812671  0.617649  0.749167  1
  Tb  Tb1  1  0.614553  0.814220  0.252231  1
  Tb  Tb2  1  0.385602  0.186118  0.747819  1
  Tb  Tb3  1  0.194057  0.810103  0.251195  1
  Tb  Tb4  1  0.805984  0.190717  0.748820  1
  Nd  Nd5  1  0.187097  0.379614  0.250126  1
  Al  Al6  1  0.335871  0.672421  0.027304  1
  Al  Al7  1  0.664823  0.328917  0.970868  1
  Al  Al8  1  0.669198  0.331420  0.527833  1
  Al  Al9  1  0.330906  0.669746  0.473908  1
  Al  Al10  1  0.158189  0.325606  0.575787  1
  Al  Al11  1  0.841665  0.674441  0.426106  1
  Al  Al12  1  0.673394  0.840683  0.575250  1
  Al  Al13  1  0.836918  0.676102  0.077032  1
  Al  Al14  1  0.327166  0.158634  0.425765  1
  Al  Al15  1  0.163179  0.323777  0.921205  1
  Al  Al16  1  0.163880  0.835213  0.575825  1
  Al  Al17  1  0.326191  0.158141  0.074773  1
  Al  Al18  1  0.834706  0.164295  0.425276  1
  Al  Al19  1  0.674442  0.841150  0.924155  1
  Al  Al20  1  0.830618  0.158604  0.076536  1
  Al  Al21  1  0.168252  0.840856  0.922502  1
  Al  Al22  1  0.560438  0.124424  0.249835  1
  Al  Al23  1  0.439609  0.875625  0.750218  1
  Al  Al24  1  0.872906  0.438318  0.253071  1
  Al  Al25  1  0.126059  0.562403  0.747291  1
  Al  Al26  1  0.564274  0.436835  0.249731  1
  Al  Al27  1  0.437627  0.563687  0.750224  1
  Al  Al28  1  0.996659  0.999892  0.250217  1
  Al  Al29  1  0.001737  0.997354  0.749785  1
  Os  Os30  1  0.500304  0.000542  0.999704  1
  Os  Os31  1  0.500191  0.000422  0.500355  1
  Os  Os32  1  0.999253  0.500471  0.501035  1
  Os  Os33  1  0.999888  0.999744  0.999828  1
  Os  Os34  1  0.999872  0.999827  0.500159  1
  Pt  Pt35  1  0.999385  0.500646  0.999111  1
  Pt  Pt36  1  0.501377  0.500753  0.999169  1
  Pt  Pt37  1  0.501060  0.500631  0.500783  1
