# generated using pymatgen
data_TaNb11Al4(IrN)4
_symmetry_space_group_name_H-M   'P 1'
_cell_length_a   7.03488613
_cell_length_b   7.03632705
_cell_length_c   7.03173508
_cell_angle_alpha   89.99891280
_cell_angle_beta   90.06350083
_cell_angle_gamma   90.01388529
_symmetry_Int_Tables_number   1
_chemical_formula_structural   TaNb11Al4(IrN)4
_chemical_formula_sum   'Ta1 Nb11 Al4 Ir4 N4'
_cell_volume   348.06897195
_cell_formula_units_Z   1
loop_
 _symmetry_equiv_pos_site_id
 _symmetry_equiv_pos_as_xyz
  1  'x, y, z'
loop_
 _atom_site_type_symbol
 _atom_site_label
 _atom_site_symmetry_multiplicity
 _atom_site_fract_x
 _atom_site_fract_y
 _atom_site_fract_z
 _atom_site_occupancy
  Ta  Ta0  1  0.795069  0.956376  0.375760  1
  Nb  Nb1  1  0.705695  0.044506  0.875903  1
  Nb  Nb2  1  0.205323  0.455565  0.124218  1
  Nb  Nb3  1  0.294440  0.544513  0.624331  1
  Nb  Nb4  1  0.955466  0.375401  0.794019  1
  Nb  Nb5  1  0.044944  0.875724  0.705980  1
  Nb  Nb6  1  0.455250  0.124255  0.205822  1
  Nb  Nb7  1  0.544310  0.623603  0.294296  1
  Nb  Nb8  1  0.376275  0.794489  0.955739  1
  Nb  Nb9  1  0.875917  0.704898  0.044213  1
  Nb  Nb10  1  0.124693  0.206020  0.455519  1
  Nb  Nb11  1  0.623711  0.294716  0.544630  1
  Al  Al12  1  0.570660  0.429500  0.929284  1
  Al  Al13  1  0.429394  0.929476  0.570567  1
  Al  Al14  1  0.929264  0.570466  0.429324  1
  Al  Al15  1  0.070630  0.070554  0.070387  1
  Ir  Ir16  1  0.175972  0.822879  0.322570  1
  Ir  Ir17  1  0.322316  0.177700  0.822406  1
  Ir  Ir18  1  0.822423  0.321131  0.178072  1
  Ir  Ir19  1  0.677988  0.678584  0.676775  1
  N  N20  1  0.873777  0.124077  0.623273  1
  N  N21  1  0.626495  0.875652  0.127382  1
  N  N22  1  0.125258  0.625144  0.874789  1
  N  N23  1  0.374729  0.374773  0.374740  1
