# generated using pymatgen
data_TbDy3Ga12Ru
_symmetry_space_group_name_H-M   'P 1'
_cell_length_a   7.48484871
_cell_length_b   7.48484818
_cell_length_c   7.48060600
_cell_angle_alpha   109.45973724
_cell_angle_beta   109.45973581
_cell_angle_gamma   109.48270062
_symmetry_Int_Tables_number   1
_chemical_formula_structural   TbDy3Ga12Ru
_chemical_formula_sum   'Tb1 Dy3 Ga12 Ru1'
_cell_volume   322.65801207
_cell_formula_units_Z   1
loop_
 _symmetry_equiv_pos_site_id
 _symmetry_equiv_pos_as_xyz
  1  'x, y, z'
loop_
 _atom_site_type_symbol
 _atom_site_label
 _atom_site_symmetry_multiplicity
 _atom_site_fract_x
 _atom_site_fract_y
 _atom_site_fract_z
 _atom_site_occupancy
  Tb  Tb0  1  0.000000  0.000000  0.500000  1
  Dy  Dy1  1  0.500000  0.000000  0.000000  1
  Dy  Dy2  1  0.500000  0.500000  0.500000  1
  Dy  Dy3  1  0.000000  0.500000  0.000000  1
  Ga  Ga4  1  0.290038  0.000000  0.289938  1
  Ga  Ga5  1  0.500122  0.250061  0.750061  1
  Ga  Ga6  1  0.000000  0.709962  0.710062  1
  Ga  Ga7  1  0.709962  0.000000  0.710062  1
  Ga  Ga8  1  0.749939  0.499878  0.249939  1
  Ga  Ga9  1  0.250061  0.749939  0.500000  1
  Ga  Ga10  1  0.749939  0.250061  0.500000  1
  Ga  Ga11  1  0.709962  0.709962  0.999900  1
  Ga  Ga12  1  0.250061  0.500122  0.750061  1
  Ga  Ga13  1  0.499878  0.749939  0.249939  1
  Ga  Ga14  1  0.290038  0.290038  0.000100  1
  Ga  Ga15  1  0.000000  0.290038  0.289938  1
  Ru  Ru16  1  0.000000  0.000000  0.000000  1
