# generated using pymatgen
data_YbSc7(B6Ru)4
_symmetry_space_group_name_H-M   'P 1'
_cell_length_a   8.88847400
_cell_length_b   11.21856800
_cell_length_c   3.49949300
_cell_angle_alpha   90.00000000
_cell_angle_beta   90.00000000
_cell_angle_gamma   89.99740066
_symmetry_Int_Tables_number   1
_chemical_formula_structural   YbSc7(B6Ru)4
_chemical_formula_sum   'Yb1 Sc7 B24 Ru4'
_cell_volume   348.95526878
_cell_formula_units_Z   1
loop_
 _symmetry_equiv_pos_site_id
 _symmetry_equiv_pos_as_xyz
  1  'x, y, z'
loop_
 _atom_site_type_symbol
 _atom_site_label
 _atom_site_symmetry_multiplicity
 _atom_site_fract_x
 _atom_site_fract_y
 _atom_site_fract_z
 _atom_site_occupancy
  Yb  Yb0  1  0.321324  0.086160  0.000000  1
  Sc  Sc1  1  0.943789  0.128105  0.000000  1
  Sc  Sc2  1  0.444131  0.372882  0.000000  1
  Sc  Sc3  1  0.818649  0.413915  0.000000  1
  Sc  Sc4  1  0.182411  0.585237  0.000000  1
  Sc  Sc5  1  0.555799  0.626687  0.000000  1
  Sc  Sc6  1  0.056132  0.871813  0.000000  1
  Sc  Sc7  1  0.679812  0.914463  0.000000  1
  B  B8  1  0.097528  0.026745  0.500000  1
  B  B9  1  0.555095  0.065406  0.500000  1
  B  B10  1  0.751986  0.078955  0.500000  1
  B  B11  1  0.128043  0.184139  0.500000  1
  B  B12  1  0.481517  0.214207  0.500000  1
  B  B13  1  0.794410  0.236152  0.500000  1
  B  B14  1  0.292439  0.266299  0.500000  1
  B  B15  1  0.979060  0.288480  0.500000  1
  B  B16  1  0.630596  0.317794  0.500000  1
  B  B17  1  0.251127  0.421758  0.500000  1
  B  B18  1  0.052558  0.435944  0.500000  1
  B  B19  1  0.602769  0.471981  0.500000  1
  B  B20  1  0.397934  0.527831  0.500000  1
  B  B21  1  0.946185  0.565418  0.500000  1
  B  B22  1  0.748245  0.578673  0.500000  1
  B  B23  1  0.370509  0.681495  0.500000  1
  B  B24  1  0.020164  0.712598  0.500000  1
  B  B25  1  0.706459  0.735469  0.500000  1
  B  B26  1  0.206421  0.762983  0.500000  1
  B  B27  1  0.520473  0.786673  0.500000  1
  B  B28  1  0.869916  0.817441  0.500000  1
  B  B29  1  0.247935  0.918545  0.500000  1
  B  B30  1  0.447069  0.933014  0.500000  1
  B  B31  1  0.898871  0.972162  0.500000  1
  Ru  Ru32  1  0.641340  0.181012  0.000000  1
  Ru  Ru33  1  0.136966  0.322279  0.000000  1
  Ru  Ru34  1  0.861216  0.679879  0.000000  1
  Ru  Ru35  1  0.361116  0.817412  0.000000  1
