# generated using pymatgen
data_SrBRuF
_symmetry_space_group_name_H-M   'P 1'
_cell_length_a   4.06778800
_cell_length_b   4.06778800
_cell_length_c   8.14835200
_cell_angle_alpha   90.00000000
_cell_angle_beta   90.00000000
_cell_angle_gamma   90.00000000
_symmetry_Int_Tables_number   1
_chemical_formula_structural   SrBRuF
_chemical_formula_sum   'Sr2 B2 Ru2 F2'
_cell_volume   134.82995930
_cell_formula_units_Z   2
loop_
 _symmetry_equiv_pos_site_id
 _symmetry_equiv_pos_as_xyz
  1  'x, y, z'
loop_
 _atom_site_type_symbol
 _atom_site_label
 _atom_site_symmetry_multiplicity
 _atom_site_fract_x
 _atom_site_fract_y
 _atom_site_fract_z
 _atom_site_occupancy
  Sr  Sr0  1  0.250002  0.250002  0.178321  1
  Sr  Sr1  1  0.750001  0.750001  0.821680  1
  B  B2  1  0.750001  0.750001  0.431771  1
  B  B3  1  0.250002  0.250002  0.568228  1
  Ru  Ru4  1  0.750001  0.250002  0.500000  1
  Ru  Ru5  1  0.250002  0.750001  0.500000  1
  F  F6  1  0.750001  0.250002  0.000000  1
  F  F7  1  0.250002  0.750001  0.000000  1
