# generated using pymatgen
data_Pr8Nd2Ru3Rh
_symmetry_space_group_name_H-M   'P 1'
_cell_length_a   8.98775688
_cell_length_b   9.00490115
_cell_length_c   7.42391049
_cell_angle_alpha   83.69517925
_cell_angle_beta   83.71420504
_cell_angle_gamma   43.28696330
_symmetry_Int_Tables_number   1
_chemical_formula_structural   Pr8Nd2Ru3Rh
_chemical_formula_sum   'Pr8 Nd2 Ru3 Rh1'
_cell_volume   409.09475383
_cell_formula_units_Z   1
loop_
 _symmetry_equiv_pos_site_id
 _symmetry_equiv_pos_as_xyz
  1  'x, y, z'
loop_
 _atom_site_type_symbol
 _atom_site_label
 _atom_site_symmetry_multiplicity
 _atom_site_fract_x
 _atom_site_fract_y
 _atom_site_fract_z
 _atom_site_occupancy
  Pr  Pr0  1  0.015495  0.800370  0.916189  1
  Pr  Pr1  1  0.201865  0.985141  0.585573  1
  Pr  Pr2  1  0.983611  0.201215  0.085982  1
  Pr  Pr3  1  0.795595  0.020640  0.412941  1
  Pr  Pr4  1  0.360439  0.205698  0.816026  1
  Pr  Pr5  1  0.788085  0.641477  0.686092  1
  Pr  Pr6  1  0.643311  0.790052  0.186680  1
  Pr  Pr7  1  0.209055  0.356137  0.313427  1
  Nd  Nd8  1  0.574387  0.425724  0.750049  1
  Nd  Nd9  1  0.426222  0.575746  0.247158  1
  Ru  Ru10  1  0.400145  0.822696  0.924384  1
  Ru  Ru11  1  0.822754  0.399975  0.426245  1
  Ru  Ru12  1  0.599357  0.178086  0.074541  1
  Rh  Rh13  1  0.179678  0.597041  0.574713  1
