# generated using pymatgen
data_ZnPPd2Pt2Au
_symmetry_space_group_name_H-M   'P 1'
_cell_length_a   3.98051900
_cell_length_b   3.98051900
_cell_length_c   6.94129300
_cell_angle_alpha   90.00000000
_cell_angle_beta   90.00000000
_cell_angle_gamma   90.00000000
_symmetry_Int_Tables_number   1
_chemical_formula_structural   ZnPPd2Pt2Au
_chemical_formula_sum   'Zn1 P1 Pd2 Pt2 Au1'
_cell_volume   109.98153565
_cell_formula_units_Z   1
loop_
 _symmetry_equiv_pos_site_id
 _symmetry_equiv_pos_as_xyz
  1  'x, y, z'
loop_
 _atom_site_type_symbol
 _atom_site_label
 _atom_site_symmetry_multiplicity
 _atom_site_fract_x
 _atom_site_fract_y
 _atom_site_fract_z
 _atom_site_occupancy
  Zn  Zn0  1  0.500000  0.500000  0.999605  1
  P  P1  1  0.000000  0.000000  0.502528  1
  Pd  Pd2  1  0.500000  0.000000  0.293237  1
  Pd  Pd3  1  0.000000  0.500000  0.293237  1
  Pt  Pt4  1  0.500000  0.000000  0.704482  1
  Pt  Pt5  1  0.000000  0.500000  0.704482  1
  Au  Au6  1  0.000000  0.000000  0.002429  1
