# generated using pymatgen
data_SmNp5(Sb4Pt3)2
_symmetry_space_group_name_H-M   'P 1'
_cell_length_a   8.47374831
_cell_length_b   8.49428107
_cell_length_c   8.48819500
_cell_angle_alpha   109.53311057
_cell_angle_beta   109.50396450
_cell_angle_gamma   109.39381894
_symmetry_Int_Tables_number   1
_chemical_formula_structural   SmNp5(Sb4Pt3)2
_chemical_formula_sum   'Sm1 Np5 Sb8 Pt6'
_cell_volume   470.22175151
_cell_formula_units_Z   1
loop_
 _symmetry_equiv_pos_site_id
 _symmetry_equiv_pos_as_xyz
  1  'x, y, z'
loop_
 _atom_site_type_symbol
 _atom_site_label
 _atom_site_symmetry_multiplicity
 _atom_site_fract_x
 _atom_site_fract_y
 _atom_site_fract_z
 _atom_site_occupancy
  Sm  Sm0  1  0.874799  0.125112  0.749786  1
  Np  Np1  1  0.248504  0.622203  0.372859  1
  Np  Np2  1  0.749314  0.875806  0.126753  1
  Np  Np3  1  0.377153  0.250646  0.626386  1
  Np  Np4  1  0.625835  0.376196  0.250357  1
  Np  Np5  1  0.124451  0.751687  0.873868  1
  Sb  Sb6  1  0.174893  0.174960  0.175649  1
  Sb  Sb7  1  0.499834  0.999003  0.324161  1
  Sb  Sb8  1  0.325291  0.502040  0.999957  1
  Sb  Sb9  1  0.002186  0.325413  0.500009  1
  Sb  Sb10  1  0.674578  0.673210  0.675363  1
  Sb  Sb11  1  0.497931  0.998906  0.824152  1
  Sb  Sb12  1  0.000796  0.825365  0.500330  1
  Sb  Sb13  1  0.824931  0.500052  0.999759  1
  Pt  Pt14  1  0.255447  0.126630  0.877809  1
  Pt  Pt15  1  0.748789  0.377703  0.622549  1
  Pt  Pt16  1  0.873050  0.250512  0.128964  1
  Pt  Pt17  1  0.125004  0.874992  0.249944  1
  Pt  Pt18  1  0.621848  0.744174  0.371276  1
  Pt  Pt19  1  0.375365  0.625390  0.750070  1
