# generated using pymatgen
data_Zr6Co16Si6Os
_symmetry_space_group_name_H-M   'P 1'
_cell_length_a   8.14918546
_cell_length_b   8.10585995
_cell_length_c   8.14918459
_cell_angle_alpha   60.17571432
_cell_angle_beta   58.95778904
_cell_angle_gamma   60.17571526
_symmetry_Int_Tables_number   1
_chemical_formula_structural   Zr6Co16Si6Os
_chemical_formula_sum   'Zr6 Co16 Si6 Os1'
_cell_volume   378.53433445
_cell_formula_units_Z   1
loop_
 _symmetry_equiv_pos_site_id
 _symmetry_equiv_pos_as_xyz
  1  'x, y, z'
loop_
 _atom_site_type_symbol
 _atom_site_label
 _atom_site_symmetry_multiplicity
 _atom_site_fract_x
 _atom_site_fract_y
 _atom_site_fract_z
 _atom_site_occupancy
  Zr  Zr0  1  0.710783  0.290322  0.289217  1
  Zr  Zr1  1  0.289217  0.290322  0.710783  1
  Zr  Zr2  1  0.289217  0.709678  0.710783  1
  Zr  Zr3  1  0.710783  0.709678  0.289217  1
  Zr  Zr4  1  0.293776  0.706224  0.293776  1
  Zr  Zr5  1  0.706224  0.293776  0.706224  1
  Co  Co6  1  0.118773  0.118029  0.645170  1
  Co  Co7  1  0.671977  0.982853  0.671977  1
  Co  Co8  1  0.354830  0.881971  0.881227  1
  Co  Co9  1  0.023279  0.321483  0.333757  1
  Co  Co10  1  0.976721  0.678517  0.666243  1
  Co  Co11  1  0.333757  0.321483  0.023279  1
  Co  Co12  1  0.666243  0.678517  0.976721  1
  Co  Co13  1  0.645170  0.118029  0.118773  1
  Co  Co14  1  0.671977  0.673192  0.671977  1
  Co  Co15  1  0.881227  0.881971  0.354830  1
  Co  Co16  1  0.122205  0.118030  0.122205  1
  Co  Co17  1  0.877795  0.362439  0.877795  1
  Co  Co18  1  0.877795  0.881970  0.877795  1
  Co  Co19  1  0.328023  0.326808  0.328023  1
  Co  Co20  1  0.122205  0.637561  0.122205  1
  Co  Co21  1  0.328023  0.017147  0.328023  1
  Si  Si22  1  0.000000  0.000000  0.500000  1
  Si  Si23  1  0.000000  0.000000  0.000000  1
  Si  Si24  1  0.500000  0.500000  0.000000  1
  Si  Si25  1  0.500000  0.000000  0.500000  1
  Si  Si26  1  0.500000  0.000000  0.000000  1
  Si  Si27  1  0.000000  0.500000  0.500000  1
  Os  Os28  1  0.000000  0.500000  0.000000  1
