# generated using pymatgen
data_Mg4CuSi(B2Rh5)2
_symmetry_space_group_name_H-M   'P 1'
_cell_length_a   9.36351200
_cell_length_b   2.91690800
_cell_length_c   9.36351200
_cell_angle_alpha   90.00000000
_cell_angle_beta   90.00000000
_cell_angle_gamma   90.00000000
_symmetry_Int_Tables_number   1
_chemical_formula_structural   Mg4CuSi(B2Rh5)2
_chemical_formula_sum   'Mg4 Cu1 Si1 B4 Rh10'
_cell_volume   255.74095016
_cell_formula_units_Z   1
loop_
 _symmetry_equiv_pos_site_id
 _symmetry_equiv_pos_as_xyz
  1  'x, y, z'
loop_
 _atom_site_type_symbol
 _atom_site_label
 _atom_site_symmetry_multiplicity
 _atom_site_fract_x
 _atom_site_fract_y
 _atom_site_fract_z
 _atom_site_occupancy
  Mg  Mg0  1  0.326889  0.000000  0.178292  1
  Mg  Mg1  1  0.821707  0.000000  0.326889  1
  Mg  Mg2  1  0.178292  0.000000  0.673112  1
  Mg  Mg3  1  0.673112  0.000000  0.821707  1
  Cu  Cu4  1  0.499999  0.000000  0.499999  1
  Si  Si5  1  0.000000  0.000000  0.000000  1
  B  B6  1  0.624197  0.000000  0.129210  1
  B  B7  1  0.129210  0.000000  0.375804  1
  B  B8  1  0.870789  0.000000  0.624197  1
  B  B9  1  0.375804  0.000000  0.870789  1
  Rh  Rh10  1  0.499999  0.500001  0.000000  1
  Rh  Rh11  1  0.790711  0.500001  0.068448  1
  Rh  Rh12  1  0.068448  0.500001  0.209290  1
  Rh  Rh13  1  0.574373  0.500001  0.284270  1
  Rh  Rh14  1  0.284270  0.500001  0.425627  1
  Rh  Rh15  1  0.000000  0.500001  0.499999  1
  Rh  Rh16  1  0.715730  0.500001  0.574373  1
  Rh  Rh17  1  0.425627  0.500001  0.715730  1
  Rh  Rh18  1  0.931553  0.500001  0.790711  1
  Rh  Rh19  1  0.209290  0.500001  0.931553  1
