# generated using pymatgen
data_Sn4PtSe10
_symmetry_space_group_name_H-M   'P 1'
_cell_length_a   6.65797612
_cell_length_b   7.71806849
_cell_length_c   9.45559970
_cell_angle_alpha   108.33070234
_cell_angle_beta   110.64273301
_cell_angle_gamma   89.96935572
_symmetry_Int_Tables_number   1
_chemical_formula_structural   Sn4PtSe10
_chemical_formula_sum   'Sn4 Pt1 Se10'
_cell_volume   428.28114541
_cell_formula_units_Z   1
loop_
 _symmetry_equiv_pos_site_id
 _symmetry_equiv_pos_as_xyz
  1  'x, y, z'
loop_
 _atom_site_type_symbol
 _atom_site_label
 _atom_site_symmetry_multiplicity
 _atom_site_fract_x
 _atom_site_fract_y
 _atom_site_fract_z
 _atom_site_occupancy
  Sn  Sn0  1  0.199577  0.401018  0.898669  1
  Sn  Sn1  1  0.399042  0.801229  0.300478  1
  Sn  Sn2  1  0.600958  0.198771  0.699522  1
  Sn  Sn3  1  0.800423  0.598982  0.101331  1
  Pt  Pt4  1  0.000000  0.000000  0.500000  1
  Se  Se5  1  0.891007  0.317522  0.595138  1
  Se  Se6  1  0.736609  0.864623  0.588169  1
  Se  Se7  1  0.087315  0.742850  0.002040  1
  Se  Se8  1  0.912685  0.257150  0.997960  1
  Se  Se9  1  0.263391  0.135377  0.411831  1
  Se  Se10  1  0.108993  0.682478  0.404862  1
  Se  Se11  1  0.493167  0.547472  0.806977  1
  Se  Se12  1  0.292973  0.052511  0.773174  1
  Se  Se13  1  0.707027  0.947489  0.226826  1
  Se  Se14  1  0.506833  0.452528  0.193023  1
