# generated using pymatgen
data_Zr10Sn2GeSb4
_symmetry_space_group_name_H-M   'P 1'
_cell_length_a   5.86097254
_cell_length_b   8.61349536
_cell_length_c   8.61110296
_cell_angle_alpha   120.00920892
_cell_angle_beta   89.94556449
_cell_angle_gamma   90.10883699
_symmetry_Int_Tables_number   1
_chemical_formula_structural   Zr10Sn2GeSb4
_chemical_formula_sum   'Zr10 Sn2 Ge1 Sb4'
_cell_volume   376.44144581
_cell_formula_units_Z   1
loop_
 _symmetry_equiv_pos_site_id
 _symmetry_equiv_pos_as_xyz
  1  'x, y, z'
loop_
 _atom_site_type_symbol
 _atom_site_label
 _atom_site_symmetry_multiplicity
 _atom_site_fract_x
 _atom_site_fract_y
 _atom_site_fract_z
 _atom_site_occupancy
  Zr  Zr0  1  0.499464  0.333599  0.667613  1
  Zr  Zr1  1  0.499464  0.665987  0.332387  1
  Zr  Zr2  1  0.001085  0.666255  0.332552  1
  Zr  Zr3  1  0.001085  0.333703  0.667448  1
  Zr  Zr4  1  0.760715  0.258312  0.000000  1
  Zr  Zr5  1  0.760956  0.742613  0.742543  1
  Zr  Zr6  1  0.760956  0.000069  0.257457  1
  Zr  Zr7  1  0.238950  0.741374  0.000000  1
  Zr  Zr8  1  0.239189  0.257546  0.257591  1
  Zr  Zr9  1  0.239189  0.999957  0.742409  1
  Sn  Sn10  1  0.251750  0.611063  0.610971  1
  Sn  Sn11  1  0.251750  0.000092  0.389029  1
  Ge  Ge12  1  0.499164  0.999595  0.000000  1
  Sb  Sb13  1  0.748164  0.611365  0.000000  1
  Sb  Sb14  1  0.748473  0.390107  0.390607  1
  Sb  Sb15  1  0.748473  0.999500  0.609393  1
  Sb  Sb16  1  0.251174  0.388860  0.000000  1
