# generated using pymatgen
data_MgSc6SBr12
_symmetry_space_group_name_H-M   'P 1'
_cell_length_a   8.65573383
_cell_length_b   8.65573400
_cell_length_c   8.65573300
_cell_angle_alpha   107.25472716
_cell_angle_beta   107.25474139
_cell_angle_gamma   107.25473566
_symmetry_Int_Tables_number   1
_chemical_formula_structural   MgSc6SBr12
_chemical_formula_sum   'Mg1 Sc6 S1 Br12'
_cell_volume   536.28187582
_cell_formula_units_Z   1
loop_
 _symmetry_equiv_pos_site_id
 _symmetry_equiv_pos_as_xyz
  1  'x, y, z'
loop_
 _atom_site_type_symbol
 _atom_site_label
 _atom_site_symmetry_multiplicity
 _atom_site_fract_x
 _atom_site_fract_y
 _atom_site_fract_z
 _atom_site_occupancy
  Mg  Mg0  1  0.500000  0.500000  0.500000  1
  Sc  Sc1  1  0.099112  0.027967  0.303721  1
  Sc  Sc2  1  0.027967  0.303721  0.099112  1
  Sc  Sc3  1  0.303721  0.099112  0.027967  1
  Sc  Sc4  1  0.900887  0.972033  0.696279  1
  Sc  Sc5  1  0.972033  0.696279  0.900887  1
  Sc  Sc6  1  0.696279  0.900887  0.972033  1
  S  S7  1  0.000000  0.000000  0.000000  1
  Br  Br8  1  0.074173  0.687760  0.221955  1
  Br  Br9  1  0.687760  0.221955  0.074173  1
  Br  Br10  1  0.221955  0.074173  0.687760  1
  Br  Br11  1  0.925827  0.312240  0.778045  1
  Br  Br12  1  0.312240  0.778045  0.925827  1
  Br  Br13  1  0.778045  0.925827  0.312240  1
  Br  Br14  1  0.455162  0.157889  0.380851  1
  Br  Br15  1  0.157889  0.380851  0.455162  1
  Br  Br16  1  0.380851  0.455162  0.157889  1
  Br  Br17  1  0.544838  0.842111  0.619149  1
  Br  Br18  1  0.842111  0.619149  0.544838  1
  Br  Br19  1  0.619149  0.544838  0.842111  1
