# generated using pymatgen
data_Er16ZnIn6Os
_symmetry_space_group_name_H-M   'P 1'
_cell_length_a   10.44672700
_cell_length_b   10.44672814
_cell_length_c   6.86655800
_cell_angle_alpha   90.00000000
_cell_angle_beta   90.00000000
_cell_angle_gamma   119.99999955
_symmetry_Int_Tables_number   1
_chemical_formula_structural   Er16ZnIn6Os
_chemical_formula_sum   'Er16 Zn1 In6 Os1'
_cell_volume   648.97843414
_cell_formula_units_Z   1
loop_
 _symmetry_equiv_pos_site_id
 _symmetry_equiv_pos_as_xyz
  1  'x, y, z'
loop_
 _atom_site_type_symbol
 _atom_site_label
 _atom_site_symmetry_multiplicity
 _atom_site_fract_x
 _atom_site_fract_y
 _atom_site_fract_z
 _atom_site_occupancy
  Er  Er0  1  0.468409  0.531591  0.481521  1
  Er  Er1  1  0.063182  0.531591  0.481521  1
  Er  Er2  1  0.468409  0.936818  0.481521  1
  Er  Er3  1  0.522402  0.477598  0.977987  1
  Er  Er4  1  0.955196  0.477598  0.977987  1
  Er  Er5  1  0.522402  0.044804  0.977987  1
  Er  Er6  1  0.826217  0.173783  0.270159  1
  Er  Er7  1  0.347566  0.173783  0.270159  1
  Er  Er8  1  0.826217  0.652434  0.270159  1
  Er  Er9  1  0.176485  0.823515  0.767278  1
  Er  Er10  1  0.647029  0.823515  0.767278  1
  Er  Er11  1  0.176485  0.352971  0.767278  1
  Er  Er12  1  0.333333  0.666667  0.105244  1
  Er  Er13  1  0.666667  0.333333  0.622060  1
  Er  Er14  1  0.000000  0.000000  0.491067  1
  Er  Er15  1  0.000000  0.000000  0.997150  1
  Zn  Zn16  1  0.666667  0.333333  0.191883  1
  In  In17  1  0.162068  0.837932  0.238193  1
  In  In18  1  0.675865  0.837932  0.238193  1
  In  In19  1  0.162068  0.324135  0.238193  1
  In  In20  1  0.834771  0.165229  0.743546  1
  In  In21  1  0.330456  0.165229  0.743546  1
  In  In22  1  0.834771  0.669544  0.743546  1
  Os  Os23  1  0.333333  0.666667  0.701094  1
