# generated using pymatgen
data_Ta2AlFe(BRu2)2
_symmetry_space_group_name_H-M   'P 1'
_cell_length_a   9.11357300
_cell_length_b   9.11357300
_cell_length_c   3.01402500
_cell_angle_alpha   90.00000000
_cell_angle_beta   90.00000000
_cell_angle_gamma   90.00000000
_symmetry_Int_Tables_number   1
_chemical_formula_structural   Ta2AlFe(BRu2)2
_chemical_formula_sum   'Ta4 Al2 Fe2 B4 Ru8'
_cell_volume   250.33651589
_cell_formula_units_Z   2
loop_
 _symmetry_equiv_pos_site_id
 _symmetry_equiv_pos_as_xyz
  1  'x, y, z'
loop_
 _atom_site_type_symbol
 _atom_site_label
 _atom_site_symmetry_multiplicity
 _atom_site_fract_x
 _atom_site_fract_y
 _atom_site_fract_z
 _atom_site_occupancy
  Ta  Ta0  1  0.825645  0.674355  0.000000  1
  Ta  Ta1  1  0.174355  0.325645  0.000000  1
  Ta  Ta2  1  0.325645  0.825645  0.000000  1
  Ta  Ta3  1  0.674355  0.174355  0.000000  1
  Al  Al4  1  0.500000  0.500000  0.000000  1
  Al  Al5  1  0.000000  0.000000  0.000000  1
  Fe  Fe6  1  0.500000  0.000000  0.500000  1
  Fe  Fe7  1  0.000000  0.500000  0.500000  1
  B  B8  1  0.617346  0.882654  0.000000  1
  B  B9  1  0.382654  0.117346  0.000000  1
  B  B10  1  0.117346  0.617346  0.000000  1
  B  B11  1  0.882654  0.382654  0.000000  1
  Ru  Ru12  1  0.564403  0.719447  0.500000  1
  Ru  Ru13  1  0.435597  0.280553  0.500000  1
  Ru  Ru14  1  0.064403  0.780553  0.500000  1
  Ru  Ru15  1  0.935597  0.219447  0.500000  1
  Ru  Ru16  1  0.280553  0.564403  0.500000  1
  Ru  Ru17  1  0.719447  0.435597  0.500000  1
  Ru  Ru18  1  0.219447  0.064403  0.500000  1
  Ru  Ru19  1  0.780553  0.935597  0.500000  1
