# generated using pymatgen
data_YHo3LuSn4
_symmetry_space_group_name_H-M   'P 1'
_cell_length_a   7.98170200
_cell_length_b   8.12352700
_cell_length_c   15.38958700
_cell_angle_alpha   90.00000000
_cell_angle_beta   90.00000000
_cell_angle_gamma   90.00000000
_symmetry_Int_Tables_number   1
_chemical_formula_structural   YHo3LuSn4
_chemical_formula_sum   'Y4 Ho12 Lu4 Sn16'
_cell_volume   997.85422977
_cell_formula_units_Z   4
loop_
 _symmetry_equiv_pos_site_id
 _symmetry_equiv_pos_as_xyz
  1  'x, y, z'
loop_
 _atom_site_type_symbol
 _atom_site_label
 _atom_site_symmetry_multiplicity
 _atom_site_fract_x
 _atom_site_fract_y
 _atom_site_fract_z
 _atom_site_occupancy
  Y  Y0  1  0.477743  0.678888  0.097164  1
  Y  Y1  1  0.977743  0.821112  0.402836  1
  Y  Y2  1  0.522257  0.321112  0.597164  1
  Y  Y3  1  0.022257  0.178888  0.902836  1
  Ho  Ho4  1  0.367408  0.836845  0.877508  1
  Ho  Ho5  1  0.867408  0.663155  0.622492  1
  Ho  Ho6  1  0.632592  0.163155  0.377508  1
  Ho  Ho7  1  0.132592  0.336845  0.122492  1
  Ho  Ho8  1  0.632389  0.163329  0.122365  1
  Ho  Ho9  1  0.132389  0.336671  0.377635  1
  Ho  Ho10  1  0.367611  0.836671  0.622365  1
  Ho  Ho11  1  0.867611  0.663329  0.877635  1
  Ho  Ho12  1  0.522784  0.320917  0.902417  1
  Ho  Ho13  1  0.022784  0.179083  0.597583  1
  Ho  Ho14  1  0.477216  0.679083  0.402417  1
  Ho  Ho15  1  0.977216  0.820917  0.097583  1
  Lu  Lu16  1  0.198428  0.503503  0.750003  1
  Lu  Lu17  1  0.698428  0.996497  0.749997  1
  Lu  Lu18  1  0.801572  0.496497  0.250003  1
  Lu  Lu19  1  0.301572  0.003503  0.249997  1
  Sn  Sn20  1  0.292322  0.035606  0.042291  1
  Sn  Sn21  1  0.792322  0.464394  0.457709  1
  Sn  Sn22  1  0.707678  0.964394  0.542291  1
  Sn  Sn23  1  0.207678  0.535606  0.957709  1
  Sn  Sn24  1  0.706641  0.963685  0.958016  1
  Sn  Sn25  1  0.206641  0.536315  0.541984  1
  Sn  Sn26  1  0.293359  0.036315  0.458016  1
  Sn  Sn27  1  0.793359  0.463685  0.041984  1
  Sn  Sn28  1  0.564197  0.619074  0.749918  1
  Sn  Sn29  1  0.064197  0.880926  0.750082  1
  Sn  Sn30  1  0.435803  0.380926  0.249918  1
  Sn  Sn31  1  0.935803  0.119074  0.250082  1
  Sn  Sn32  1  0.331609  0.149442  0.750123  1
  Sn  Sn33  1  0.831609  0.350558  0.749877  1
  Sn  Sn34  1  0.668391  0.850558  0.250123  1
  Sn  Sn35  1  0.168391  0.649442  0.249877  1
