# generated using pymatgen
data_SmDy3(OsO4)4
_symmetry_space_group_name_H-M   'P 1'
_cell_length_a   5.40409225
_cell_length_b   7.46969717
_cell_length_c   7.70781700
_cell_angle_alpha   79.65705168
_cell_angle_beta   93.83680518
_cell_angle_gamma   91.00583665
_symmetry_Int_Tables_number   1
_chemical_formula_structural   SmDy3(OsO4)4
_chemical_formula_sum   'Sm1 Dy3 Os4 O16'
_cell_volume   305.39422001
_cell_formula_units_Z   1
loop_
 _symmetry_equiv_pos_site_id
 _symmetry_equiv_pos_as_xyz
  1  'x, y, z'
loop_
 _atom_site_type_symbol
 _atom_site_label
 _atom_site_symmetry_multiplicity
 _atom_site_fract_x
 _atom_site_fract_y
 _atom_site_fract_z
 _atom_site_occupancy
  Sm  Sm0  1  0.740982  0.890063  0.376220  1
  Dy  Dy1  1  0.265675  0.109731  0.617398  1
  Dy  Dy2  1  0.810137  0.398171  0.330400  1
  Dy  Dy3  1  0.197476  0.602468  0.672837  1
  Os  Os4  1  0.756254  0.291798  0.836610  1
  Os  Os5  1  0.244138  0.703788  0.161739  1
  Os  Os6  1  0.285681  0.201497  0.163499  1
  Os  Os7  1  0.716062  0.797045  0.834910  1
  O  O8  1  0.936691  0.796455  0.039974  1
  O  O9  1  0.055317  0.211733  0.967156  1
  O  O10  1  0.370132  0.947991  0.176203  1
  O  O11  1  0.620856  0.049423  0.827719  1
  O  O12  1  0.151807  0.448464  0.168012  1
  O  O13  1  0.840350  0.553529  0.823179  1
  O  O14  1  0.595536  0.297515  0.061246  1
  O  O15  1  0.402299  0.703885  0.937380  1
  O  O16  1  0.949859  0.321595  0.615577  1
  O  O17  1  0.056264  0.668133  0.389161  1
  O  O18  1  0.506570  0.184035  0.388487  1
  O  O19  1  0.489429  0.823722  0.608656  1
  O  O20  1  0.548763  0.626539  0.295206  1
  O  O21  1  0.450685  0.367429  0.702484  1
  O  O22  1  0.029192  0.124801  0.339485  1
  O  O23  1  0.979844  0.880189  0.666462  1
