# generated using pymatgen
data_Pr12HgIr2PtI12
_symmetry_space_group_name_H-M   'P 1'
_cell_length_a   11.13426465
_cell_length_b   11.13426530
_cell_length_c   11.07300736
_cell_angle_alpha   109.90764719
_cell_angle_beta   109.90764936
_cell_angle_gamma   110.18845743
_symmetry_Int_Tables_number   1
_chemical_formula_structural   Pr12HgIr2PtI12
_chemical_formula_sum   'Pr12 Hg1 Ir2 Pt1 I12'
_cell_volume   1035.47453092
_cell_formula_units_Z   1
loop_
 _symmetry_equiv_pos_site_id
 _symmetry_equiv_pos_as_xyz
  1  'x, y, z'
loop_
 _atom_site_type_symbol
 _atom_site_label
 _atom_site_symmetry_multiplicity
 _atom_site_fract_x
 _atom_site_fract_y
 _atom_site_fract_z
 _atom_site_occupancy
  Pr  Pr0  1  0.461888  0.492935  0.221485  1
  Pr  Pr1  1  0.754823  0.230718  0.273595  1
  Pr  Pr2  1  0.755574  0.023164  0.483085  1
  Pr  Pr3  1  0.220737  0.461220  0.493365  1
  Pr  Pr4  1  0.269282  0.745177  0.226405  1
  Pr  Pr5  1  0.038780  0.279263  0.006635  1
  Pr  Pr6  1  0.007065  0.038112  0.278515  1
  Pr  Pr7  1  0.476836  0.744426  0.016915  1
  Pr  Pr8  1  0.491994  0.224971  0.464392  1
  Pr  Pr9  1  0.019487  0.480513  0.750000  1
  Pr  Pr10  1  0.275029  0.008006  0.035608  1
  Pr  Pr11  1  0.228632  0.271368  0.750000  1
  Hg  Hg12  1  0.249876  0.250124  0.250000  1
  Ir  Ir13  1  0.997743  0.250209  0.502879  1
  Ir  Ir14  1  0.249791  0.502257  0.997121  1
  Pt  Pt15  1  0.502284  0.997716  0.250000  1
  I  I16  1  0.250668  0.761510  0.739554  1
  I  I17  1  0.514078  0.504307  0.753765  1
  I  I18  1  0.986973  0.746271  0.996092  1
  I  I19  1  0.738490  0.249332  0.760446  1
  I  I20  1  0.995693  0.985922  0.746235  1
  I  I21  1  0.249962  0.995237  0.504167  1
  I  I22  1  0.753729  0.513027  0.503908  1
  I  I23  1  0.504763  0.250038  0.995833  1
  I  I24  1  0.760660  0.739340  0.250000  1
  I  I25  1  0.745853  0.995674  0.986929  1
  I  I26  1  0.994981  0.505019  0.250000  1
  I  I27  1  0.504326  0.754147  0.513071  1
