# generated using pymatgen
data_Ca2DyY(NiB4)4
_symmetry_space_group_name_H-M   'P 1'
_cell_length_a   6.84208896
_cell_length_b   6.84208840
_cell_length_c   6.84209001
_cell_angle_alpha   112.90239889
_cell_angle_beta   112.90239912
_cell_angle_gamma   102.80743447
_symmetry_Int_Tables_number   1
_chemical_formula_structural   Ca2DyY(NiB4)4
_chemical_formula_sum   'Ca2 Dy1 Y1 Ni4 B16'
_cell_volume   244.11099321
_cell_formula_units_Z   1
loop_
 _symmetry_equiv_pos_site_id
 _symmetry_equiv_pos_as_xyz
  1  'x, y, z'
loop_
 _atom_site_type_symbol
 _atom_site_label
 _atom_site_symmetry_multiplicity
 _atom_site_fract_x
 _atom_site_fract_y
 _atom_site_fract_z
 _atom_site_occupancy
  Ca  Ca0  1  0.797685  0.797685  0.000000  1
  Ca  Ca1  1  0.202315  0.202315  0.000000  1
  Dy  Dy2  1  0.250000  0.750000  0.500000  1
  Y  Y3  1  0.750000  0.250000  0.500000  1
  Ni  Ni4  1  0.272762  0.500144  0.772618  1
  Ni  Ni5  1  0.727526  0.500144  0.227382  1
  Ni  Ni6  1  0.499856  0.727238  0.227382  1
  Ni  Ni7  1  0.499856  0.272474  0.772618  1
  B  B8  1  0.276899  0.112148  0.389192  1
  B  B9  1  0.722955  0.887706  0.610808  1
  B  B10  1  0.276899  0.887706  0.164750  1
  B  B11  1  0.722955  0.112148  0.835250  1
  B  B12  1  0.112294  0.723101  0.835250  1
  B  B13  1  0.887852  0.277045  0.164750  1
  B  B14  1  0.112294  0.277045  0.389192  1
  B  B15  1  0.887852  0.723101  0.610808  1
  B  B16  1  0.113127  0.112971  0.530024  1
  B  B17  1  0.582946  0.583101  0.469976  1
  B  B18  1  0.113127  0.583101  0.000156  1
  B  B19  1  0.582946  0.112971  0.999844  1
  B  B20  1  0.887029  0.886873  0.469976  1
  B  B21  1  0.416899  0.417054  0.530024  1
  B  B22  1  0.887029  0.417054  0.000156  1
  B  B23  1  0.416899  0.886873  0.999844  1
