# generated using pymatgen
data_Lu8Mg2Zn3CuSb2
_symmetry_space_group_name_H-M   'P 1'
_cell_length_a   8.34993960
_cell_length_b   8.34994140
_cell_length_c   8.38719310
_cell_angle_alpha   125.90386282
_cell_angle_beta   125.90387826
_cell_angle_gamma   79.74165347
_symmetry_Int_Tables_number   1
_chemical_formula_structural   Lu8Mg2Zn3CuSb2
_chemical_formula_sum   'Lu8 Mg2 Zn3 Cu1 Sb2'
_cell_volume   371.21405159
_cell_formula_units_Z   1
loop_
 _symmetry_equiv_pos_site_id
 _symmetry_equiv_pos_as_xyz
  1  'x, y, z'
loop_
 _atom_site_type_symbol
 _atom_site_label
 _atom_site_symmetry_multiplicity
 _atom_site_fract_x
 _atom_site_fract_y
 _atom_site_fract_z
 _atom_site_occupancy
  Lu  Lu0  1  0.795193  0.301702  0.812219  1
  Lu  Lu1  1  0.198298  0.704807  0.187781  1
  Lu  Lu2  1  0.482974  0.989483  0.187781  1
  Lu  Lu3  1  0.304558  0.476392  0.500000  1
  Lu  Lu4  1  0.023608  0.195442  0.500000  1
  Lu  Lu5  1  0.510517  0.017026  0.812219  1
  Lu  Lu6  1  0.698903  0.514577  0.500000  1
  Lu  Lu7  1  0.985423  0.801097  0.500000  1
  Mg  Mg8  1  0.999974  0.000196  0.000170  1
  Mg  Mg9  1  0.499804  0.500026  0.999830  1
  Zn  Zn10  1  0.136101  0.634996  0.771098  1
  Zn  Zn11  1  0.865004  0.363899  0.228902  1
  Zn  Zn12  1  0.633752  0.866248  0.500000  1
  Cu  Cu13  1  0.370857  0.129143  0.500000  1
  Sb  Sb14  1  0.247516  0.252484  0.000000  1
  Sb  Sb15  1  0.747516  0.752484  0.000000  1
