# generated using pymatgen
data_Gd5Ho3(Si3Pt)4
_symmetry_space_group_name_H-M   'P 1'
_cell_length_a   8.17190900
_cell_length_b   8.17190943
_cell_length_c   8.29219800
_cell_angle_alpha   90.00000000
_cell_angle_beta   90.00000000
_cell_angle_gamma   120.00000230
_symmetry_Int_Tables_number   1
_chemical_formula_structural   Gd5Ho3(Si3Pt)4
_chemical_formula_sum   'Gd5 Ho3 Si12 Pt4'
_cell_volume   479.56485881
_cell_formula_units_Z   1
loop_
 _symmetry_equiv_pos_site_id
 _symmetry_equiv_pos_as_xyz
  1  'x, y, z'
loop_
 _atom_site_type_symbol
 _atom_site_label
 _atom_site_symmetry_multiplicity
 _atom_site_fract_x
 _atom_site_fract_y
 _atom_site_fract_z
 _atom_site_occupancy
  Gd  Gd0  1  0.999881  0.999982  0.250000  1
  Gd  Gd1  1  0.999975  0.000009  0.750000  1
  Gd  Gd2  1  0.500881  0.499321  0.250000  1
  Gd  Gd3  1  0.500618  0.001501  0.250000  1
  Gd  Gd4  1  0.999288  0.499672  0.250000  1
  Ho  Ho5  1  0.498812  0.501064  0.750000  1
  Ho  Ho6  1  0.498696  0.997286  0.750000  1
  Ho  Ho7  1  0.002193  0.501161  0.750000  1
  Si  Si8  1  0.165601  0.834469  0.500793  1
  Si  Si9  1  0.165751  0.331368  0.500796  1
  Si  Si10  1  0.668712  0.834342  0.500708  1
  Si  Si11  1  0.834261  0.165632  0.501676  1
  Si  Si12  1  0.834140  0.668496  0.501725  1
  Si  Si13  1  0.331348  0.165747  0.501776  1
  Si  Si14  1  0.834261  0.165632  0.998324  1
  Si  Si15  1  0.834140  0.668496  0.998275  1
  Si  Si16  1  0.331348  0.165747  0.998224  1
  Si  Si17  1  0.165601  0.834469  0.999207  1
  Si  Si18  1  0.165751  0.331368  0.999204  1
  Si  Si19  1  0.668712  0.834342  0.999292  1
  Pt  Pt20  1  0.333282  0.666687  0.505391  1
  Pt  Pt21  1  0.666731  0.333264  0.509251  1
  Pt  Pt22  1  0.666731  0.333264  0.990749  1
  Pt  Pt23  1  0.333282  0.666687  0.994609  1
