# generated using pymatgen
data_Cs4TaBiBr12
_symmetry_space_group_name_H-M   'P 1'
_cell_length_a   13.90862351
_cell_length_b   13.90862412
_cell_length_c   13.90861522
_cell_angle_alpha   131.65836645
_cell_angle_beta   131.65837019
_cell_angle_gamma   70.76930838
_symmetry_Int_Tables_number   1
_chemical_formula_structural   Cs4TaBiBr12
_chemical_formula_sum   'Cs8 Ta2 Bi2 Br24'
_cell_volume   1471.09284724
_cell_formula_units_Z   2
loop_
 _symmetry_equiv_pos_site_id
 _symmetry_equiv_pos_as_xyz
  1  'x, y, z'
loop_
 _atom_site_type_symbol
 _atom_site_label
 _atom_site_symmetry_multiplicity
 _atom_site_fract_x
 _atom_site_fract_y
 _atom_site_fract_z
 _atom_site_occupancy
  Cs  Cs0  1  0.375005  0.841702  0.966709  1
  Cs  Cs1  1  0.591702  0.625005  0.466709  1
  Cs  Cs2  1  0.874999  0.841704  0.466704  1
  Cs  Cs3  1  0.591704  0.124999  0.966704  1
  Cs  Cs4  1  0.875001  0.408296  0.033296  1
  Cs  Cs5  1  0.158296  0.125001  0.533296  1
  Cs  Cs6  1  0.374995  0.408298  0.533291  1
  Cs  Cs7  1  0.158298  0.624995  0.033291  1
  Ta  Ta8  1  0.000000  0.000000  0.000000  1
  Ta  Ta9  1  0.750000  0.250000  0.500000  1
  Bi  Bi10  1  0.500001  0.499999  0.000000  1
  Bi  Bi11  1  0.249999  0.750001  0.500000  1
  Br  Br12  1  0.749286  0.495504  0.253783  1
  Br  Br13  1  0.504496  0.250714  0.746217  1
  Br  Br14  1  0.372602  0.372602  0.999999  1
  Br  Br15  1  0.122602  0.622602  0.499999  1
  Br  Br16  1  0.377398  0.877398  0.500001  1
  Br  Br17  1  0.627398  0.627398  0.000001  1
  Br  Br18  1  0.111946  0.111945  0.000000  1
  Br  Br19  1  0.861945  0.361946  0.500000  1
  Br  Br20  1  0.638054  0.138055  0.500000  1
  Br  Br21  1  0.888055  0.888054  0.000000  1
  Br  Br22  1  0.224867  0.001216  0.223650  1
  Br  Br23  1  0.751217  0.027565  0.276350  1
  Br  Br24  1  0.504496  0.758280  0.253783  1
  Br  Br25  1  0.525133  0.248784  0.276350  1
  Br  Br26  1  0.972435  0.248783  0.723650  1
  Br  Br27  1  0.998783  0.222435  0.223650  1
  Br  Br28  1  0.998784  0.775133  0.776350  1
  Br  Br29  1  0.777565  0.001217  0.776350  1
  Br  Br30  1  0.751216  0.474867  0.723650  1
  Br  Br31  1  0.245504  0.491720  0.246217  1
  Br  Br32  1  0.245504  0.999286  0.753783  1
  Br  Br33  1  0.000714  0.754496  0.246217  1
  Br  Br34  1  0.508280  0.754496  0.753783  1
  Br  Br35  1  0.241720  0.495504  0.746217  1
