# generated using pymatgen
data_TbSc(PPt)2
_symmetry_space_group_name_H-M   'P 1'
_cell_length_a   4.06479100
_cell_length_b   4.06478929
_cell_length_c   15.25884800
_cell_angle_alpha   90.00000000
_cell_angle_beta   90.00000000
_cell_angle_gamma   120.00002208
_symmetry_Int_Tables_number   1
_chemical_formula_structural   TbSc(PPt)2
_chemical_formula_sum   'Tb2 Sc2 P4 Pt4'
_cell_volume   218.33760368
_cell_formula_units_Z   2
loop_
 _symmetry_equiv_pos_site_id
 _symmetry_equiv_pos_as_xyz
  1  'x, y, z'
loop_
 _atom_site_type_symbol
 _atom_site_label
 _atom_site_symmetry_multiplicity
 _atom_site_fract_x
 _atom_site_fract_y
 _atom_site_fract_z
 _atom_site_occupancy
  Tb  Tb0  1  0.000000  0.000000  0.500000  1
  Tb  Tb1  1  0.000000  0.000000  0.000000  1
  Sc  Sc2  1  0.000000  0.000000  0.250000  1
  Sc  Sc3  1  0.000000  0.000000  0.750000  1
  P  P4  1  0.333333  0.666667  0.879495  1
  P  P5  1  0.666667  0.333333  0.120505  1
  P  P6  1  0.666667  0.333333  0.379495  1
  P  P7  1  0.333333  0.666667  0.620505  1
  Pt  Pt8  1  0.333333  0.666667  0.358080  1
  Pt  Pt9  1  0.666667  0.333333  0.641920  1
  Pt  Pt10  1  0.666667  0.333333  0.858080  1
  Pt  Pt11  1  0.333333  0.666667  0.141920  1
