# generated using pymatgen
data_Sm2Si3Tc14C3
_symmetry_space_group_name_H-M   'P 1'
_cell_length_a   6.92059825
_cell_length_b   6.92059817
_cell_length_c   6.92059877
_cell_angle_alpha   82.32320335
_cell_angle_beta   82.32320697
_cell_angle_gamma   82.32320650
_symmetry_Int_Tables_number   1
_chemical_formula_structural   Sm2Si3Tc14C3
_chemical_formula_sum   'Sm2 Si3 Tc14 C3'
_cell_volume   323.27667986
_cell_formula_units_Z   1
loop_
 _symmetry_equiv_pos_site_id
 _symmetry_equiv_pos_as_xyz
  1  'x, y, z'
loop_
 _atom_site_type_symbol
 _atom_site_label
 _atom_site_symmetry_multiplicity
 _atom_site_fract_x
 _atom_site_fract_y
 _atom_site_fract_z
 _atom_site_occupancy
  Sm  Sm0  1  0.651991  0.651991  0.651991  1
  Sm  Sm1  1  0.348009  0.348009  0.348009  1
  Si  Si2  1  0.000000  0.000000  0.500000  1
  Si  Si3  1  0.500000  0.000000  0.000000  1
  Si  Si4  1  0.000000  0.500000  0.000000  1
  Tc  Tc5  1  0.723141  0.276859  0.000000  1
  Tc  Tc6  1  0.000000  0.723141  0.276859  1
  Tc  Tc7  1  0.276859  0.000000  0.723141  1
  Tc  Tc8  1  0.000000  0.276859  0.723141  1
  Tc  Tc9  1  0.723141  0.000000  0.276859  1
  Tc  Tc10  1  0.276859  0.723141  0.000000  1
  Tc  Tc11  1  0.346102  0.346102  0.860804  1
  Tc  Tc12  1  0.860804  0.346102  0.346102  1
  Tc  Tc13  1  0.346102  0.860804  0.346102  1
  Tc  Tc14  1  0.653898  0.653898  0.139196  1
  Tc  Tc15  1  0.139196  0.653898  0.653898  1
  Tc  Tc16  1  0.653898  0.139196  0.653898  1
  Tc  Tc17  1  0.901508  0.901508  0.901508  1
  Tc  Tc18  1  0.098492  0.098492  0.098492  1
  C  C19  1  0.500000  0.500000  0.000000  1
  C  C20  1  0.000000  0.500000  0.500000  1
  C  C21  1  0.500000  0.000000  0.500000  1
