# generated using pymatgen
data_Nd4MgCd3Rh4
_symmetry_space_group_name_H-M   'P 1'
_cell_length_a   4.17651800
_cell_length_b   7.30512387
_cell_length_c   8.80843731
_cell_angle_alpha   89.91744638
_cell_angle_beta   90.00000000
_cell_angle_gamma   90.00000000
_symmetry_Int_Tables_number   1
_chemical_formula_structural   Nd4MgCd3Rh4
_chemical_formula_sum   'Nd4 Mg1 Cd3 Rh4'
_cell_volume   268.74497917
_cell_formula_units_Z   1
loop_
 _symmetry_equiv_pos_site_id
 _symmetry_equiv_pos_as_xyz
  1  'x, y, z'
loop_
 _atom_site_type_symbol
 _atom_site_label
 _atom_site_symmetry_multiplicity
 _atom_site_fract_x
 _atom_site_fract_y
 _atom_site_fract_z
 _atom_site_occupancy
  Nd  Nd0  1  0.750000  0.952431  0.322110  1
  Nd  Nd1  1  0.250000  0.041519  0.680631  1
  Nd  Nd2  1  0.250000  0.546530  0.821849  1
  Nd  Nd3  1  0.750000  0.457837  0.177784  1
  Mg  Mg4  1  0.750000  0.369981  0.556191  1
  Cd  Cd5  1  0.750000  0.867627  0.940150  1
  Cd  Cd6  1  0.250000  0.137007  0.059186  1
  Cd  Cd7  1  0.250000  0.629587  0.440830  1
  Rh  Rh8  1  0.750000  0.751959  0.631112  1
  Rh  Rh9  1  0.250000  0.240510  0.377045  1
  Rh  Rh10  1  0.250000  0.742477  0.132225  1
  Rh  Rh11  1  0.750000  0.262534  0.860888  1
