# generated using pymatgen
data_Sc2ZnH12IrRu
_symmetry_space_group_name_H-M   'P 1'
_cell_length_a   4.62316100
_cell_length_b   4.62316359
_cell_length_c   8.31567700
_cell_angle_alpha   90.00000000
_cell_angle_beta   90.00000000
_cell_angle_gamma   120.00000291
_symmetry_Int_Tables_number   1
_chemical_formula_structural   Sc2ZnH12IrRu
_chemical_formula_sum   'Sc2 Zn1 H12 Ir1 Ru1'
_cell_volume   153.92406006
_cell_formula_units_Z   1
loop_
 _symmetry_equiv_pos_site_id
 _symmetry_equiv_pos_as_xyz
  1  'x, y, z'
loop_
 _atom_site_type_symbol
 _atom_site_label
 _atom_site_symmetry_multiplicity
 _atom_site_fract_x
 _atom_site_fract_y
 _atom_site_fract_z
 _atom_site_occupancy
  Sc  Sc0  1  0.666667  0.333333  0.368422  1
  Sc  Sc1  1  0.333333  0.666667  0.635480  1
  Zn  Zn2  1  0.000000  0.000000  0.825724  1
  H  H3  1  0.152829  0.847171  0.394662  1
  H  H4  1  0.694342  0.847171  0.394662  1
  H  H5  1  0.152829  0.305658  0.394662  1
  H  H6  1  0.834137  0.165863  0.608062  1
  H  H7  1  0.331726  0.165863  0.608062  1
  H  H8  1  0.834137  0.668274  0.608062  1
  H  H9  1  0.509969  0.019938  0.878981  1
  H  H10  1  0.509969  0.490031  0.878981  1
  H  H11  1  0.980062  0.490031  0.878981  1
  H  H12  1  0.494725  0.989450  0.163197  1
  H  H13  1  0.494725  0.505275  0.163197  1
  H  H14  1  0.010550  0.505275  0.163197  1
  Ir  Ir15  1  0.333333  0.666667  0.289327  1
  Ru  Ru16  1  0.666667  0.333333  0.746343  1
