# generated using pymatgen
data_Tb2DyRuBr3
_symmetry_space_group_name_H-M   'P 1'
_cell_length_a   4.10301600
_cell_length_b   8.55976817
_cell_length_c   11.96491547
_cell_angle_alpha   87.54854617
_cell_angle_beta   90.00000000
_cell_angle_gamma   90.00000000
_symmetry_Int_Tables_number   1
_chemical_formula_structural   Tb2DyRuBr3
_chemical_formula_sum   'Tb4 Dy2 Ru2 Br6'
_cell_volume   419.83361557
_cell_formula_units_Z   2
loop_
 _symmetry_equiv_pos_site_id
 _symmetry_equiv_pos_as_xyz
  1  'x, y, z'
loop_
 _atom_site_type_symbol
 _atom_site_label
 _atom_site_symmetry_multiplicity
 _atom_site_fract_x
 _atom_site_fract_y
 _atom_site_fract_z
 _atom_site_occupancy
  Tb  Tb0  1  0.750000  0.102406  0.673487  1
  Tb  Tb1  1  0.250000  0.897594  0.326513  1
  Tb  Tb2  1  0.250000  0.274212  0.894665  1
  Tb  Tb3  1  0.750000  0.725788  0.105335  1
  Dy  Dy4  1  0.750000  0.139746  0.133052  1
  Dy  Dy5  1  0.250000  0.860254  0.866948  1
  Ru  Ru6  1  0.750000  0.057033  0.904040  1
  Ru  Ru7  1  0.250000  0.942967  0.095960  1
  Br  Br8  1  0.250000  0.342121  0.640720  1
  Br  Br9  1  0.750000  0.657879  0.359280  1
  Br  Br10  1  0.750000  0.131592  0.395795  1
  Br  Br11  1  0.250000  0.868408  0.604205  1
  Br  Br12  1  0.250000  0.430439  0.129634  1
  Br  Br13  1  0.750000  0.569561  0.870366  1
