# generated using pymatgen
data_Ti6Al2Re3Tc
_symmetry_space_group_name_H-M   'P 1'
_cell_length_a   4.42028001
_cell_length_b   6.30592600
_cell_length_c   13.32758504
_cell_angle_alpha   90.00000000
_cell_angle_beta   89.99125942
_cell_angle_gamma   90.00000000
_symmetry_Int_Tables_number   1
_chemical_formula_structural   Ti6Al2Re3Tc
_chemical_formula_sum   'Ti12 Al4 Re6 Tc2'
_cell_volume   371.49255009
_cell_formula_units_Z   2
loop_
 _symmetry_equiv_pos_site_id
 _symmetry_equiv_pos_as_xyz
  1  'x, y, z'
loop_
 _atom_site_type_symbol
 _atom_site_label
 _atom_site_symmetry_multiplicity
 _atom_site_fract_x
 _atom_site_fract_y
 _atom_site_fract_z
 _atom_site_occupancy
  Ti  Ti0  1  0.499956  0.245105  0.004098  1
  Ti  Ti1  1  0.499956  0.754896  0.004098  1
  Ti  Ti2  1  0.999766  0.254887  0.162542  1
  Ti  Ti3  1  0.999766  0.745113  0.162542  1
  Ti  Ti4  1  0.499636  0.258894  0.326881  1
  Ti  Ti5  1  0.499636  0.741106  0.326881  1
  Ti  Ti6  1  0.000008  0.247265  0.499988  1
  Ti  Ti7  1  0.000008  0.752735  0.499988  1
  Ti  Ti8  1  0.500360  0.252746  0.666706  1
  Ti  Ti9  1  0.500360  0.747254  0.666706  1
  Ti  Ti10  1  0.000279  0.241123  0.839759  1
  Ti  Ti11  1  0.000279  0.758877  0.839759  1
  Al  Al12  1  0.999504  0.000000  0.331259  1
  Al  Al13  1  0.500003  0.499999  0.497844  1
  Al  Al14  1  0.000491  0.000000  0.668819  1
  Al  Al15  1  0.500338  0.499999  0.835431  1
  Re  Re16  1  0.999935  0.499999  0.994621  1
  Re  Re17  1  0.499767  0.000000  0.172014  1
  Re  Re18  1  0.999681  0.499999  0.338121  1
  Re  Re19  1  0.500002  0.000000  0.500541  1
  Re  Re20  1  0.000308  0.499999  0.666187  1
  Re  Re21  1  0.500238  0.000000  0.828565  1
  Tc  Tc22  1  0.999975  0.000000  0.000857  1
  Tc  Tc23  1  0.499732  0.499999  0.165794  1
