# generated using pymatgen
data_Tm6Zr6Al10Os7
_symmetry_space_group_name_H-M   'P 1'
_cell_length_a   9.25034495
_cell_length_b   9.21830113
_cell_length_c   9.21830122
_cell_angle_alpha   59.77548345
_cell_angle_beta   59.88494303
_cell_angle_gamma   59.88494071
_symmetry_Int_Tables_number   1
_chemical_formula_structural   Tm6Zr6Al10Os7
_chemical_formula_sum   'Tm6 Zr6 Al10 Os7'
_cell_volume   553.92055093
_cell_formula_units_Z   1
loop_
 _symmetry_equiv_pos_site_id
 _symmetry_equiv_pos_as_xyz
  1  'x, y, z'
loop_
 _atom_site_type_symbol
 _atom_site_label
 _atom_site_symmetry_multiplicity
 _atom_site_fract_x
 _atom_site_fract_y
 _atom_site_fract_z
 _atom_site_occupancy
  Tm  Tm0  1  0.693542  0.707854  0.301295  1
  Tm  Tm1  1  0.297309  0.707854  0.301295  1
  Tm  Tm2  1  0.703376  0.296624  0.296624  1
  Tm  Tm3  1  0.297309  0.301295  0.707854  1
  Tm  Tm4  1  0.693542  0.301295  0.707854  1
  Tm  Tm5  1  0.302218  0.697782  0.697782  1
  Zr  Zr6  1  0.876970  0.885451  0.360608  1
  Zr  Zr7  1  0.876970  0.360608  0.885451  1
  Zr  Zr8  1  0.367194  0.880121  0.880121  1
  Zr  Zr9  1  0.872564  0.880121  0.880121  1
  Zr  Zr10  1  0.123774  0.124659  0.627794  1
  Zr  Zr11  1  0.123774  0.627794  0.124659  1
  Al  Al12  1  0.640726  0.119344  0.119344  1
  Al  Al13  1  0.120585  0.119344  0.119344  1
  Al  Al14  1  0.666395  0.666074  0.001136  1
  Al  Al15  1  0.666395  0.001136  0.666074  1
  Al  Al16  1  0.997968  0.666778  0.666778  1
  Al  Al17  1  0.668476  0.666778  0.666778  1
  Al  Al18  1  0.334210  0.324380  0.007201  1
  Al  Al19  1  0.334210  0.007201  0.324380  1
  Al  Al20  1  0.998278  0.329387  0.329387  1
  Al  Al21  1  0.342947  0.329387  0.329387  1
  Os  Os22  1  0.003711  0.996289  0.996289  1
  Os  Os23  1  0.000332  0.000474  0.500106  1
  Os  Os24  1  0.499089  0.000474  0.500106  1
  Os  Os25  1  0.000132  0.499868  0.499868  1
  Os  Os26  1  0.499089  0.500106  0.000474  1
  Os  Os27  1  0.000332  0.500106  0.000474  1
  Os  Os28  1  0.498584  0.001416  0.001416  1
