# generated using pymatgen
data_La7LuSc11Si16Mo
_symmetry_space_group_name_H-M   'P 1'
_cell_length_a   7.27394125
_cell_length_b   7.52636346
_cell_length_c   14.17208226
_cell_angle_alpha   90.05797093
_cell_angle_beta   89.76798753
_cell_angle_gamma   89.39310212
_symmetry_Int_Tables_number   1
_chemical_formula_structural   La7LuSc11Si16Mo
_chemical_formula_sum   'La7 Lu1 Sc11 Si16 Mo1'
_cell_volume   775.81911266
_cell_formula_units_Z   1
loop_
 _symmetry_equiv_pos_site_id
 _symmetry_equiv_pos_as_xyz
  1  'x, y, z'
loop_
 _atom_site_type_symbol
 _atom_site_label
 _atom_site_symmetry_multiplicity
 _atom_site_fract_x
 _atom_site_fract_y
 _atom_site_fract_z
 _atom_site_occupancy
  La  La0  1  0.511575  0.326938  0.096069  1
  La  La1  1  0.009167  0.169782  0.404731  1
  La  La2  1  0.488585  0.671052  0.597007  1
  La  La3  1  0.992735  0.828553  0.901345  1
  La  La4  1  0.486246  0.674326  0.900566  1
  La  La5  1  0.994030  0.832513  0.594575  1
  La  La6  1  0.506091  0.328814  0.407649  1
  Lu  Lu7  1  0.009390  0.175824  0.100754  1
  Sc  Sc8  1  0.834723  0.326018  0.624766  1
  Sc  Sc9  1  0.334226  0.175885  0.876501  1
  Sc  Sc10  1  0.168136  0.676656  0.126390  1
  Sc  Sc11  1  0.664803  0.829400  0.376385  1
  Sc  Sc12  1  0.166967  0.674954  0.375273  1
  Sc  Sc13  1  0.668417  0.826951  0.123826  1
  Sc  Sc14  1  0.832848  0.320744  0.871736  1
  Sc  Sc15  1  0.657346  0.006277  0.746647  1
  Sc  Sc16  1  0.166252  0.485578  0.743983  1
  Sc  Sc17  1  0.334561  0.001102  0.249239  1
  Sc  Sc18  1  0.837544  0.501130  0.250953  1
  Si  Si19  1  0.640065  0.041131  0.546166  1
  Si  Si20  1  0.147376  0.456331  0.962718  1
  Si  Si21  1  0.335688  0.966191  0.041997  1
  Si  Si22  1  0.849316  0.536614  0.459083  1
  Si  Si23  1  0.342937  0.968695  0.469527  1
  Si  Si24  1  0.852623  0.529382  0.041155  1
  Si  Si25  1  0.659560  0.038816  0.958556  1
  Si  Si26  1  0.166966  0.448669  0.543591  1
  Si  Si27  1  0.531608  0.364046  0.745876  1
  Si  Si28  1  0.047822  0.128051  0.745322  1
  Si  Si29  1  0.465817  0.630103  0.249927  1
  Si  Si30  1  0.962298  0.880023  0.249423  1
  Si  Si31  1  0.789278  0.612215  0.747534  1
  Si  Si32  1  0.293366  0.897455  0.746563  1
  Si  Si33  1  0.205274  0.378214  0.248254  1
  Si  Si34  1  0.712196  0.118058  0.247135  1
  Mo  Mo35  1  0.334168  0.173512  0.628774  1
