# generated using pymatgen
data_Tb6Dy3Th3(Si2Ni)4
_symmetry_space_group_name_H-M   'P 1'
_cell_length_a   4.17023700
_cell_length_b   11.46274093
_cell_length_c   11.27702102
_cell_angle_alpha   89.59955424
_cell_angle_beta   90.00000000
_cell_angle_gamma   90.00000000
_symmetry_Int_Tables_number   1
_chemical_formula_structural   Tb6Dy3Th3(Si2Ni)4
_chemical_formula_sum   'Tb6 Dy3 Th3 Si8 Ni4'
_cell_volume   539.05489855
_cell_formula_units_Z   1
loop_
 _symmetry_equiv_pos_site_id
 _symmetry_equiv_pos_as_xyz
  1  'x, y, z'
loop_
 _atom_site_type_symbol
 _atom_site_label
 _atom_site_symmetry_multiplicity
 _atom_site_fract_x
 _atom_site_fract_y
 _atom_site_fract_z
 _atom_site_occupancy
  Tb  Tb0  1  0.750000  0.559728  0.616350  1
  Tb  Tb1  1  0.250000  0.120614  0.562235  1
  Tb  Tb2  1  0.250000  0.379558  0.059724  1
  Tb  Tb3  1  0.750000  0.875002  0.438980  1
  Tb  Tb4  1  0.750000  0.621776  0.936860  1
  Tb  Tb5  1  0.750000  0.197615  0.291723  1
  Dy  Dy6  1  0.250000  0.802501  0.709525  1
  Dy  Dy7  1  0.250000  0.692573  0.210296  1
  Dy  Dy8  1  0.750000  0.310642  0.790761  1
  Th  Th9  1  0.250000  0.061810  0.883194  1
  Th  Th10  1  0.250000  0.439233  0.385849  1
  Th  Th11  1  0.750000  0.939654  0.116295  1
  Si  Si12  1  0.250000  0.805963  0.970531  1
  Si  Si13  1  0.250000  0.689835  0.472060  1
  Si  Si14  1  0.750000  0.194773  0.028638  1
  Si  Si15  1  0.750000  0.308517  0.532634  1
  Si  Si16  1  0.250000  0.494126  0.801151  1
  Si  Si17  1  0.250000  0.013955  0.308031  1
  Si  Si18  1  0.750000  0.509253  0.193619  1
  Si  Si19  1  0.750000  0.984781  0.692673  1
  Ni  Ni20  1  0.250000  0.363066  0.630155  1
  Ni  Ni21  1  0.250000  0.135308  0.129014  1
  Ni  Ni22  1  0.750000  0.633274  0.368166  1
  Ni  Ni23  1  0.750000  0.866443  0.871538  1
