# generated using pymatgen
data_Tb12Tc3Pb2
_symmetry_space_group_name_H-M   'P 1'
_cell_length_a   8.56358336
_cell_length_b   8.56358394
_cell_length_c   8.56358364
_cell_angle_alpha   109.02533851
_cell_angle_beta   109.02534789
_cell_angle_gamma   110.36670490
_symmetry_Int_Tables_number   1
_chemical_formula_structural   Tb12Tc3Pb2
_chemical_formula_sum   'Tb12 Tc3 Pb2'
_cell_volume   483.35367061
_cell_formula_units_Z   1
loop_
 _symmetry_equiv_pos_site_id
 _symmetry_equiv_pos_as_xyz
  1  'x, y, z'
loop_
 _atom_site_type_symbol
 _atom_site_label
 _atom_site_symmetry_multiplicity
 _atom_site_fract_x
 _atom_site_fract_y
 _atom_site_fract_z
 _atom_site_occupancy
  Tb  Tb0  1  0.191052  0.429333  0.238281  1
  Tb  Tb1  1  0.808948  0.570667  0.761719  1
  Tb  Tb2  1  0.191052  0.952774  0.761719  1
  Tb  Tb3  1  0.952774  0.191052  0.761719  1
  Tb  Tb4  1  0.808948  0.047226  0.238281  1
  Tb  Tb5  1  0.047226  0.808948  0.238281  1
  Tb  Tb6  1  0.429333  0.191052  0.238281  1
  Tb  Tb7  1  0.570667  0.808948  0.761719  1
  Tb  Tb8  1  0.307096  0.307096  0.614193  1
  Tb  Tb9  1  0.692904  0.692904  0.385807  1
  Tb  Tb10  1  0.692904  0.307096  0.000000  1
  Tb  Tb11  1  0.307096  0.692904  0.000000  1
  Tc  Tc12  1  0.373531  0.373531  0.000000  1
  Tc  Tc13  1  0.626469  0.626469  0.000000  1
  Tc  Tc14  1  0.000000  0.000000  0.000000  1
  Pb  Pb15  1  0.000000  0.500000  0.500000  1
  Pb  Pb16  1  0.500000  0.000000  0.500000  1
