# generated using pymatgen
data_Hf12Ga9Pd3N4
_symmetry_space_group_name_H-M   'P 1'
_cell_length_a   8.54194180
_cell_length_b   8.54194114
_cell_length_c   8.54194188
_cell_angle_alpha   60.15163537
_cell_angle_beta   60.15164096
_cell_angle_gamma   60.15163517
_symmetry_Int_Tables_number   1
_chemical_formula_structural   Hf12Ga9Pd3N4
_chemical_formula_sum   'Hf12 Ga9 Pd3 N4'
_cell_volume   442.22562936
_cell_formula_units_Z   1
loop_
 _symmetry_equiv_pos_site_id
 _symmetry_equiv_pos_as_xyz
  1  'x, y, z'
loop_
 _atom_site_type_symbol
 _atom_site_label
 _atom_site_symmetry_multiplicity
 _atom_site_fract_x
 _atom_site_fract_y
 _atom_site_fract_z
 _atom_site_occupancy
  Hf  Hf0  1  0.815319  0.185391  0.185391  1
  Hf  Hf1  1  0.185391  0.815319  0.185391  1
  Hf  Hf2  1  0.814334  0.814334  0.184745  1
  Hf  Hf3  1  0.184745  0.814334  0.814334  1
  Hf  Hf4  1  0.814334  0.184745  0.814334  1
  Hf  Hf5  1  0.185391  0.185391  0.815319  1
  Hf  Hf6  1  0.434681  0.064609  0.064609  1
  Hf  Hf7  1  0.064609  0.434681  0.064609  1
  Hf  Hf8  1  0.435666  0.435666  0.065255  1
  Hf  Hf9  1  0.065255  0.435666  0.435666  1
  Hf  Hf10  1  0.435666  0.065255  0.435666  1
  Hf  Hf11  1  0.064609  0.064609  0.434681  1
  Ga  Ga12  1  0.410596  0.410596  0.757657  1
  Ga  Ga13  1  0.415020  0.415020  0.415020  1
  Ga  Ga14  1  0.757657  0.410596  0.410596  1
  Ga  Ga15  1  0.410596  0.757657  0.410596  1
  Ga  Ga16  1  0.839404  0.839404  0.492343  1
  Ga  Ga17  1  0.834980  0.834980  0.834980  1
  Ga  Ga18  1  0.492343  0.839404  0.839404  1
  Ga  Ga19  1  0.839404  0.492343  0.839404  1
  Ga  Ga20  1  0.625000  0.625000  0.625000  1
  Pd  Pd21  1  0.625000  0.625000  0.125000  1
  Pd  Pd22  1  0.125000  0.625000  0.625000  1
  Pd  Pd23  1  0.625000  0.125000  0.625000  1
  N  N24  1  0.125000  0.125000  0.625000  1
  N  N25  1  0.125000  0.125000  0.125000  1
  N  N26  1  0.625000  0.125000  0.125000  1
  N  N27  1  0.125000  0.625000  0.125000  1
