# generated using pymatgen
data_Ca4LuTa2InO12
_symmetry_space_group_name_H-M   'P 1'
_cell_length_a   5.78789064
_cell_length_b   5.58880563
_cell_length_c   9.78804837
_cell_angle_alpha   55.16243798
_cell_angle_beta   89.77485708
_cell_angle_gamma   89.95840984
_symmetry_Int_Tables_number   1
_chemical_formula_structural   Ca4LuTa2InO12
_chemical_formula_sum   'Ca4 Lu1 Ta2 In1 O12'
_cell_volume   259.86954788
_cell_formula_units_Z   1
loop_
 _symmetry_equiv_pos_site_id
 _symmetry_equiv_pos_as_xyz
  1  'x, y, z'
loop_
 _atom_site_type_symbol
 _atom_site_label
 _atom_site_symmetry_multiplicity
 _atom_site_fract_x
 _atom_site_fract_y
 _atom_site_fract_z
 _atom_site_occupancy
  Ca  Ca0  1  0.051472  0.264345  0.750121  1
  Ca  Ca1  1  0.553491  0.741851  0.745802  1
  Ca  Ca2  1  0.948528  0.735655  0.249879  1
  Ca  Ca3  1  0.446509  0.258149  0.254198  1
  Lu  Lu4  1  0.500000  0.000000  0.000000  1
  Ta  Ta5  1  0.000000  0.500000  0.000000  1
  Ta  Ta6  1  0.500000  0.500000  0.500000  1
  In  In7  1  0.000000  0.000000  0.500000  1
  O  O8  1  0.310097  0.738898  0.552075  1
  O  O9  1  0.811832  0.261377  0.947777  1
  O  O10  1  0.689903  0.261102  0.447925  1
  O  O11  1  0.188168  0.738623  0.052223  1
  O  O12  1  0.212869  0.375005  0.440044  1
  O  O13  1  0.711712  0.624648  0.059451  1
  O  O14  1  0.787131  0.624995  0.559956  1
  O  O15  1  0.288288  0.375352  0.940549  1
  O  O16  1  0.459013  0.157821  0.737500  1
  O  O17  1  0.958187  0.845470  0.761673  1
  O  O18  1  0.041813  0.154530  0.238327  1
  O  O19  1  0.540987  0.842179  0.262500  1
