# generated using pymatgen
data_Nb12Al8CoOs3C4
_symmetry_space_group_name_H-M   'P 1'
_cell_length_a   8.33938716
_cell_length_b   8.33918497
_cell_length_c   8.30870220
_cell_angle_alpha   59.87822540
_cell_angle_beta   59.87818927
_cell_angle_gamma   60.00076010
_symmetry_Int_Tables_number   1
_chemical_formula_structural   Nb12Al8CoOs3C4
_chemical_formula_sum   'Nb12 Al8 Co1 Os3 C4'
_cell_volume   407.82747085
_cell_formula_units_Z   1
loop_
 _symmetry_equiv_pos_site_id
 _symmetry_equiv_pos_as_xyz
  1  'x, y, z'
loop_
 _atom_site_type_symbol
 _atom_site_label
 _atom_site_symmetry_multiplicity
 _atom_site_fract_x
 _atom_site_fract_y
 _atom_site_fract_z
 _atom_site_occupancy
  Nb  Nb0  1  0.685824  0.309325  0.695525  1
  Nb  Nb1  1  0.940648  0.564178  0.554516  1
  Nb  Nb2  1  0.556478  0.942968  0.944106  1
  Nb  Nb3  1  0.942944  0.556487  0.944082  1
  Nb  Nb4  1  0.556481  0.556450  0.944103  1
  Nb  Nb5  1  0.940650  0.940662  0.554513  1
  Nb  Nb6  1  0.693519  0.693550  0.305897  1
  Nb  Nb7  1  0.309352  0.685822  0.695484  1
  Nb  Nb8  1  0.693522  0.307032  0.305894  1
  Nb  Nb9  1  0.309350  0.309338  0.695487  1
  Nb  Nb10  1  0.564176  0.940675  0.554475  1
  Nb  Nb11  1  0.307056  0.693513  0.305918  1
  Al  Al12  1  0.328938  0.328962  0.342452  1
  Al  Al13  1  0.250401  0.921021  0.907556  1
  Al  Al14  1  0.921069  0.250340  0.907544  1
  Al  Al15  1  0.917938  0.917907  0.246245  1
  Al  Al16  1  0.328931  0.999660  0.342456  1
  Al  Al17  1  0.332062  0.332093  0.003755  1
  Al  Al18  1  0.999599  0.328979  0.342444  1
  Al  Al19  1  0.921062  0.921038  0.907548  1
  Co  Co20  1  0.125000  0.125000  0.625000  1
  Os  Os21  1  0.125000  0.125000  0.125000  1
  Os  Os22  1  0.625000  0.125000  0.125000  1
  Os  Os23  1  0.125000  0.625000  0.125000  1
  C  C24  1  0.625000  0.625000  0.625000  1
  C  C25  1  0.125000  0.625000  0.625000  1
  C  C26  1  0.625000  0.125000  0.625000  1
  C  C27  1  0.625000  0.625000  0.125000  1
