# generated using pymatgen
data_EuAl10FeIr
_symmetry_space_group_name_H-M   'P 1'
_cell_length_a   6.86256870
_cell_length_b   6.86256851
_cell_length_c   9.14410932
_cell_angle_alpha   89.92967475
_cell_angle_beta   89.92967254
_cell_angle_gamma   96.77455518
_symmetry_Int_Tables_number   1
_chemical_formula_structural   EuAl10FeIr
_chemical_formula_sum   'Eu2 Al20 Fe2 Ir2'
_cell_volume   427.63297263
_cell_formula_units_Z   2
loop_
 _symmetry_equiv_pos_site_id
 _symmetry_equiv_pos_as_xyz
  1  'x, y, z'
loop_
 _atom_site_type_symbol
 _atom_site_label
 _atom_site_symmetry_multiplicity
 _atom_site_fract_x
 _atom_site_fract_y
 _atom_site_fract_z
 _atom_site_occupancy
  Eu  Eu0  1  0.878129  0.121871  0.750000  1
  Eu  Eu1  1  0.121871  0.878129  0.250000  1
  Al  Al2  1  0.619976  0.373126  0.550115  1
  Al  Al3  1  0.380024  0.626874  0.449885  1
  Al  Al4  1  0.373126  0.619976  0.050115  1
  Al  Al5  1  0.626874  0.380024  0.949885  1
  Al  Al6  1  0.229357  0.221231  0.495546  1
  Al  Al7  1  0.770643  0.778769  0.504454  1
  Al  Al8  1  0.778769  0.770643  0.004454  1
  Al  Al9  1  0.221231  0.229357  0.995546  1
  Al  Al10  1  0.844824  0.165138  0.099817  1
  Al  Al11  1  0.155176  0.834862  0.900183  1
  Al  Al12  1  0.165138  0.844824  0.599817  1
  Al  Al13  1  0.834862  0.155176  0.400183  1
  Al  Al14  1  0.861614  0.587004  0.754519  1
  Al  Al15  1  0.138386  0.412996  0.245481  1
  Al  Al16  1  0.412996  0.138386  0.745481  1
  Al  Al17  1  0.587004  0.861614  0.254519  1
  Al  Al18  1  0.221444  0.480433  0.754622  1
  Al  Al19  1  0.778556  0.519567  0.245378  1
  Al  Al20  1  0.519567  0.778556  0.745378  1
  Al  Al21  1  0.480433  0.221444  0.254622  1
  Fe  Fe22  1  0.000000  0.500000  0.000000  1
  Fe  Fe23  1  0.500000  0.000000  0.500000  1
  Ir  Ir24  1  0.000000  0.500000  0.500000  1
  Ir  Ir25  1  0.500000  0.000000  0.000000  1
