# generated using pymatgen
data_La3Ga2(SnAu2)3
_symmetry_space_group_name_H-M   'P 1'
_cell_length_a   4.58283600
_cell_length_b   10.09232000
_cell_length_c   13.68501800
_cell_angle_alpha   90.00000000
_cell_angle_beta   90.00000000
_cell_angle_gamma   90.00000000
_symmetry_Int_Tables_number   1
_chemical_formula_structural   La3Ga2(SnAu2)3
_chemical_formula_sum   'La6 Ga4 Sn6 Au12'
_cell_volume   632.95189046
_cell_formula_units_Z   2
loop_
 _symmetry_equiv_pos_site_id
 _symmetry_equiv_pos_as_xyz
  1  'x, y, z'
loop_
 _atom_site_type_symbol
 _atom_site_label
 _atom_site_symmetry_multiplicity
 _atom_site_fract_x
 _atom_site_fract_y
 _atom_site_fract_z
 _atom_site_occupancy
  La  La0  1  0.000000  0.738490  0.807949  1
  La  La1  1  0.000000  0.738490  0.192051  1
  La  La2  1  0.500000  0.261510  0.692051  1
  La  La3  1  0.500000  0.261510  0.307949  1
  La  La4  1  0.000000  0.737181  0.500000  1
  La  La5  1  0.500000  0.262819  0.000000  1
  Ga  Ga6  1  0.000000  0.389467  0.832387  1
  Ga  Ga7  1  0.000000  0.389467  0.167613  1
  Ga  Ga8  1  0.500000  0.610533  0.667613  1
  Ga  Ga9  1  0.500000  0.610533  0.332387  1
  Sn  Sn10  1  0.000000  0.019939  0.356189  1
  Sn  Sn11  1  0.000000  0.019939  0.643811  1
  Sn  Sn12  1  0.500000  0.980061  0.143811  1
  Sn  Sn13  1  0.500000  0.980061  0.856189  1
  Sn  Sn14  1  0.000000  0.274411  0.500000  1
  Sn  Sn15  1  0.500000  0.725589  0.000000  1
  Au  Au16  1  0.000000  0.136188  0.842428  1
  Au  Au17  1  0.000000  0.136188  0.157572  1
  Au  Au18  1  0.500000  0.863812  0.657572  1
  Au  Au19  1  0.500000  0.863812  0.342428  1
  Au  Au20  1  0.000000  0.508897  0.000000  1
  Au  Au21  1  0.500000  0.491103  0.500000  1
  Au  Au22  1  0.000000  0.477761  0.352669  1
  Au  Au23  1  0.000000  0.477761  0.647331  1
  Au  Au24  1  0.500000  0.522239  0.147331  1
  Au  Au25  1  0.500000  0.522239  0.852669  1
  Au  Au26  1  0.000000  0.927439  0.000000  1
  Au  Au27  1  0.500000  0.072561  0.500000  1
