# generated using pymatgen
data_Rb2BeBr4
_symmetry_space_group_name_H-M   'P 1'
_cell_length_a   7.21752542
_cell_length_b   7.25041500
_cell_length_c   9.93045200
_cell_angle_alpha   90.00000000
_cell_angle_beta   108.15812892
_cell_angle_gamma   90.00000000
_symmetry_Int_Tables_number   1
_chemical_formula_structural   Rb2BeBr4
_chemical_formula_sum   'Rb4 Be2 Br8'
_cell_volume   493.78199742
_cell_formula_units_Z   2
loop_
 _symmetry_equiv_pos_site_id
 _symmetry_equiv_pos_as_xyz
  1  'x, y, z'
loop_
 _atom_site_type_symbol
 _atom_site_label
 _atom_site_symmetry_multiplicity
 _atom_site_fract_x
 _atom_site_fract_y
 _atom_site_fract_z
 _atom_site_occupancy
  Rb  Rb0  1  0.206111  0.249999  0.037062  1
  Rb  Rb1  1  0.692677  0.750000  0.417187  1
  Rb  Rb2  1  0.307323  0.249999  0.582813  1
  Rb  Rb3  1  0.793888  0.750000  0.962938  1
  Be  Be4  1  0.816870  0.249999  0.220975  1
  Be  Be5  1  0.183131  0.750000  0.779025  1
  Br  Br6  1  0.330409  0.750000  0.012748  1
  Br  Br7  1  0.005840  0.006294  0.277591  1
  Br  Br8  1  0.005840  0.493706  0.277591  1
  Br  Br9  1  0.602968  0.249999  0.340737  1
  Br  Br10  1  0.397032  0.750000  0.659263  1
  Br  Br11  1  0.994160  0.506295  0.722409  1
  Br  Br12  1  0.994160  0.993706  0.722409  1
  Br  Br13  1  0.669591  0.249999  0.987253  1
