# generated using pymatgen
data_Mg6ZrNb5Ir12
_symmetry_space_group_name_H-M   'P 1'
_cell_length_a   4.28876900
_cell_length_b   6.94948000
_cell_length_c   12.83259600
_cell_angle_alpha   90.00075430
_cell_angle_beta   89.99975922
_cell_angle_gamma   89.99787593
_symmetry_Int_Tables_number   1
_chemical_formula_structural   Mg6ZrNb5Ir12
_chemical_formula_sum   'Mg6 Zr1 Nb5 Ir12'
_cell_volume   382.47185851
_cell_formula_units_Z   1
loop_
 _symmetry_equiv_pos_site_id
 _symmetry_equiv_pos_as_xyz
  1  'x, y, z'
loop_
 _atom_site_type_symbol
 _atom_site_label
 _atom_site_symmetry_multiplicity
 _atom_site_fract_x
 _atom_site_fract_y
 _atom_site_fract_z
 _atom_site_occupancy
  Mg  Mg0  1  0.999913  0.000057  0.000618  1
  Mg  Mg1  1  0.500008  0.499969  0.169602  1
  Mg  Mg2  1  0.000337  0.000046  0.333086  1
  Mg  Mg3  1  0.499942  0.499985  0.496990  1
  Mg  Mg4  1  0.000154  0.999826  0.666340  1
  Mg  Mg5  1  0.500007  0.500006  0.833299  1
  Zr  Zr6  1  0.499950  0.000010  0.833382  1
  Nb  Nb7  1  0.999958  0.500012  0.001661  1
  Nb  Nb8  1  0.500061  0.000003  0.166382  1
  Nb  Nb9  1  0.999994  0.500032  0.333449  1
  Nb  Nb10  1  0.500035  0.000006  0.500292  1
  Nb  Nb11  1  0.999938  0.499989  0.664900  1
  Ir  Ir12  1  0.499952  0.254826  0.003479  1
  Ir  Ir13  1  0.499952  0.745201  0.003478  1
  Ir  Ir14  1  0.000005  0.251476  0.167517  1
  Ir  Ir15  1  0.000013  0.748547  0.167517  1
  Ir  Ir16  1  0.500053  0.245324  0.333380  1
  Ir  Ir17  1  0.500040  0.754709  0.333381  1
  Ir  Ir18  1  0.999950  0.250679  0.499190  1
  Ir  Ir19  1  0.999953  0.749316  0.499177  1
  Ir  Ir20  1  0.499952  0.254832  0.663146  1
  Ir  Ir21  1  0.499950  0.745149  0.663143  1
  Ir  Ir22  1  0.999936  0.259833  0.833291  1
  Ir  Ir23  1  0.999939  0.740166  0.833301  1
