# generated using pymatgen
data_Sm2Th5P12Pd17
_symmetry_space_group_name_H-M   'P 1'
_cell_length_a   12.35899595
_cell_length_b   12.35899564
_cell_length_c   13.68999302
_cell_angle_alpha   68.68997524
_cell_angle_beta   68.68997574
_cell_angle_gamma   19.05278366
_symmetry_Int_Tables_number   1
_chemical_formula_structural   Sm2Th5P12Pd17
_chemical_formula_sum   'Sm2 Th5 P12 Pd17'
_cell_volume   634.57294783
_cell_formula_units_Z   1
loop_
 _symmetry_equiv_pos_site_id
 _symmetry_equiv_pos_as_xyz
  1  'x, y, z'
loop_
 _atom_site_type_symbol
 _atom_site_label
 _atom_site_symmetry_multiplicity
 _atom_site_fract_x
 _atom_site_fract_y
 _atom_site_fract_z
 _atom_site_occupancy
  Sm  Sm0  1  0.417318  0.417318  0.263693  1
  Sm  Sm1  1  0.582682  0.582682  0.736307  1
  Th  Th2  1  0.500000  0.500000  0.500000  1
  Th  Th3  1  0.364291  0.364291  0.001458  1
  Th  Th4  1  0.635709  0.635709  0.998542  1
  Th  Th5  1  0.234807  0.234807  0.311893  1
  Th  Th6  1  0.765193  0.765193  0.688107  1
  P  P7  1  0.061614  0.061614  0.922937  1
  P  P8  1  0.938386  0.938386  0.077063  1
  P  P9  1  0.885966  0.885966  0.829925  1
  P  P10  1  0.114034  0.114034  0.170075  1
  P  P11  1  0.188685  0.188685  0.620257  1
  P  P12  1  0.811315  0.811315  0.379743  1
  P  P13  1  0.365774  0.365774  0.577802  1
  P  P14  1  0.634226  0.634226  0.422198  1
  P  P15  1  0.011380  0.011380  0.667191  1
  P  P16  1  0.988620  0.988620  0.332809  1
  P  P17  1  0.232925  0.232925  0.885013  1
  P  P18  1  0.767075  0.767075  0.114987  1
  Pd  Pd19  1  0.838844  0.838844  0.194606  1
  Pd  Pd20  1  0.161156  0.161156  0.805394  1
  Pd  Pd21  1  0.025844  0.025844  0.124646  1
  Pd  Pd22  1  0.974156  0.974156  0.875354  1
  Pd  Pd23  1  0.890144  0.890144  0.457177  1
  Pd  Pd24  1  0.109856  0.109856  0.542823  1
  Pd  Pd25  1  0.500000  0.500000  0.000000  1
  Pd  Pd26  1  0.544945  0.544945  0.253589  1
  Pd  Pd27  1  0.455055  0.455055  0.746411  1
  Pd  Pd28  1  0.296345  0.296345  0.487205  1
  Pd  Pd29  1  0.703655  0.703655  0.512795  1
  Pd  Pd30  1  0.664961  0.664961  0.227329  1
  Pd  Pd31  1  0.335039  0.335039  0.772671  1
  Pd  Pd32  1  0.907923  0.907923  0.643726  1
  Pd  Pd33  1  0.092077  0.092077  0.356274  1
  Pd  Pd34  1  0.219156  0.219156  0.075864  1
  Pd  Pd35  1  0.780844  0.780844  0.924136  1
