# generated using pymatgen
data_Eu5Mo3(P3Rh4)4
_symmetry_space_group_name_H-M   'P 1'
_cell_length_a   12.80998500
_cell_length_b   12.80998488
_cell_length_c   3.92139700
_cell_angle_alpha   90.00000000
_cell_angle_beta   90.00000000
_cell_angle_gamma   120.00000290
_symmetry_Int_Tables_number   1
_chemical_formula_structural   Eu5Mo3(P3Rh4)4
_chemical_formula_sum   'Eu5 Mo3 P12 Rh16'
_cell_volume   557.27385656
_cell_formula_units_Z   1
loop_
 _symmetry_equiv_pos_site_id
 _symmetry_equiv_pos_as_xyz
  1  'x, y, z'
loop_
 _atom_site_type_symbol
 _atom_site_label
 _atom_site_symmetry_multiplicity
 _atom_site_fract_x
 _atom_site_fract_y
 _atom_site_fract_z
 _atom_site_occupancy
  Eu  Eu0  1  0.185852  0.185852  0.500000  1
  Eu  Eu1  1  0.814148  0.000000  0.500000  1
  Eu  Eu2  1  0.000000  0.814148  0.500000  1
  Eu  Eu3  1  0.333333  0.666667  0.000000  1
  Eu  Eu4  1  0.666667  0.333333  0.000000  1
  Mo  Mo5  1  0.548960  0.548960  0.000000  1
  Mo  Mo6  1  0.451040  0.000000  0.000000  1
  Mo  Mo7  1  0.000000  0.451040  0.000000  1
  P  P8  1  0.819675  0.819675  0.000000  1
  P  P9  1  0.180325  0.000000  0.000000  1
  P  P10  1  0.000000  0.180325  0.000000  1
  P  P11  1  0.162955  0.481867  0.500000  1
  P  P12  1  0.518133  0.681087  0.500000  1
  P  P13  1  0.318913  0.837045  0.500000  1
  P  P14  1  0.681087  0.518133  0.500000  1
  P  P15  1  0.837045  0.318913  0.500000  1
  P  P16  1  0.481867  0.162955  0.500000  1
  P  P17  1  0.365309  0.365309  0.000000  1
  P  P18  1  0.634691  0.000000  0.000000  1
  P  P19  1  0.000000  0.634691  0.000000  1
  Rh  Rh20  1  0.715877  0.715877  0.500000  1
  Rh  Rh21  1  0.284123  0.000000  0.500000  1
  Rh  Rh22  1  0.000000  0.284123  0.500000  1
  Rh  Rh23  1  0.177605  0.377181  0.000000  1
  Rh  Rh24  1  0.622819  0.800425  0.000000  1
  Rh  Rh25  1  0.199575  0.822395  0.000000  1
  Rh  Rh26  1  0.800425  0.622819  0.000000  1
  Rh  Rh27  1  0.822395  0.199575  0.000000  1
  Rh  Rh28  1  0.377181  0.177605  0.000000  1
  Rh  Rh29  1  0.356023  0.484521  0.500000  1
  Rh  Rh30  1  0.515479  0.871503  0.500000  1
  Rh  Rh31  1  0.128497  0.643977  0.500000  1
  Rh  Rh32  1  0.871503  0.515479  0.500000  1
  Rh  Rh33  1  0.643977  0.128497  0.500000  1
  Rh  Rh34  1  0.484521  0.356023  0.500000  1
  Rh  Rh35  1  0.000000  0.000000  0.000000  1
