# generated using pymatgen
data_TmLu3Al18(Ir2Pt)2
_symmetry_space_group_name_H-M   'P 1'
_cell_length_a   7.54898737
_cell_length_b   7.54952767
_cell_length_c   9.39376001
_cell_angle_alpha   89.93125000
_cell_angle_beta   89.92466029
_cell_angle_gamma   119.58206114
_symmetry_Int_Tables_number   1
_chemical_formula_structural   TmLu3Al18(Ir2Pt)2
_chemical_formula_sum   'Tm1 Lu3 Al18 Ir4 Pt2'
_cell_volume   465.57628793
_cell_formula_units_Z   1
loop_
 _symmetry_equiv_pos_site_id
 _symmetry_equiv_pos_as_xyz
  1  'x, y, z'
loop_
 _atom_site_type_symbol
 _atom_site_label
 _atom_site_symmetry_multiplicity
 _atom_site_fract_x
 _atom_site_fract_y
 _atom_site_fract_z
 _atom_site_occupancy
  Tm  Tm0  1  0.995488  0.672027  0.252012  1
  Lu  Lu1  1  0.004472  0.327873  0.747901  1
  Lu  Lu2  1  0.672124  0.995548  0.252091  1
  Lu  Lu3  1  0.327907  0.004527  0.747900  1
  Al  Al4  1  0.127711  0.127782  0.250504  1
  Al  Al5  1  0.872325  0.872333  0.749496  1
  Al  Al6  1  0.000204  0.331964  0.078538  1
  Al  Al7  1  0.999793  0.667923  0.921299  1
  Al  Al8  1  0.000563  0.664566  0.576233  1
  Al  Al9  1  0.335553  0.999554  0.423935  1
  Al  Al10  1  0.999425  0.335295  0.423958  1
  Al  Al11  1  0.664590  0.000584  0.576112  1
  Al  Al12  1  0.667932  0.999804  0.921403  1
  Al  Al13  1  0.332195  0.000323  0.078554  1
  Al  Al14  1  0.331763  0.331761  0.552446  1
  Al  Al15  1  0.668126  0.668223  0.447640  1
  Al  Al16  1  0.669838  0.669938  0.060134  1
  Al  Al17  1  0.330059  0.330058  0.939781  1
  Al  Al18  1  0.340765  0.548435  0.252802  1
  Al  Al19  1  0.659307  0.451540  0.747198  1
  Al  Al20  1  0.548340  0.340598  0.252802  1
  Al  Al21  1  0.451540  0.659300  0.747201  1
  Ir  Ir22  1  0.327745  0.672285  0.500057  1
  Ir  Ir23  1  0.672206  0.327673  0.500050  1
  Ir  Ir24  1  0.000021  0.000048  0.999936  1
  Ir  Ir25  1  0.000028  0.000040  0.500068  1
  Pt  Pt26  1  0.672646  0.327297  0.999976  1
  Pt  Pt27  1  0.327335  0.672699  0.999972  1
