# generated using pymatgen
data_LaZr3(Ga3Rh)6
_symmetry_space_group_name_H-M   'P 1'
_cell_length_a   7.53734720
_cell_length_b   7.53127414
_cell_length_c   9.44865900
_cell_angle_alpha   90.00000000
_cell_angle_beta   90.00000000
_cell_angle_gamma   119.98145079
_symmetry_Int_Tables_number   1
_chemical_formula_structural   LaZr3(Ga3Rh)6
_chemical_formula_sum   'La1 Zr3 Ga18 Rh6'
_cell_volume   464.58900784
_cell_formula_units_Z   1
loop_
 _symmetry_equiv_pos_site_id
 _symmetry_equiv_pos_as_xyz
  1  'x, y, z'
loop_
 _atom_site_type_symbol
 _atom_site_label
 _atom_site_symmetry_multiplicity
 _atom_site_fract_x
 _atom_site_fract_y
 _atom_site_fract_z
 _atom_site_occupancy
  La  La0  1  0.331555  0.003849  0.750000  1
  Zr  Zr1  1  0.995870  0.669097  0.250000  1
  Zr  Zr2  1  0.004361  0.331854  0.750000  1
  Zr  Zr3  1  0.669223  0.996707  0.250000  1
  Ga  Ga4  1  0.330457  0.336804  0.564923  1
  Ga  Ga5  1  0.669530  0.669602  0.426830  1
  Ga  Ga6  1  0.669530  0.669602  0.073170  1
  Ga  Ga7  1  0.330457  0.336804  0.935077  1
  Ga  Ga8  1  0.335217  0.549481  0.250000  1
  Ga  Ga9  1  0.670527  0.458754  0.750000  1
  Ga  Ga10  1  0.552521  0.337960  0.250000  1
  Ga  Ga11  1  0.450175  0.657574  0.750000  1
  Ga  Ga12  1  0.995601  0.333792  0.079327  1
  Ga  Ga13  1  0.997588  0.658896  0.925936  1
  Ga  Ga14  1  0.997588  0.658896  0.574064  1
  Ga  Ga15  1  0.333964  0.996291  0.412985  1
  Ga  Ga16  1  0.995601  0.333792  0.420673  1
  Ga  Ga17  1  0.673336  0.003983  0.574491  1
  Ga  Ga18  1  0.673336  0.003983  0.925509  1
  Ga  Ga19  1  0.333964  0.996291  0.087015  1
  Ga  Ga20  1  0.120507  0.123467  0.250000  1
  Ga  Ga21  1  0.869407  0.874982  0.750000  1
  Rh  Rh22  1  0.999352  0.997832  0.002539  1
  Rh  Rh23  1  0.999352  0.997832  0.497461  1
  Rh  Rh24  1  0.670686  0.328171  0.002060  1
  Rh  Rh25  1  0.329804  0.672767  0.002871  1
  Rh  Rh26  1  0.329804  0.672767  0.497129  1
  Rh  Rh27  1  0.670686  0.328171  0.497940  1
