# generated using pymatgen
data_Er3Pa(SnPd2)2
_symmetry_space_group_name_H-M   'P 1'
_cell_length_a   7.81865696
_cell_length_b   7.81865556
_cell_length_c   3.58647100
_cell_angle_alpha   90.00000000
_cell_angle_beta   90.00000000
_cell_angle_gamma   91.07751541
_symmetry_Int_Tables_number   1
_chemical_formula_structural   Er3Pa(SnPd2)2
_chemical_formula_sum   'Er3 Pa1 Sn2 Pd4'
_cell_volume   219.20717258
_cell_formula_units_Z   1
loop_
 _symmetry_equiv_pos_site_id
 _symmetry_equiv_pos_as_xyz
  1  'x, y, z'
loop_
 _atom_site_type_symbol
 _atom_site_label
 _atom_site_symmetry_multiplicity
 _atom_site_fract_x
 _atom_site_fract_y
 _atom_site_fract_z
 _atom_site_occupancy
  Er  Er0  1  0.828374  0.670344  0.500000  1
  Er  Er1  1  0.170344  0.328374  0.500000  1
  Er  Er2  1  0.674297  0.174297  0.500000  1
  Pa  Pa3  1  0.329927  0.829927  0.500000  1
  Sn  Sn4  1  0.994844  0.002544  0.000000  1
  Sn  Sn5  1  0.502544  0.494844  0.000000  1
  Pd  Pd6  1  0.369400  0.121665  0.000000  1
  Pd  Pd7  1  0.875558  0.375558  0.000000  1
  Pd  Pd8  1  0.133047  0.633047  0.000000  1
  Pd  Pd9  1  0.621665  0.869400  0.000000  1
