# generated using pymatgen
data_Pr10Sn20Ir3Pd5
_symmetry_space_group_name_H-M   'P 1'
_cell_length_a   14.30963343
_cell_length_b   14.30638743
_cell_length_c   4.68741800
_cell_angle_alpha   90.00000000
_cell_angle_beta   90.00000000
_cell_angle_gamma   89.93320169
_symmetry_Int_Tables_number   1
_chemical_formula_structural   Pr10Sn20Ir3Pd5
_chemical_formula_sum   'Pr10 Sn20 Ir3 Pd5'
_cell_volume   959.60362271
_cell_formula_units_Z   1
loop_
 _symmetry_equiv_pos_site_id
 _symmetry_equiv_pos_as_xyz
  1  'x, y, z'
loop_
 _atom_site_type_symbol
 _atom_site_label
 _atom_site_symmetry_multiplicity
 _atom_site_fract_x
 _atom_site_fract_y
 _atom_site_fract_z
 _atom_site_occupancy
  Pr  Pr0  1  0.500725  0.496434  0.000000  1
  Pr  Pr1  1  0.001056  0.999583  0.000000  1
  Pr  Pr2  1  0.676363  0.181600  0.500000  1
  Pr  Pr3  1  0.320183  0.820916  0.500000  1
  Pr  Pr4  1  0.175771  0.318448  0.500000  1
  Pr  Pr5  1  0.823437  0.680780  0.500000  1
  Pr  Pr6  1  0.892585  0.389304  0.500000  1
  Pr  Pr7  1  0.106939  0.610538  0.500000  1
  Pr  Pr8  1  0.393628  0.110870  0.500000  1
  Pr  Pr9  1  0.608968  0.891526  0.500000  1
  Sn  Sn10  1  0.568354  0.071387  0.000000  1
  Sn  Sn11  1  0.431466  0.932735  0.000000  1
  Sn  Sn12  1  0.068582  0.429835  0.000000  1
  Sn  Sn13  1  0.932157  0.570392  0.000000  1
  Sn  Sn14  1  0.652913  0.700366  0.000000  1
  Sn  Sn15  1  0.347273  0.296647  0.000000  1
  Sn  Sn16  1  0.150969  0.796738  0.000000  1
  Sn  Sn17  1  0.848203  0.202269  0.000000  1
  Sn  Sn18  1  0.299091  0.652594  0.000000  1
  Sn  Sn19  1  0.699770  0.346756  0.000000  1
  Sn  Sn20  1  0.198399  0.152802  0.000000  1
  Sn  Sn21  1  0.801036  0.848009  0.000000  1
  Sn  Sn22  1  0.663433  0.500795  0.500000  1
  Sn  Sn23  1  0.337117  0.495812  0.500000  1
  Sn  Sn24  1  0.162996  0.997951  0.500000  1
  Sn  Sn25  1  0.837516  0.003955  0.500000  1
  Sn  Sn26  1  0.498781  0.662330  0.500000  1
  Sn  Sn27  1  0.503184  0.336796  0.500000  1
  Sn  Sn28  1  0.004452  0.162195  0.500000  1
  Sn  Sn29  1  0.995256  0.837431  0.500000  1
  Ir  Ir30  1  0.531799  0.256935  0.000000  1
  Ir  Ir31  1  0.031268  0.244652  0.000000  1
  Ir  Ir32  1  0.967366  0.755835  0.000000  1
  Pd  Pd33  1  0.745668  0.530436  0.000000  1
  Pd  Pd34  1  0.255229  0.468788  0.000000  1
  Pd  Pd35  1  0.244166  0.968398  0.000000  1
  Pd  Pd36  1  0.755199  0.031293  0.000000  1
  Pd  Pd37  1  0.468703  0.745869  0.000000  1
