# generated using pymatgen
data_ErLu5TcOs
_symmetry_space_group_name_H-M   'P 1'
_cell_length_a   7.34053100
_cell_length_b   8.86505000
_cell_length_c   6.17676300
_cell_angle_alpha   90.00000000
_cell_angle_beta   90.00000000
_cell_angle_gamma   90.00000000
_symmetry_Int_Tables_number   1
_chemical_formula_structural   ErLu5TcOs
_chemical_formula_sum   'Er2 Lu10 Tc2 Os2'
_cell_volume   401.94775233
_cell_formula_units_Z   2
loop_
 _symmetry_equiv_pos_site_id
 _symmetry_equiv_pos_as_xyz
  1  'x, y, z'
loop_
 _atom_site_type_symbol
 _atom_site_label
 _atom_site_symmetry_multiplicity
 _atom_site_fract_x
 _atom_site_fract_y
 _atom_site_fract_z
 _atom_site_occupancy
  Er  Er0  1  0.538719  0.250000  0.876921  1
  Er  Er1  1  0.038719  0.250000  0.623079  1
  Lu  Lu2  1  0.675035  0.060732  0.338444  1
  Lu  Lu3  1  0.175035  0.439268  0.161556  1
  Lu  Lu4  1  0.324681  0.562961  0.663795  1
  Lu  Lu5  1  0.824681  0.937039  0.836205  1
  Lu  Lu6  1  0.324681  0.937039  0.663795  1
  Lu  Lu7  1  0.824681  0.562961  0.836205  1
  Lu  Lu8  1  0.675035  0.439268  0.338444  1
  Lu  Lu9  1  0.175035  0.060732  0.161556  1
  Lu  Lu10  1  0.460185  0.750000  0.128378  1
  Lu  Lu11  1  0.960185  0.750000  0.371622  1
  Tc  Tc12  1  0.883208  0.250000  0.040487  1
  Tc  Tc13  1  0.383208  0.250000  0.459513  1
  Os  Os14  1  0.118455  0.750000  0.960580  1
  Os  Os15  1  0.618455  0.750000  0.539420  1
