# generated using pymatgen
data_TbNbB6Os
_symmetry_space_group_name_H-M   'P 1'
_cell_length_a   3.51772800
_cell_length_b   9.01915300
_cell_length_c   11.32434300
_cell_angle_alpha   90.00000000
_cell_angle_beta   90.00000000
_cell_angle_gamma   90.00000000
_symmetry_Int_Tables_number   1
_chemical_formula_structural   TbNbB6Os
_chemical_formula_sum   'Tb4 Nb4 B24 Os4'
_cell_volume   359.28660419
_cell_formula_units_Z   4
loop_
 _symmetry_equiv_pos_site_id
 _symmetry_equiv_pos_as_xyz
  1  'x, y, z'
loop_
 _atom_site_type_symbol
 _atom_site_label
 _atom_site_symmetry_multiplicity
 _atom_site_fract_x
 _atom_site_fract_y
 _atom_site_fract_z
 _atom_site_occupancy
  Tb  Tb0  1  0.000000  0.323212  0.413086  1
  Tb  Tb1  1  0.000000  0.676788  0.586914  1
  Tb  Tb2  1  0.000000  0.823212  0.086914  1
  Tb  Tb3  1  0.000000  0.176788  0.913086  1
  Nb  Nb4  1  0.000000  0.946571  0.377055  1
  Nb  Nb5  1  0.000000  0.053429  0.622945  1
  Nb  Nb6  1  0.000000  0.446571  0.122945  1
  Nb  Nb7  1  0.000000  0.553429  0.877055  1
  B  B8  1  0.500000  0.554712  0.433692  1
  B  B9  1  0.500000  0.445288  0.566308  1
  B  B10  1  0.500000  0.054712  0.066308  1
  B  B11  1  0.500000  0.945288  0.933692  1
  B  B12  1  0.500000  0.753768  0.418801  1
  B  B13  1  0.500000  0.246232  0.581199  1
  B  B14  1  0.500000  0.253768  0.081199  1
  B  B15  1  0.500000  0.746232  0.918801  1
  B  B16  1  0.500000  0.797364  0.263434  1
  B  B17  1  0.500000  0.202636  0.736565  1
  B  B18  1  0.500000  0.297364  0.236566  1
  B  B19  1  0.500000  0.702636  0.763435  1
  B  B20  1  0.500000  0.629189  0.181536  1
  B  B21  1  0.500000  0.370811  0.818464  1
  B  B22  1  0.500000  0.129189  0.318464  1
  B  B23  1  0.500000  0.870811  0.681536  1
  B  B24  1  0.500000  0.980949  0.213955  1
  B  B25  1  0.500000  0.019051  0.786045  1
  B  B26  1  0.500000  0.480949  0.286045  1
  B  B27  1  0.500000  0.519051  0.713955  1
  B  B28  1  0.500000  0.600495  0.026912  1
  B  B29  1  0.500000  0.399505  0.973088  1
  B  B30  1  0.500000  0.100495  0.473088  1
  B  B31  1  0.500000  0.899505  0.526912  1
  Os  Os32  1  0.000000  0.643243  0.317560  1
  Os  Os33  1  0.000000  0.356757  0.682440  1
  Os  Os34  1  0.000000  0.143243  0.182440  1
  Os  Os35  1  0.000000  0.856757  0.817560  1
