# generated using pymatgen
data_HoEr2As4Pd7
_symmetry_space_group_name_H-M   'P 1'
_cell_length_a   8.09239692
_cell_length_b   8.09239730
_cell_length_c   9.61335958
_cell_angle_alpha   55.63945959
_cell_angle_beta   55.63945620
_cell_angle_gamma   29.46737764
_symmetry_Int_Tables_number   1
_chemical_formula_structural   HoEr2As4Pd7
_chemical_formula_sum   'Ho1 Er2 As4 Pd7'
_cell_volume   251.48597805
_cell_formula_units_Z   1
loop_
 _symmetry_equiv_pos_site_id
 _symmetry_equiv_pos_as_xyz
  1  'x, y, z'
loop_
 _atom_site_type_symbol
 _atom_site_label
 _atom_site_symmetry_multiplicity
 _atom_site_fract_x
 _atom_site_fract_y
 _atom_site_fract_z
 _atom_site_occupancy
  Ho  Ho0  1  0.500000  0.500000  0.500000  1
  Er  Er1  1  0.823533  0.823533  0.169691  1
  Er  Er2  1  0.176467  0.176467  0.830309  1
  As  As3  1  0.393541  0.393541  0.323014  1
  As  As4  1  0.606459  0.606459  0.676986  1
  As  As5  1  0.840811  0.840811  0.750175  1
  As  As6  1  0.159189  0.159189  0.249825  1
  Pd  Pd7  1  0.668196  0.668196  0.070736  1
  Pd  Pd8  1  0.012778  0.012778  0.204618  1
  Pd  Pd9  1  0.987222  0.987222  0.795382  1
  Pd  Pd10  1  0.500000  0.500000  0.000000  1
  Pd  Pd11  1  0.194355  0.194355  0.474309  1
  Pd  Pd12  1  0.805645  0.805645  0.525691  1
  Pd  Pd13  1  0.331804  0.331804  0.929264  1
