# generated using pymatgen
data_Nd6CuGe2AuSe14
_symmetry_space_group_name_H-M   'P 1'
_cell_length_a   10.74739304
_cell_length_b   10.74639799
_cell_length_c   6.12714800
_cell_angle_alpha   90.00362551
_cell_angle_beta   89.99526062
_cell_angle_gamma   119.98633391
_symmetry_Int_Tables_number   1
_chemical_formula_structural   Nd6CuGe2AuSe14
_chemical_formula_sum   'Nd6 Cu1 Ge2 Au1 Se14'
_cell_volume   612.93559462
_cell_formula_units_Z   1
loop_
 _symmetry_equiv_pos_site_id
 _symmetry_equiv_pos_as_xyz
  1  'x, y, z'
loop_
 _atom_site_type_symbol
 _atom_site_label
 _atom_site_symmetry_multiplicity
 _atom_site_fract_x
 _atom_site_fract_y
 _atom_site_fract_z
 _atom_site_occupancy
  Nd  Nd0  1  0.127588  0.353818  0.253288  1
  Nd  Nd1  1  0.871873  0.644255  0.751329  1
  Nd  Nd2  1  0.646219  0.773783  0.253313  1
  Nd  Nd3  1  0.226230  0.872483  0.253255  1
  Nd  Nd4  1  0.772432  0.128114  0.751323  1
  Nd  Nd5  1  0.355781  0.227585  0.751350  1
  Cu  Cu6  1  0.999736  0.999903  0.779583  1
  Ge  Ge7  1  0.333386  0.666739  0.668657  1
  Ge  Ge8  1  0.666700  0.333294  0.164613  1
  Au  Au9  1  0.000092  0.000036  0.277350  1
  Se  Se10  1  0.333361  0.666759  0.053233  1
  Se  Se11  1  0.666727  0.333290  0.549812  1
  Se  Se12  1  0.092229  0.254770  0.768829  1
  Se  Se13  1  0.902041  0.728528  0.266477  1
  Se  Se14  1  0.744903  0.837214  0.768839  1
  Se  Se15  1  0.162438  0.907799  0.768835  1
  Se  Se16  1  0.826578  0.098028  0.266575  1
  Se  Se17  1  0.271558  0.173543  0.266513  1
  Se  Se18  1  0.418104  0.518926  0.507564  1
  Se  Se19  1  0.581968  0.481956  0.004049  1
  Se  Se20  1  0.481026  0.899237  0.507567  1
  Se  Se21  1  0.100890  0.581979  0.507582  1
  Se  Se22  1  0.900048  0.418034  0.004047  1
  Se  Se23  1  0.518100  0.099930  0.004021  1
