# generated using pymatgen
data_CaNd2(MnC3)2
_symmetry_space_group_name_H-M   'P 1'
_cell_length_a   8.18294805
_cell_length_b   8.20581406
_cell_length_c   5.14033500
_cell_angle_alpha   90.00000000
_cell_angle_beta   90.00000000
_cell_angle_gamma   120.08800215
_symmetry_Int_Tables_number   1
_chemical_formula_structural   CaNd2(MnC3)2
_chemical_formula_sum   'Ca2 Nd4 Mn4 C12'
_cell_volume   298.65357578
_cell_formula_units_Z   2
loop_
 _symmetry_equiv_pos_site_id
 _symmetry_equiv_pos_as_xyz
  1  'x, y, z'
loop_
 _atom_site_type_symbol
 _atom_site_label
 _atom_site_symmetry_multiplicity
 _atom_site_fract_x
 _atom_site_fract_y
 _atom_site_fract_z
 _atom_site_occupancy
  Ca  Ca0  1  0.610723  0.686792  0.750000  1
  Ca  Ca1  1  0.921388  0.611040  0.250000  1
  Nd  Nd2  1  0.686950  0.074489  0.250000  1
  Nd  Nd3  1  0.312752  0.925064  0.750000  1
  Nd  Nd4  1  0.075352  0.391251  0.750000  1
  Nd  Nd5  1  0.391697  0.317643  0.250000  1
  Mn  Mn6  1  0.997483  0.996425  0.501252  1
  Mn  Mn7  1  0.997483  0.996425  0.998748  1
  Mn  Mn8  1  0.666970  0.332042  0.750000  1
  Mn  Mn9  1  0.335864  0.666185  0.250000  1
  C  C10  1  0.950649  0.771857  0.750000  1
  C  C11  1  0.184617  0.953832  0.250000  1
  C  C12  1  0.776047  0.821833  0.250000  1
  C  C13  1  0.229028  0.185103  0.750000  1
  C  C14  1  0.818246  0.044340  0.750000  1
  C  C15  1  0.044573  0.229213  0.250000  1
  C  C16  1  0.853760  0.581067  0.750000  1
  C  C17  1  0.271798  0.849897  0.250000  1
  C  C18  1  0.583882  0.722809  0.250000  1
  C  C19  1  0.421889  0.278734  0.750000  1
  C  C20  1  0.144591  0.421377  0.250000  1
  C  C21  1  0.724257  0.142584  0.750000  1
