# generated using pymatgen
data_CsFe(CO3)2
_symmetry_space_group_name_H-M   'P 1'
_cell_length_a   13.87378179
_cell_length_b   13.87377983
_cell_length_c   13.87378164
_cell_angle_alpha   20.67273697
_cell_angle_beta   20.67259330
_cell_angle_gamma   20.67259462
_symmetry_Int_Tables_number   1
_chemical_formula_structural   CsFe(CO3)2
_chemical_formula_sum   'Cs2 Fe2 C4 O12'
_cell_volume   291.35221836
_cell_formula_units_Z   2
loop_
 _symmetry_equiv_pos_site_id
 _symmetry_equiv_pos_as_xyz
  1  'x, y, z'
loop_
 _atom_site_type_symbol
 _atom_site_label
 _atom_site_symmetry_multiplicity
 _atom_site_fract_x
 _atom_site_fract_y
 _atom_site_fract_z
 _atom_site_occupancy
  Cs  Cs0  1  0.250000  0.250001  0.249999  1
  Cs  Cs1  1  0.750000  0.749999  0.750001  1
  Fe  Fe2  1  0.500000  0.500000  0.500000  1
  Fe  Fe3  1  0.000000  0.000000  0.000000  1
  C  C4  1  0.360742  0.360740  0.360784  1
  C  C5  1  0.860742  0.860784  0.860740  1
  C  C6  1  0.639258  0.639260  0.639216  1
  C  C7  1  0.139258  0.139216  0.139260  1
  O  O8  1  0.290743  0.650479  0.144459  1
  O  O9  1  0.144481  0.290745  0.650456  1
  O  O10  1  0.650476  0.144464  0.290742  1
  O  O11  1  0.644481  0.150456  0.790745  1
  O  O12  1  0.790743  0.644459  0.150479  1
  O  O13  1  0.150476  0.790742  0.644464  1
  O  O14  1  0.709257  0.349521  0.855541  1
  O  O15  1  0.855519  0.709255  0.349544  1
  O  O16  1  0.349524  0.855536  0.709258  1
  O  O17  1  0.355519  0.849544  0.209255  1
  O  O18  1  0.209257  0.355541  0.849521  1
  O  O19  1  0.849524  0.209258  0.355536  1
