# generated using pymatgen
data_Th4Ga20Ir3Pt8
_symmetry_space_group_name_H-M   'P 1'
_cell_length_a   4.32618660
_cell_length_b   10.96110934
_cell_length_c   13.71759697
_cell_angle_alpha   81.52389160
_cell_angle_beta   80.69532691
_cell_angle_gamma   78.26688697
_symmetry_Int_Tables_number   1
_chemical_formula_structural   Th4Ga20Ir3Pt8
_chemical_formula_sum   'Th4 Ga20 Ir3 Pt8'
_cell_volume   624.08416876
_cell_formula_units_Z   1
loop_
 _symmetry_equiv_pos_site_id
 _symmetry_equiv_pos_as_xyz
  1  'x, y, z'
loop_
 _atom_site_type_symbol
 _atom_site_label
 _atom_site_symmetry_multiplicity
 _atom_site_fract_x
 _atom_site_fract_y
 _atom_site_fract_z
 _atom_site_occupancy
  Th  Th0  1  0.122750  0.091562  0.663766  1
  Th  Th1  1  0.878244  0.907755  0.335248  1
  Th  Th2  1  0.770865  0.628895  0.819801  1
  Th  Th3  1  0.226511  0.372800  0.180613  1
  Ga  Ga4  1  0.012960  0.072005  0.909488  1
  Ga  Ga5  1  0.993334  0.923772  0.082852  1
  Ga  Ga6  1  0.060890  0.675032  0.197390  1
  Ga  Ga7  1  0.939068  0.325116  0.803740  1
  Ga  Ga8  1  0.102240  0.342701  0.454910  1
  Ga  Ga9  1  0.896881  0.656123  0.546358  1
  Ga  Ga10  1  0.194323  0.612739  0.993755  1
  Ga  Ga11  1  0.804915  0.391669  0.005765  1
  Ga  Ga12  1  0.254541  0.783343  0.699724  1
  Ga  Ga13  1  0.742204  0.219247  0.303398  1
  Ga  Ga14  1  0.302249  0.892902  0.498776  1
  Ga  Ga15  1  0.698435  0.105833  0.501298  1
  Ga  Ga16  1  0.388231  0.521590  0.696197  1
  Ga  Ga17  1  0.610090  0.479360  0.304262  1
  Ga  Ga18  1  0.398137  0.199051  0.001088  1
  Ga  Ga19  1  0.602594  0.800880  0.997334  1
  Ga  Ga20  1  0.539393  0.291478  0.628342  1
  Ga  Ga21  1  0.459878  0.708082  0.372429  1
  Ga  Ga22  1  0.638180  0.932704  0.797893  1
  Ga  Ga23  1  0.362505  0.066901  0.202785  1
  Ir  Ir24  1  0.027643  0.573312  0.372988  1
  Ir  Ir25  1  0.971630  0.425200  0.627535  1
  Ir  Ir26  1  0.143816  0.835513  0.887178  1
  Pt  Pt27  1  0.499381  0.499776  0.500328  1
  Pt  Pt28  1  0.857517  0.163465  0.113030  1
  Pt  Pt29  1  0.243963  0.126493  0.391594  1
  Pt  Pt30  1  0.756310  0.873067  0.607984  1
  Pt  Pt31  1  0.345676  0.420739  0.895364  1
  Pt  Pt32  1  0.654870  0.579800  0.107207  1
  Pt  Pt33  1  0.509459  0.169714  0.816529  1
  Pt  Pt34  1  0.490316  0.831384  0.183052  1
