# generated using pymatgen
data_Ce2Hf4Sn5
_symmetry_space_group_name_H-M   'P 1'
_cell_length_a   11.22476729
_cell_length_b   11.22477489
_cell_length_c   11.22477400
_cell_angle_alpha   148.97648004
_cell_angle_beta   131.71176040
_cell_angle_gamma   58.51070265
_symmetry_Int_Tables_number   1
_chemical_formula_structural   Ce2Hf4Sn5
_chemical_formula_sum   'Ce4 Hf8 Sn10'
_cell_volume   539.89841366
_cell_formula_units_Z   2
loop_
 _symmetry_equiv_pos_site_id
 _symmetry_equiv_pos_as_xyz
  1  'x, y, z'
loop_
 _atom_site_type_symbol
 _atom_site_label
 _atom_site_symmetry_multiplicity
 _atom_site_fract_x
 _atom_site_fract_y
 _atom_site_fract_z
 _atom_site_occupancy
  Ce  Ce0  1  0.252299  0.142560  0.109739  1
  Ce  Ce1  1  0.747701  0.857440  0.890261  1
  Ce  Ce2  1  0.033187  0.642371  0.390817  1
  Ce  Ce3  1  0.966813  0.357629  0.609183  1
  Hf  Hf4  1  0.310996  0.560518  0.250349  1
  Hf  Hf5  1  0.689004  0.439482  0.749651  1
  Hf  Hf6  1  0.689004  0.939353  0.249523  1
  Hf  Hf7  1  0.310996  0.060647  0.750477  1
  Hf  Hf8  1  0.676248  0.435440  0.240809  1
  Hf  Hf9  1  0.323752  0.564560  0.759191  1
  Hf  Hf10  1  0.195059  0.935611  0.259447  1
  Hf  Hf11  1  0.804941  0.064389  0.740553  1
  Sn  Sn12  1  0.581204  0.288056  0.293148  1
  Sn  Sn13  1  0.418796  0.711944  0.706852  1
  Sn  Sn14  1  0.994529  0.788327  0.206202  1
  Sn  Sn15  1  0.005471  0.211673  0.793798  1
  Sn  Sn16  1  0.000000  0.249600  0.249600  1
  Sn  Sn17  1  0.000000  0.750400  0.750400  1
  Sn  Sn18  1  0.470856  0.066520  0.404335  1
  Sn  Sn19  1  0.529144  0.933480  0.595665  1
  Sn  Sn20  1  0.661413  0.566330  0.095081  1
  Sn  Sn21  1  0.338587  0.433670  0.904919  1
