# generated using pymatgen
data_Pr(HfIr)2
_symmetry_space_group_name_H-M   'P 1'
_cell_length_a   4.49589764
_cell_length_b   4.49589889
_cell_length_c   6.41170420
_cell_angle_alpha   110.61982277
_cell_angle_beta   110.61985541
_cell_angle_gamma   89.78217820
_symmetry_Int_Tables_number   1
_chemical_formula_structural   Pr(HfIr)2
_chemical_formula_sum   'Pr1 Hf2 Ir2'
_cell_volume   112.45308064
_cell_formula_units_Z   1
loop_
 _symmetry_equiv_pos_site_id
 _symmetry_equiv_pos_as_xyz
  1  'x, y, z'
loop_
 _atom_site_type_symbol
 _atom_site_label
 _atom_site_symmetry_multiplicity
 _atom_site_fract_x
 _atom_site_fract_y
 _atom_site_fract_z
 _atom_site_occupancy
  Pr  Pr0  1  0.000000  0.000000  0.000000  1
  Hf  Hf1  1  0.750065  0.249935  0.500000  1
  Hf  Hf2  1  0.249935  0.750065  0.500000  1
  Ir  Ir3  1  0.618591  0.618591  0.237317  1
  Ir  Ir4  1  0.381410  0.381410  0.762684  1
