# generated using pymatgen
data_Tb16Tm4Sn9Bi7
_symmetry_space_group_name_H-M   'P 1'
_cell_length_a   8.20363804
_cell_length_b   8.23426421
_cell_length_c   15.68458600
_cell_angle_alpha   90.06695196
_cell_angle_beta   89.60390239
_cell_angle_gamma   89.91771771
_symmetry_Int_Tables_number   1
_chemical_formula_structural   Tb16Tm4Sn9Bi7
_chemical_formula_sum   'Tb16 Tm4 Sn9 Bi7'
_cell_volume   1059.48111568
_cell_formula_units_Z   1
loop_
 _symmetry_equiv_pos_site_id
 _symmetry_equiv_pos_as_xyz
  1  'x, y, z'
loop_
 _atom_site_type_symbol
 _atom_site_label
 _atom_site_symmetry_multiplicity
 _atom_site_fract_x
 _atom_site_fract_y
 _atom_site_fract_z
 _atom_site_occupancy
  Tb  Tb0  1  0.394299  0.838306  0.877636  1
  Tb  Tb1  1  0.897720  0.663481  0.621402  1
  Tb  Tb2  1  0.602259  0.162237  0.378085  1
  Tb  Tb3  1  0.101753  0.338582  0.121303  1
  Tb  Tb4  1  0.607364  0.167042  0.121338  1
  Tb  Tb5  1  0.102490  0.336784  0.378168  1
  Tb  Tb6  1  0.396369  0.838636  0.622614  1
  Tb  Tb7  1  0.891901  0.660199  0.880160  1
  Tb  Tb8  1  0.565609  0.333599  0.890040  1
  Tb  Tb9  1  0.066083  0.169013  0.614050  1
  Tb  Tb10  1  0.434667  0.668277  0.386410  1
  Tb  Tb11  1  0.937204  0.823436  0.111484  1
  Tb  Tb12  1  0.445661  0.665700  0.110239  1
  Tb  Tb13  1  0.934318  0.830538  0.385854  1
  Tb  Tb14  1  0.566041  0.331834  0.613534  1
  Tb  Tb15  1  0.057169  0.173666  0.889564  1
  Tm  Tm16  1  0.228733  0.500275  0.750779  1
  Tm  Tm17  1  0.728786  0.001964  0.750769  1
  Tm  Tm18  1  0.771559  0.499598  0.245978  1
  Tm  Tm19  1  0.271167  0.998211  0.248754  1
  Sn  Sn20  1  0.768112  0.480989  0.045451  1
  Sn  Sn21  1  0.593322  0.630401  0.749700  1
  Sn  Sn22  1  0.091599  0.871069  0.751175  1
  Sn  Sn23  1  0.405779  0.369854  0.250373  1
  Sn  Sn24  1  0.907007  0.127917  0.250133  1
  Sn  Sn25  1  0.367697  0.144508  0.751635  1
  Sn  Sn26  1  0.867733  0.358734  0.750179  1
  Sn  Sn27  1  0.632136  0.857815  0.249404  1
  Sn  Sn28  1  0.134468  0.641348  0.249633  1
  Bi  Bi29  1  0.265172  0.015507  0.045325  1
  Bi  Bi30  1  0.763310  0.486930  0.453256  1
  Bi  Bi31  1  0.736742  0.987651  0.546020  1
  Bi  Bi32  1  0.233605  0.518187  0.954719  1
  Bi  Bi33  1  0.732068  0.982420  0.954825  1
  Bi  Bi34  1  0.237493  0.513157  0.546113  1
  Bi  Bi35  1  0.262601  0.012135  0.453896  1
