# generated using pymatgen
data_Nb12Al7PtN4
_symmetry_space_group_name_H-M   'P 1'
_cell_length_a   7.07962286
_cell_length_b   7.07962286
_cell_length_c   7.07962286
_cell_angle_alpha   89.80315398
_cell_angle_beta   89.80315398
_cell_angle_gamma   89.80315398
_symmetry_Int_Tables_number   1
_chemical_formula_structural   Nb12Al7PtN4
_chemical_formula_sum   'Nb12 Al7 Pt1 N4'
_cell_volume   354.83193219
_cell_formula_units_Z   1
loop_
 _symmetry_equiv_pos_site_id
 _symmetry_equiv_pos_as_xyz
  1  'x, y, z'
loop_
 _atom_site_type_symbol
 _atom_site_label
 _atom_site_symmetry_multiplicity
 _atom_site_fract_x
 _atom_site_fract_y
 _atom_site_fract_z
 _atom_site_occupancy
  Nb  Nb0  1  0.871191  0.703660  0.044154  1
  Nb  Nb1  1  0.206965  0.458856  0.123812  1
  Nb  Nb2  1  0.458856  0.123812  0.206965  1
  Nb  Nb3  1  0.541636  0.627756  0.294325  1
  Nb  Nb4  1  0.794047  0.954839  0.379807  1
  Nb  Nb5  1  0.123812  0.206965  0.458856  1
  Nb  Nb6  1  0.627756  0.294325  0.541636  1
  Nb  Nb7  1  0.294325  0.541636  0.627756  1
  Nb  Nb8  1  0.044154  0.871191  0.703660  1
  Nb  Nb9  1  0.954839  0.379807  0.794047  1
  Nb  Nb10  1  0.703660  0.044154  0.871191  1
  Nb  Nb11  1  0.379807  0.794047  0.954839  1
  Al  Al12  1  0.828388  0.313260  0.176213  1
  Al  Al13  1  0.176213  0.828388  0.313260  1
  Al  Al14  1  0.928214  0.571209  0.425922  1
  Al  Al15  1  0.425922  0.928214  0.571209  1
  Al  Al16  1  0.679268  0.679268  0.679268  1
  Al  Al17  1  0.313260  0.176213  0.828388  1
  Al  Al18  1  0.571209  0.425922  0.928214  1
  Pt  Pt19  1  0.068305  0.068305  0.068305  1
  N  N20  1  0.628418  0.878703  0.126239  1
  N  N21  1  0.374812  0.374812  0.374812  1
  N  N22  1  0.878703  0.126239  0.628418  1
  N  N23  1  0.126239  0.628418  0.878703  1
