# generated using pymatgen
data_Ba2MnSeS2
_symmetry_space_group_name_H-M   'P 1'
_cell_length_a   4.44721700
_cell_length_b   8.95392200
_cell_length_c   17.44007900
_cell_angle_alpha   90.00000000
_cell_angle_beta   90.00000000
_cell_angle_gamma   90.00000000
_symmetry_Int_Tables_number   1
_chemical_formula_structural   Ba2MnSeS2
_chemical_formula_sum   'Ba8 Mn4 Se4 S8'
_cell_volume   694.46454110
_cell_formula_units_Z   4
loop_
 _symmetry_equiv_pos_site_id
 _symmetry_equiv_pos_as_xyz
  1  'x, y, z'
loop_
 _atom_site_type_symbol
 _atom_site_label
 _atom_site_symmetry_multiplicity
 _atom_site_fract_x
 _atom_site_fract_y
 _atom_site_fract_z
 _atom_site_occupancy
  Ba  Ba0  1  0.250000  0.266771  0.542999  1
  Ba  Ba1  1  0.250000  0.766771  0.957001  1
  Ba  Ba2  1  0.750000  0.733229  0.457001  1
  Ba  Ba3  1  0.750000  0.233229  0.042999  1
  Ba  Ba4  1  0.250000  0.416021  0.285700  1
  Ba  Ba5  1  0.250000  0.916021  0.214300  1
  Ba  Ba6  1  0.750000  0.583979  0.714300  1
  Ba  Ba7  1  0.750000  0.083979  0.785700  1
  Mn  Mn8  1  0.250000  0.366935  0.864631  1
  Mn  Mn9  1  0.250000  0.866935  0.635369  1
  Mn  Mn10  1  0.750000  0.633065  0.135369  1
  Mn  Mn11  1  0.750000  0.133065  0.364631  1
  Se  Se12  1  0.250000  0.999950  0.400437  1
  Se  Se13  1  0.250000  0.499950  0.099563  1
  Se  Se14  1  0.750000  0.000050  0.599563  1
  Se  Se15  1  0.750000  0.500050  0.900437  1
  S  S16  1  0.250000  0.128607  0.925913  1
  S  S17  1  0.250000  0.628607  0.574087  1
  S  S18  1  0.750000  0.871393  0.074087  1
  S  S19  1  0.750000  0.371393  0.425913  1
  S  S20  1  0.250000  0.322193  0.729806  1
  S  S21  1  0.250000  0.822193  0.770194  1
  S  S22  1  0.750000  0.677807  0.270194  1
  S  S23  1  0.750000  0.177807  0.229806  1
