# generated using pymatgen
data_Hf8In4Pd3Au5
_symmetry_space_group_name_H-M   'P 1'
_cell_length_a   7.55002817
_cell_length_b   7.53861803
_cell_length_c   6.99983217
_cell_angle_alpha   89.95617801
_cell_angle_beta   89.92227693
_cell_angle_gamma   89.95914186
_symmetry_Int_Tables_number   1
_chemical_formula_structural   Hf8In4Pd3Au5
_chemical_formula_sum   'Hf8 In4 Pd3 Au5'
_cell_volume   398.40731265
_cell_formula_units_Z   1
loop_
 _symmetry_equiv_pos_site_id
 _symmetry_equiv_pos_as_xyz
  1  'x, y, z'
loop_
 _atom_site_type_symbol
 _atom_site_label
 _atom_site_symmetry_multiplicity
 _atom_site_fract_x
 _atom_site_fract_y
 _atom_site_fract_z
 _atom_site_occupancy
  Hf  Hf0  1  0.153484  0.141254  0.996604  1
  Hf  Hf1  1  0.862926  0.849755  0.000723  1
  Hf  Hf2  1  0.639443  0.352506  0.504031  1
  Hf  Hf3  1  0.344647  0.647750  0.504181  1
  Hf  Hf4  1  0.687713  0.307823  0.996436  1
  Hf  Hf5  1  0.301831  0.694436  0.997342  1
  Hf  Hf6  1  0.818469  0.807542  0.500163  1
  Hf  Hf7  1  0.195661  0.185897  0.503549  1
  In  In8  1  0.496365  0.997807  0.250839  1
  In  In9  1  0.495616  0.003149  0.750297  1
  In  In10  1  0.999967  0.503345  0.250899  1
  In  In11  1  0.005752  0.501538  0.750048  1
  Pd  Pd12  1  0.368104  0.370416  0.790607  1
  Pd  Pd13  1  0.131995  0.870126  0.290599  1
  Pd  Pd14  1  0.131113  0.869847  0.708357  1
  Au  Au15  1  0.367003  0.370624  0.206547  1
  Au  Au16  1  0.628716  0.632284  0.791072  1
  Au  Au17  1  0.629429  0.632356  0.210497  1
  Au  Au18  1  0.870742  0.130065  0.708167  1
  Au  Au19  1  0.871025  0.131479  0.289044  1
