# generated using pymatgen
data_Ca3Yb3HoErSb6
_symmetry_space_group_name_H-M   'P 1'
_cell_length_a   8.09889878
_cell_length_b   8.10604445
_cell_length_c   8.16180000
_cell_angle_alpha   70.51663024
_cell_angle_beta   70.55483826
_cell_angle_gamma   109.08459733
_symmetry_Int_Tables_number   1
_chemical_formula_structural   Ca3Yb3HoErSb6
_chemical_formula_sum   'Ca3 Yb3 Ho1 Er1 Sb6'
_cell_volume   414.49810179
_cell_formula_units_Z   1
loop_
 _symmetry_equiv_pos_site_id
 _symmetry_equiv_pos_as_xyz
  1  'x, y, z'
loop_
 _atom_site_type_symbol
 _atom_site_label
 _atom_site_symmetry_multiplicity
 _atom_site_fract_x
 _atom_site_fract_y
 _atom_site_fract_z
 _atom_site_occupancy
  Ca  Ca0  1  0.001217  0.359635  0.495760  1
  Ca  Ca1  1  0.496298  0.496210  0.147375  1
  Ca  Ca2  1  0.644222  0.147355  0.357588  1
  Yb  Yb3  1  0.359529  0.001361  0.995005  1
  Yb  Yb4  1  0.495493  0.495871  0.648195  1
  Yb  Yb5  1  0.148164  0.644442  0.857347  1
  Ho  Ho6  1  0.000556  0.854985  0.499402  1
  Er  Er7  1  0.854775  0.000591  0.999403  1
  Sb  Sb8  1  0.634039  0.873213  0.750317  1
  Sb  Sb9  1  0.874304  0.635614  0.249450  1
  Sb  Sb10  1  0.237970  0.116829  0.630543  1
  Sb  Sb11  1  0.757163  0.378131  0.870373  1
  Sb  Sb12  1  0.378224  0.757518  0.370907  1
  Sb  Sb13  1  0.118046  0.238243  0.128334  1
