# generated using pymatgen
data_Er2Si7Rh12
_symmetry_space_group_name_H-M   'P 1'
_cell_length_a   9.73163600
_cell_length_b   9.73163464
_cell_length_c   3.84837600
_cell_angle_alpha   90.00000000
_cell_angle_beta   90.00000000
_cell_angle_gamma   119.99999783
_symmetry_Int_Tables_number   1
_chemical_formula_structural   Er2Si7Rh12
_chemical_formula_sum   'Er2 Si7 Rh12'
_cell_volume   315.63110119
_cell_formula_units_Z   1
loop_
 _symmetry_equiv_pos_site_id
 _symmetry_equiv_pos_as_xyz
  1  'x, y, z'
loop_
 _atom_site_type_symbol
 _atom_site_label
 _atom_site_symmetry_multiplicity
 _atom_site_fract_x
 _atom_site_fract_y
 _atom_site_fract_z
 _atom_site_occupancy
  Er  Er0  1  0.333333  0.666667  0.749032  1
  Er  Er1  1  0.666667  0.333333  0.250968  1
  Si  Si2  1  0.000000  0.000000  0.500000  1
  Si  Si3  1  0.401474  0.289125  0.751437  1
  Si  Si4  1  0.710875  0.112349  0.751437  1
  Si  Si5  1  0.887651  0.598526  0.751437  1
  Si  Si6  1  0.598526  0.710875  0.248563  1
  Si  Si7  1  0.289125  0.887651  0.248563  1
  Si  Si8  1  0.112349  0.401474  0.248563  1
  Rh  Rh9  1  0.444053  0.062957  0.751723  1
  Rh  Rh10  1  0.937043  0.381096  0.751723  1
  Rh  Rh11  1  0.618904  0.555947  0.751723  1
  Rh  Rh12  1  0.555947  0.937043  0.248277  1
  Rh  Rh13  1  0.062957  0.618904  0.248277  1
  Rh  Rh14  1  0.381096  0.444053  0.248277  1
  Rh  Rh15  1  0.144038  0.262227  0.745161  1
  Rh  Rh16  1  0.737773  0.881812  0.745161  1
  Rh  Rh17  1  0.118188  0.855962  0.745161  1
  Rh  Rh18  1  0.855962  0.737773  0.254839  1
  Rh  Rh19  1  0.262227  0.118188  0.254839  1
  Rh  Rh20  1  0.881812  0.144038  0.254839  1
