# generated using pymatgen
data_Lu3Al3Sn2Os
_symmetry_space_group_name_H-M   'P 1'
_cell_length_a   7.15639200
_cell_length_b   7.15639176
_cell_length_c   4.32155100
_cell_angle_alpha   90.00000000
_cell_angle_beta   90.00000000
_cell_angle_gamma   120.00000109
_symmetry_Int_Tables_number   1
_chemical_formula_structural   Lu3Al3Sn2Os
_chemical_formula_sum   'Lu3 Al3 Sn2 Os1'
_cell_volume   191.67192227
_cell_formula_units_Z   1
loop_
 _symmetry_equiv_pos_site_id
 _symmetry_equiv_pos_as_xyz
  1  'x, y, z'
loop_
 _atom_site_type_symbol
 _atom_site_label
 _atom_site_symmetry_multiplicity
 _atom_site_fract_x
 _atom_site_fract_y
 _atom_site_fract_z
 _atom_site_occupancy
  Lu  Lu0  1  0.394293  0.000000  0.000000  1
  Lu  Lu1  1  0.000000  0.394294  0.000000  1
  Lu  Lu2  1  0.605707  0.605707  0.000000  1
  Al  Al3  1  0.781725  0.000000  0.500001  1
  Al  Al4  1  0.218275  0.218275  0.500001  1
  Al  Al5  1  0.000000  0.781724  0.500001  1
  Sn  Sn6  1  0.666667  0.333334  0.500001  1
  Sn  Sn7  1  0.333333  0.666667  0.500001  1
  Os  Os8  1  0.000000  0.000000  0.000000  1
