# generated using pymatgen
data_YLu2Sn3IrPt2
_symmetry_space_group_name_H-M   'P 1'
_cell_length_a   7.61454838
_cell_length_b   7.58802799
_cell_length_c   3.81512600
_cell_angle_alpha   90.00000000
_cell_angle_beta   90.00000000
_cell_angle_gamma   119.88485233
_symmetry_Int_Tables_number   1
_chemical_formula_structural   YLu2Sn3IrPt2
_chemical_formula_sum   'Y1 Lu2 Sn3 Ir1 Pt2'
_cell_volume   191.12404883
_cell_formula_units_Z   1
loop_
 _symmetry_equiv_pos_site_id
 _symmetry_equiv_pos_as_xyz
  1  'x, y, z'
loop_
 _atom_site_type_symbol
 _atom_site_label
 _atom_site_symmetry_multiplicity
 _atom_site_fract_x
 _atom_site_fract_y
 _atom_site_fract_z
 _atom_site_occupancy
  Y  Y0  1  0.000000  0.399390  0.500000  1
  Lu  Lu1  1  0.601655  0.601483  0.500000  1
  Lu  Lu2  1  0.398345  0.999828  0.500000  1
  Sn  Sn3  1  0.000000  0.738569  0.000000  1
  Sn  Sn4  1  0.262862  0.261368  0.000000  1
  Sn  Sn5  1  0.737138  0.998506  0.000000  1
  Ir  Ir6  1  0.000000  0.997770  0.500000  1
  Pt  Pt7  1  0.337752  0.670420  0.000000  1
  Pt  Pt8  1  0.662248  0.332667  0.000000  1
