# generated using pymatgen
data_Ho7Lu3CoBi5
_symmetry_space_group_name_H-M   'P 1'
_cell_length_a   7.98501800
_cell_length_b   9.33211337
_cell_length_c   11.99206400
_cell_angle_alpha   90.00000000
_cell_angle_beta   90.00000000
_cell_angle_gamma   90.01604287
_symmetry_Int_Tables_number   1
_chemical_formula_structural   Ho7Lu3CoBi5
_chemical_formula_sum   'Ho14 Lu6 Co2 Bi10'
_cell_volume   893.61371577
_cell_formula_units_Z   2
loop_
 _symmetry_equiv_pos_site_id
 _symmetry_equiv_pos_as_xyz
  1  'x, y, z'
loop_
 _atom_site_type_symbol
 _atom_site_label
 _atom_site_symmetry_multiplicity
 _atom_site_fract_x
 _atom_site_fract_y
 _atom_site_fract_z
 _atom_site_occupancy
  Ho  Ho0  1  0.070292  0.729840  0.436428  1
  Ho  Ho1  1  0.929708  0.270160  0.936428  1
  Ho  Ho2  1  0.070398  0.269901  0.436615  1
  Ho  Ho3  1  0.929602  0.730099  0.936615  1
  Ho  Ho4  1  0.429880  0.823351  0.563926  1
  Ho  Ho5  1  0.570120  0.176649  0.063926  1
  Ho  Ho6  1  0.572610  0.499646  0.772294  1
  Ho  Ho7  1  0.427390  0.500354  0.272294  1
  Ho  Ho8  1  0.259023  0.500271  0.993681  1
  Ho  Ho9  1  0.740977  0.499729  0.493681  1
  Ho  Ho10  1  0.089968  0.500322  0.718500  1
  Ho  Ho11  1  0.910032  0.499678  0.218500  1
  Ho  Ho12  1  0.372073  0.000166  0.308310  1
  Ho  Ho13  1  0.627927  0.999834  0.808310  1
  Lu  Lu14  1  0.428240  0.174302  0.563621  1
  Lu  Lu15  1  0.571760  0.825698  0.063621  1
  Lu  Lu16  1  0.907626  0.999652  0.200243  1
  Lu  Lu17  1  0.092374  0.000348  0.700243  1
  Lu  Lu18  1  0.197228  0.999693  0.996515  1
  Lu  Lu19  1  0.802772  0.000307  0.496515  1
  Co  Co20  1  0.172138  0.000928  0.488981  1
  Co  Co21  1  0.827862  0.999072  0.988981  1
  Bi  Bi22  1  0.814457  0.742854  0.671548  1
  Bi  Bi23  1  0.185543  0.257146  0.171548  1
  Bi  Bi24  1  0.680836  0.239920  0.325416  1
  Bi  Bi25  1  0.319164  0.760080  0.825416  1
  Bi  Bi26  1  0.680541  0.760364  0.324925  1
  Bi  Bi27  1  0.319459  0.239636  0.824925  1
  Bi  Bi28  1  0.813700  0.257000  0.671445  1
  Bi  Bi29  1  0.186300  0.743000  0.171445  1
  Bi  Bi30  1  0.347264  0.497981  0.527550  1
  Bi  Bi31  1  0.652736  0.502019  0.027550  1
