# generated using pymatgen
data_RbGe2IrPt
_symmetry_space_group_name_H-M   'P 1'
_cell_length_a   7.94596253
_cell_length_b   7.94596289
_cell_length_c   7.94596315
_cell_angle_alpha   150.30912537
_cell_angle_beta   150.30913263
_cell_angle_gamma   42.48782917
_symmetry_Int_Tables_number   1
_chemical_formula_structural   RbGe2IrPt
_chemical_formula_sum   'Rb1 Ge2 Ir1 Pt1'
_cell_volume   122.78272756
_cell_formula_units_Z   1
loop_
 _symmetry_equiv_pos_site_id
 _symmetry_equiv_pos_as_xyz
  1  'x, y, z'
loop_
 _atom_site_type_symbol
 _atom_site_label
 _atom_site_symmetry_multiplicity
 _atom_site_fract_x
 _atom_site_fract_y
 _atom_site_fract_z
 _atom_site_occupancy
  Rb  Rb0  1  0.000000  0.000000  0.000000  1
  Ge  Ge1  1  0.347892  0.347892  0.000000  1
  Ge  Ge2  1  0.652107  0.652107  0.000000  1
  Ir  Ir3  1  0.750000  0.250000  0.500000  1
  Pt  Pt4  1  0.250000  0.750000  0.500000  1
