# generated using pymatgen
data_Er2SnP6(IrRh)6
_symmetry_space_group_name_H-M   'P 1'
_cell_length_a   9.72158800
_cell_length_b   9.72158835
_cell_length_c   3.95242600
_cell_angle_alpha   90.00000000
_cell_angle_beta   90.00000000
_cell_angle_gamma   119.99999972
_symmetry_Int_Tables_number   1
_chemical_formula_structural   Er2SnP6(IrRh)6
_chemical_formula_sum   'Er2 Sn1 P6 Ir6 Rh6'
_cell_volume   323.49592893
_cell_formula_units_Z   1
loop_
 _symmetry_equiv_pos_site_id
 _symmetry_equiv_pos_as_xyz
  1  'x, y, z'
loop_
 _atom_site_type_symbol
 _atom_site_label
 _atom_site_symmetry_multiplicity
 _atom_site_fract_x
 _atom_site_fract_y
 _atom_site_fract_z
 _atom_site_occupancy
  Er  Er0  1  0.333333  0.666667  0.753292  1
  Er  Er1  1  0.666667  0.333333  0.246708  1
  Sn  Sn2  1  0.000000  0.000000  0.500000  1
  P  P3  1  0.407192  0.284044  0.746218  1
  P  P4  1  0.715956  0.123150  0.746218  1
  P  P5  1  0.876850  0.592808  0.746218  1
  P  P6  1  0.592808  0.715956  0.253782  1
  P  P7  1  0.284044  0.876850  0.253782  1
  P  P8  1  0.123150  0.407192  0.253782  1
  Ir  Ir9  1  0.457091  0.069869  0.747176  1
  Ir  Ir10  1  0.930131  0.387221  0.747176  1
  Ir  Ir11  1  0.612779  0.542909  0.747176  1
  Ir  Ir12  1  0.542909  0.930131  0.252824  1
  Ir  Ir13  1  0.069869  0.612779  0.252824  1
  Ir  Ir14  1  0.387221  0.457091  0.252824  1
  Rh  Rh15  1  0.165137  0.288854  0.760095  1
  Rh  Rh16  1  0.711146  0.876282  0.760095  1
  Rh  Rh17  1  0.123718  0.834863  0.760095  1
  Rh  Rh18  1  0.834863  0.711146  0.239905  1
  Rh  Rh19  1  0.288854  0.123718  0.239905  1
  Rh  Rh20  1  0.876282  0.165137  0.239905  1
