# generated using pymatgen
data_Ca4NiH12Rh
_symmetry_space_group_name_H-M   'P 1'
_cell_length_a   7.18717743
_cell_length_b   7.18717680
_cell_length_c   5.05236598
_cell_angle_alpha   90.02762105
_cell_angle_beta   90.02763600
_cell_angle_gamma   138.80350114
_symmetry_Int_Tables_number   1
_chemical_formula_structural   Ca4NiH12Rh
_chemical_formula_sum   'Ca4 Ni1 H12 Rh1'
_cell_volume   171.89430434
_cell_formula_units_Z   1
loop_
 _symmetry_equiv_pos_site_id
 _symmetry_equiv_pos_as_xyz
  1  'x, y, z'
loop_
 _atom_site_type_symbol
 _atom_site_label
 _atom_site_symmetry_multiplicity
 _atom_site_fract_x
 _atom_site_fract_y
 _atom_site_fract_z
 _atom_site_occupancy
  Ca  Ca0  1  0.149923  0.850077  0.500000  1
  Ca  Ca1  1  0.649042  0.350958  0.000000  1
  Ca  Ca2  1  0.850077  0.149923  0.500000  1
  Ca  Ca3  1  0.350958  0.649042  0.000000  1
  Ni  Ni4  1  0.000000  0.000000  0.000000  1
  H  H5  1  0.999880  0.500138  0.752015  1
  H  H6  1  0.499862  0.000120  0.247985  1
  H  H7  1  0.000120  0.499862  0.247985  1
  H  H8  1  0.500138  0.999880  0.752015  1
  H  H9  1  0.374907  0.625093  0.500000  1
  H  H10  1  0.883937  0.116063  0.000000  1
  H  H11  1  0.625093  0.374907  0.500000  1
  H  H12  1  0.116063  0.883937  0.000000  1
  H  H13  1  0.248616  0.248616  0.749629  1
  H  H14  1  0.751384  0.751384  0.250371  1
  H  H15  1  0.247855  0.247855  0.249925  1
  H  H16  1  0.752145  0.752145  0.750075  1
  Rh  Rh17  1  0.500000  0.500000  0.500000  1
