# generated using pymatgen
data_Tm20Cd6TcRu
_symmetry_space_group_name_H-M   'P 1'
_cell_length_a   9.42100700
_cell_length_b   9.42100691
_cell_length_c   9.78096600
_cell_angle_alpha   90.00000000
_cell_angle_beta   90.00000000
_cell_angle_gamma   120.00000382
_symmetry_Int_Tables_number   1
_chemical_formula_structural   Tm20Cd6TcRu
_chemical_formula_sum   'Tm20 Cd6 Tc1 Ru1'
_cell_volume   751.80812177
_cell_formula_units_Z   1
loop_
 _symmetry_equiv_pos_site_id
 _symmetry_equiv_pos_as_xyz
  1  'x, y, z'
loop_
 _atom_site_type_symbol
 _atom_site_label
 _atom_site_symmetry_multiplicity
 _atom_site_fract_x
 _atom_site_fract_y
 _atom_site_fract_z
 _atom_site_occupancy
  Tm  Tm0  1  0.000000  0.000000  0.500208  1
  Tm  Tm1  1  0.000000  0.000000  0.999792  1
  Tm  Tm2  1  0.209866  0.790134  0.441744  1
  Tm  Tm3  1  0.209866  0.419732  0.441744  1
  Tm  Tm4  1  0.580268  0.790134  0.441744  1
  Tm  Tm5  1  0.789978  0.210022  0.558683  1
  Tm  Tm6  1  0.789978  0.579954  0.558683  1
  Tm  Tm7  1  0.420046  0.210022  0.558683  1
  Tm  Tm8  1  0.789978  0.210022  0.941317  1
  Tm  Tm9  1  0.789978  0.579954  0.941317  1
  Tm  Tm10  1  0.420046  0.210022  0.941317  1
  Tm  Tm11  1  0.209866  0.790134  0.058256  1
  Tm  Tm12  1  0.209866  0.419732  0.058256  1
  Tm  Tm13  1  0.580268  0.790134  0.058256  1
  Tm  Tm14  1  0.539920  0.460080  0.250000  1
  Tm  Tm15  1  0.539920  0.079840  0.250000  1
  Tm  Tm16  1  0.920160  0.460080  0.250000  1
  Tm  Tm17  1  0.458871  0.541129  0.750000  1
  Tm  Tm18  1  0.458871  0.917742  0.750000  1
  Tm  Tm19  1  0.082258  0.541129  0.750000  1
  Cd  Cd20  1  0.885430  0.114570  0.250000  1
  Cd  Cd21  1  0.885430  0.770861  0.250000  1
  Cd  Cd22  1  0.229139  0.114570  0.250000  1
  Cd  Cd23  1  0.114372  0.885628  0.750000  1
  Cd  Cd24  1  0.114372  0.228743  0.750000  1
  Cd  Cd25  1  0.771257  0.885628  0.750000  1
  Tc  Tc26  1  0.333333  0.666667  0.250000  1
  Ru  Ru27  1  0.666667  0.333333  0.750000  1
