# generated using pymatgen
data_Th3AlNi(PdAu)2
_symmetry_space_group_name_H-M   'P 1'
_cell_length_a   7.75174887
_cell_length_b   7.43986247
_cell_length_c   3.81687300
_cell_angle_alpha   90.00000000
_cell_angle_beta   90.00000000
_cell_angle_gamma   119.28052536
_symmetry_Int_Tables_number   1
_chemical_formula_structural   Th3AlNi(PdAu)2
_chemical_formula_sum   'Th3 Al1 Ni1 Pd2 Au2'
_cell_volume   192.00215383
_cell_formula_units_Z   1
loop_
 _symmetry_equiv_pos_site_id
 _symmetry_equiv_pos_as_xyz
  1  'x, y, z'
loop_
 _atom_site_type_symbol
 _atom_site_label
 _atom_site_symmetry_multiplicity
 _atom_site_fract_x
 _atom_site_fract_y
 _atom_site_fract_z
 _atom_site_occupancy
  Th  Th0  1  0.407236  0.394829  0.500000  1
  Th  Th1  1  0.600457  0.005546  0.500000  1
  Th  Th2  1  0.988776  0.603384  0.500000  1
  Al  Al3  1  0.996176  0.256410  0.000000  1
  Ni  Ni4  1  0.693734  0.329532  0.000000  1
  Pd  Pd5  1  0.308993  0.639175  0.000000  1
  Pd  Pd6  1  0.999481  0.033819  0.500000  1
  Au  Au7  1  0.727764  0.727069  0.000000  1
  Au  Au8  1  0.277385  0.010237  0.000000  1
