# generated using pymatgen
data_Tb8GaHgI12
_symmetry_space_group_name_H-M   'P 1'
_cell_length_a   4.25570700
_cell_length_b   14.18560789
_cell_length_c   14.97047500
_cell_angle_alpha   89.81382565
_cell_angle_beta   90.00000000
_cell_angle_gamma   90.00000000
_symmetry_Int_Tables_number   1
_chemical_formula_structural   Tb8GaHgI12
_chemical_formula_sum   'Tb8 Ga1 Hg1 I12'
_cell_volume   903.75967264
_cell_formula_units_Z   1
loop_
 _symmetry_equiv_pos_site_id
 _symmetry_equiv_pos_as_xyz
  1  'x, y, z'
loop_
 _atom_site_type_symbol
 _atom_site_label
 _atom_site_symmetry_multiplicity
 _atom_site_fract_x
 _atom_site_fract_y
 _atom_site_fract_z
 _atom_site_occupancy
  Tb  Tb0  1  0.500000  0.118918  0.341163  1
  Tb  Tb1  1  0.500000  0.881082  0.658837  1
  Tb  Tb2  1  0.500000  0.613517  0.152160  1
  Tb  Tb3  1  0.500000  0.386483  0.847840  1
  Tb  Tb4  1  0.000000  0.118676  0.579994  1
  Tb  Tb5  1  0.000000  0.881324  0.420006  1
  Tb  Tb6  1  0.000000  0.611379  0.925040  1
  Tb  Tb7  1  0.000000  0.388621  0.074960  1
  Ga  Ga8  1  0.500000  0.500000  0.000000  1
  Hg  Hg9  1  0.500000  0.000000  0.500000  1
  I  I10  1  0.500000  0.247429  0.162282  1
  I  I11  1  0.500000  0.752571  0.837718  1
  I  I12  1  0.500000  0.743576  0.334511  1
  I  I13  1  0.500000  0.256424  0.665489  1
  I  I14  1  0.000000  0.260466  0.413310  1
  I  I15  1  0.000000  0.739534  0.586690  1
  I  I16  1  0.000000  0.756939  0.084939  1
  I  I17  1  0.000000  0.243061  0.915061  1
  I  I18  1  0.000000  0.000111  0.238147  1
  I  I19  1  0.000000  0.999889  0.761853  1
  I  I20  1  0.000000  0.498888  0.258061  1
  I  I21  1  0.000000  0.501112  0.741939  1
