# generated using pymatgen
data_HoPa(ReN3)2
_symmetry_space_group_name_H-M   'P 1'
_cell_length_a   5.33067700
_cell_length_b   5.76067400
_cell_length_c   7.74424200
_cell_angle_alpha   90.00000000
_cell_angle_beta   90.00000000
_cell_angle_gamma   90.00000000
_symmetry_Int_Tables_number   1
_chemical_formula_structural   HoPa(ReN3)2
_chemical_formula_sum   'Ho2 Pa2 Re4 N12'
_cell_volume   237.81244772
_cell_formula_units_Z   2
loop_
 _symmetry_equiv_pos_site_id
 _symmetry_equiv_pos_as_xyz
  1  'x, y, z'
loop_
 _atom_site_type_symbol
 _atom_site_label
 _atom_site_symmetry_multiplicity
 _atom_site_fract_x
 _atom_site_fract_y
 _atom_site_fract_z
 _atom_site_occupancy
  Ho  Ho0  1  0.518433  0.567881  0.750000  1
  Ho  Ho1  1  0.981567  0.067881  0.750000  1
  Pa  Pa2  1  0.477046  0.424617  0.250000  1
  Pa  Pa3  1  0.022954  0.924617  0.250000  1
  Re  Re4  1  0.508684  0.999961  0.509276  1
  Re  Re5  1  0.991316  0.499961  0.990724  1
  Re  Re6  1  0.991316  0.499961  0.509276  1
  Re  Re7  1  0.508684  0.999961  0.990724  1
  N  N8  1  0.697672  0.292855  0.548253  1
  N  N9  1  0.312640  0.697027  0.062424  1
  N  N10  1  0.187360  0.197027  0.062424  1
  N  N11  1  0.410102  0.983615  0.750000  1
  N  N12  1  0.882400  0.544202  0.250000  1
  N  N13  1  0.312640  0.697027  0.437576  1
  N  N14  1  0.802328  0.792855  0.951747  1
  N  N15  1  0.697672  0.292855  0.951747  1
  N  N16  1  0.802328  0.792855  0.548253  1
  N  N17  1  0.089898  0.483615  0.750000  1
  N  N18  1  0.187360  0.197027  0.437576  1
  N  N19  1  0.617600  0.044202  0.250000  1
