# generated using pymatgen
data_La5Pr(CoO6)2
_symmetry_space_group_name_H-M   'P 1'
_cell_length_a   7.56056808
_cell_length_b   7.57719139
_cell_length_c   5.70150356
_cell_angle_alpha   89.79531207
_cell_angle_beta   89.81280010
_cell_angle_gamma   102.88754498
_symmetry_Int_Tables_number   1
_chemical_formula_structural   La5Pr(CoO6)2
_chemical_formula_sum   'La5 Pr1 Co2 O12'
_cell_volume   318.39437217
_cell_formula_units_Z   1
loop_
 _symmetry_equiv_pos_site_id
 _symmetry_equiv_pos_as_xyz
  1  'x, y, z'
loop_
 _atom_site_type_symbol
 _atom_site_label
 _atom_site_symmetry_multiplicity
 _atom_site_fract_x
 _atom_site_fract_y
 _atom_site_fract_z
 _atom_site_occupancy
  La  La0  1  0.087433  0.308655  0.469796  1
  La  La1  1  0.307072  0.086691  0.969491  1
  La  La2  1  0.606471  0.395624  0.427716  1
  La  La3  1  0.394466  0.604764  0.928472  1
  La  La4  1  0.695384  0.912821  0.468193  1
  Pr  Pr5  1  0.913256  0.694630  0.968055  1
  Co  Co6  1  0.812739  0.187074  0.002606  1
  Co  Co7  1  0.188278  0.813199  0.504112  1
  O  O8  1  0.328750  0.352122  0.203406  1
  O  O9  1  0.352616  0.328550  0.703459  1
  O  O10  1  0.587371  0.108372  0.178063  1
  O  O11  1  0.108263  0.586508  0.675675  1
  O  O12  1  0.950290  0.045084  0.145359  1
  O  O13  1  0.783662  0.215026  0.684698  1
  O  O14  1  0.049340  0.952801  0.650763  1
  O  O15  1  0.209346  0.783098  0.184670  1
  O  O16  1  0.893139  0.413735  0.171782  1
  O  O17  1  0.411725  0.890775  0.677926  1
  O  O18  1  0.647990  0.672678  0.202191  1
  O  O19  1  0.672408  0.647792  0.701168  1
