# generated using pymatgen
data_Tb3Zr7(Si5Ir2)4
_symmetry_space_group_name_H-M   'P 1'
_cell_length_a   12.47538200
_cell_length_b   12.47538169
_cell_length_c   4.14172000
_cell_angle_alpha   90.00000000
_cell_angle_beta   90.00000000
_cell_angle_gamma   90.13705571
_symmetry_Int_Tables_number   1
_chemical_formula_structural   Tb3Zr7(Si5Ir2)4
_chemical_formula_sum   'Tb3 Zr7 Si20 Ir8'
_cell_volume   644.59537840
_cell_formula_units_Z   1
loop_
 _symmetry_equiv_pos_site_id
 _symmetry_equiv_pos_as_xyz
  1  'x, y, z'
loop_
 _atom_site_type_symbol
 _atom_site_label
 _atom_site_symmetry_multiplicity
 _atom_site_fract_x
 _atom_site_fract_y
 _atom_site_fract_z
 _atom_site_occupancy
  Tb  Tb0  1  0.115150  0.615150  0.500000  1
  Tb  Tb1  1  0.384440  0.116076  0.500000  1
  Tb  Tb2  1  0.616076  0.884440  0.500000  1
  Zr  Zr3  1  0.499544  0.500600  0.000000  1
  Zr  Zr4  1  0.000600  0.999544  0.000000  1
  Zr  Zr5  1  0.677605  0.177605  0.500000  1
  Zr  Zr6  1  0.324969  0.824969  0.500000  1
  Zr  Zr7  1  0.173705  0.324152  0.500000  1
  Zr  Zr8  1  0.824152  0.673705  0.500000  1
  Zr  Zr9  1  0.882419  0.382419  0.500000  1
  Si  Si10  1  0.568018  0.068018  0.000000  1
  Si  Si11  1  0.433387  0.933387  0.000000  1
  Si  Si12  1  0.064761  0.432403  0.000000  1
  Si  Si13  1  0.932403  0.564761  0.000000  1
  Si  Si14  1  0.664817  0.698921  0.000000  1
  Si  Si15  1  0.335346  0.300775  0.000000  1
  Si  Si16  1  0.164781  0.800233  0.000000  1
  Si  Si17  1  0.836642  0.201479  0.000000  1
  Si  Si18  1  0.300233  0.664781  0.000000  1
  Si  Si19  1  0.701479  0.336642  0.000000  1
  Si  Si20  1  0.198921  0.164817  0.000000  1
  Si  Si21  1  0.800775  0.835346  0.000000  1
  Si  Si22  1  0.653609  0.505444  0.500000  1
  Si  Si23  1  0.346740  0.491300  0.500000  1
  Si  Si24  1  0.153258  0.993080  0.500000  1
  Si  Si25  1  0.847550  0.006969  0.500000  1
  Si  Si26  1  0.493080  0.653258  0.500000  1
  Si  Si27  1  0.506969  0.347550  0.500000  1
  Si  Si28  1  0.005444  0.153609  0.500000  1
  Si  Si29  1  0.991300  0.846740  0.500000  1
  Ir  Ir30  1  0.744688  0.520120  0.000000  1
  Ir  Ir31  1  0.255496  0.478845  0.000000  1
  Ir  Ir32  1  0.243424  0.979454  0.000000  1
  Ir  Ir33  1  0.757647  0.022151  0.000000  1
  Ir  Ir34  1  0.479454  0.743424  0.000000  1
  Ir  Ir35  1  0.522151  0.257647  0.000000  1
  Ir  Ir36  1  0.020120  0.244688  0.000000  1
  Ir  Ir37  1  0.978845  0.755496  0.000000  1
