# generated using pymatgen
data_Gd9Lu(IrOs)2
_symmetry_space_group_name_H-M   'P 1'
_cell_length_a   8.47259861
_cell_length_b   8.47259819
_cell_length_c   7.30044900
_cell_angle_alpha   83.47581922
_cell_angle_beta   83.47581955
_cell_angle_gamma   44.90807963
_symmetry_Int_Tables_number   1
_chemical_formula_structural   Gd9Lu(IrOs)2
_chemical_formula_sum   'Gd9 Lu1 Ir2 Os2'
_cell_volume   367.16620588
_cell_formula_units_Z   1
loop_
 _symmetry_equiv_pos_site_id
 _symmetry_equiv_pos_as_xyz
  1  'x, y, z'
loop_
 _atom_site_type_symbol
 _atom_site_label
 _atom_site_symmetry_multiplicity
 _atom_site_fract_x
 _atom_site_fract_y
 _atom_site_fract_z
 _atom_site_occupancy
  Gd  Gd0  1  0.421178  0.578822  0.750000  1
  Gd  Gd1  1  0.349688  0.211613  0.315617  1
  Gd  Gd2  1  0.210343  0.969510  0.084626  1
  Gd  Gd3  1  0.789905  0.027731  0.920802  1
  Gd  Gd4  1  0.972269  0.210095  0.579198  1
  Gd  Gd5  1  0.651537  0.787909  0.681195  1
  Gd  Gd6  1  0.212091  0.348463  0.818805  1
  Gd  Gd7  1  0.788387  0.650312  0.184383  1
  Gd  Gd8  1  0.030490  0.789657  0.415374  1
  Lu  Lu9  1  0.571084  0.428916  0.250000  1
  Ir  Ir10  1  0.823569  0.393198  0.927487  1
  Ir  Ir11  1  0.606802  0.176431  0.572513  1
  Os  Os12  1  0.395112  0.822454  0.426118  1
  Os  Os13  1  0.177546  0.604888  0.073882  1
