# generated using pymatgen
data_Mg5Co19(SiP)6
_symmetry_space_group_name_H-M   'P 1'
_cell_length_a   11.92105000
_cell_length_b   11.92105174
_cell_length_c   3.61998400
_cell_angle_alpha   90.00000000
_cell_angle_beta   90.00000000
_cell_angle_gamma   120.00000626
_symmetry_Int_Tables_number   1
_chemical_formula_structural   Mg5Co19(SiP)6
_chemical_formula_sum   'Mg5 Co19 Si6 P6'
_cell_volume   445.51911064
_cell_formula_units_Z   1
loop_
 _symmetry_equiv_pos_site_id
 _symmetry_equiv_pos_as_xyz
  1  'x, y, z'
loop_
 _atom_site_type_symbol
 _atom_site_label
 _atom_site_symmetry_multiplicity
 _atom_site_fract_x
 _atom_site_fract_y
 _atom_site_fract_z
 _atom_site_occupancy
  Mg  Mg0  1  0.666667  0.333333  0.000000  1
  Mg  Mg1  1  0.333333  0.666667  0.000000  1
  Mg  Mg2  1  0.815973  0.815973  0.500000  1
  Mg  Mg3  1  0.184027  0.000000  0.500000  1
  Mg  Mg4  1  0.000000  0.184027  0.500000  1
  Co  Co5  1  0.876324  0.352395  0.500000  1
  Co  Co6  1  0.647605  0.523930  0.500000  1
  Co  Co7  1  0.476070  0.123676  0.500000  1
  Co  Co8  1  0.352395  0.876324  0.500000  1
  Co  Co9  1  0.523930  0.647605  0.500000  1
  Co  Co10  1  0.123676  0.476070  0.500000  1
  Co  Co11  1  0.448062  0.448062  0.000000  1
  Co  Co12  1  0.551938  0.000000  0.000000  1
  Co  Co13  1  0.000000  0.551938  0.000000  1
  Co  Co14  1  0.808449  0.179818  0.000000  1
  Co  Co15  1  0.820182  0.628631  0.000000  1
  Co  Co16  1  0.371369  0.191551  0.000000  1
  Co  Co17  1  0.179818  0.808449  0.000000  1
  Co  Co18  1  0.628631  0.820182  0.000000  1
  Co  Co19  1  0.191551  0.371369  0.000000  1
  Co  Co20  1  0.275196  0.275196  0.500000  1
  Co  Co21  1  0.724804  0.000000  0.500000  1
  Co  Co22  1  0.000000  0.724804  0.500000  1
  Co  Co23  1  0.000000  0.000000  0.000000  1
  Si  Si24  1  0.679054  0.159884  0.500000  1
  Si  Si25  1  0.840116  0.519169  0.500000  1
  Si  Si26  1  0.480831  0.320946  0.500000  1
  Si  Si27  1  0.159884  0.679054  0.500000  1
  Si  Si28  1  0.519169  0.840116  0.500000  1
  Si  Si29  1  0.320946  0.480831  0.500000  1
  P  P30  1  0.177564  0.177564  0.000000  1
  P  P31  1  0.822436  0.000000  0.000000  1
  P  P32  1  0.000000  0.822436  0.000000  1
  P  P33  1  0.633329  0.633329  0.000000  1
  P  P34  1  0.366671  0.000000  0.000000  1
  P  P35  1  0.000000  0.366671  0.000000  1
