# generated using pymatgen
data_K3RbLi2(CrH6)2
_symmetry_space_group_name_H-M   'P 1'
_cell_length_a   9.80201027
_cell_length_b   9.80199888
_cell_length_c   9.80200171
_cell_angle_alpha   34.00349796
_cell_angle_beta   34.00349005
_cell_angle_gamma   34.00349803
_symmetry_Int_Tables_number   1
_chemical_formula_structural   K3RbLi2(CrH6)2
_chemical_formula_sum   'K3 Rb1 Li2 Cr2 H12'
_cell_volume   262.54875220
_cell_formula_units_Z   1
loop_
 _symmetry_equiv_pos_site_id
 _symmetry_equiv_pos_as_xyz
  1  'x, y, z'
loop_
 _atom_site_type_symbol
 _atom_site_label
 _atom_site_symmetry_multiplicity
 _atom_site_fract_x
 _atom_site_fract_y
 _atom_site_fract_z
 _atom_site_occupancy
  K  K0  1  0.127569  0.127567  0.127570  1
  K  K1  1  0.872878  0.872890  0.872877  1
  K  K2  1  0.284788  0.284789  0.284788  1
  Rb  Rb3  1  0.716139  0.716145  0.716142  1
  Li  Li4  1  0.406497  0.406507  0.406501  1
  Li  Li5  1  0.593435  0.593440  0.593434  1
  Cr  Cr6  1  0.999526  0.999534  0.999533  1
  Cr  Cr7  1  0.500158  0.500122  0.500141  1
  H  H8  1  0.182929  0.182935  0.741296  1
  H  H9  1  0.741289  0.182938  0.182934  1
  H  H10  1  0.182931  0.741297  0.182933  1
  H  H11  1  0.816603  0.257697  0.816607  1
  H  H12  1  0.816603  0.816609  0.257694  1
  H  H13  1  0.257688  0.816611  0.816609  1
  H  H14  1  0.401178  0.401178  0.814857  1
  H  H15  1  0.814869  0.401173  0.401172  1
  H  H16  1  0.187085  0.598325  0.598326  1
  H  H17  1  0.598326  0.598326  0.187078  1
  H  H18  1  0.598331  0.187066  0.598331  1
  H  H19  1  0.401179  0.814851  0.401176  1
