# generated using pymatgen
data_Ca3NdSb6Rh7
_symmetry_space_group_name_H-M   'P 1'
_cell_length_a   7.66587783
_cell_length_b   7.66587914
_cell_length_c   7.66587792
_cell_angle_alpha   109.49536227
_cell_angle_beta   109.49536609
_cell_angle_gamma   109.49538075
_symmetry_Int_Tables_number   1
_chemical_formula_structural   Ca3NdSb6Rh7
_chemical_formula_sum   'Ca3 Nd1 Sb6 Rh7'
_cell_volume   346.47743880
_cell_formula_units_Z   1
loop_
 _symmetry_equiv_pos_site_id
 _symmetry_equiv_pos_as_xyz
  1  'x, y, z'
loop_
 _atom_site_type_symbol
 _atom_site_label
 _atom_site_symmetry_multiplicity
 _atom_site_fract_x
 _atom_site_fract_y
 _atom_site_fract_z
 _atom_site_occupancy
  Ca  Ca0  1  0.500000  0.000000  0.000000  1
  Ca  Ca1  1  0.000000  0.500000  0.000000  1
  Ca  Ca2  1  0.000000  0.000000  0.500000  1
  Nd  Nd3  1  0.500000  0.500000  0.500000  1
  Sb  Sb4  1  0.995176  0.317158  0.317158  1
  Sb  Sb5  1  0.682842  0.004824  0.682842  1
  Sb  Sb6  1  0.682842  0.682842  0.004824  1
  Sb  Sb7  1  0.004824  0.682842  0.682842  1
  Sb  Sb8  1  0.317158  0.995176  0.317158  1
  Sb  Sb9  1  0.317158  0.317158  0.995176  1
  Rh  Rh10  1  0.000000  0.000000  0.000000  1
  Rh  Rh11  1  0.500000  0.748484  0.251516  1
  Rh  Rh12  1  0.748484  0.500000  0.251516  1
  Rh  Rh13  1  0.251516  0.748484  0.500000  1
  Rh  Rh14  1  0.251516  0.500000  0.748484  1
  Rh  Rh15  1  0.500000  0.251516  0.748484  1
  Rh  Rh16  1  0.748484  0.251516  0.500000  1
