# generated using pymatgen
data_CePr14Nd(CdIr)4
_symmetry_space_group_name_H-M   'P 1'
_cell_length_a   9.99287204
_cell_length_b   9.99287197
_cell_length_c   10.10600844
_cell_angle_alpha   60.38964674
_cell_angle_beta   60.38964566
_cell_angle_gamma   60.12777887
_symmetry_Int_Tables_number   1
_chemical_formula_structural   CePr14Nd(CdIr)4
_chemical_formula_sum   'Ce1 Pr14 Nd1 Cd4 Ir4'
_cell_volume   718.45678367
_cell_formula_units_Z   1
loop_
 _symmetry_equiv_pos_site_id
 _symmetry_equiv_pos_as_xyz
  1  'x, y, z'
loop_
 _atom_site_type_symbol
 _atom_site_label
 _atom_site_symmetry_multiplicity
 _atom_site_fract_x
 _atom_site_fract_y
 _atom_site_fract_z
 _atom_site_occupancy
  Ce  Ce0  1  0.343712  0.343712  0.970501  1
  Pr  Pr1  1  0.348867  0.954516  0.349181  1
  Pr  Pr2  1  0.954516  0.348867  0.349181  1
  Pr  Pr3  1  0.809958  0.190034  0.189906  1
  Pr  Pr4  1  0.189407  0.809150  0.807850  1
  Pr  Pr5  1  0.190034  0.809958  0.189906  1
  Pr  Pr6  1  0.809150  0.189407  0.807850  1
  Pr  Pr7  1  0.191047  0.191047  0.808541  1
  Pr  Pr8  1  0.809036  0.809036  0.189979  1
  Pr  Pr9  1  0.940176  0.559865  0.563086  1
  Pr  Pr10  1  0.558337  0.942661  0.938314  1
  Pr  Pr11  1  0.559865  0.940176  0.563086  1
  Pr  Pr12  1  0.942661  0.558337  0.938314  1
  Pr  Pr13  1  0.559383  0.559383  0.940607  1
  Pr  Pr14  1  0.937942  0.937942  0.562444  1
  Nd  Nd15  1  0.347374  0.347374  0.347613  1
  Cd  Cd16  1  0.577869  0.577869  0.583166  1
  Cd  Cd17  1  0.579218  0.579218  0.259659  1
  Cd  Cd18  1  0.577640  0.260907  0.581732  1
  Cd  Cd19  1  0.260907  0.577640  0.581732  1
  Ir  Ir20  1  0.148938  0.148938  0.133179  1
  Ir  Ir21  1  0.143285  0.143285  0.574831  1
  Ir  Ir22  1  0.149537  0.571138  0.134671  1
  Ir  Ir23  1  0.571138  0.149537  0.134671  1
