# generated using pymatgen
data_Er5TmZn23Se
_symmetry_space_group_name_H-M   'P 1'
_cell_length_a   9.00918622
_cell_length_b   9.00978629
_cell_length_c   9.00972000
_cell_angle_alpha   59.99591824
_cell_angle_beta   60.00207166
_cell_angle_gamma   60.00220647
_symmetry_Int_Tables_number   1
_chemical_formula_structural   Er5TmZn23Se
_chemical_formula_sum   'Er5 Tm1 Zn23 Se1'
_cell_volume   517.12673523
_cell_formula_units_Z   1
loop_
 _symmetry_equiv_pos_site_id
 _symmetry_equiv_pos_as_xyz
  1  'x, y, z'
loop_
 _atom_site_type_symbol
 _atom_site_label
 _atom_site_symmetry_multiplicity
 _atom_site_fract_x
 _atom_site_fract_y
 _atom_site_fract_z
 _atom_site_occupancy
  Er  Er0  1  0.716887  0.283125  0.716777  1
  Er  Er1  1  0.716883  0.716777  0.283122  1
  Er  Er2  1  0.283507  0.716493  0.716498  1
  Er  Er3  1  0.283212  0.716784  0.283119  1
  Er  Er4  1  0.283217  0.283119  0.716774  1
  Tm  Tm5  1  0.716310  0.283693  0.283692  1
  Zn  Zn6  1  0.625975  0.124921  0.124953  1
  Zn  Zn7  1  0.124789  0.625641  0.124740  1
  Zn  Zn8  1  0.124818  0.124741  0.625639  1
  Zn  Zn9  1  0.124145  0.124955  0.124909  1
  Zn  Zn10  1  0.374359  0.875202  0.875182  1
  Zn  Zn11  1  0.875079  0.374023  0.875869  1
  Zn  Zn12  1  0.875040  0.875856  0.374027  1
  Zn  Zn13  1  0.875258  0.875180  0.875210  1
  Zn  Zn14  1  0.500080  0.999922  0.999917  1
  Zn  Zn15  1  0.500129  0.000128  0.499872  1
  Zn  Zn16  1  0.500125  0.499879  0.000128  1
  Zn  Zn17  1  0.000087  0.499920  0.499911  1
  Zn  Zn18  1  0.999864  0.499872  0.000133  1
  Zn  Zn19  1  0.999864  0.000125  0.499891  1
  Zn  Zn20  1  0.000057  0.999950  0.999949  1
  Zn  Zn21  1  0.012145  0.329181  0.329312  1
  Zn  Zn22  1  0.329163  0.012503  0.329049  1
  Zn  Zn23  1  0.329307  0.329046  0.012499  1
  Zn  Zn24  1  0.329369  0.329317  0.329176  1
  Zn  Zn25  1  0.987494  0.670840  0.670703  1
  Zn  Zn26  1  0.670827  0.987859  0.670620  1
  Zn  Zn27  1  0.670685  0.670617  0.987864  1
  Zn  Zn28  1  0.670959  0.670701  0.670842  1
  Se  Se29  1  0.500366  0.499632  0.499629  1
