# generated using pymatgen
data_Na6Li4ZrVAs6
_symmetry_space_group_name_H-M   'P 1'
_cell_length_a   9.77367250
_cell_length_b   9.77367219
_cell_length_c   13.82882600
_cell_angle_alpha   90.00000000
_cell_angle_beta   90.00000000
_cell_angle_gamma   143.23064496
_symmetry_Int_Tables_number   1
_chemical_formula_structural   Na6Li4ZrVAs6
_chemical_formula_sum   'Na12 Li8 Zr2 V2 As12'
_cell_volume   790.74074966
_cell_formula_units_Z   2
loop_
 _symmetry_equiv_pos_site_id
 _symmetry_equiv_pos_as_xyz
  1  'x, y, z'
loop_
 _atom_site_type_symbol
 _atom_site_label
 _atom_site_symmetry_multiplicity
 _atom_site_fract_x
 _atom_site_fract_y
 _atom_site_fract_z
 _atom_site_occupancy
  Na  Na0  1  0.600878  0.943409  0.821653  1
  Na  Na1  1  0.272142  0.273791  0.319823  1
  Na  Na2  1  0.227858  0.226209  0.819823  1
  Na  Na3  1  0.726209  0.727858  0.680177  1
  Na  Na4  1  0.443409  0.100878  0.678347  1
  Na  Na5  1  0.899122  0.556591  0.321653  1
  Na  Na6  1  0.056591  0.399122  0.178347  1
  Na  Na7  1  0.404721  0.065323  0.174077  1
  Na  Na8  1  0.565323  0.904721  0.325923  1
  Na  Na9  1  0.095279  0.434677  0.674077  1
  Na  Na10  1  0.934677  0.595279  0.825923  1
  Na  Na11  1  0.773791  0.772142  0.180177  1
  Li  Li12  1  0.083054  0.916946  0.000000  1
  Li  Li13  1  0.582634  0.417366  0.500000  1
  Li  Li14  1  0.917366  0.082634  0.000000  1
  Li  Li15  1  0.752922  0.247078  0.000000  1
  Li  Li16  1  0.747078  0.252922  0.500000  1
  Li  Li17  1  0.246270  0.753730  0.000000  1
  Li  Li18  1  0.253730  0.746270  0.500000  1
  Li  Li19  1  0.416946  0.583054  0.500000  1
  Zr  Zr20  1  0.085385  0.914615  0.500000  1
  Zr  Zr21  1  0.414615  0.585385  0.000000  1
  V  V22  1  0.911836  0.088164  0.500000  1
  V  V23  1  0.588164  0.411836  0.000000  1
  As  As24  1  0.063083  0.383116  0.398465  1
  As  As25  1  0.883116  0.563083  0.101535  1
  As  As26  1  0.436917  0.116884  0.898465  1
  As  As27  1  0.616884  0.936917  0.601535  1
  As  As28  1  0.926299  0.595407  0.610878  1
  As  As29  1  0.095407  0.426299  0.889122  1
  As  As30  1  0.573701  0.904593  0.110878  1
  As  As31  1  0.404593  0.073701  0.389122  1
  As  As32  1  0.226342  0.239082  0.601604  1
  As  As33  1  0.739082  0.726342  0.898396  1
  As  As34  1  0.273658  0.260918  0.101604  1
  As  As35  1  0.760918  0.773658  0.398396  1
