# generated using pymatgen
data_DyEr3U4(ReB6)4
_symmetry_space_group_name_H-M   'P 1'
_cell_length_a   3.62962400
_cell_length_b   9.28728119
_cell_length_c   11.40484823
_cell_angle_alpha   89.97708937
_cell_angle_beta   90.00000000
_cell_angle_gamma   90.00000000
_symmetry_Int_Tables_number   1
_chemical_formula_structural   DyEr3U4(ReB6)4
_chemical_formula_sum   'Dy1 Er3 U4 Re4 B24'
_cell_volume   384.44986084
_cell_formula_units_Z   1
loop_
 _symmetry_equiv_pos_site_id
 _symmetry_equiv_pos_as_xyz
  1  'x, y, z'
loop_
 _atom_site_type_symbol
 _atom_site_label
 _atom_site_symmetry_multiplicity
 _atom_site_fract_x
 _atom_site_fract_y
 _atom_site_fract_z
 _atom_site_occupancy
  Dy  Dy0  1  0.000000  0.163349  0.907651  1
  Er  Er1  1  0.000000  0.336676  0.407661  1
  Er  Er2  1  0.000000  0.663339  0.592232  1
  Er  Er3  1  0.000000  0.836605  0.092463  1
  U  U4  1  0.000000  0.956321  0.396244  1
  U  U5  1  0.000000  0.043581  0.603719  1
  U  U6  1  0.000000  0.456628  0.103751  1
  U  U7  1  0.000000  0.543883  0.896176  1
  Re  Re8  1  0.000000  0.645266  0.318710  1
  Re  Re9  1  0.000000  0.355035  0.681074  1
  Re  Re10  1  0.000000  0.145196  0.181619  1
  Re  Re11  1  0.000000  0.854197  0.818577  1
  B  B12  1  0.500000  0.551245  0.431239  1
  B  B13  1  0.500000  0.448857  0.568629  1
  B  B14  1  0.500000  0.051147  0.069088  1
  B  B15  1  0.500000  0.948100  0.931199  1
  B  B16  1  0.500000  0.742509  0.423273  1
  B  B17  1  0.500000  0.257536  0.576569  1
  B  B18  1  0.500000  0.242793  0.077074  1
  B  B19  1  0.500000  0.757178  0.923291  1
  B  B20  1  0.500000  0.801918  0.275130  1
  B  B21  1  0.500000  0.198247  0.724626  1
  B  B22  1  0.500000  0.302000  0.225085  1
  B  B23  1  0.500000  0.697882  0.775018  1
  B  B24  1  0.500000  0.644231  0.188649  1
  B  B25  1  0.500000  0.356231  0.811271  1
  B  B26  1  0.500000  0.144159  0.311494  1
  B  B27  1  0.500000  0.855594  0.688455  1
  B  B28  1  0.500000  0.988416  0.219419  1
  B  B29  1  0.500000  0.010950  0.780423  1
  B  B30  1  0.500000  0.488501  0.280789  1
  B  B31  1  0.500000  0.511642  0.719209  1
  B  B32  1  0.500000  0.640780  0.039082  1
  B  B33  1  0.500000  0.360089  0.961174  1
  B  B34  1  0.500000  0.140812  0.460943  1
  B  B35  1  0.500000  0.859107  0.538994  1
