# generated using pymatgen
data_YHo15In4Ru3Pt
_symmetry_space_group_name_H-M   'P 1'
_cell_length_a   9.62696172
_cell_length_b   9.62696210
_cell_length_c   9.60243300
_cell_angle_alpha   59.85837767
_cell_angle_beta   59.85837636
_cell_angle_gamma   59.94529042
_symmetry_Int_Tables_number   1
_chemical_formula_structural   YHo15In4Ru3Pt
_chemical_formula_sum   'Y1 Ho15 In4 Ru3 Pt1'
_cell_volume   627.67190576
_cell_formula_units_Z   1
loop_
 _symmetry_equiv_pos_site_id
 _symmetry_equiv_pos_as_xyz
  1  'x, y, z'
loop_
 _atom_site_type_symbol
 _atom_site_label
 _atom_site_symmetry_multiplicity
 _atom_site_fract_x
 _atom_site_fract_y
 _atom_site_fract_z
 _atom_site_occupancy
  Y  Y0  1  0.189272  0.189271  0.807866  1
  Ho  Ho1  1  0.598316  0.598308  0.208961  1
  Ho  Ho2  1  0.441679  0.057655  0.440983  1
  Ho  Ho3  1  0.442850  0.442849  0.061112  1
  Ho  Ho4  1  0.814125  0.189328  0.806223  1
  Ho  Ho5  1  0.192848  0.807528  0.191166  1
  Ho  Ho6  1  0.442038  0.051648  0.061919  1
  Ho  Ho7  1  0.189327  0.814125  0.806224  1
  Ho  Ho8  1  0.051643  0.442040  0.061925  1
  Ho  Ho9  1  0.810890  0.810895  0.187740  1
  Ho  Ho10  1  0.203728  0.599886  0.596577  1
  Ho  Ho11  1  0.057651  0.441677  0.440982  1
  Ho  Ho12  1  0.057521  0.057532  0.440081  1
  Ho  Ho13  1  0.807530  0.192847  0.191165  1
  Ho  Ho14  1  0.599892  0.203731  0.596573  1
  Ho  Ho15  1  0.601964  0.601954  0.595203  1
  In  In16  1  0.831637  0.831637  0.833922  1
  In  In17  1  0.833548  0.833548  0.499645  1
  In  In18  1  0.502091  0.832550  0.832321  1
  In  In19  1  0.832550  0.502089  0.832320  1
  Ru  Ru20  1  0.389675  0.829927  0.393669  1
  Ru  Ru21  1  0.388001  0.388003  0.391607  1
  Ru  Ru22  1  0.829925  0.389672  0.393665  1
  Pt  Pt23  1  0.391299  0.391301  0.828147  1
