# generated using pymatgen
data_DyY5Al24(Ir3Os)2
_symmetry_space_group_name_H-M   'P 1'
_cell_length_a   8.80590900
_cell_length_b   8.82341576
_cell_length_c   9.55159700
_cell_angle_alpha   90.00000000
_cell_angle_beta   90.00000000
_cell_angle_gamma   119.93439108
_symmetry_Int_Tables_number   1
_chemical_formula_structural   DyY5Al24(Ir3Os)2
_chemical_formula_sum   'Dy1 Y5 Al24 Ir6 Os2'
_cell_volume   643.13819158
_cell_formula_units_Z   1
loop_
 _symmetry_equiv_pos_site_id
 _symmetry_equiv_pos_as_xyz
  1  'x, y, z'
loop_
 _atom_site_type_symbol
 _atom_site_label
 _atom_site_symmetry_multiplicity
 _atom_site_fract_x
 _atom_site_fract_y
 _atom_site_fract_z
 _atom_site_occupancy
  Dy  Dy0  1  0.191656  0.383312  0.250000  1
  Y  Y1  1  0.808405  0.616810  0.750000  1
  Y  Y2  1  0.616560  0.808493  0.250000  1
  Y  Y3  1  0.383543  0.191449  0.750000  1
  Y  Y4  1  0.191933  0.808493  0.250000  1
  Y  Y5  1  0.807907  0.191449  0.750000  1
  Al  Al6  1  0.333362  0.666725  0.031651  1
  Al  Al7  1  0.666626  0.333250  0.968667  1
  Al  Al8  1  0.666626  0.333250  0.531333  1
  Al  Al9  1  0.333362  0.666725  0.468349  1
  Al  Al10  1  0.164117  0.328234  0.574552  1
  Al  Al11  1  0.835879  0.671757  0.425217  1
  Al  Al12  1  0.671792  0.835869  0.574911  1
  Al  Al13  1  0.835879  0.671757  0.074783  1
  Al  Al14  1  0.328049  0.164124  0.424896  1
  Al  Al15  1  0.164117  0.328234  0.925448  1
  Al  Al16  1  0.164077  0.835869  0.574911  1
  Al  Al17  1  0.328049  0.164124  0.075104  1
  Al  Al18  1  0.836076  0.164124  0.424896  1
  Al  Al19  1  0.671792  0.835869  0.925089  1
  Al  Al20  1  0.836076  0.164124  0.075104  1
  Al  Al21  1  0.164077  0.835869  0.925089  1
  Al  Al22  1  0.562424  0.124847  0.250000  1
  Al  Al23  1  0.437515  0.875031  0.750000  1
  Al  Al24  1  0.874745  0.437449  0.250000  1
  Al  Al25  1  0.125305  0.562461  0.750000  1
  Al  Al26  1  0.562704  0.437449  0.250000  1
  Al  Al27  1  0.437156  0.562461  0.750000  1
  Al  Al28  1  0.000499  0.000998  0.250000  1
  Al  Al29  1  0.999911  0.999823  0.750000  1
  Ir  Ir30  1  0.500007  0.000013  0.000037  1
  Ir  Ir31  1  0.000071  0.499935  0.000124  1
  Ir  Ir32  1  0.500007  0.000013  0.499963  1
  Ir  Ir33  1  0.499864  0.499935  0.000124  1
  Ir  Ir34  1  0.000071  0.499935  0.499876  1
  Ir  Ir35  1  0.499864  0.499935  0.499876  1
  Os  Os36  1  0.999951  0.999901  0.999987  1
  Os  Os37  1  0.999951  0.999901  0.500013  1
