# generated using pymatgen
data_Zr6Al16Cu2Ni4Os
_symmetry_space_group_name_H-M   'P 1'
_cell_length_a   8.60813257
_cell_length_b   8.60811880
_cell_length_c   8.59232500
_cell_angle_alpha   60.06200957
_cell_angle_beta   60.05883850
_cell_angle_gamma   59.87764805
_symmetry_Int_Tables_number   1
_chemical_formula_structural   Zr6Al16Cu2Ni4Os
_chemical_formula_sum   'Zr6 Al16 Cu2 Ni4 Os1'
_cell_volume   450.19950900
_cell_formula_units_Z   1
loop_
 _symmetry_equiv_pos_site_id
 _symmetry_equiv_pos_as_xyz
  1  'x, y, z'
loop_
 _atom_site_type_symbol
 _atom_site_label
 _atom_site_symmetry_multiplicity
 _atom_site_fract_x
 _atom_site_fract_y
 _atom_site_fract_z
 _atom_site_occupancy
  Zr  Zr0  1  0.690313  0.690335  0.309680  1
  Zr  Zr1  1  0.306407  0.693601  0.306399  1
  Zr  Zr2  1  0.693580  0.306397  0.306420  1
  Zr  Zr3  1  0.309687  0.309665  0.690320  1
  Zr  Zr4  1  0.693593  0.306399  0.693601  1
  Zr  Zr5  1  0.306420  0.693603  0.693580  1
  Al  Al6  1  0.877668  0.877696  0.359116  1
  Al  Al7  1  0.885518  0.359109  0.877694  1
  Al  Al8  1  0.359111  0.885523  0.877674  1
  Al  Al9  1  0.877690  0.877683  0.885522  1
  Al  Al10  1  0.122332  0.122304  0.640884  1
  Al  Al11  1  0.114482  0.640891  0.122306  1
  Al  Al12  1  0.640889  0.114477  0.122326  1
  Al  Al13  1  0.122310  0.122317  0.114478  1
  Al  Al14  1  0.667947  0.667984  0.000745  1
  Al  Al15  1  0.663299  0.000747  0.667957  1
  Al  Al16  1  0.000743  0.663330  0.667952  1
  Al  Al17  1  0.667949  0.668002  0.663303  1
  Al  Al18  1  0.332053  0.332016  0.999255  1
  Al  Al19  1  0.336701  0.999253  0.332043  1
  Al  Al20  1  0.999257  0.336670  0.332048  1
  Al  Al21  1  0.332051  0.331998  0.336697  1
  Cu  Cu22  1  0.000000  0.000000  0.500000  1
  Cu  Cu23  1  0.500000  0.500000  0.000000  1
  Ni  Ni24  1  0.500000  0.000000  0.500000  1
  Ni  Ni25  1  0.000000  0.500000  0.500000  1
  Ni  Ni26  1  0.000000  0.500000  0.000000  1
  Ni  Ni27  1  0.500000  0.000000  0.000000  1
  Os  Os28  1  0.000000  0.000000  0.000000  1
