# generated using pymatgen
data_Pr8SiGeI12
_symmetry_space_group_name_H-M   'P 1'
_cell_length_a   4.38741200
_cell_length_b   14.56987606
_cell_length_c   15.36735407
_cell_angle_alpha   89.98918705
_cell_angle_beta   90.00000000
_cell_angle_gamma   90.00000000
_symmetry_Int_Tables_number   1
_chemical_formula_structural   Pr8SiGeI12
_chemical_formula_sum   'Pr8 Si1 Ge1 I12'
_cell_volume   982.34347829
_cell_formula_units_Z   1
loop_
 _symmetry_equiv_pos_site_id
 _symmetry_equiv_pos_as_xyz
  1  'x, y, z'
loop_
 _atom_site_type_symbol
 _atom_site_label
 _atom_site_symmetry_multiplicity
 _atom_site_fract_x
 _atom_site_fract_y
 _atom_site_fract_z
 _atom_site_occupancy
  Pr  Pr0  1  0.500000  0.115614  0.345157  1
  Pr  Pr1  1  0.500000  0.884386  0.654843  1
  Pr  Pr2  1  0.500000  0.614929  0.153943  1
  Pr  Pr3  1  0.500000  0.385071  0.846057  1
  Pr  Pr4  1  0.000000  0.114322  0.576388  1
  Pr  Pr5  1  0.000000  0.885678  0.423612  1
  Pr  Pr6  1  0.000000  0.613453  0.924195  1
  Pr  Pr7  1  0.000000  0.386547  0.075805  1
  Si  Si8  1  0.500000  0.500000  0.000000  1
  Ge  Ge9  1  0.500000  0.000000  0.500000  1
  I  I10  1  0.500000  0.243954  0.161646  1
  I  I11  1  0.500000  0.756046  0.838354  1
  I  I12  1  0.500000  0.744009  0.338432  1
  I  I13  1  0.500000  0.255991  0.661568  1
  I  I14  1  0.000000  0.258298  0.413810  1
  I  I15  1  0.000000  0.741702  0.586190  1
  I  I16  1  0.000000  0.758345  0.086263  1
  I  I17  1  0.000000  0.241655  0.913737  1
  I  I18  1  0.000000  0.998770  0.240718  1
  I  I19  1  0.000000  0.001230  0.759282  1
  I  I20  1  0.000000  0.498824  0.259344  1
  I  I21  1  0.000000  0.501176  0.740656  1
