# generated using pymatgen
data_CaTbTi3O8
_symmetry_space_group_name_H-M   'P 1'
_cell_length_a   6.37163288
_cell_length_b   6.37163312
_cell_length_c   5.10100348
_cell_angle_alpha   72.03158053
_cell_angle_beta   72.03158628
_cell_angle_gamma   57.38147957
_symmetry_Int_Tables_number   1
_chemical_formula_structural   CaTbTi3O8
_chemical_formula_sum   'Ca1 Tb1 Ti3 O8'
_cell_volume   163.28496553
_cell_formula_units_Z   1
loop_
 _symmetry_equiv_pos_site_id
 _symmetry_equiv_pos_as_xyz
  1  'x, y, z'
loop_
 _atom_site_type_symbol
 _atom_site_label
 _atom_site_symmetry_multiplicity
 _atom_site_fract_x
 _atom_site_fract_y
 _atom_site_fract_z
 _atom_site_occupancy
  Ca  Ca0  1  0.274815  0.274815  0.667366  1
  Tb  Tb1  1  0.727064  0.727064  0.336725  1
  Ti  Ti2  1  0.000971  0.000971  0.495311  1
  Ti  Ti3  1  0.734384  0.265590  0.000696  1
  Ti  Ti4  1  0.265590  0.734384  0.000696  1
  O  O5  1  0.396126  0.396126  0.950252  1
  O  O6  1  0.608457  0.608457  0.055943  1
  O  O7  1  0.898070  0.898070  0.911915  1
  O  O8  1  0.099795  0.099795  0.093244  1
  O  O9  1  0.333076  0.884160  0.597003  1
  O  O10  1  0.884160  0.333076  0.597003  1
  O  O11  1  0.104405  0.673086  0.396922  1
  O  O12  1  0.673086  0.104405  0.396922  1
