# generated using pymatgen
data_Dy16InHg3Pt4
_symmetry_space_group_name_H-M   'P 1'
_cell_length_a   9.63900459
_cell_length_b   9.63900464
_cell_length_c   9.63900389
_cell_angle_alpha   60.44244293
_cell_angle_beta   60.44244015
_cell_angle_gamma   60.44244452
_symmetry_Int_Tables_number   1
_chemical_formula_structural   Dy16InHg3Pt4
_chemical_formula_sum   'Dy16 In1 Hg3 Pt4'
_cell_volume   639.59367049
_cell_formula_units_Z   1
loop_
 _symmetry_equiv_pos_site_id
 _symmetry_equiv_pos_as_xyz
  1  'x, y, z'
loop_
 _atom_site_type_symbol
 _atom_site_label
 _atom_site_symmetry_multiplicity
 _atom_site_fract_x
 _atom_site_fract_y
 _atom_site_fract_z
 _atom_site_occupancy
  Dy  Dy0  1  0.351440  0.351440  0.351440  1
  Dy  Dy1  1  0.355222  0.355222  0.938185  1
  Dy  Dy2  1  0.355222  0.938185  0.355222  1
  Dy  Dy3  1  0.938185  0.355222  0.355222  1
  Dy  Dy4  1  0.811084  0.190270  0.190270  1
  Dy  Dy5  1  0.191288  0.809689  0.809689  1
  Dy  Dy6  1  0.190270  0.811084  0.190270  1
  Dy  Dy7  1  0.809689  0.191288  0.809689  1
  Dy  Dy8  1  0.190270  0.190270  0.811084  1
  Dy  Dy9  1  0.809689  0.809689  0.191288  1
  Dy  Dy10  1  0.937747  0.565792  0.565792  1
  Dy  Dy11  1  0.563323  0.937655  0.937655  1
  Dy  Dy12  1  0.565792  0.937747  0.565792  1
  Dy  Dy13  1  0.937655  0.563322  0.937655  1
  Dy  Dy14  1  0.565792  0.565792  0.937747  1
  Dy  Dy15  1  0.937655  0.937655  0.563322  1
  In  In16  1  0.580570  0.580570  0.580570  1
  Hg  Hg17  1  0.585700  0.585700  0.239903  1
  Hg  Hg18  1  0.585700  0.239903  0.585700  1
  Hg  Hg19  1  0.239903  0.585700  0.585700  1
  Pt  Pt20  1  0.144811  0.144811  0.144811  1
  Pt  Pt21  1  0.141433  0.141433  0.570129  1
  Pt  Pt22  1  0.141433  0.570129  0.141433  1
  Pt  Pt23  1  0.570129  0.141433  0.141433  1
