# generated using pymatgen
data_Li3Cr(NO3)8
_symmetry_space_group_name_H-M   'P 1'
_cell_length_a   7.73686715
_cell_length_b   7.73686707
_cell_length_c   7.73686746
_cell_angle_alpha   91.21654048
_cell_angle_beta   91.21653956
_cell_angle_gamma   91.21655013
_symmetry_Int_Tables_number   1
_chemical_formula_structural   Li3Cr(NO3)8
_chemical_formula_sum   'Li3 Cr1 N8 O24'
_cell_volume   462.80434541
_cell_formula_units_Z   1
loop_
 _symmetry_equiv_pos_site_id
 _symmetry_equiv_pos_as_xyz
  1  'x, y, z'
loop_
 _atom_site_type_symbol
 _atom_site_label
 _atom_site_symmetry_multiplicity
 _atom_site_fract_x
 _atom_site_fract_y
 _atom_site_fract_z
 _atom_site_occupancy
  Li  Li0  1  0.500000  0.500000  0.000000  1
  Li  Li1  1  0.000000  0.500000  0.500000  1
  Li  Li2  1  0.500000  0.000000  0.500000  1
  Cr  Cr3  1  0.000000  0.000000  0.000000  1
  N  N4  1  0.315838  0.163975  0.826761  1
  N  N5  1  0.826761  0.315838  0.163975  1
  N  N6  1  0.163975  0.826761  0.315838  1
  N  N7  1  0.669539  0.669539  0.669539  1
  N  N8  1  0.684162  0.836025  0.173239  1
  N  N9  1  0.173239  0.684162  0.836025  1
  N  N10  1  0.836025  0.173239  0.684162  1
  N  N11  1  0.330461  0.330461  0.330461  1
  O  O12  1  0.423059  0.286362  0.831309  1
  O  O13  1  0.831309  0.423059  0.286362  1
  O  O14  1  0.286362  0.831309  0.423059  1
  O  O15  1  0.200464  0.163180  0.946588  1
  O  O16  1  0.316158  0.046855  0.713832  1
  O  O17  1  0.713832  0.316158  0.046855  1
  O  O18  1  0.668196  0.556757  0.783764  1
  O  O19  1  0.163180  0.946588  0.200464  1
  O  O20  1  0.783764  0.668196  0.556757  1
  O  O21  1  0.946588  0.200464  0.163180  1
  O  O22  1  0.556757  0.783764  0.668196  1
  O  O23  1  0.046855  0.713832  0.316158  1
  O  O24  1  0.576941  0.713638  0.168691  1
  O  O25  1  0.168691  0.576941  0.713638  1
  O  O26  1  0.713638  0.168691  0.576941  1
  O  O27  1  0.799536  0.836820  0.053412  1
  O  O28  1  0.683842  0.953145  0.286168  1
  O  O29  1  0.286168  0.683842  0.953145  1
  O  O30  1  0.331804  0.443243  0.216236  1
  O  O31  1  0.836820  0.053412  0.799536  1
  O  O32  1  0.216236  0.331804  0.443243  1
  O  O33  1  0.053412  0.799536  0.836820  1
  O  O34  1  0.443243  0.216236  0.331804  1
  O  O35  1  0.953145  0.286168  0.683842  1
