# generated using pymatgen
data_ScTlP2O7
_symmetry_space_group_name_H-M   'P 1'
_cell_length_a   10.11283900
_cell_length_b   7.80870031
_cell_length_c   8.51503500
_cell_angle_alpha   75.03671991
_cell_angle_beta   90.00000000
_cell_angle_gamma   90.00000000
_symmetry_Int_Tables_number   1
_chemical_formula_structural   ScTlP2O7
_chemical_formula_sum   'Sc4 Tl4 P8 O28'
_cell_volume   649.61575209
_cell_formula_units_Z   4
loop_
 _symmetry_equiv_pos_site_id
 _symmetry_equiv_pos_as_xyz
  1  'x, y, z'
loop_
 _atom_site_type_symbol
 _atom_site_label
 _atom_site_symmetry_multiplicity
 _atom_site_fract_x
 _atom_site_fract_y
 _atom_site_fract_z
 _atom_site_occupancy
  Sc  Sc0  1  0.096902  0.264736  0.259149  1
  Sc  Sc1  1  0.596902  0.735264  0.240851  1
  Sc  Sc2  1  0.903098  0.735264  0.740851  1
  Sc  Sc3  1  0.403098  0.264736  0.759149  1
  Tl  Tl4  1  0.194211  0.685453  0.452978  1
  Tl  Tl5  1  0.694211  0.314547  0.047022  1
  Tl  Tl6  1  0.805789  0.314547  0.547022  1
  Tl  Tl7  1  0.305789  0.685453  0.952978  1
  P  P8  1  0.868149  0.931734  0.312621  1
  P  P9  1  0.368149  0.068266  0.187379  1
  P  P10  1  0.131851  0.068266  0.687379  1
  P  P11  1  0.631851  0.931734  0.812621  1
  P  P12  1  0.089986  0.364095  0.828488  1
  P  P13  1  0.589986  0.635905  0.671512  1
  P  P14  1  0.910014  0.635905  0.171512  1
  P  P15  1  0.410014  0.364095  0.328488  1
  O  O16  1  0.721917  0.938272  0.265349  1
  O  O17  1  0.221917  0.061728  0.234651  1
  O  O18  1  0.278083  0.061728  0.734651  1
  O  O19  1  0.778083  0.938272  0.765349  1
  O  O20  1  0.923282  0.120163  0.268734  1
  O  O21  1  0.423282  0.879837  0.231266  1
  O  O22  1  0.076718  0.879837  0.731266  1
  O  O23  1  0.576718  0.120163  0.768734  1
  O  O24  1  0.898294  0.825514  0.485514  1
  O  O25  1  0.398294  0.174486  0.014486  1
  O  O26  1  0.101706  0.174486  0.514486  1
  O  O27  1  0.601706  0.825514  0.985514  1
  O  O28  1  0.052884  0.169626  0.805005  1
  O  O29  1  0.552884  0.830374  0.694995  1
  O  O30  1  0.947116  0.830374  0.194995  1
  O  O31  1  0.447116  0.169626  0.305005  1
  O  O32  1  0.509188  0.494170  0.224642  1
  O  O33  1  0.009188  0.505830  0.275358  1
  O  O34  1  0.490812  0.505830  0.775358  1
  O  O35  1  0.990812  0.494170  0.724642  1
  O  O36  1  0.270416  0.413124  0.260762  1
  O  O37  1  0.770416  0.586876  0.239238  1
  O  O38  1  0.729584  0.586876  0.739238  1
  O  O39  1  0.229584  0.413124  0.760762  1
  O  O40  1  0.420103  0.348658  0.508601  1
  O  O41  1  0.920103  0.651342  0.991399  1
  O  O42  1  0.579897  0.651342  0.491399  1
  O  O43  1  0.079897  0.348658  0.008601  1
