# generated using pymatgen
data_Sm8DyLu11Pb16
_symmetry_space_group_name_H-M   'P 1'
_cell_length_a   8.18284618
_cell_length_b   8.26751622
_cell_length_c   15.57007910
_cell_angle_alpha   89.98820559
_cell_angle_beta   89.99385032
_cell_angle_gamma   89.93888084
_symmetry_Int_Tables_number   1
_chemical_formula_structural   Sm8DyLu11Pb16
_chemical_formula_sum   'Sm8 Dy1 Lu11 Pb16'
_cell_volume   1053.34345982
_cell_formula_units_Z   1
loop_
 _symmetry_equiv_pos_site_id
 _symmetry_equiv_pos_as_xyz
  1  'x, y, z'
loop_
 _atom_site_type_symbol
 _atom_site_label
 _atom_site_symmetry_multiplicity
 _atom_site_fract_x
 _atom_site_fract_y
 _atom_site_fract_z
 _atom_site_occupancy
  Sm  Sm0  1  0.467326  0.677532  0.598673  1
  Sm  Sm1  1  0.967358  0.822210  0.901382  1
  Sm  Sm2  1  0.532728  0.322284  0.098658  1
  Sm  Sm3  1  0.032554  0.177572  0.401374  1
  Sm  Sm4  1  0.532554  0.322442  0.401038  1
  Sm  Sm5  1  0.032676  0.177754  0.098661  1
  Sm  Sm6  1  0.467284  0.677691  0.901403  1
  Sm  Sm7  1  0.967529  0.822087  0.598602  1
  Dy  Dy8  1  0.627167  0.158629  0.621973  1
  Lu  Lu9  1  0.127143  0.341551  0.877938  1
  Lu  Lu10  1  0.372741  0.841481  0.122131  1
  Lu  Lu11  1  0.872764  0.658505  0.377798  1
  Lu  Lu12  1  0.372808  0.841625  0.377951  1
  Lu  Lu13  1  0.872719  0.658440  0.122085  1
  Lu  Lu14  1  0.627210  0.158440  0.877959  1
  Lu  Lu15  1  0.127302  0.341441  0.622149  1
  Lu  Lu16  1  0.795143  0.494094  0.750196  1
  Lu  Lu17  1  0.294608  0.006222  0.750166  1
  Lu  Lu18  1  0.205096  0.506281  0.250004  1
  Lu  Lu19  1  0.705087  0.993588  0.249972  1
  Pb  Pb20  1  0.712349  0.961871  0.456264  1
  Pb  Pb21  1  0.212101  0.537568  0.043212  1
  Pb  Pb22  1  0.287985  0.037523  0.956855  1
  Pb  Pb23  1  0.788500  0.463517  0.542981  1
  Pb  Pb24  1  0.286926  0.037244  0.542989  1
  Pb  Pb25  1  0.787929  0.462458  0.956851  1
  Pb  Pb26  1  0.712090  0.962459  0.043166  1
  Pb  Pb27  1  0.212046  0.537543  0.456796  1
  Pb  Pb28  1  0.431756  0.371279  0.750339  1
  Pb  Pb29  1  0.932798  0.129252  0.750237  1
  Pb  Pb30  1  0.567664  0.629263  0.249990  1
  Pb  Pb31  1  0.067846  0.870792  0.249988  1
  Pb  Pb32  1  0.657091  0.847520  0.750198  1
  Pb  Pb33  1  0.157142  0.651803  0.750012  1
  Pb  Pb34  1  0.342994  0.151976  0.250006  1
  Pb  Pb35  1  0.842983  0.348062  0.250002  1
