# generated using pymatgen
data_Tb3Tm2PPb3
_symmetry_space_group_name_H-M   'P 1'
_cell_length_a   9.15558484
_cell_length_b   9.14530653
_cell_length_c   6.76978500
_cell_angle_alpha   89.99900684
_cell_angle_beta   90.00195801
_cell_angle_gamma   119.96444634
_symmetry_Int_Tables_number   1
_chemical_formula_structural   Tb3Tm2PPb3
_chemical_formula_sum   'Tb6 Tm4 P2 Pb6'
_cell_volume   491.07219623
_cell_formula_units_Z   2
loop_
 _symmetry_equiv_pos_site_id
 _symmetry_equiv_pos_as_xyz
  1  'x, y, z'
loop_
 _atom_site_type_symbol
 _atom_site_label
 _atom_site_symmetry_multiplicity
 _atom_site_fract_x
 _atom_site_fract_y
 _atom_site_fract_z
 _atom_site_occupancy
  Tb  Tb0  1  0.760956  0.761050  0.249836  1
  Tb  Tb1  1  0.238677  0.999565  0.249817  1
  Tb  Tb2  1  0.000220  0.238957  0.249837  1
  Tb  Tb3  1  0.238773  0.238881  0.750169  1
  Tb  Tb4  1  0.760885  0.999569  0.750167  1
  Tb  Tb5  1  0.666787  0.333552  0.500090  1
  Tm  Tm6  1  0.000190  0.763038  0.750178  1
  Tm  Tm7  1  0.333183  0.666736  0.500059  1
  Tm  Tm8  1  0.333192  0.666739  0.999944  1
  Tm  Tm9  1  0.666742  0.333531  0.999953  1
  P  P10  1  0.000034  0.998923  0.500960  1
  P  P11  1  0.000037  0.998925  0.999024  1
  Pb  Pb12  1  0.399904  0.400423  0.249600  1
  Pb  Pb13  1  0.599615  0.999399  0.249584  1
  Pb  Pb14  1  0.000643  0.600104  0.249574  1
  Pb  Pb15  1  0.600506  0.600559  0.750397  1
  Pb  Pb16  1  0.399000  0.998912  0.750390  1
  Pb  Pb17  1  0.000657  0.401140  0.750420  1
