# generated using pymatgen
data_La2TbYB4I5
_symmetry_space_group_name_H-M   'P 1'
_cell_length_a   9.84608557
_cell_length_b   9.84608542
_cell_length_c   9.81478829
_cell_angle_alpha   74.99203333
_cell_angle_beta   74.99203278
_cell_angle_gamma   25.36150704
_symmetry_Int_Tables_number   1
_chemical_formula_structural   La2TbYB4I5
_chemical_formula_sum   'La2 Tb1 Y1 B4 I5'
_cell_volume   392.93500170
_cell_formula_units_Z   1
loop_
 _symmetry_equiv_pos_site_id
 _symmetry_equiv_pos_as_xyz
  1  'x, y, z'
loop_
 _atom_site_type_symbol
 _atom_site_label
 _atom_site_symmetry_multiplicity
 _atom_site_fract_x
 _atom_site_fract_y
 _atom_site_fract_z
 _atom_site_occupancy
  La  La0  1  0.135469  0.135469  0.930862  1
  La  La1  1  0.865997  0.865997  0.067946  1
  Tb  Tb2  1  0.504498  0.504498  0.753283  1
  Y  Y3  1  0.497191  0.497191  0.245301  1
  B  B4  1  0.315599  0.685840  0.999656  1
  B  B5  1  0.685840  0.315599  0.999656  1
  B  B6  1  0.000113  0.000113  0.096735  1
  B  B7  1  0.001302  0.001302  0.902688  1
  I  I8  1  0.672342  0.672342  0.665742  1
  I  I9  1  0.329581  0.329581  0.333833  1
  I  I10  1  0.332150  0.332150  0.831803  1
  I  I11  1  0.670016  0.670016  0.165326  1
  I  I12  1  0.004203  0.004203  0.497372  1
