# generated using pymatgen
data_La3NdSc2(MoO6)2
_symmetry_space_group_name_H-M   'P 1'
_cell_length_a   5.68918716
_cell_length_b   5.89581754
_cell_length_c   8.16149011
_cell_angle_alpha   90.06199176
_cell_angle_beta   89.94130695
_cell_angle_gamma   90.00840410
_symmetry_Int_Tables_number   1
_chemical_formula_structural   La3NdSc2(MoO6)2
_chemical_formula_sum   'La3 Nd1 Sc2 Mo2 O12'
_cell_volume   273.75573620
_cell_formula_units_Z   1
loop_
 _symmetry_equiv_pos_site_id
 _symmetry_equiv_pos_as_xyz
  1  'x, y, z'
loop_
 _atom_site_type_symbol
 _atom_site_label
 _atom_site_symmetry_multiplicity
 _atom_site_fract_x
 _atom_site_fract_y
 _atom_site_fract_z
 _atom_site_occupancy
  La  La0  1  0.986128  0.052057  0.749972  1
  La  La1  1  0.514554  0.552840  0.750281  1
  La  La2  1  0.486124  0.447138  0.249781  1
  Nd  Nd3  1  0.016186  0.943617  0.250369  1
  Sc  Sc4  1  0.500319  0.999892  0.498688  1
  Sc  Sc5  1  0.999626  0.499828  0.001059  1
  Mo  Mo6  1  0.999707  0.499245  0.499545  1
  Mo  Mo7  1  0.500227  0.000324  0.000748  1
  O  O8  1  0.694586  0.296295  0.557308  1
  O  O9  1  0.893329  0.544679  0.247522  1
  O  O10  1  0.804443  0.796004  0.943399  1
  O  O11  1  0.107244  0.459773  0.752971  1
  O  O12  1  0.295966  0.699996  0.057096  1
  O  O13  1  0.199490  0.195175  0.442241  1
  O  O14  1  0.798617  0.802092  0.554407  1
  O  O15  1  0.393595  0.960136  0.747073  1
  O  O16  1  0.301553  0.706299  0.440370  1
  O  O17  1  0.193144  0.201512  0.059827  1
  O  O18  1  0.700751  0.303026  0.944896  1
  O  O19  1  0.614414  0.040072  0.252448  1
