# generated using pymatgen
data_Cs3Sc2BrCl8
_symmetry_space_group_name_H-M   'P 1'
_cell_length_a   7.54050100
_cell_length_b   7.54050075
_cell_length_c   19.01772600
_cell_angle_alpha   90.00000000
_cell_angle_beta   90.00000000
_cell_angle_gamma   119.99998794
_symmetry_Int_Tables_number   1
_chemical_formula_structural   Cs3Sc2BrCl8
_chemical_formula_sum   'Cs6 Sc4 Br2 Cl16'
_cell_volume   936.46092319
_cell_formula_units_Z   2
loop_
 _symmetry_equiv_pos_site_id
 _symmetry_equiv_pos_as_xyz
  1  'x, y, z'
loop_
 _atom_site_type_symbol
 _atom_site_label
 _atom_site_symmetry_multiplicity
 _atom_site_fract_x
 _atom_site_fract_y
 _atom_site_fract_z
 _atom_site_occupancy
  Cs  Cs0  1  0.333578  0.666422  0.072785  1
  Cs  Cs1  1  0.666422  0.333578  0.927215  1
  Cs  Cs2  1  0.666694  0.333306  0.572414  1
  Cs  Cs3  1  0.333306  0.666694  0.427586  1
  Cs  Cs4  1  0.000487  0.999513  0.250650  1
  Cs  Cs5  1  0.999513  0.000487  0.749350  1
  Sc  Sc6  1  0.332920  0.667080  0.657260  1
  Sc  Sc7  1  0.667080  0.332920  0.342740  1
  Sc  Sc8  1  0.662910  0.337090  0.158670  1
  Sc  Sc9  1  0.337090  0.662910  0.841330  1
  Br  Br10  1  0.832935  0.167065  0.089558  1
  Br  Br11  1  0.167065  0.832935  0.910442  1
  Cl  Cl12  1  0.175144  0.349889  0.592711  1
  Cl  Cl13  1  0.824856  0.650111  0.407289  1
  Cl  Cl14  1  0.650111  0.824856  0.592711  1
  Cl  Cl15  1  0.824653  0.651164  0.093124  1
  Cl  Cl16  1  0.349889  0.175144  0.407289  1
  Cl  Cl17  1  0.175347  0.348836  0.906876  1
  Cl  Cl18  1  0.174700  0.825300  0.592562  1
  Cl  Cl19  1  0.348836  0.175347  0.093124  1
  Cl  Cl20  1  0.825300  0.174700  0.407438  1
  Cl  Cl21  1  0.651164  0.824653  0.906876  1
  Cl  Cl22  1  0.516645  0.035209  0.250428  1
  Cl  Cl23  1  0.483355  0.964791  0.749572  1
  Cl  Cl24  1  0.964791  0.483355  0.250428  1
  Cl  Cl25  1  0.035209  0.516645  0.749572  1
  Cl  Cl26  1  0.515850  0.484150  0.250689  1
  Cl  Cl27  1  0.484150  0.515850  0.749311  1
