# generated using pymatgen
data_Er4Ga18Co4PtRh
_symmetry_space_group_name_H-M   'P 1'
_cell_length_a   7.43714948
_cell_length_b   7.43714907
_cell_length_c   9.40348394
_cell_angle_alpha   90.05279556
_cell_angle_beta   90.05279538
_cell_angle_gamma   119.57722460
_symmetry_Int_Tables_number   1
_chemical_formula_structural   Er4Ga18Co4PtRh
_chemical_formula_sum   'Er4 Ga18 Co4 Pt1 Rh1'
_cell_volume   452.34118852
_cell_formula_units_Z   1
loop_
 _symmetry_equiv_pos_site_id
 _symmetry_equiv_pos_as_xyz
  1  'x, y, z'
loop_
 _atom_site_type_symbol
 _atom_site_label
 _atom_site_symmetry_multiplicity
 _atom_site_fract_x
 _atom_site_fract_y
 _atom_site_fract_z
 _atom_site_occupancy
  Er  Er0  1  0.503204  0.823242  0.749813  1
  Er  Er1  1  0.496796  0.176758  0.250187  1
  Er  Er2  1  0.176758  0.496796  0.250187  1
  Er  Er3  1  0.823242  0.503204  0.749813  1
  Ga  Ga4  1  0.165105  0.941758  0.749800  1
  Ga  Ga5  1  0.834895  0.058242  0.250200  1
  Ga  Ga6  1  0.058242  0.834895  0.250200  1
  Ga  Ga7  1  0.941758  0.165105  0.749800  1
  Ga  Ga8  1  0.640527  0.640527  0.253121  1
  Ga  Ga9  1  0.359473  0.359473  0.746879  1
  Ga  Ga10  1  0.156251  0.156251  0.064406  1
  Ga  Ga11  1  0.840017  0.840017  0.562828  1
  Ga  Ga12  1  0.843749  0.843749  0.935594  1
  Ga  Ga13  1  0.159983  0.159983  0.437172  1
  Ga  Ga14  1  0.498040  0.845513  0.077240  1
  Ga  Ga15  1  0.501918  0.157693  0.575260  1
  Ga  Ga16  1  0.154487  0.501960  0.922760  1
  Ga  Ga17  1  0.842307  0.498082  0.424740  1
  Ga  Ga18  1  0.501960  0.154487  0.922760  1
  Ga  Ga19  1  0.498082  0.842307  0.424740  1
  Ga  Ga20  1  0.845513  0.498040  0.077240  1
  Ga  Ga21  1  0.157693  0.501918  0.575260  1
  Co  Co22  1  0.170673  0.829327  0.000000  1
  Co  Co23  1  0.829217  0.170783  0.500000  1
  Co  Co24  1  0.829327  0.170673  0.000000  1
  Co  Co25  1  0.170783  0.829217  0.500000  1
  Pt  Pt26  1  0.500000  0.500000  0.000000  1
  Rh  Rh27  1  0.500000  0.500000  0.500000  1
