# generated using pymatgen
data_La7Y(In4Au3)4
_symmetry_space_group_name_H-M   'P 1'
_cell_length_a   15.28633400
_cell_length_b   15.09544170
_cell_length_c   4.50092600
_cell_angle_alpha   90.00000000
_cell_angle_beta   90.00000000
_cell_angle_gamma   120.41920966
_symmetry_Int_Tables_number   1
_chemical_formula_structural   La7Y(In4Au3)4
_chemical_formula_sum   'La7 Y1 In16 Au12'
_cell_volume   895.63605671
_cell_formula_units_Z   1
loop_
 _symmetry_equiv_pos_site_id
 _symmetry_equiv_pos_as_xyz
  1  'x, y, z'
loop_
 _atom_site_type_symbol
 _atom_site_label
 _atom_site_symmetry_multiplicity
 _atom_site_fract_x
 _atom_site_fract_y
 _atom_site_fract_z
 _atom_site_occupancy
  La  La0  1  0.001066  0.451759  0.000000  1
  La  La1  1  0.549306  0.548241  0.000000  1
  La  La2  1  0.338678  0.673326  0.000000  1
  La  La3  1  0.665354  0.326674  0.000000  1
  La  La4  1  0.817152  0.000000  0.500000  1
  La  La5  1  0.001052  0.819778  0.500000  1
  La  La6  1  0.181275  0.180222  0.500000  1
  Y  Y7  1  0.448070  0.000000  0.000000  1
  In  In8  1  0.181170  0.378326  0.000000  1
  In  In9  1  0.627371  0.806858  0.000000  1
  In  In10  1  0.376953  0.177010  0.000000  1
  In  In11  1  0.199942  0.822990  0.000000  1
  In  In12  1  0.802846  0.621674  0.000000  1
  In  In13  1  0.820514  0.193142  0.000000  1
  In  In14  1  0.278033  0.000000  0.500000  1
  In  In15  1  0.999342  0.282773  0.500000  1
  In  In16  1  0.716568  0.717227  0.500000  1
  In  In17  1  0.351241  0.474998  0.500000  1
  In  In18  1  0.523173  0.876806  0.500000  1
  In  In19  1  0.476966  0.345655  0.500000  1
  In  In20  1  0.131311  0.654345  0.500000  1
  In  In21  1  0.876244  0.525002  0.500000  1
  In  In22  1  0.646367  0.123194  0.500000  1
  In  In23  1  0.999008  0.000000  0.000000  1
  Au  Au24  1  0.176416  0.496084  0.500000  1
  Au  Au25  1  0.507561  0.681889  0.500000  1
  Au  Au26  1  0.486934  0.161560  0.500000  1
  Au  Au27  1  0.325374  0.838440  0.500000  1
  Au  Au28  1  0.680333  0.503916  0.500000  1
  Au  Au29  1  0.825671  0.318111  0.500000  1
  Au  Au30  1  0.173587  0.000000  0.000000  1
  Au  Au31  1  0.001956  0.177593  0.000000  1
  Au  Au32  1  0.824363  0.822407  0.000000  1
  Au  Au33  1  0.646970  0.000000  0.000000  1
  Au  Au34  1  0.001539  0.661247  0.000000  1
  Au  Au35  1  0.340292  0.338753  0.000000  1
