# generated using pymatgen
data_NdTmFe3Tc14C3
_symmetry_space_group_name_H-M   'P 1'
_cell_length_a   6.90387436
_cell_length_b   6.90387399
_cell_length_c   6.90387410
_cell_angle_alpha   82.49808525
_cell_angle_beta   82.49808827
_cell_angle_gamma   82.49808870
_symmetry_Int_Tables_number   1
_chemical_formula_structural   NdTmFe3Tc14C3
_chemical_formula_sum   'Nd1 Tm1 Fe3 Tc14 C3'
_cell_volume   321.28949982
_cell_formula_units_Z   1
loop_
 _symmetry_equiv_pos_site_id
 _symmetry_equiv_pos_as_xyz
  1  'x, y, z'
loop_
 _atom_site_type_symbol
 _atom_site_label
 _atom_site_symmetry_multiplicity
 _atom_site_fract_x
 _atom_site_fract_y
 _atom_site_fract_z
 _atom_site_occupancy
  Nd  Nd0  1  0.350831  0.350831  0.350831  1
  Tm  Tm1  1  0.651908  0.651908  0.651908  1
  Fe  Fe2  1  0.001172  0.001172  0.499156  1
  Fe  Fe3  1  0.499156  0.001172  0.001172  1
  Fe  Fe4  1  0.001172  0.499156  0.001172  1
  Tc  Tc5  1  0.724546  0.276169  0.999268  1
  Tc  Tc6  1  0.999268  0.724546  0.276169  1
  Tc  Tc7  1  0.276169  0.999268  0.724546  1
  Tc  Tc8  1  0.999268  0.276169  0.724546  1
  Tc  Tc9  1  0.724546  0.999268  0.276169  1
  Tc  Tc10  1  0.276169  0.724546  0.999268  1
  Tc  Tc11  1  0.348820  0.858925  0.348820  1
  Tc  Tc12  1  0.348820  0.348820  0.858925  1
  Tc  Tc13  1  0.858925  0.348820  0.348820  1
  Tc  Tc14  1  0.653127  0.134984  0.653127  1
  Tc  Tc15  1  0.653127  0.653127  0.134984  1
  Tc  Tc16  1  0.134984  0.653127  0.653127  1
  Tc  Tc17  1  0.898747  0.898747  0.898747  1
  Tc  Tc18  1  0.100455  0.100455  0.100455  1
  C  C19  1  0.504642  0.504642  0.989506  1
  C  C20  1  0.989506  0.504642  0.504642  1
  C  C21  1  0.504642  0.989506  0.504642  1
