# generated using pymatgen
data_GaCu3Se4
_symmetry_space_group_name_H-M   'P 1'
_cell_length_a   6.80483505
_cell_length_b   6.80483428
_cell_length_c   6.80483429
_cell_angle_alpha   131.47797079
_cell_angle_beta   131.47796411
_cell_angle_gamma   71.05477665
_symmetry_Int_Tables_number   1
_chemical_formula_structural   GaCu3Se4
_chemical_formula_sum   'Ga1 Cu3 Se4'
_cell_volume   173.18508801
_cell_formula_units_Z   1
loop_
 _symmetry_equiv_pos_site_id
 _symmetry_equiv_pos_as_xyz
  1  'x, y, z'
loop_
 _atom_site_type_symbol
 _atom_site_label
 _atom_site_symmetry_multiplicity
 _atom_site_fract_x
 _atom_site_fract_y
 _atom_site_fract_z
 _atom_site_occupancy
  Ga  Ga0  1  0.750000  0.250000  0.500000  1
  Cu  Cu1  1  0.500000  0.500000  0.000000  1
  Cu  Cu2  1  0.250000  0.750000  0.500000  1
  Cu  Cu3  1  0.000000  0.000000  0.000000  1
  Se  Se4  1  0.623058  0.631490  0.500007  1
  Se  Se5  1  0.131483  0.123051  0.499993  1
  Se  Se6  1  0.876949  0.376942  0.008431  1
  Se  Se7  1  0.368510  0.868517  0.991569  1
