# generated using pymatgen
data_AlS8Br3
_symmetry_space_group_name_H-M   'P 1'
_cell_length_a   8.77328267
_cell_length_b   10.52229301
_cell_length_c   11.91301680
_cell_angle_alpha   94.16996001
_cell_angle_beta   118.89579450
_cell_angle_gamma   101.51387520
_symmetry_Int_Tables_number   1
_chemical_formula_structural   AlS8Br3
_chemical_formula_sum   'Al2 S16 Br6'
_cell_volume   924.93110425
_cell_formula_units_Z   2
loop_
 _symmetry_equiv_pos_site_id
 _symmetry_equiv_pos_as_xyz
  1  'x, y, z'
loop_
 _atom_site_type_symbol
 _atom_site_label
 _atom_site_symmetry_multiplicity
 _atom_site_fract_x
 _atom_site_fract_y
 _atom_site_fract_z
 _atom_site_occupancy
  Al  Al0  1  0.814359  0.983118  0.853835  1
  Al  Al1  1  0.185641  0.016882  0.146165  1
  S  S2  1  0.876441  0.490882  0.817333  1
  S  S3  1  0.123559  0.509118  0.182667  1
  S  S4  1  0.704393  0.384443  0.629234  1
  S  S5  1  0.295607  0.615557  0.370766  1
  S  S6  1  0.767990  0.208332  0.611522  1
  S  S7  1  0.232010  0.791668  0.388478  1
  S  S8  1  0.931891  0.226920  0.531411  1
  S  S9  1  0.068109  0.773080  0.468589  1
  S  S10  1  0.914621  0.372277  0.176826  1
  S  S11  1  0.085379  0.627723  0.823174  1
  S  S12  1  0.693492  0.447917  0.114676  1
  S  S13  1  0.306508  0.552083  0.885324  1
  S  S14  1  0.687752  0.528088  0.275498  1
  S  S15  1  0.312248  0.471912  0.724502  1
  S  S16  1  0.801373  0.729649  0.321812  1
  S  S17  1  0.198627  0.270351  0.678188  1
  Br  Br18  1  0.595129  0.075278  0.837556  1
  Br  Br19  1  0.404871  0.924722  0.162444  1
  Br  Br20  1  0.890461  0.855473  0.028773  1
  Br  Br21  1  0.109539  0.144527  0.971227  1
  Br  Br22  1  0.780991  0.859335  0.676388  1
  Br  Br23  1  0.219009  0.140665  0.323612  1
