# generated using pymatgen
data_Tb3Er5B24(IrRu)2
_symmetry_space_group_name_H-M   'P 1'
_cell_length_a   3.64558600
_cell_length_b   9.15516845
_cell_length_c   11.49153005
_cell_angle_alpha   90.05115630
_cell_angle_beta   90.00000000
_cell_angle_gamma   90.00000000
_symmetry_Int_Tables_number   1
_chemical_formula_structural   Tb3Er5B24(IrRu)2
_chemical_formula_sum   'Tb3 Er5 B24 Ir2 Ru2'
_cell_volume   383.54062475
_cell_formula_units_Z   1
loop_
 _symmetry_equiv_pos_site_id
 _symmetry_equiv_pos_as_xyz
  1  'x, y, z'
loop_
 _atom_site_type_symbol
 _atom_site_label
 _atom_site_symmetry_multiplicity
 _atom_site_fract_x
 _atom_site_fract_y
 _atom_site_fract_z
 _atom_site_occupancy
  Tb  Tb0  1  0.000000  0.319270  0.412007  1
  Tb  Tb1  1  0.000000  0.680748  0.588067  1
  Tb  Tb2  1  0.000000  0.823266  0.085234  1
  Er  Er3  1  0.000000  0.177009  0.915010  1
  Er  Er4  1  0.000000  0.946074  0.372697  1
  Er  Er5  1  0.000000  0.054092  0.627409  1
  Er  Er6  1  0.000000  0.442301  0.125537  1
  Er  Er7  1  0.000000  0.557258  0.874266  1
  B  B8  1  0.500000  0.553227  0.433221  1
  B  B9  1  0.500000  0.446624  0.566909  1
  B  B10  1  0.500000  0.054651  0.066637  1
  B  B11  1  0.500000  0.946308  0.932834  1
  B  B12  1  0.500000  0.750984  0.419936  1
  B  B13  1  0.500000  0.249005  0.580283  1
  B  B14  1  0.500000  0.248159  0.079572  1
  B  B15  1  0.500000  0.751779  0.919624  1
  B  B16  1  0.500000  0.792853  0.266158  1
  B  B17  1  0.500000  0.206823  0.734452  1
  B  B18  1  0.500000  0.291712  0.233564  1
  B  B19  1  0.500000  0.708331  0.766259  1
  B  B20  1  0.500000  0.631298  0.184172  1
  B  B21  1  0.500000  0.367975  0.816124  1
  B  B22  1  0.500000  0.131908  0.314592  1
  B  B23  1  0.500000  0.868354  0.685433  1
  B  B24  1  0.500000  0.984107  0.212996  1
  B  B25  1  0.500000  0.016857  0.787187  1
  B  B26  1  0.500000  0.482090  0.285890  1
  B  B27  1  0.500000  0.517622  0.714131  1
  B  B28  1  0.500000  0.609362  0.030258  1
  B  B29  1  0.500000  0.389481  0.969393  1
  B  B30  1  0.500000  0.108427  0.470611  1
  B  B31  1  0.500000  0.891661  0.529483  1
  Ir  Ir32  1  0.000000  0.638000  0.321625  1
  Ir  Ir33  1  0.000000  0.361645  0.678659  1
  Ru  Ru34  1  0.000000  0.138127  0.178734  1
  Ru  Ru35  1  0.000000  0.862608  0.821033  1
