# generated using pymatgen
data_La2Pr2ErSi4
_symmetry_space_group_name_H-M   'P 1'
_cell_length_a   7.88354500
_cell_length_b   7.88354500
_cell_length_c   15.26161700
_cell_angle_alpha   90.00000000
_cell_angle_beta   90.00000000
_cell_angle_gamma   90.00000000
_symmetry_Int_Tables_number   1
_chemical_formula_structural   La2Pr2ErSi4
_chemical_formula_sum   'La8 Pr8 Er4 Si16'
_cell_volume   948.51379677
_cell_formula_units_Z   4
loop_
 _symmetry_equiv_pos_site_id
 _symmetry_equiv_pos_as_xyz
  1  'x, y, z'
loop_
 _atom_site_type_symbol
 _atom_site_label
 _atom_site_symmetry_multiplicity
 _atom_site_fract_x
 _atom_site_fract_y
 _atom_site_fract_z
 _atom_site_occupancy
  La  La0  1  0.375258  0.012633  0.448286  1
  La  La1  1  0.487367  0.875258  0.698286  1
  La  La2  1  0.512633  0.124742  0.198286  1
  La  La3  1  0.875258  0.487367  0.301714  1
  La  La4  1  0.124742  0.512633  0.801714  1
  La  La5  1  0.624742  0.987367  0.948286  1
  La  La6  1  0.012633  0.375258  0.551714  1
  La  La7  1  0.987367  0.624742  0.051714  1
  Pr  Pr8  1  0.127394  0.979550  0.877631  1
  Pr  Pr9  1  0.520450  0.627394  0.127631  1
  Pr  Pr10  1  0.479550  0.372606  0.627631  1
  Pr  Pr11  1  0.627394  0.520450  0.872369  1
  Pr  Pr12  1  0.372606  0.479550  0.372369  1
  Pr  Pr13  1  0.872606  0.020450  0.377631  1
  Pr  Pr14  1  0.979550  0.127394  0.122369  1
  Pr  Pr15  1  0.020450  0.872606  0.622369  1
  Er  Er16  1  0.311237  0.311237  0.000000  1
  Er  Er17  1  0.188763  0.811237  0.250000  1
  Er  Er18  1  0.811237  0.188763  0.750000  1
  Er  Er19  1  0.688763  0.688763  0.500000  1
  Si  Si20  1  0.190710  0.170254  0.705633  1
  Si  Si21  1  0.329746  0.690710  0.955633  1
  Si  Si22  1  0.670254  0.309290  0.455633  1
  Si  Si23  1  0.690710  0.329746  0.044367  1
  Si  Si24  1  0.309290  0.670254  0.544367  1
  Si  Si25  1  0.809290  0.829746  0.205633  1
  Si  Si26  1  0.170254  0.190710  0.294367  1
  Si  Si27  1  0.829746  0.809290  0.794367  1
  Si  Si28  1  0.287113  0.922621  0.063627  1
  Si  Si29  1  0.577379  0.787113  0.313627  1
  Si  Si30  1  0.422621  0.212887  0.813627  1
  Si  Si31  1  0.787113  0.577379  0.686373  1
  Si  Si32  1  0.212887  0.422621  0.186373  1
  Si  Si33  1  0.712887  0.077379  0.563627  1
  Si  Si34  1  0.922621  0.287113  0.936373  1
  Si  Si35  1  0.077379  0.712887  0.436373  1
