# generated using pymatgen
data_LaTbNd4Ta2O14
_symmetry_space_group_name_H-M   'P 1'
_cell_length_a   6.67777631
_cell_length_b   6.65920875
_cell_length_c   7.71609653
_cell_angle_alpha   89.99085808
_cell_angle_beta   90.04214128
_cell_angle_gamma   108.79713281
_symmetry_Int_Tables_number   1
_chemical_formula_structural   LaTbNd4Ta2O14
_chemical_formula_sum   'La1 Tb1 Nd4 Ta2 O14'
_cell_volume   324.82431198
_cell_formula_units_Z   1
loop_
 _symmetry_equiv_pos_site_id
 _symmetry_equiv_pos_as_xyz
  1  'x, y, z'
loop_
 _atom_site_type_symbol
 _atom_site_label
 _atom_site_symmetry_multiplicity
 _atom_site_fract_x
 _atom_site_fract_y
 _atom_site_fract_z
 _atom_site_occupancy
  La  La0  1  0.517753  0.514514  0.498744  1
  Tb  Tb1  1  0.003395  0.531609  0.250609  1
  Nd  Nd2  1  0.537244  0.532070  0.000842  1
  Nd  Nd3  1  0.005798  0.462351  0.751173  1
  Nd  Nd4  1  0.532836  0.003107  0.749656  1
  Nd  Nd5  1  0.461890  0.003669  0.248530  1
  Ta  Ta6  1  0.999128  0.999365  0.498224  1
  Ta  Ta7  1  0.001201  0.001704  0.001792  1
  O  O8  1  0.943949  0.056532  0.749918  1
  O  O9  1  0.057812  0.936732  0.249966  1
  O  O10  1  0.355847  0.636068  0.246360  1
  O  O11  1  0.641832  0.368000  0.752083  1
  O  O12  1  0.371859  0.631691  0.753239  1
  O  O13  1  0.642309  0.375855  0.248206  1
  O  O14  1  0.306807  0.064709  0.968343  1
  O  O15  1  0.681701  0.924466  0.471065  1
  O  O16  1  0.309921  0.069150  0.529905  1
  O  O17  1  0.679254  0.919774  0.027114  1
  O  O18  1  0.047643  0.305054  0.461501  1
  O  O19  1  0.929194  0.680337  0.976150  1
  O  O20  1  0.934914  0.682930  0.525701  1
  O  O21  1  0.037710  0.300312  0.040878  1
