# generated using pymatgen
data_Hf6Ti3Ga2Si4Mo
_symmetry_space_group_name_H-M   'P 1'
_cell_length_a   7.79439870
_cell_length_b   7.79439895
_cell_length_c   5.28919357
_cell_angle_alpha   90.02654637
_cell_angle_beta   90.02654813
_cell_angle_gamma   120.16188939
_symmetry_Int_Tables_number   1
_chemical_formula_structural   Hf6Ti3Ga2Si4Mo
_chemical_formula_sum   'Hf6 Ti3 Ga2 Si4 Mo1'
_cell_volume   277.82695154
_cell_formula_units_Z   1
loop_
 _symmetry_equiv_pos_site_id
 _symmetry_equiv_pos_as_xyz
  1  'x, y, z'
loop_
 _atom_site_type_symbol
 _atom_site_label
 _atom_site_symmetry_multiplicity
 _atom_site_fract_x
 _atom_site_fract_y
 _atom_site_fract_z
 _atom_site_occupancy
  Hf  Hf0  1  0.250696  0.997366  0.248615  1
  Hf  Hf1  1  0.748453  0.001493  0.751377  1
  Hf  Hf2  1  0.998507  0.251547  0.248623  1
  Hf  Hf3  1  0.002634  0.749304  0.751385  1
  Hf  Hf4  1  0.756678  0.756579  0.248174  1
  Hf  Hf5  1  0.243421  0.243322  0.751826  1
  Ti  Ti6  1  0.670596  0.329404  0.000000  1
  Ti  Ti7  1  0.670445  0.329555  0.500000  1
  Ti  Ti8  1  0.329860  0.670140  0.500000  1
  Ga  Ga9  1  0.401025  0.401730  0.249783  1
  Ga  Ga10  1  0.598270  0.598975  0.750217  1
  Si  Si11  1  0.601541  0.996839  0.248642  1
  Si  Si12  1  0.397378  0.001209  0.750983  1
  Si  Si13  1  0.998791  0.602622  0.249017  1
  Si  Si14  1  0.003161  0.398459  0.751358  1
  Mo  Mo15  1  0.328544  0.671456  0.000000  1
