# generated using pymatgen
data_DyTm2Mg3Ga2Hg
_symmetry_space_group_name_H-M   'P 1'
_cell_length_a   7.35912492
_cell_length_b   7.34595779
_cell_length_c   4.38548300
_cell_angle_alpha   90.00000000
_cell_angle_beta   90.00000000
_cell_angle_gamma   119.94082978
_symmetry_Int_Tables_number   1
_chemical_formula_structural   DyTm2Mg3Ga2Hg
_chemical_formula_sum   'Dy1 Tm2 Mg3 Ga2 Hg1'
_cell_volume   205.43824755
_cell_formula_units_Z   1
loop_
 _symmetry_equiv_pos_site_id
 _symmetry_equiv_pos_as_xyz
  1  'x, y, z'
loop_
 _atom_site_type_symbol
 _atom_site_label
 _atom_site_symmetry_multiplicity
 _atom_site_fract_x
 _atom_site_fract_y
 _atom_site_fract_z
 _atom_site_occupancy
  Dy  Dy0  1  0.000000  0.571092  0.000000  1
  Tm  Tm1  1  0.428791  0.428703  0.000000  1
  Tm  Tm2  1  0.571209  0.999912  0.000000  1
  Mg  Mg3  1  0.000000  0.248456  0.500000  1
  Mg  Mg4  1  0.751112  0.751337  0.500000  1
  Mg  Mg5  1  0.248888  0.000225  0.500000  1
  Ga  Ga6  1  0.666012  0.332873  0.500000  1
  Ga  Ga7  1  0.333988  0.666862  0.500000  1
  Hg  Hg8  1  0.000000  0.000540  0.000000  1
