# generated using pymatgen
data_DyTm4Lu7Co4
_symmetry_space_group_name_H-M   'P 1'
_cell_length_a   6.12056043
_cell_length_b   6.87159031
_cell_length_c   9.17467820
_cell_angle_alpha   89.98797228
_cell_angle_beta   90.02062226
_cell_angle_gamma   89.97229988
_symmetry_Int_Tables_number   1
_chemical_formula_structural   DyTm4Lu7Co4
_chemical_formula_sum   'Dy1 Tm4 Lu7 Co4'
_cell_volume   385.86838812
_cell_formula_units_Z   1
loop_
 _symmetry_equiv_pos_site_id
 _symmetry_equiv_pos_as_xyz
  1  'x, y, z'
loop_
 _atom_site_type_symbol
 _atom_site_label
 _atom_site_symmetry_multiplicity
 _atom_site_fract_x
 _atom_site_fract_y
 _atom_site_fract_z
 _atom_site_occupancy
  Dy  Dy0  1  0.634477  0.042040  0.250447  1
  Tm  Tm1  1  0.137246  0.459000  0.749594  1
  Tm  Tm2  1  0.676428  0.325922  0.933049  1
  Tm  Tm3  1  0.363293  0.957308  0.749797  1
  Tm  Tm4  1  0.865513  0.540802  0.250351  1
  Lu  Lu5  1  0.174681  0.175214  0.434315  1
  Lu  Lu6  1  0.824266  0.824264  0.567347  1
  Lu  Lu7  1  0.174708  0.175105  0.066167  1
  Lu  Lu8  1  0.824601  0.824418  0.932761  1
  Lu  Lu9  1  0.676044  0.325964  0.566698  1
  Lu  Lu10  1  0.323904  0.674774  0.066880  1
  Lu  Lu11  1  0.324164  0.674447  0.433293  1
  Co  Co12  1  0.545411  0.613626  0.749618  1
  Co  Co13  1  0.955363  0.113012  0.749371  1
  Co  Co14  1  0.047113  0.886175  0.249952  1
  Co  Co15  1  0.452788  0.387927  0.250358  1
