# generated using pymatgen
data_Yb4Te3(ClO2)4
_symmetry_space_group_name_H-M   'P 1'
_cell_length_a   8.56260116
_cell_length_b   8.56260140
_cell_length_c   15.96755461
_cell_angle_alpha   72.57897653
_cell_angle_beta   72.57897644
_cell_angle_gamma   38.19274211
_symmetry_Int_Tables_number   1
_chemical_formula_structural   Yb4Te3(ClO2)4
_chemical_formula_sum   'Yb8 Te6 Cl8 O16'
_cell_volume   686.57056127
_cell_formula_units_Z   2
loop_
 _symmetry_equiv_pos_site_id
 _symmetry_equiv_pos_as_xyz
  1  'x, y, z'
loop_
 _atom_site_type_symbol
 _atom_site_label
 _atom_site_symmetry_multiplicity
 _atom_site_fract_x
 _atom_site_fract_y
 _atom_site_fract_z
 _atom_site_occupancy
  Yb  Yb0  1  0.724210  0.744616  0.701280  1
  Yb  Yb1  1  0.255384  0.275790  0.298720  1
  Yb  Yb2  1  0.194036  0.140945  0.557447  1
  Yb  Yb3  1  0.859055  0.805964  0.442553  1
  Yb  Yb4  1  0.066740  0.070058  0.815763  1
  Yb  Yb5  1  0.929942  0.933260  0.184237  1
  Yb  Yb6  1  0.666738  0.602600  0.953339  1
  Yb  Yb7  1  0.397400  0.333262  0.046661  1
  Te  Te8  1  0.373555  0.357419  0.579034  1
  Te  Te9  1  0.642581  0.626445  0.420966  1
  Te  Te10  1  0.276634  0.256551  0.834636  1
  Te  Te11  1  0.743449  0.723366  0.165364  1
  Te  Te12  1  0.528642  0.544243  0.677904  1
  Te  Te13  1  0.455757  0.471358  0.322096  1
  Cl  Cl14  1  0.704857  0.897861  0.966433  1
  Cl  Cl15  1  0.102139  0.295143  0.033567  1
  Cl  Cl16  1  0.994983  0.799702  0.740106  1
  Cl  Cl17  1  0.200298  0.005017  0.259894  1
  Cl  Cl18  1  0.468417  0.555534  0.119045  1
  Cl  Cl19  1  0.444466  0.531583  0.880955  1
  Cl  Cl20  1  0.923321  0.076679  0.500000  1
  Cl  Cl21  1  0.919743  0.080257  0.000000  1
  O  O22  1  0.860521  0.353643  0.687891  1
  O  O23  1  0.369200  0.853127  0.701194  1
  O  O24  1  0.146873  0.630800  0.298806  1
  O  O25  1  0.646357  0.139479  0.312109  1
  O  O26  1  0.946247  0.430857  0.827285  1
  O  O27  1  0.406097  0.940695  0.854977  1
  O  O28  1  0.059305  0.593903  0.145023  1
  O  O29  1  0.569143  0.053753  0.172715  1
  O  O30  1  0.411395  0.187710  0.712598  1
  O  O31  1  0.812290  0.588605  0.287402  1
  O  O32  1  0.044527  0.524363  0.585390  1
  O  O33  1  0.541177  0.041869  0.558937  1
  O  O34  1  0.958131  0.458823  0.441063  1
  O  O35  1  0.475637  0.955473  0.414610  1
  O  O36  1  0.506412  0.682359  0.555709  1
  O  O37  1  0.317641  0.493588  0.444291  1
