# generated using pymatgen
data_Er2HfGa5Rh
_symmetry_space_group_name_H-M   'P 1'
_cell_length_a   6.84709600
_cell_length_b   6.76320931
_cell_length_c   4.19508500
_cell_angle_alpha   90.00000000
_cell_angle_beta   90.00000000
_cell_angle_gamma   120.41115592
_symmetry_Int_Tables_number   1
_chemical_formula_structural   Er2HfGa5Rh
_chemical_formula_sum   'Er2 Hf1 Ga5 Rh1'
_cell_volume   167.53917575
_cell_formula_units_Z   1
loop_
 _symmetry_equiv_pos_site_id
 _symmetry_equiv_pos_as_xyz
  1  'x, y, z'
loop_
 _atom_site_type_symbol
 _atom_site_label
 _atom_site_symmetry_multiplicity
 _atom_site_fract_x
 _atom_site_fract_y
 _atom_site_fract_z
 _atom_site_occupancy
  Er  Er0  1  0.005295  0.589061  0.000000  1
  Er  Er1  1  0.416233  0.410939  0.000000  1
  Hf  Hf2  1  0.593089  0.000000  0.000000  1
  Ga  Ga3  1  0.239601  0.000000  0.500000  1
  Ga  Ga4  1  0.999562  0.241483  0.500000  1
  Ga  Ga5  1  0.758079  0.758517  0.500000  1
  Ga  Ga6  1  0.343134  0.679946  0.500000  1
  Ga  Ga7  1  0.663189  0.320054  0.500000  1
  Rh  Rh8  1  0.981818  0.000000  0.000000  1
