# generated using pymatgen
data_Pr3SmHf4F28
_symmetry_space_group_name_H-M   'P 1'
_cell_length_a   5.85843754
_cell_length_b   9.31331768
_cell_length_c   12.48356572
_cell_angle_alpha   62.00638098
_cell_angle_beta   90.01742637
_cell_angle_gamma   89.97666119
_symmetry_Int_Tables_number   1
_chemical_formula_structural   Pr3SmHf4F28
_chemical_formula_sum   'Pr3 Sm1 Hf4 F28'
_cell_volume   601.43044552
_cell_formula_units_Z   1
loop_
 _symmetry_equiv_pos_site_id
 _symmetry_equiv_pos_as_xyz
  1  'x, y, z'
loop_
 _atom_site_type_symbol
 _atom_site_label
 _atom_site_symmetry_multiplicity
 _atom_site_fract_x
 _atom_site_fract_y
 _atom_site_fract_z
 _atom_site_occupancy
  Pr  Pr0  1  0.743788  0.809933  0.267080  1
  Pr  Pr1  1  0.243504  0.188425  0.232932  1
  Pr  Pr2  1  0.256398  0.186413  0.733125  1
  Sm  Sm3  1  0.756780  0.810536  0.766941  1
  Hf  Hf4  1  0.745512  0.271022  0.456940  1
  Hf  Hf5  1  0.245099  0.726628  0.041792  1
  Hf  Hf6  1  0.255645  0.726453  0.547137  1
  Hf  Hf7  1  0.755229  0.276226  0.954223  1
  F  F8  1  0.462391  0.712468  0.922885  1
  F  F9  1  0.959317  0.288804  0.575435  1
  F  F10  1  0.541718  0.290589  0.074203  1
  F  F11  1  0.041836  0.711609  0.427167  1
  F  F12  1  0.463744  0.283534  0.544996  1
  F  F13  1  0.963379  0.717791  0.951316  1
  F  F14  1  0.534963  0.715996  0.456452  1
  F  F15  1  0.036693  0.286018  0.043532  1
  F  F16  1  0.764811  0.520120  0.860024  1
  F  F17  1  0.265518  0.483402  0.640509  1
  F  F18  1  0.233044  0.484036  0.137392  1
  F  F19  1  0.734251  0.514531  0.362376  1
  F  F20  1  0.760556  0.033461  0.053815  1
  F  F21  1  0.260656  0.968983  0.446790  1
  F  F22  1  0.239791  0.969634  0.945094  1
  F  F23  1  0.739875  0.028465  0.557331  1
  F  F24  1  0.991915  0.733846  0.647475  1
  F  F25  1  0.491709  0.268248  0.854657  1
  F  F26  1  0.009910  0.267391  0.356495  1
  F  F27  1  0.508114  0.732091  0.142777  1
  F  F28  1  0.041610  0.743854  0.165873  1
  F  F29  1  0.542992  0.255196  0.332397  1
  F  F30  1  0.958106  0.257583  0.830917  1
  F  F31  1  0.462698  0.745901  0.669415  1
  F  F32  1  0.420428  0.968478  0.233131  1
  F  F33  1  0.919436  0.030545  0.266874  1
  F  F34  1  0.578281  0.024196  0.765990  1
  F  F35  1  0.070298  0.967593  0.734509  1
