# generated using pymatgen
data_HoLu7Nb2(Si8Tc5)2
_symmetry_space_group_name_H-M   'P 1'
_cell_length_a   6.77519702
_cell_length_b   6.77126414
_cell_length_c   12.67006818
_cell_angle_alpha   89.95143374
_cell_angle_beta   90.20835380
_cell_angle_gamma   89.97430714
_symmetry_Int_Tables_number   1
_chemical_formula_structural   HoLu7Nb2(Si8Tc5)2
_chemical_formula_sum   'Ho1 Lu7 Nb2 Si16 Tc10'
_cell_volume   581.25615425
_cell_formula_units_Z   1
loop_
 _symmetry_equiv_pos_site_id
 _symmetry_equiv_pos_as_xyz
  1  'x, y, z'
loop_
 _atom_site_type_symbol
 _atom_site_label
 _atom_site_symmetry_multiplicity
 _atom_site_fract_x
 _atom_site_fract_y
 _atom_site_fract_z
 _atom_site_occupancy
  Ho  Ho0  1  0.000892  0.660604  0.030372  1
  Lu  Lu1  1  0.341591  0.997290  0.471279  1
  Lu  Lu2  1  0.504822  0.841114  0.718484  1
  Lu  Lu3  1  0.498029  0.159965  0.220331  1
  Lu  Lu4  1  0.838224  0.503058  0.281497  1
  Lu  Lu5  1  0.158359  0.496947  0.778555  1
  Lu  Lu6  1  0.661378  0.003126  0.968557  1
  Lu  Lu7  1  0.995100  0.341391  0.531363  1
  Nb  Nb8  1  0.332563  0.332529  0.998676  1
  Nb  Nb9  1  0.167595  0.832854  0.251915  1
  Si  Si10  1  0.193169  0.120143  0.684243  1
  Si  Si11  1  0.376476  0.699178  0.932855  1
  Si  Si12  1  0.619847  0.307135  0.434812  1
  Si  Si13  1  0.699617  0.374908  0.066033  1
  Si  Si14  1  0.307083  0.620223  0.565415  1
  Si  Si15  1  0.798394  0.876648  0.184849  1
  Si  Si16  1  0.125101  0.199193  0.317015  1
  Si  Si17  1  0.880345  0.807541  0.814584  1
  Si  Si18  1  0.285411  0.966538  0.062437  1
  Si  Si19  1  0.535108  0.781736  0.317982  1
  Si  Si20  1  0.478117  0.224386  0.807446  1
  Si  Si21  1  0.771486  0.523928  0.686798  1
  Si  Si22  1  0.215723  0.464997  0.188439  1
  Si  Si23  1  0.728194  0.024147  0.562944  1
  Si  Si24  1  0.965083  0.279512  0.932124  1
  Si  Si25  1  0.021855  0.724527  0.442181  1
  Tc  Tc26  1  0.832891  0.168548  0.747998  1
  Tc  Tc27  1  0.666967  0.669291  0.501602  1
  Tc  Tc28  1  0.181880  0.989620  0.867595  1
  Tc  Tc29  1  0.507494  0.673632  0.123604  1
  Tc  Tc30  1  0.477745  0.315705  0.615832  1
  Tc  Tc31  1  0.675914  0.519569  0.878954  1
  Tc  Tc32  1  0.320318  0.489269  0.381861  1
  Tc  Tc33  1  0.823787  0.021004  0.370445  1
  Tc  Tc34  1  0.991054  0.173511  0.127443  1
  Tc  Tc35  1  0.022386  0.816233  0.633476  1
