# generated using pymatgen
data_Pr2Zn14Cu3
_symmetry_space_group_name_H-M   'P 1'
_cell_length_a   6.80834428
_cell_length_b   6.80834448
_cell_length_c   6.80834411
_cell_angle_alpha   82.90164982
_cell_angle_beta   97.09835255
_cell_angle_gamma   97.09834972
_symmetry_Int_Tables_number   1
_chemical_formula_structural   Pr2Zn14Cu3
_chemical_formula_sum   'Pr2 Zn14 Cu3'
_cell_volume   308.88650754
_cell_formula_units_Z   1
loop_
 _symmetry_equiv_pos_site_id
 _symmetry_equiv_pos_as_xyz
  1  'x, y, z'
loop_
 _atom_site_type_symbol
 _atom_site_label
 _atom_site_symmetry_multiplicity
 _atom_site_fract_x
 _atom_site_fract_y
 _atom_site_fract_z
 _atom_site_occupancy
  Pr  Pr0  1  0.661276  0.338723  0.338724  1
  Pr  Pr1  1  0.338723  0.661275  0.661276  1
  Zn  Zn2  1  0.707961  0.707961  0.000000  1
  Zn  Zn3  1  0.292040  0.292039  0.000000  1
  Zn  Zn4  1  0.895820  0.104179  0.104179  1
  Zn  Zn5  1  0.346988  0.653013  0.152413  1
  Zn  Zn6  1  0.292039  0.000000  0.292039  1
  Zn  Zn7  1  0.000000  0.707961  0.292040  1
  Zn  Zn8  1  0.653013  0.847586  0.346986  1
  Zn  Zn9  1  0.152414  0.346987  0.346987  1
  Zn  Zn10  1  0.346987  0.152414  0.653012  1
  Zn  Zn11  1  0.847587  0.653013  0.653012  1
  Zn  Zn12  1  0.000000  0.292040  0.707961  1
  Zn  Zn13  1  0.707961  0.000000  0.707961  1
  Zn  Zn14  1  0.653013  0.346987  0.847586  1
  Zn  Zn15  1  0.104178  0.895821  0.895821  1
  Cu  Cu16  1  0.000000  0.499999  0.999999  1
  Cu  Cu17  1  0.499999  0.000001  0.000000  1
  Cu  Cu18  1  0.000000  0.000000  0.499999  1
