# generated using pymatgen
data_Yb10In2CuNi3
_symmetry_space_group_name_H-M   'P 1'
_cell_length_a   8.86840675
_cell_length_b   8.86840647
_cell_length_c   8.89825057
_cell_angle_alpha   128.57964362
_cell_angle_beta   128.57963964
_cell_angle_gamma   75.43957362
_symmetry_Int_Tables_number   1
_chemical_formula_structural   Yb10In2CuNi3
_chemical_formula_sum   'Yb10 In2 Cu1 Ni3'
_cell_volume   416.72132808
_cell_formula_units_Z   1
loop_
 _symmetry_equiv_pos_site_id
 _symmetry_equiv_pos_as_xyz
  1  'x, y, z'
loop_
 _atom_site_type_symbol
 _atom_site_label
 _atom_site_symmetry_multiplicity
 _atom_site_fract_x
 _atom_site_fract_y
 _atom_site_fract_z
 _atom_site_occupancy
  Yb  Yb0  1  0.998403  0.004097  0.002500  1
  Yb  Yb1  1  0.504097  0.498403  0.002500  1
  Yb  Yb2  1  0.801035  0.301035  0.836792  1
  Yb  Yb3  1  0.202977  0.702977  0.174921  1
  Yb  Yb4  1  0.471943  0.971943  0.174921  1
  Yb  Yb5  1  0.303173  0.458703  0.494320  1
  Yb  Yb6  1  0.035617  0.191146  0.494320  1
  Yb  Yb7  1  0.535759  0.035759  0.836792  1
  Yb  Yb8  1  0.691146  0.535617  0.494320  1
  Yb  Yb9  1  0.958703  0.803173  0.494320  1
  In  In10  1  0.248556  0.248556  0.997112  1
  In  In11  1  0.748556  0.748556  0.997112  1
  Cu  Cu12  1  0.114055  0.614055  0.728110  1
  Ni  Ni13  1  0.885914  0.385914  0.271828  1
  Ni  Ni14  1  0.613486  0.886581  0.500066  1
  Ni  Ni15  1  0.386581  0.113486  0.500066  1
