# generated using pymatgen
data_Ti5NbRe5Si6Ru
_symmetry_space_group_name_H-M   'P 1'
_cell_length_a   7.55114194
_cell_length_b   7.54600058
_cell_length_c   7.54928592
_cell_angle_alpha   126.00761377
_cell_angle_beta   129.06082000
_cell_angle_gamma   77.42660270
_symmetry_Int_Tables_number   1
_chemical_formula_structural   Ti5NbRe5Si6Ru
_chemical_formula_sum   'Ti5 Nb1 Re5 Si6 Ru1'
_cell_volume   262.08341438
_cell_formula_units_Z   1
loop_
 _symmetry_equiv_pos_site_id
 _symmetry_equiv_pos_as_xyz
  1  'x, y, z'
loop_
 _atom_site_type_symbol
 _atom_site_label
 _atom_site_symmetry_multiplicity
 _atom_site_fract_x
 _atom_site_fract_y
 _atom_site_fract_z
 _atom_site_occupancy
  Ti  Ti0  1  0.950022  0.489709  0.038528  1
  Ti  Ti1  1  0.050142  0.100625  0.545838  1
  Ti  Ti2  1  0.452256  0.489292  0.540153  1
  Ti  Ti3  1  0.745404  0.897911  0.649407  1
  Ti  Ti4  1  0.553813  0.101706  0.050462  1
  Nb  Nb5  1  0.248953  0.898732  0.153760  1
  Re  Re6  1  0.500038  0.237115  0.738684  1
  Re  Re7  1  0.998632  0.238580  0.236784  1
  Re  Re8  1  0.869502  0.496177  0.625769  1
  Re  Re9  1  0.631464  0.758943  0.128455  1
  Re  Re10  1  0.370597  0.495181  0.127326  1
  Si  Si11  1  0.753553  0.502663  0.251128  1
  Si  Si12  1  0.164936  0.159724  0.990645  1
  Si  Si13  1  0.669504  0.161899  0.497400  1
  Si  Si14  1  0.332275  0.828005  0.501446  1
  Si  Si15  1  0.251345  0.500136  0.746564  1
  Si  Si16  1  0.828351  0.828661  0.994932  1
  Ru  Ru17  1  0.129212  0.757150  0.624931  1
