# generated using pymatgen
data_Sr6Sn8AsSe
_symmetry_space_group_name_H-M   'P 1'
_cell_length_a   8.87987007
_cell_length_b   8.87987008
_cell_length_c   8.87987015
_cell_angle_alpha   119.66866744
_cell_angle_beta   119.66867050
_cell_angle_gamma   90.57484790
_symmetry_Int_Tables_number   1
_chemical_formula_structural   Sr6Sn8AsSe
_chemical_formula_sum   'Sr6 Sn8 As1 Se1'
_cell_volume   497.56602194
_cell_formula_units_Z   1
loop_
 _symmetry_equiv_pos_site_id
 _symmetry_equiv_pos_as_xyz
  1  'x, y, z'
loop_
 _atom_site_type_symbol
 _atom_site_label
 _atom_site_symmetry_multiplicity
 _atom_site_fract_x
 _atom_site_fract_y
 _atom_site_fract_z
 _atom_site_occupancy
  Sr  Sr0  1  0.249837  0.249837  0.000000  1
  Sr  Sr1  1  0.750163  0.750163  0.000000  1
  Sr  Sr2  1  0.163364  0.675121  0.838487  1
  Sr  Sr3  1  0.836636  0.324879  0.161513  1
  Sr  Sr4  1  0.675121  0.836636  0.511757  1
  Sr  Sr5  1  0.324879  0.163364  0.488243  1
  Sn  Sn6  1  0.830461  0.331838  0.784091  1
  Sn  Sn7  1  0.169539  0.668162  0.215909  1
  Sn  Sn8  1  0.547747  0.046372  0.215909  1
  Sn  Sn9  1  0.331838  0.547747  0.501377  1
  Sn  Sn10  1  0.953628  0.169539  0.501377  1
  Sn  Sn11  1  0.452253  0.953628  0.784091  1
  Sn  Sn12  1  0.668162  0.452253  0.498623  1
  Sn  Sn13  1  0.046372  0.830461  0.498623  1
  As  As14  1  0.000000  0.000000  0.000000  1
  Se  Se15  1  0.500000  0.500000  0.000000  1
