# generated using pymatgen
data_Hf13Zr3Cu3Ir5N4
_symmetry_space_group_name_H-M   'P 1'
_cell_length_a   8.69453618
_cell_length_b   8.70982874
_cell_length_c   8.68763074
_cell_angle_alpha   60.17344668
_cell_angle_beta   60.03535222
_cell_angle_gamma   60.00904187
_symmetry_Int_Tables_number   1
_chemical_formula_structural   Hf13Zr3Cu3Ir5N4
_chemical_formula_sum   'Hf13 Zr3 Cu3 Ir5 N4'
_cell_volume   465.96619063
_cell_formula_units_Z   1
loop_
 _symmetry_equiv_pos_site_id
 _symmetry_equiv_pos_as_xyz
  1  'x, y, z'
loop_
 _atom_site_type_symbol
 _atom_site_label
 _atom_site_symmetry_multiplicity
 _atom_site_fract_x
 _atom_site_fract_y
 _atom_site_fract_z
 _atom_site_occupancy
  Hf  Hf0  1  0.134538  0.620307  0.622702  1
  Hf  Hf1  1  0.620536  0.133141  0.624158  1
  Hf  Hf2  1  0.623004  0.623947  0.132383  1
  Hf  Hf3  1  0.622629  0.622836  0.620260  1
  Hf  Hf4  1  0.819268  0.820035  0.181014  1
  Hf  Hf5  1  0.181474  0.181238  0.818891  1
  Hf  Hf6  1  0.818411  0.181771  0.818623  1
  Hf  Hf7  1  0.182966  0.817085  0.183181  1
  Hf  Hf8  1  0.183169  0.817744  0.817334  1
  Hf  Hf9  1  0.816189  0.183497  0.184143  1
  Hf  Hf10  1  0.436595  0.436490  0.065111  1
  Hf  Hf11  1  0.065461  0.065124  0.434939  1
  Hf  Hf12  1  0.434530  0.067322  0.434800  1
  Zr  Zr13  1  0.067855  0.432066  0.068176  1
  Zr  Zr14  1  0.065989  0.434147  0.434319  1
  Zr  Zr15  1  0.431243  0.068562  0.068865  1
  Cu  Cu16  1  0.770620  0.405810  0.410410  1
  Cu  Cu17  1  0.406376  0.775231  0.409963  1
  Cu  Cu18  1  0.410746  0.410230  0.771620  1
  Ir  Ir19  1  0.407752  0.404065  0.403218  1
  Ir  Ir20  1  0.486891  0.836425  0.835950  1
  Ir  Ir21  1  0.836178  0.486521  0.836783  1
  Ir  Ir22  1  0.836898  0.837841  0.487575  1
  Ir  Ir23  1  0.840009  0.839342  0.835322  1
  N  N24  1  0.626743  0.126230  0.125134  1
  N  N25  1  0.126739  0.629176  0.121581  1
  N  N26  1  0.125525  0.121476  0.626165  1
  N  N27  1  0.121666  0.122341  0.127381  1
