# generated using pymatgen
data_La2Zn8Pt3Rh
_symmetry_space_group_name_H-M   'P 1'
_cell_length_a   7.71959133
_cell_length_b   7.71959133
_cell_length_c   4.22414600
_cell_angle_alpha   90.00000000
_cell_angle_beta   90.00000000
_cell_angle_gamma   89.45806403
_symmetry_Int_Tables_number   1
_chemical_formula_structural   La2Zn8Pt3Rh
_chemical_formula_sum   'La2 Zn8 Pt3 Rh1'
_cell_volume   251.71442961
_cell_formula_units_Z   1
loop_
 _symmetry_equiv_pos_site_id
 _symmetry_equiv_pos_as_xyz
  1  'x, y, z'
loop_
 _atom_site_type_symbol
 _atom_site_label
 _atom_site_symmetry_multiplicity
 _atom_site_fract_x
 _atom_site_fract_y
 _atom_site_fract_z
 _atom_site_occupancy
  La  La0  1  0.503203  0.496797  0.500000  1
  La  La1  1  0.996292  0.003708  0.000000  1
  Zn  Zn2  1  0.352649  0.091937  0.500000  1
  Zn  Zn3  1  0.652933  0.911126  0.500000  1
  Zn  Zn4  1  0.848778  0.405322  0.000000  1
  Zn  Zn5  1  0.150908  0.592573  0.000000  1
  Zn  Zn6  1  0.088874  0.347067  0.500000  1
  Zn  Zn7  1  0.908063  0.647351  0.500000  1
  Zn  Zn8  1  0.407427  0.849092  0.000000  1
  Zn  Zn9  1  0.594678  0.151222  0.000000  1
  Pt  Pt10  1  0.218347  0.781653  0.500000  1
  Pt  Pt11  1  0.281769  0.281290  0.000000  1
  Pt  Pt12  1  0.718710  0.718231  0.000000  1
  Rh  Rh13  1  0.777367  0.222633  0.500000  1
