# generated using pymatgen
data_Tb2DyBi(AuO5)2
_symmetry_space_group_name_H-M   'P 1'
_cell_length_a   8.55546514
_cell_length_b   8.55546465
_cell_length_c   5.74562116
_cell_angle_alpha   88.78876255
_cell_angle_beta   91.21124094
_cell_angle_gamma   89.93591543
_symmetry_Int_Tables_number   1
_chemical_formula_structural   Tb2DyBi(AuO5)2
_chemical_formula_sum   'Tb4 Dy2 Bi2 Au4 O20'
_cell_volume   420.36793354
_cell_formula_units_Z   2
loop_
 _symmetry_equiv_pos_site_id
 _symmetry_equiv_pos_as_xyz
  1  'x, y, z'
loop_
 _atom_site_type_symbol
 _atom_site_label
 _atom_site_symmetry_multiplicity
 _atom_site_fract_x
 _atom_site_fract_y
 _atom_site_fract_z
 _atom_site_occupancy
  Tb  Tb0  1  0.651450  0.651796  0.750052  1
  Tb  Tb1  1  0.655254  0.353084  0.252836  1
  Tb  Tb2  1  0.848204  0.848550  0.250052  1
  Tb  Tb3  1  0.146916  0.844746  0.752836  1
  Dy  Dy4  1  0.353527  0.655360  0.247342  1
  Dy  Dy5  1  0.844640  0.146473  0.747342  1
  Bi  Bi6  1  0.357686  0.358223  0.749796  1
  Bi  Bi7  1  0.141777  0.142314  0.249796  1
  Au  Au8  1  0.495429  0.999359  0.407438  1
  Au  Au9  1  0.500641  0.004571  0.907438  1
  Au  Au10  1  0.999561  0.495636  0.092622  1
  Au  Au11  1  0.004364  0.500439  0.592622  1
  O  O12  1  0.107729  0.290064  0.600002  1
  O  O13  1  0.910778  0.278723  0.111459  1
  O  O14  1  0.909271  0.716520  0.609012  1
  O  O15  1  0.716912  0.909999  0.890283  1
  O  O16  1  0.221277  0.589222  0.611459  1
  O  O17  1  0.406391  0.789083  0.896552  1
  O  O18  1  0.392133  0.209816  0.400268  1
  O  O19  1  0.783480  0.590729  0.109012  1
  O  O20  1  0.279055  0.910166  0.386565  1
  O  O21  1  0.589834  0.220945  0.886565  1
  O  O22  1  0.491291  0.498929  0.998064  1
  O  O23  1  0.498352  0.492576  0.501799  1
  O  O24  1  0.789573  0.405056  0.605912  1
  O  O25  1  0.094944  0.710427  0.105912  1
  O  O26  1  0.290184  0.107867  0.900268  1
  O  O27  1  0.590001  0.783088  0.390283  1
  O  O28  1  0.209936  0.392271  0.100002  1
  O  O29  1  0.007424  0.001648  0.001799  1
  O  O30  1  0.001071  0.008709  0.498064  1
  O  O31  1  0.710917  0.093609  0.396552  1
