# generated using pymatgen
data_K2PrU(TlSe3)2
_symmetry_space_group_name_H-M   'P 1'
_cell_length_a   7.57820466
_cell_length_b   7.57820478
_cell_length_c   8.15495900
_cell_angle_alpha   81.14286040
_cell_angle_beta   81.14286027
_cell_angle_gamma   119.77527203
_symmetry_Int_Tables_number   1
_chemical_formula_structural   K2PrU(TlSe3)2
_chemical_formula_sum   'K2 Pr1 U1 Tl2 Se6'
_cell_volume   386.88609327
_cell_formula_units_Z   1
loop_
 _symmetry_equiv_pos_site_id
 _symmetry_equiv_pos_as_xyz
  1  'x, y, z'
loop_
 _atom_site_type_symbol
 _atom_site_label
 _atom_site_symmetry_multiplicity
 _atom_site_fract_x
 _atom_site_fract_y
 _atom_site_fract_z
 _atom_site_occupancy
  K  K0  1  0.001483  0.998517  0.500000  1
  K  K1  1  0.499671  0.500329  0.000000  1
  Pr  Pr2  1  0.167538  0.832462  0.000000  1
  U  U3  1  0.833117  0.166883  0.000000  1
  Tl  Tl4  1  0.342824  0.657176  0.500000  1
  Tl  Tl5  1  0.658911  0.341089  0.500000  1
  Se  Se6  1  0.791081  0.813477  0.204541  1
  Se  Se7  1  0.451564  0.066005  0.214277  1
  Se  Se8  1  0.042426  0.409132  0.214717  1
  Se  Se9  1  0.590868  0.957574  0.785283  1
  Se  Se10  1  0.933995  0.548436  0.785723  1
  Se  Se11  1  0.186523  0.208919  0.795459  1
