# generated using pymatgen
data_Y4Al18(NiRh)3
_symmetry_space_group_name_H-M   'P 1'
_cell_length_a   7.48965517
_cell_length_b   7.48965531
_cell_length_c   9.39734048
_cell_angle_alpha   89.96783465
_cell_angle_beta   89.96783180
_cell_angle_gamma   119.13050352
_symmetry_Int_Tables_number   1
_chemical_formula_structural   Y4Al18(NiRh)3
_chemical_formula_sum   'Y4 Al18 Ni3 Rh3'
_cell_volume   460.46625829
_cell_formula_units_Z   1
loop_
 _symmetry_equiv_pos_site_id
 _symmetry_equiv_pos_as_xyz
  1  'x, y, z'
loop_
 _atom_site_type_symbol
 _atom_site_label
 _atom_site_symmetry_multiplicity
 _atom_site_fract_x
 _atom_site_fract_y
 _atom_site_fract_z
 _atom_site_occupancy
  Y  Y0  1  0.994597  0.673145  0.249777  1
  Y  Y1  1  0.004048  0.325961  0.750376  1
  Y  Y2  1  0.674039  0.995952  0.249624  1
  Y  Y3  1  0.326855  0.005403  0.750223  1
  Al  Al4  1  0.131725  0.131958  0.249764  1
  Al  Al5  1  0.868042  0.868275  0.750236  1
  Al  Al6  1  0.998603  0.338222  0.073463  1
  Al  Al7  1  0.002493  0.663633  0.926233  1
  Al  Al8  1  0.003495  0.663123  0.573779  1
  Al  Al9  1  0.336877  0.996505  0.426221  1
  Al  Al10  1  0.003357  0.338332  0.426177  1
  Al  Al11  1  0.661668  0.996643  0.573823  1
  Al  Al12  1  0.661778  0.001397  0.926537  1
  Al  Al13  1  0.336367  0.997507  0.073767  1
  Al  Al14  1  0.333419  0.334312  0.548141  1
  Al  Al15  1  0.665688  0.666581  0.451859  1
  Al  Al16  1  0.664507  0.665521  0.048057  1
  Al  Al17  1  0.334479  0.335493  0.951943  1
  Al  Al18  1  0.341199  0.555728  0.249580  1
  Al  Al19  1  0.658319  0.447814  0.752520  1
  Al  Al20  1  0.552186  0.341681  0.247480  1
  Al  Al21  1  0.444272  0.658801  0.750420  1
  Ni  Ni22  1  0.671174  0.328826  0.000000  1
  Ni  Ni23  1  0.328405  0.671595  0.000000  1
  Ni  Ni24  1  0.329688  0.670312  0.500000  1
  Rh  Rh25  1  0.672278  0.327722  0.500000  1
  Rh  Rh26  1  0.999565  0.000435  0.000000  1
  Rh  Rh27  1  0.000876  0.999124  0.500000  1
