# generated using pymatgen
data_SmDySc3Si7Pt9
_symmetry_space_group_name_H-M   'P 1'
_cell_length_a   10.05414100
_cell_length_b   10.05414030
_cell_length_c   3.99141900
_cell_angle_alpha   90.00000000
_cell_angle_beta   90.00000000
_cell_angle_gamma   119.99999901
_symmetry_Int_Tables_number   1
_chemical_formula_structural   SmDySc3Si7Pt9
_chemical_formula_sum   'Sm1 Dy1 Sc3 Si7 Pt9'
_cell_volume   349.42008832
_cell_formula_units_Z   1
loop_
 _symmetry_equiv_pos_site_id
 _symmetry_equiv_pos_as_xyz
  1  'x, y, z'
loop_
 _atom_site_type_symbol
 _atom_site_label
 _atom_site_symmetry_multiplicity
 _atom_site_fract_x
 _atom_site_fract_y
 _atom_site_fract_z
 _atom_site_occupancy
  Sm  Sm0  1  0.000000  0.000000  0.000000  1
  Dy  Dy1  1  0.333333  0.666667  0.500000  1
  Sc  Sc2  1  0.894854  0.455248  0.500000  1
  Sc  Sc3  1  0.560395  0.105146  0.500000  1
  Sc  Sc4  1  0.544752  0.439605  0.500000  1
  Si  Si5  1  0.247707  0.196626  0.500000  1
  Si  Si6  1  0.803374  0.051082  0.500000  1
  Si  Si7  1  0.948918  0.752293  0.500000  1
  Si  Si8  1  0.556656  0.647234  0.000000  1
  Si  Si9  1  0.352766  0.909420  0.000000  1
  Si  Si10  1  0.090580  0.443344  0.000000  1
  Si  Si11  1  0.666667  0.333333  0.000000  1
  Pt  Pt12  1  0.220163  0.935659  0.500000  1
  Pt  Pt13  1  0.064341  0.284505  0.500000  1
  Pt  Pt14  1  0.715495  0.779837  0.500000  1
  Pt  Pt15  1  0.314178  0.413164  0.000000  1
  Pt  Pt16  1  0.586836  0.901015  0.000000  1
  Pt  Pt17  1  0.098985  0.685822  0.000000  1
  Pt  Pt18  1  0.384287  0.171617  0.000000  1
  Pt  Pt19  1  0.828383  0.212669  0.000000  1
  Pt  Pt20  1  0.787331  0.615713  0.000000  1
