# generated using pymatgen
data_Er4Mg3InIr4
_symmetry_space_group_name_H-M   'P 1'
_cell_length_a   4.09820100
_cell_length_b   7.04029953
_cell_length_c   8.57589927
_cell_angle_alpha   89.68439132
_cell_angle_beta   90.00000000
_cell_angle_gamma   90.00000000
_symmetry_Int_Tables_number   1
_chemical_formula_structural   Er4Mg3InIr4
_chemical_formula_sum   'Er4 Mg3 In1 Ir4'
_cell_volume   247.43291633
_cell_formula_units_Z   1
loop_
 _symmetry_equiv_pos_site_id
 _symmetry_equiv_pos_as_xyz
  1  'x, y, z'
loop_
 _atom_site_type_symbol
 _atom_site_label
 _atom_site_symmetry_multiplicity
 _atom_site_fract_x
 _atom_site_fract_y
 _atom_site_fract_z
 _atom_site_occupancy
  Er  Er0  1  0.250000  0.961526  0.329001  1
  Er  Er1  1  0.250000  0.459504  0.173378  1
  Er  Er2  1  0.750000  0.043536  0.672590  1
  Er  Er3  1  0.750000  0.537384  0.824875  1
  Mg  Mg4  1  0.250000  0.366958  0.559819  1
  Mg  Mg5  1  0.250000  0.860412  0.940001  1
  Mg  Mg6  1  0.750000  0.636142  0.441807  1
  In  In7  1  0.750000  0.134198  0.062110  1
  Ir  Ir8  1  0.250000  0.248228  0.865301  1
  Ir  Ir9  1  0.250000  0.754560  0.629884  1
  Ir  Ir10  1  0.750000  0.743761  0.130335  1
  Ir  Ir11  1  0.750000  0.253791  0.370900  1
