# generated using pymatgen
data_HoEr6TmGa3Co
_symmetry_space_group_name_H-M   'P 1'
_cell_length_a   9.91979700
_cell_length_b   9.91979762
_cell_length_c   6.85436800
_cell_angle_alpha   90.00000000
_cell_angle_beta   90.00000000
_cell_angle_gamma   120.00174134
_symmetry_Int_Tables_number   1
_chemical_formula_structural   HoEr6TmGa3Co
_chemical_formula_sum   'Ho2 Er12 Tm2 Ga6 Co2'
_cell_volume   584.11186102
_cell_formula_units_Z   2
loop_
 _symmetry_equiv_pos_site_id
 _symmetry_equiv_pos_as_xyz
  1  'x, y, z'
loop_
 _atom_site_type_symbol
 _atom_site_label
 _atom_site_symmetry_multiplicity
 _atom_site_fract_x
 _atom_site_fract_y
 _atom_site_fract_z
 _atom_site_occupancy
  Ho  Ho0  1  0.000027  0.999973  0.269914  1
  Ho  Ho1  1  0.999973  0.000027  0.769914  1
  Er  Er2  1  0.173212  0.346432  0.991240  1
  Er  Er3  1  0.653568  0.826788  0.991240  1
  Er  Er4  1  0.346432  0.173212  0.491240  1
  Er  Er5  1  0.826788  0.653568  0.491240  1
  Er  Er6  1  0.333263  0.666737  0.672306  1
  Er  Er7  1  0.666737  0.333263  0.172306  1
  Er  Er8  1  0.464041  0.535959  0.292988  1
  Er  Er9  1  0.535959  0.464041  0.792988  1
  Er  Er10  1  0.464053  0.928143  0.292944  1
  Er  Er11  1  0.071857  0.535947  0.292944  1
  Er  Er12  1  0.928143  0.464053  0.792944  1
  Er  Er13  1  0.535947  0.071857  0.792944  1
  Tm  Tm14  1  0.173313  0.826687  0.991262  1
  Tm  Tm15  1  0.826687  0.173313  0.491262  1
  Ga  Ga16  1  0.163565  0.836435  0.540271  1
  Ga  Ga17  1  0.836435  0.163565  0.040271  1
  Ga  Ga18  1  0.163302  0.327023  0.540010  1
  Ga  Ga19  1  0.672977  0.836698  0.540010  1
  Ga  Ga20  1  0.327023  0.163302  0.040010  1
  Ga  Ga21  1  0.836698  0.672977  0.040010  1
  Co  Co22  1  0.333223  0.666777  0.057932  1
  Co  Co23  1  0.666777  0.333223  0.557932  1
