# generated using pymatgen
data_Er5RuPbO12
_symmetry_space_group_name_H-M   'P 1'
_cell_length_a   6.43907711
_cell_length_b   6.47009856
_cell_length_c   6.36667555
_cell_angle_alpha   98.20159635
_cell_angle_beta   98.88744277
_cell_angle_gamma   99.39203646
_symmetry_Int_Tables_number   1
_chemical_formula_structural   Er5RuPbO12
_chemical_formula_sum   'Er5 Ru1 Pb1 O12'
_cell_volume   254.68452840
_cell_formula_units_Z   1
loop_
 _symmetry_equiv_pos_site_id
 _symmetry_equiv_pos_as_xyz
  1  'x, y, z'
loop_
 _atom_site_type_symbol
 _atom_site_label
 _atom_site_symmetry_multiplicity
 _atom_site_fract_x
 _atom_site_fract_y
 _atom_site_fract_z
 _atom_site_occupancy
  Er  Er0  1  0.140978  0.614195  0.309424  1
  Er  Er1  1  0.694974  0.860747  0.389276  1
  Er  Er2  1  0.297535  0.137861  0.609379  1
  Er  Er3  1  0.868072  0.390107  0.697363  1
  Er  Er4  1  0.385767  0.696424  0.854540  1
  Ru  Ru5  1  0.996020  0.995918  0.001585  1
  Pb  Pb6  1  0.603279  0.317918  0.143278  1
  O  O7  1  0.700869  0.912206  0.033004  1
  O  O8  1  0.955183  0.297152  0.074265  1
  O  O9  1  0.430623  0.587977  0.177667  1
  O  O10  1  0.067506  0.956533  0.304977  1
  O  O11  1  0.823133  0.570776  0.416925  1
  O  O12  1  0.589364  0.182081  0.425341  1
  O  O13  1  0.412860  0.830137  0.562877  1
  O  O14  1  0.183322  0.436958  0.591333  1
  O  O15  1  0.932511  0.045655  0.694820  1
  O  O16  1  0.567532  0.403613  0.825901  1
  O  O17  1  0.044022  0.696742  0.929399  1
  O  O18  1  0.306454  0.067001  0.958645  1
