# generated using pymatgen
data_LiCa21Ga13Sb
_symmetry_space_group_name_H-M   'P 1'
_cell_length_a   11.35215324
_cell_length_b   11.31612418
_cell_length_c   11.35215400
_cell_angle_alpha   60.10493597
_cell_angle_beta   59.79012872
_cell_angle_gamma   60.10493833
_symmetry_Int_Tables_number   1
_chemical_formula_structural   LiCa21Ga13Sb
_chemical_formula_sum   'Li1 Ca21 Ga13 Sb1'
_cell_volume   1031.17057886
_cell_formula_units_Z   1
loop_
 _symmetry_equiv_pos_site_id
 _symmetry_equiv_pos_as_xyz
  1  'x, y, z'
loop_
 _atom_site_type_symbol
 _atom_site_label
 _atom_site_symmetry_multiplicity
 _atom_site_fract_x
 _atom_site_fract_y
 _atom_site_fract_z
 _atom_site_occupancy
  Li  Li0  1  0.503601  0.496399  0.503601  1
  Ca  Ca1  1  0.997351  0.002649  0.997351  1
  Ca  Ca2  1  0.127397  0.135227  0.127397  1
  Ca  Ca3  1  0.390021  0.872603  0.864773  1
  Ca  Ca4  1  0.870574  0.388137  0.870574  1
  Ca  Ca5  1  0.864773  0.872603  0.390021  1
  Ca  Ca6  1  0.127397  0.609979  0.127397  1
  Ca  Ca7  1  0.129286  0.129426  0.611863  1
  Ca  Ca8  1  0.611863  0.129426  0.129286  1
  Ca  Ca9  1  0.870574  0.870714  0.870574  1
  Ca  Ca10  1  0.499945  0.829838  0.499945  1
  Ca  Ca11  1  0.829547  0.499613  0.500387  1
  Ca  Ca12  1  0.506032  0.830684  0.169316  1
  Ca  Ca13  1  0.170162  0.500055  0.829729  1
  Ca  Ca14  1  0.829729  0.500055  0.170162  1
  Ca  Ca15  1  0.500387  0.499613  0.829547  1
  Ca  Ca16  1  0.169316  0.830684  0.506032  1
  Ca  Ca17  1  0.500387  0.170453  0.829547  1
  Ca  Ca18  1  0.506032  0.493968  0.169316  1
  Ca  Ca19  1  0.829547  0.170453  0.500387  1
  Ca  Ca20  1  0.169316  0.493968  0.506032  1
  Ca  Ca21  1  0.499945  0.170271  0.499945  1
  Ga  Ga22  1  0.216534  0.783466  0.783407  1
  Ga  Ga23  1  0.783407  0.216593  0.216534  1
  Ga  Ga24  1  0.783407  0.783466  0.216534  1
  Ga  Ga25  1  0.216534  0.216593  0.783407  1
  Ga  Ga26  1  0.780987  0.219013  0.780987  1
  Ga  Ga27  1  0.308805  0.310084  0.308804  1
  Ga  Ga28  1  0.927694  0.691196  0.689916  1
  Ga  Ga29  1  0.690778  0.929460  0.690778  1
  Ga  Ga30  1  0.689916  0.691196  0.927694  1
  Ga  Ga31  1  0.308804  0.072306  0.308804  1
  Ga  Ga32  1  0.311016  0.309222  0.070540  1
  Ga  Ga33  1  0.070540  0.309222  0.311016  1
  Ga  Ga34  1  0.690778  0.688984  0.690777  1
  Sb  Sb35  1  0.217623  0.782377  0.217623  1
