# generated using pymatgen
data_Er10Sn3Hg5Pd4
_symmetry_space_group_name_H-M   'P 1'
_cell_length_a   3.67044600
_cell_length_b   7.95025706
_cell_length_c   17.90591356
_cell_angle_alpha   89.66178376
_cell_angle_beta   90.00000000
_cell_angle_gamma   90.00000000
_symmetry_Int_Tables_number   1
_chemical_formula_structural   Er10Sn3Hg5Pd4
_chemical_formula_sum   'Er10 Sn3 Hg5 Pd4'
_cell_volume   522.50316712
_cell_formula_units_Z   1
loop_
 _symmetry_equiv_pos_site_id
 _symmetry_equiv_pos_as_xyz
  1  'x, y, z'
loop_
 _atom_site_type_symbol
 _atom_site_label
 _atom_site_symmetry_multiplicity
 _atom_site_fract_x
 _atom_site_fract_y
 _atom_site_fract_z
 _atom_site_occupancy
  Er  Er0  1  0.000000  0.497498  0.499639  1
  Er  Er1  1  0.000000  0.002553  0.000479  1
  Er  Er2  1  0.000000  0.740151  0.286085  1
  Er  Er3  1  0.000000  0.266781  0.712948  1
  Er  Er4  1  0.000000  0.758114  0.784446  1
  Er  Er5  1  0.000000  0.239767  0.213172  1
  Er  Er6  1  0.000000  0.615189  0.084008  1
  Er  Er7  1  0.000000  0.386398  0.915136  1
  Er  Er8  1  0.000000  0.883734  0.586238  1
  Er  Er9  1  0.000000  0.108770  0.416533  1
  Sn  Sn10  1  0.500000  0.411139  0.350006  1
  Sn  Sn11  1  0.500000  0.915293  0.150043  1
  Sn  Sn12  1  0.500000  0.083470  0.851083  1
  Hg  Hg13  1  0.500000  0.706563  0.935922  1
  Hg  Hg14  1  0.500000  0.296926  0.064845  1
  Hg  Hg15  1  0.500000  0.792198  0.436143  1
  Hg  Hg16  1  0.500000  0.203706  0.563746  1
  Hg  Hg17  1  0.500000  0.584464  0.647483  1
  Pd  Pd18  1  0.500000  0.530966  0.198284  1
  Pd  Pd19  1  0.500000  0.470130  0.803055  1
  Pd  Pd20  1  0.500000  0.975981  0.698825  1
  Pd  Pd21  1  0.500000  0.030208  0.301880  1
