# generated using pymatgen
data_Sc3FeSi(PIr)2
_symmetry_space_group_name_H-M   'P 1'
_cell_length_a   6.41096032
_cell_length_b   6.32442511
_cell_length_c   3.79684900
_cell_angle_alpha   90.00000000
_cell_angle_beta   90.00000000
_cell_angle_gamma   119.55449573
_symmetry_Int_Tables_number   1
_chemical_formula_structural   Sc3FeSi(PIr)2
_chemical_formula_sum   'Sc3 Fe1 Si1 P2 Ir2'
_cell_volume   133.91532550
_cell_formula_units_Z   1
loop_
 _symmetry_equiv_pos_site_id
 _symmetry_equiv_pos_as_xyz
  1  'x, y, z'
loop_
 _atom_site_type_symbol
 _atom_site_label
 _atom_site_symmetry_multiplicity
 _atom_site_fract_x
 _atom_site_fract_y
 _atom_site_fract_z
 _atom_site_occupancy
  Sc  Sc0  1  0.000000  0.426874  0.500000  1
  Sc  Sc1  1  0.573193  0.578199  0.500000  1
  Sc  Sc2  1  0.426807  0.005005  0.500000  1
  Fe  Fe3  1  0.000000  0.753459  0.000000  1
  Si  Si4  1  0.000000  0.979847  0.500000  1
  P  P5  1  0.676053  0.346539  0.000000  1
  P  P6  1  0.323947  0.670487  0.000000  1
  Ir  Ir7  1  0.244992  0.242290  0.000000  1
  Ir  Ir8  1  0.755008  0.997298  0.000000  1
