# generated using pymatgen
data_Sr2YbTmBi3
_symmetry_space_group_name_H-M   'P 1'
_cell_length_a   8.32448410
_cell_length_b   8.57907969
_cell_length_c   8.64745371
_cell_angle_alpha   110.34387343
_cell_angle_beta   108.79753536
_cell_angle_gamma   108.83023373
_symmetry_Int_Tables_number   1
_chemical_formula_structural   Sr2YbTmBi3
_chemical_formula_sum   'Sr4 Yb2 Tm2 Bi6'
_cell_volume   477.89574922
_cell_formula_units_Z   2
loop_
 _symmetry_equiv_pos_site_id
 _symmetry_equiv_pos_as_xyz
  1  'x, y, z'
loop_
 _atom_site_type_symbol
 _atom_site_label
 _atom_site_symmetry_multiplicity
 _atom_site_fract_x
 _atom_site_fract_y
 _atom_site_fract_z
 _atom_site_occupancy
  Sr  Sr0  1  0.502752  0.999007  0.644198  1
  Sr  Sr1  1  0.355710  0.355103  0.356109  1
  Sr  Sr2  1  0.503745  0.000993  0.145191  1
  Sr  Sr3  1  0.000607  0.644897  0.501007  1
  Yb  Yb4  1  0.858391  0.855704  0.859909  1
  Yb  Yb5  1  0.002688  0.144296  0.504206  1
  Tm  Tm6  1  0.136721  0.498298  0.998314  1
  Tm  Tm7  1  0.638423  0.501702  0.000016  1
  Bi  Bi8  1  0.379482  0.614526  0.762990  1
  Bi  Bi9  1  0.879569  0.258962  0.115548  1
  Bi  Bi10  1  0.620608  0.741038  0.356587  1
  Bi  Bi11  1  0.106366  0.856385  0.231923  1
  Bi  Bi12  1  0.249981  0.143615  0.875539  1
  Bi  Bi13  1  0.764955  0.385474  0.648463  1
