# generated using pymatgen
data_Dy13Ho3Zn3InRh4
_symmetry_space_group_name_H-M   'P 1'
_cell_length_a   9.54590214
_cell_length_b   9.54590101
_cell_length_c   9.53963926
_cell_angle_alpha   59.90562916
_cell_angle_beta   59.90563300
_cell_angle_gamma   59.93722606
_symmetry_Int_Tables_number   1
_chemical_formula_structural   Dy13Ho3Zn3InRh4
_chemical_formula_sum   'Dy13 Ho3 Zn3 In1 Rh4'
_cell_volume   613.51338601
_cell_formula_units_Z   1
loop_
 _symmetry_equiv_pos_site_id
 _symmetry_equiv_pos_as_xyz
  1  'x, y, z'
loop_
 _atom_site_type_symbol
 _atom_site_label
 _atom_site_symmetry_multiplicity
 _atom_site_fract_x
 _atom_site_fract_y
 _atom_site_fract_z
 _atom_site_occupancy
  Dy  Dy0  1  0.934825  0.934825  0.558768  1
  Dy  Dy1  1  0.146989  0.146989  0.557210  1
  Dy  Dy2  1  0.563339  0.936602  0.562932  1
  Dy  Dy3  1  0.147930  0.147930  0.148304  1
  Dy  Dy4  1  0.309191  0.309191  0.691480  1
  Dy  Dy5  1  0.936602  0.563339  0.562932  1
  Dy  Dy6  1  0.562965  0.562965  0.937068  1
  Dy  Dy7  1  0.558847  0.934562  0.935236  1
  Dy  Dy8  1  0.934562  0.558847  0.935236  1
  Dy  Dy9  1  0.146657  0.557600  0.147191  1
  Dy  Dy10  1  0.309654  0.691160  0.690758  1
  Dy  Dy11  1  0.691160  0.309654  0.690758  1
  Dy  Dy12  1  0.557600  0.146657  0.147191  1
  Ho  Ho13  1  0.691566  0.309380  0.308844  1
  Ho  Ho14  1  0.691033  0.691033  0.309304  1
  Ho  Ho15  1  0.309380  0.691566  0.308844  1
  Zn  Zn16  1  0.921274  0.921274  0.243300  1
  Zn  Zn17  1  0.243226  0.921266  0.921433  1
  Zn  Zn18  1  0.921266  0.243226  0.921433  1
  In  In19  1  0.922203  0.922203  0.922396  1
  Rh  Rh20  1  0.357554  0.357554  0.356985  1
  Rh  Rh21  1  0.928734  0.356949  0.356465  1
  Rh  Rh22  1  0.356495  0.356495  0.929468  1
  Rh  Rh23  1  0.356949  0.928734  0.356465  1
