# generated using pymatgen
data_Ti11Al(TcIr)6
_symmetry_space_group_name_H-M   'P 1'
_cell_length_a   4.37366600
_cell_length_b   6.20138100
_cell_length_c   13.13454400
_cell_angle_alpha   90.00001796
_cell_angle_beta   89.99803599
_cell_angle_gamma   90.00002234
_symmetry_Int_Tables_number   1
_chemical_formula_structural   Ti11Al(TcIr)6
_chemical_formula_sum   'Ti11 Al1 Tc6 Ir6'
_cell_volume   356.24520578
_cell_formula_units_Z   1
loop_
 _symmetry_equiv_pos_site_id
 _symmetry_equiv_pos_as_xyz
  1  'x, y, z'
loop_
 _atom_site_type_symbol
 _atom_site_label
 _atom_site_symmetry_multiplicity
 _atom_site_fract_x
 _atom_site_fract_y
 _atom_site_fract_z
 _atom_site_occupancy
  Ti  Ti0  1  0.500000  0.749001  0.000000  1
  Ti  Ti1  1  0.000080  0.249416  0.162976  1
  Ti  Ti2  1  0.000074  0.750468  0.165729  1
  Ti  Ti3  1  0.500074  0.251710  0.332555  1
  Ti  Ti4  1  0.500075  0.750847  0.332701  1
  Ti  Ti5  1  0.999999  0.249093  0.500000  1
  Ti  Ti6  1  0.999999  0.749927  0.500000  1
  Ti  Ti7  1  0.499926  0.251710  0.667445  1
  Ti  Ti8  1  0.499925  0.750847  0.667298  1
  Ti  Ti9  1  0.999919  0.249416  0.837024  1
  Ti  Ti10  1  0.999927  0.750469  0.834271  1
  Al  Al11  1  0.500000  0.249742  0.000000  1
  Tc  Tc12  1  0.000000  0.994894  0.999999  1
  Tc  Tc13  1  0.500068  0.501003  0.168237  1
  Tc  Tc14  1  0.000070  0.000981  0.333217  1
  Tc  Tc15  1  0.499999  0.499283  0.500001  1
  Tc  Tc16  1  0.999930  0.000984  0.666783  1
  Tc  Tc17  1  0.499931  0.501000  0.831761  1
  Ir  Ir18  1  0.000001  0.497508  0.999999  1
  Ir  Ir19  1  0.500070  0.000760  0.166683  1
  Ir  Ir20  1  0.000074  0.500037  0.333433  1
  Ir  Ir21  1  0.500000  0.000111  0.500001  1
  Ir  Ir22  1  0.999926  0.500034  0.666567  1
  Ir  Ir23  1  0.499930  0.000762  0.833316  1
