# generated using pymatgen
data_NdTh2Al3IrRh2
_symmetry_space_group_name_H-M   'P 1'
_cell_length_a   7.25581356
_cell_length_b   7.14114772
_cell_length_c   4.13865400
_cell_angle_alpha   90.00000000
_cell_angle_beta   90.00000000
_cell_angle_gamma   119.47859154
_symmetry_Int_Tables_number   1
_chemical_formula_structural   NdTh2Al3IrRh2
_chemical_formula_sum   'Nd1 Th2 Al3 Ir1 Rh2'
_cell_volume   186.68172177
_cell_formula_units_Z   1
loop_
 _symmetry_equiv_pos_site_id
 _symmetry_equiv_pos_as_xyz
  1  'x, y, z'
loop_
 _atom_site_type_symbol
 _atom_site_label
 _atom_site_symmetry_multiplicity
 _atom_site_fract_x
 _atom_site_fract_y
 _atom_site_fract_z
 _atom_site_occupancy
  Nd  Nd0  1  0.000000  0.418702  0.500000  1
  Th  Th1  1  0.580102  0.582646  0.500000  1
  Th  Th2  1  0.419898  0.002544  0.500000  1
  Al  Al3  1  0.000000  0.762112  0.000000  1
  Al  Al4  1  0.221329  0.228163  0.000000  1
  Al  Al5  1  0.778671  0.006834  0.000000  1
  Ir  Ir6  1  0.000000  0.983559  0.500000  1
  Rh  Rh7  1  0.359122  0.687282  0.000000  1
  Rh  Rh8  1  0.640878  0.328159  0.000000  1
