# generated using pymatgen
data_AcDyZn5Ge
_symmetry_space_group_name_H-M   'P 1'
_cell_length_a   8.37797400
_cell_length_b   8.37797276
_cell_length_c   8.94214700
_cell_angle_alpha   90.00000000
_cell_angle_beta   90.00000000
_cell_angle_gamma   149.35566390
_symmetry_Int_Tables_number   1
_chemical_formula_structural   AcDyZn5Ge
_chemical_formula_sum   'Ac2 Dy2 Zn10 Ge2'
_cell_volume   319.91943451
_cell_formula_units_Z   2
loop_
 _symmetry_equiv_pos_site_id
 _symmetry_equiv_pos_as_xyz
  1  'x, y, z'
loop_
 _atom_site_type_symbol
 _atom_site_label
 _atom_site_symmetry_multiplicity
 _atom_site_fract_x
 _atom_site_fract_y
 _atom_site_fract_z
 _atom_site_occupancy
  Ac  Ac0  1  0.000000  0.000000  0.500000  1
  Ac  Ac1  1  0.000000  0.000000  0.000000  1
  Dy  Dy2  1  0.203248  0.796752  0.250000  1
  Dy  Dy3  1  0.796752  0.203248  0.750000  1
  Zn  Zn4  1  0.811783  0.188217  0.388598  1
  Zn  Zn5  1  0.188217  0.811783  0.611402  1
  Zn  Zn6  1  0.811783  0.188217  0.111402  1
  Zn  Zn7  1  0.188217  0.811783  0.888598  1
  Zn  Zn8  1  0.659304  0.340696  0.479000  1
  Zn  Zn9  1  0.340696  0.659304  0.521000  1
  Zn  Zn10  1  0.659304  0.340696  0.021000  1
  Zn  Zn11  1  0.340696  0.659304  0.979000  1
  Zn  Zn12  1  0.400045  0.599955  0.250000  1
  Zn  Zn13  1  0.599955  0.400045  0.750000  1
  Ge  Ge14  1  0.564565  0.435435  0.250000  1
  Ge  Ge15  1  0.435435  0.564565  0.750000  1
