# generated using pymatgen
data_Zr8Ga5Si3
_symmetry_space_group_name_H-M   'P 1'
_cell_length_a   14.44674505
_cell_length_b   3.84410500
_cell_length_c   5.45405654
_cell_angle_alpha   90.00000000
_cell_angle_beta   89.91408112
_cell_angle_gamma   90.00000000
_symmetry_Int_Tables_number   1
_chemical_formula_structural   Zr8Ga5Si3
_chemical_formula_sum   'Zr8 Ga5 Si3'
_cell_volume   302.88962504
_cell_formula_units_Z   1
loop_
 _symmetry_equiv_pos_site_id
 _symmetry_equiv_pos_as_xyz
  1  'x, y, z'
loop_
 _atom_site_type_symbol
 _atom_site_label
 _atom_site_symmetry_multiplicity
 _atom_site_fract_x
 _atom_site_fract_y
 _atom_site_fract_z
 _atom_site_occupancy
  Zr  Zr0  1  0.214778  0.250001  0.995892  1
  Zr  Zr1  1  0.038233  0.749999  0.244075  1
  Zr  Zr2  1  0.536108  0.749999  0.253784  1
  Zr  Zr3  1  0.710022  0.250001  0.500008  1
  Zr  Zr4  1  0.287696  0.749999  0.509360  1
  Zr  Zr5  1  0.462267  0.250001  0.748798  1
  Zr  Zr6  1  0.966485  0.250001  0.753370  1
  Zr  Zr7  1  0.785146  0.749999  0.994286  1
  Ga  Ga8  1  0.644860  0.250001  0.017639  1
  Ga  Ga9  1  0.895463  0.250001  0.232403  1
  Ga  Ga10  1  0.395239  0.250001  0.267210  1
  Ga  Ga11  1  0.146727  0.250001  0.481494  1
  Ga  Ga12  1  0.854284  0.749999  0.516612  1
  Si  Si13  1  0.602639  0.749999  0.734935  1
  Si  Si14  1  0.105301  0.749999  0.762719  1
  Si  Si15  1  0.354751  0.749999  0.987399  1
