# generated using pymatgen
data_Hf2Ti3Ru2
_symmetry_space_group_name_H-M   'P 1'
_cell_length_a   7.14833378
_cell_length_b   7.14833272
_cell_length_c   7.14833218
_cell_angle_alpha   37.21263716
_cell_angle_beta   37.21263595
_cell_angle_gamma   37.21263846
_symmetry_Int_Tables_number   1
_chemical_formula_structural   Hf2Ti3Ru2
_chemical_formula_sum   'Hf2 Ti3 Ru2'
_cell_volume   119.75216549
_cell_formula_units_Z   1
loop_
 _symmetry_equiv_pos_site_id
 _symmetry_equiv_pos_as_xyz
  1  'x, y, z'
loop_
 _atom_site_type_symbol
 _atom_site_label
 _atom_site_symmetry_multiplicity
 _atom_site_fract_x
 _atom_site_fract_y
 _atom_site_fract_z
 _atom_site_occupancy
  Hf  Hf0  1  0.193890  0.193890  0.193890  1
  Hf  Hf1  1  0.765802  0.765802  0.765802  1
  Ti  Ti2  1  0.341575  0.341575  0.341575  1
  Ti  Ti3  1  0.613026  0.613026  0.613026  1
  Ti  Ti4  1  0.926875  0.926875  0.926875  1
  Ru  Ru5  1  0.051943  0.051943  0.051943  1
  Ru  Ru6  1  0.481886  0.481886  0.481886  1
