# generated using pymatgen
data_TbDy3Er4(WO6)4
_symmetry_space_group_name_H-M   'P 1'
_cell_length_a   5.39157600
_cell_length_b   7.69293266
_cell_length_c   11.42892550
_cell_angle_alpha   75.47181731
_cell_angle_beta   90.00000000
_cell_angle_gamma   90.00000000
_symmetry_Int_Tables_number   1
_chemical_formula_structural   TbDy3Er4(WO6)4
_chemical_formula_sum   'Tb1 Dy3 Er4 W4 O24'
_cell_volume   458.88023613
_cell_formula_units_Z   1
loop_
 _symmetry_equiv_pos_site_id
 _symmetry_equiv_pos_as_xyz
  1  'x, y, z'
loop_
 _atom_site_type_symbol
 _atom_site_label
 _atom_site_symmetry_multiplicity
 _atom_site_fract_x
 _atom_site_fract_y
 _atom_site_fract_z
 _atom_site_occupancy
  Tb  Tb0  1  0.684080  0.500000  0.250000  1
  Dy  Dy1  1  0.316090  0.500000  0.750000  1
  Dy  Dy2  1  0.741214  0.000000  0.250000  1
  Dy  Dy3  1  0.258830  0.000000  0.750000  1
  Er  Er4  1  0.183325  0.206063  0.421883  1
  Er  Er5  1  0.183325  0.793937  0.078117  1
  Er  Er6  1  0.816777  0.793635  0.578297  1
  Er  Er7  1  0.816777  0.206365  0.921703  1
  W  W8  1  0.256049  0.276076  0.114365  1
  W  W9  1  0.256049  0.723924  0.385635  1
  W  W10  1  0.743943  0.723771  0.885205  1
  W  W11  1  0.743943  0.276229  0.614795  1
  O  O12  1  0.456675  0.208495  0.273602  1
  O  O13  1  0.456675  0.791505  0.226398  1
  O  O14  1  0.542997  0.791069  0.726379  1
  O  O15  1  0.542997  0.208931  0.773621  1
  O  O16  1  0.045918  0.059728  0.103426  1
  O  O17  1  0.045918  0.940272  0.396574  1
  O  O18  1  0.953950  0.940306  0.896390  1
  O  O19  1  0.953950  0.059694  0.603610  1
  O  O20  1  0.981717  0.287877  0.229083  1
  O  O21  1  0.981717  0.712123  0.270917  1
  O  O22  1  0.019150  0.711237  0.771029  1
  O  O23  1  0.019150  0.288763  0.728971  1
  O  O24  1  0.850821  0.365359  0.451476  1
  O  O25  1  0.850821  0.634641  0.048524  1
  O  O26  1  0.149647  0.634583  0.549009  1
  O  O27  1  0.149647  0.365417  0.950991  1
  O  O28  1  0.640228  0.510739  0.614126  1
  O  O29  1  0.640228  0.489261  0.885874  1
  O  O30  1  0.358403  0.489132  0.386339  1
  O  O31  1  0.358403  0.510868  0.113661  1
  O  O32  1  0.463829  0.154913  0.568481  1
  O  O33  1  0.463829  0.845087  0.931519  1
  O  O34  1  0.536466  0.845092  0.431524  1
  O  O35  1  0.536466  0.154908  0.068476  1
