# generated using pymatgen
data_Er5In4AgPt
_symmetry_space_group_name_H-M   'P 1'
_cell_length_a   3.62542800
_cell_length_b   8.14787212
_cell_length_c   18.28723826
_cell_angle_alpha   90.01938314
_cell_angle_beta   90.00000000
_cell_angle_gamma   90.00000000
_symmetry_Int_Tables_number   1
_chemical_formula_structural   Er5In4AgPt
_chemical_formula_sum   'Er10 In8 Ag2 Pt2'
_cell_volume   540.19627734
_cell_formula_units_Z   2
loop_
 _symmetry_equiv_pos_site_id
 _symmetry_equiv_pos_as_xyz
  1  'x, y, z'
loop_
 _atom_site_type_symbol
 _atom_site_label
 _atom_site_symmetry_multiplicity
 _atom_site_fract_x
 _atom_site_fract_y
 _atom_site_fract_z
 _atom_site_occupancy
  Er  Er0  1  0.000000  0.122444  0.420776  1
  Er  Er1  1  0.000000  0.877556  0.579224  1
  Er  Er2  1  0.000000  0.383779  0.915988  1
  Er  Er3  1  0.000000  0.616221  0.084012  1
  Er  Er4  1  0.000000  0.255180  0.216365  1
  Er  Er5  1  0.000000  0.744820  0.783635  1
  Er  Er6  1  0.000000  0.272152  0.721166  1
  Er  Er7  1  0.000000  0.727848  0.278834  1
  Er  Er8  1  0.000000  0.000000  0.000000  1
  Er  Er9  1  0.000000  0.500000  0.500000  1
  In  In10  1  0.500000  0.421495  0.352145  1
  In  In11  1  0.500000  0.578505  0.647855  1
  In  In12  1  0.500000  0.076208  0.851750  1
  In  In13  1  0.500000  0.923792  0.148250  1
  In  In14  1  0.500000  0.291573  0.065708  1
  In  In15  1  0.500000  0.708427  0.934292  1
  In  In16  1  0.500000  0.208734  0.567351  1
  In  In17  1  0.500000  0.791266  0.432649  1
  Ag  Ag18  1  0.500000  0.025751  0.302123  1
  Ag  Ag19  1  0.500000  0.974249  0.697877  1
  Pt  Pt20  1  0.500000  0.473539  0.803527  1
  Pt  Pt21  1  0.500000  0.526461  0.196473  1
