# generated using pymatgen
data_CsMnVO4
_symmetry_space_group_name_H-M   'P 1'
_cell_length_a   5.89866400
_cell_length_b   9.56259130
_cell_length_c   10.04464438
_cell_angle_alpha   89.48078244
_cell_angle_beta   90.00000000
_cell_angle_gamma   90.00000000
_symmetry_Int_Tables_number   1
_chemical_formula_structural   CsMnVO4
_chemical_formula_sum   'Cs4 Mn4 V4 O16'
_cell_volume   566.56010018
_cell_formula_units_Z   4
loop_
 _symmetry_equiv_pos_site_id
 _symmetry_equiv_pos_as_xyz
  1  'x, y, z'
loop_
 _atom_site_type_symbol
 _atom_site_label
 _atom_site_symmetry_multiplicity
 _atom_site_fract_x
 _atom_site_fract_y
 _atom_site_fract_z
 _atom_site_occupancy
  Cs  Cs0  1  0.994695  0.997219  0.194720  1
  Cs  Cs1  1  0.494695  0.002781  0.805280  1
  Cs  Cs2  1  0.021432  0.504285  0.289038  1
  Cs  Cs3  1  0.521432  0.495715  0.710962  1
  Mn  Mn4  1  0.533000  0.317156  0.077887  1
  Mn  Mn5  1  0.033000  0.682844  0.922113  1
  Mn  Mn6  1  0.998988  0.181609  0.588306  1
  Mn  Mn7  1  0.498988  0.818391  0.411694  1
  V  V8  1  0.530146  0.700407  0.076708  1
  V  V9  1  0.030146  0.299593  0.923292  1
  V  V10  1  0.501390  0.198596  0.406612  1
  V  V11  1  0.001390  0.801404  0.593388  1
  O  O12  1  0.101441  0.282558  0.755483  1
  O  O13  1  0.601441  0.717442  0.244517  1
  O  O14  1  0.010544  0.474827  0.963193  1
  O  O15  1  0.510544  0.525173  0.036807  1
  O  O16  1  0.239242  0.220248  0.022778  1
  O  O17  1  0.739242  0.779752  0.977222  1
  O  O18  1  0.525705  0.024401  0.360528  1
  O  O19  1  0.025705  0.975599  0.639472  1
  O  O20  1  0.602457  0.303030  0.275750  1
  O  O21  1  0.102457  0.696970  0.724250  1
  O  O22  1  0.215933  0.238636  0.438140  1
  O  O23  1  0.715933  0.761364  0.561860  1
  O  O24  1  0.269315  0.779956  0.039795  1
  O  O25  1  0.769315  0.220044  0.960205  1
  O  O26  1  0.666714  0.229463  0.548608  1
  O  O27  1  0.166714  0.770537  0.451392  1
