# generated using pymatgen
data_Tb6GdCoCl12
_symmetry_space_group_name_H-M   'P 1'
_cell_length_a   8.99142164
_cell_length_b   8.99142286
_cell_length_c   8.99142400
_cell_angle_alpha   107.81867513
_cell_angle_beta   107.81866423
_cell_angle_gamma   107.81866852
_symmetry_Int_Tables_number   1
_chemical_formula_structural   Tb6GdCoCl12
_chemical_formula_sum   'Tb6 Gd1 Co1 Cl12'
_cell_volume   591.34366985
_cell_formula_units_Z   1
loop_
 _symmetry_equiv_pos_site_id
 _symmetry_equiv_pos_as_xyz
  1  'x, y, z'
loop_
 _atom_site_type_symbol
 _atom_site_label
 _atom_site_symmetry_multiplicity
 _atom_site_fract_x
 _atom_site_fract_y
 _atom_site_fract_z
 _atom_site_occupancy
  Tb  Tb0  1  0.313351  0.105850  0.023238  1
  Tb  Tb1  1  0.023238  0.313351  0.105850  1
  Tb  Tb2  1  0.105850  0.023238  0.313351  1
  Tb  Tb3  1  0.686649  0.894150  0.976762  1
  Tb  Tb4  1  0.976762  0.686649  0.894150  1
  Tb  Tb5  1  0.894150  0.976762  0.686649  1
  Gd  Gd6  1  0.500000  0.500000  0.500000  1
  Co  Co7  1  0.000000  0.000000  0.000000  1
  Cl  Cl8  1  0.683612  0.214208  0.072016  1
  Cl  Cl9  1  0.072016  0.683612  0.214208  1
  Cl  Cl10  1  0.214208  0.072016  0.683612  1
  Cl  Cl11  1  0.316388  0.785792  0.927984  1
  Cl  Cl12  1  0.927984  0.316388  0.785792  1
  Cl  Cl13  1  0.785792  0.927984  0.316388  1
  Cl  Cl14  1  0.460349  0.167187  0.380917  1
  Cl  Cl15  1  0.380917  0.460349  0.167187  1
  Cl  Cl16  1  0.167187  0.380917  0.460349  1
  Cl  Cl17  1  0.539651  0.832813  0.619083  1
  Cl  Cl18  1  0.619083  0.539651  0.832813  1
  Cl  Cl19  1  0.832813  0.619083  0.539651  1
