# generated using pymatgen
data_TbGdH6
_symmetry_space_group_name_H-M   'P 1'
_cell_length_a   6.40008600
_cell_length_b   6.40008595
_cell_length_c   6.66304100
_cell_angle_alpha   90.00000000
_cell_angle_beta   90.00000000
_cell_angle_gamma   120.00000028
_symmetry_Int_Tables_number   1
_chemical_formula_structural   TbGdH6
_chemical_formula_sum   'Tb3 Gd3 H18'
_cell_volume   236.36040856
_cell_formula_units_Z   3
loop_
 _symmetry_equiv_pos_site_id
 _symmetry_equiv_pos_as_xyz
  1  'x, y, z'
loop_
 _atom_site_type_symbol
 _atom_site_label
 _atom_site_symmetry_multiplicity
 _atom_site_fract_x
 _atom_site_fract_y
 _atom_site_fract_z
 _atom_site_occupancy
  Tb  Tb0  1  0.336850  0.000000  0.250000  1
  Tb  Tb1  1  0.000000  0.336850  0.250000  1
  Tb  Tb2  1  0.663150  0.663150  0.250000  1
  Gd  Gd3  1  0.663419  0.000000  0.750000  1
  Gd  Gd4  1  0.000000  0.663419  0.750000  1
  Gd  Gd5  1  0.336581  0.336581  0.750000  1
  H  H6  1  0.000000  0.000000  0.250000  1
  H  H7  1  0.000000  0.000000  0.750000  1
  H  H8  1  0.333333  0.666667  0.180951  1
  H  H9  1  0.666667  0.333333  0.319049  1
  H  H10  1  0.666667  0.333333  0.819512  1
  H  H11  1  0.333333  0.666667  0.680488  1
  H  H12  1  0.349233  0.321421  0.093331  1
  H  H13  1  0.678579  0.027812  0.093331  1
  H  H14  1  0.972188  0.650767  0.093331  1
  H  H15  1  0.027812  0.678579  0.406669  1
  H  H16  1  0.650767  0.972188  0.406669  1
  H  H17  1  0.321421  0.349233  0.406669  1
  H  H18  1  0.651720  0.678322  0.907651  1
  H  H19  1  0.321678  0.973398  0.907651  1
  H  H20  1  0.026602  0.348280  0.907651  1
  H  H21  1  0.973398  0.321678  0.592349  1
  H  H22  1  0.348280  0.026602  0.592349  1
  H  H23  1  0.678322  0.651720  0.592349  1
