# generated using pymatgen
data_Sr9Yb3(SmSn2)8
_symmetry_space_group_name_H-M   'P 1'
_cell_length_a   8.15968991
_cell_length_b   8.66310417
_cell_length_c   16.58354600
_cell_angle_alpha   90.00000000
_cell_angle_beta   90.00000000
_cell_angle_gamma   89.90263153
_symmetry_Int_Tables_number   1
_chemical_formula_structural   Sr9Yb3(SmSn2)8
_chemical_formula_sum   'Sr9 Yb3 Sm8 Sn16'
_cell_volume   1172.26004747
_cell_formula_units_Z   1
loop_
 _symmetry_equiv_pos_site_id
 _symmetry_equiv_pos_as_xyz
  1  'x, y, z'
loop_
 _atom_site_type_symbol
 _atom_site_label
 _atom_site_symmetry_multiplicity
 _atom_site_fract_x
 _atom_site_fract_y
 _atom_site_fract_z
 _atom_site_occupancy
  Sr  Sr0  1  0.506839  0.683796  0.592711  1
  Sr  Sr1  1  0.008763  0.818703  0.906956  1
  Sr  Sr2  1  0.492314  0.317112  0.094436  1
  Sr  Sr3  1  0.991971  0.182880  0.405440  1
  Sr  Sr4  1  0.492314  0.317112  0.405564  1
  Sr  Sr5  1  0.991971  0.182880  0.094560  1
  Sr  Sr6  1  0.506839  0.683796  0.907289  1
  Sr  Sr7  1  0.008763  0.818703  0.593044  1
  Sr  Sr8  1  0.837835  0.512804  0.750000  1
  Yb  Yb9  1  0.339373  0.991512  0.750000  1
  Yb  Yb10  1  0.160308  0.491726  0.250000  1
  Yb  Yb11  1  0.660224  0.008152  0.250000  1
  Sm  Sm12  1  0.674439  0.167952  0.621774  1
  Sm  Sm13  1  0.175398  0.329929  0.878393  1
  Sm  Sm14  1  0.325242  0.831091  0.122951  1
  Sm  Sm15  1  0.825197  0.668886  0.376802  1
  Sm  Sm16  1  0.325242  0.831091  0.377049  1
  Sm  Sm17  1  0.825197  0.668886  0.123198  1
  Sm  Sm18  1  0.674439  0.167952  0.878226  1
  Sm  Sm19  1  0.175398  0.329929  0.621607  1
  Sn  Sn20  1  0.661066  0.960734  0.458446  1
  Sn  Sn21  1  0.161184  0.539154  0.041557  1
  Sn  Sn22  1  0.339312  0.038739  0.959658  1
  Sn  Sn23  1  0.838770  0.459822  0.538480  1
  Sn  Sn24  1  0.339312  0.038739  0.540342  1
  Sn  Sn25  1  0.838770  0.459822  0.961520  1
  Sn  Sn26  1  0.661066  0.960734  0.041554  1
  Sn  Sn27  1  0.161184  0.539154  0.458443  1
  Sn  Sn28  1  0.466133  0.366989  0.750000  1
  Sn  Sn29  1  0.974730  0.122587  0.750000  1
  Sn  Sn30  1  0.527125  0.624388  0.250000  1
  Sn  Sn31  1  0.027525  0.875480  0.250000  1
  Sn  Sn32  1  0.715547  0.886963  0.750000  1
  Sn  Sn33  1  0.228751  0.621873  0.750000  1
  Sn  Sn34  1  0.280756  0.119628  0.250000  1
  Sn  Sn35  1  0.780704  0.380300  0.250000  1
