# generated using pymatgen
data_U6Co19NiP13
_symmetry_space_group_name_H-M   'P 1'
_cell_length_a   12.62394100
_cell_length_b   12.62394109
_cell_length_c   3.68334100
_cell_angle_alpha   90.00000000
_cell_angle_beta   90.00000000
_cell_angle_gamma   119.99999713
_symmetry_Int_Tables_number   1
_chemical_formula_structural   U6Co19NiP13
_chemical_formula_sum   'U6 Co19 Ni1 P13'
_cell_volume   508.34960101
_cell_formula_units_Z   1
loop_
 _symmetry_equiv_pos_site_id
 _symmetry_equiv_pos_as_xyz
  1  'x, y, z'
loop_
 _atom_site_type_symbol
 _atom_site_label
 _atom_site_symmetry_multiplicity
 _atom_site_fract_x
 _atom_site_fract_y
 _atom_site_fract_z
 _atom_site_occupancy
  U  U0  1  0.529587  0.718964  0.249027  1
  U  U1  1  0.281036  0.810624  0.249027  1
  U  U2  1  0.189376  0.470413  0.249027  1
  U  U3  1  0.473165  0.281799  0.750839  1
  U  U4  1  0.718201  0.191365  0.750839  1
  U  U5  1  0.808635  0.526835  0.750839  1
  Co  Co6  1  0.925094  0.246740  0.253991  1
  Co  Co7  1  0.753260  0.678354  0.253991  1
  Co  Co8  1  0.321646  0.074906  0.253991  1
  Co  Co9  1  0.435462  0.020093  0.751245  1
  Co  Co10  1  0.979907  0.415370  0.751245  1
  Co  Co11  1  0.584630  0.564538  0.751245  1
  Co  Co12  1  0.666667  0.333333  0.251418  1
  Co  Co13  1  0.087273  0.185637  0.243231  1
  Co  Co14  1  0.814363  0.901636  0.243231  1
  Co  Co15  1  0.098364  0.912727  0.243231  1
  Co  Co16  1  0.019950  0.584576  0.248839  1
  Co  Co17  1  0.415424  0.435372  0.248839  1
  Co  Co18  1  0.564628  0.980050  0.248839  1
  Co  Co19  1  0.678180  0.925082  0.746076  1
  Co  Co20  1  0.074918  0.753098  0.746076  1
  Co  Co21  1  0.246902  0.321820  0.746076  1
  Co  Co22  1  0.912917  0.814196  0.757032  1
  Co  Co23  1  0.185804  0.098721  0.757032  1
  Co  Co24  1  0.901279  0.087083  0.757032  1
  Ni  Ni25  1  0.333333  0.666667  0.747545  1
  P  P26  1  0.520158  0.132464  0.250946  1
  P  P27  1  0.867536  0.387694  0.250946  1
  P  P28  1  0.612306  0.479842  0.250946  1
  P  P29  1  0.950247  0.719669  0.251942  1
  P  P30  1  0.280331  0.230578  0.251942  1
  P  P31  1  0.769422  0.049753  0.251942  1
  P  P32  1  0.387733  0.520457  0.749082  1
  P  P33  1  0.479543  0.867275  0.749082  1
  P  P34  1  0.132725  0.612267  0.749082  1
  P  P35  1  0.720588  0.769684  0.748286  1
  P  P36  1  0.230316  0.950905  0.748286  1
  P  P37  1  0.049095  0.279412  0.748286  1
  P  P38  1  0.000000  0.000000  0.999429  1
