# generated using pymatgen
data_Ho5Tm7ZnCo4Sn
_symmetry_space_group_name_H-M   'P 1'
_cell_length_a   8.23211457
_cell_length_b   8.23211402
_cell_length_c   8.23335989
_cell_angle_alpha   112.18907704
_cell_angle_beta   109.32923596
_cell_angle_gamma   106.93176658
_symmetry_Int_Tables_number   1
_chemical_formula_structural   Ho5Tm7ZnCo4Sn
_chemical_formula_sum   'Ho5 Tm7 Zn1 Co4 Sn1'
_cell_volume   428.64077049
_cell_formula_units_Z   1
loop_
 _symmetry_equiv_pos_site_id
 _symmetry_equiv_pos_as_xyz
  1  'x, y, z'
loop_
 _atom_site_type_symbol
 _atom_site_label
 _atom_site_symmetry_multiplicity
 _atom_site_fract_x
 _atom_site_fract_y
 _atom_site_fract_z
 _atom_site_occupancy
  Ho  Ho0  1  0.431095  0.229690  0.200841  1
  Ho  Ho1  1  0.570125  0.771141  0.799892  1
  Ho  Ho2  1  0.028751  0.229767  0.799892  1
  Ho  Ho3  1  0.971151  0.769745  0.200841  1
  Ho  Ho4  1  0.181079  0.283423  0.464502  1
  Tm  Tm5  1  0.819028  0.716805  0.535832  1
  Tm  Tm6  1  0.181000  0.716760  0.897759  1
  Tm  Tm7  1  0.818496  0.283602  0.102100  1
  Tm  Tm8  1  0.324713  0.636686  0.311791  1
  Tm  Tm9  1  0.676184  0.363820  0.688599  1
  Tm  Tm10  1  0.324778  0.012416  0.688599  1
  Tm  Tm11  1  0.675106  0.987078  0.311791  1
  Zn  Zn12  1  0.999960  0.999287  0.999247  1
  Co  Co13  1  0.345965  0.999158  0.345123  1
  Co  Co14  1  0.654059  0.999939  0.653998  1
  Co  Co15  1  0.114659  0.615828  0.500105  1
  Co  Co16  1  0.884277  0.385446  0.500105  1
  Sn  Sn17  1  0.499573  0.499410  0.998983  1
