# generated using pymatgen
data_Li4Tb7Dy(ScSi2)8
_symmetry_space_group_name_H-M   'P 1'
_cell_length_a   6.90909403
_cell_length_b   7.41436806
_cell_length_c   14.09812609
_cell_angle_alpha   89.98880511
_cell_angle_beta   90.00627173
_cell_angle_gamma   89.99153565
_symmetry_Int_Tables_number   1
_chemical_formula_structural   Li4Tb7Dy(ScSi2)8
_chemical_formula_sum   'Li4 Tb7 Dy1 Sc8 Si16'
_cell_volume   722.19856144
_cell_formula_units_Z   1
loop_
 _symmetry_equiv_pos_site_id
 _symmetry_equiv_pos_as_xyz
  1  'x, y, z'
loop_
 _atom_site_type_symbol
 _atom_site_label
 _atom_site_symmetry_multiplicity
 _atom_site_fract_x
 _atom_site_fract_y
 _atom_site_fract_z
 _atom_site_occupancy
  Li  Li0  1  0.159197  0.505063  0.749974  1
  Li  Li1  1  0.840838  0.494977  0.249997  1
  Li  Li2  1  0.340844  0.005022  0.249999  1
  Li  Li3  1  0.659136  0.994924  0.749977  1
  Tb  Tb4  1  0.013785  0.181665  0.099309  1
  Tb  Tb5  1  0.986218  0.818333  0.900673  1
  Tb  Tb6  1  0.486194  0.681667  0.900729  1
  Tb  Tb7  1  0.986239  0.818267  0.599325  1
  Tb  Tb8  1  0.513766  0.318355  0.099299  1
  Tb  Tb9  1  0.013812  0.181653  0.400711  1
  Tb  Tb10  1  0.513782  0.318361  0.400742  1
  Dy  Dy11  1  0.486187  0.681807  0.599368  1
  Sc  Sc12  1  0.330341  0.179169  0.626499  1
  Sc  Sc13  1  0.669648  0.820832  0.373545  1
  Sc  Sc14  1  0.169742  0.679150  0.373528  1
  Sc  Sc15  1  0.669701  0.820858  0.126481  1
  Sc  Sc16  1  0.830212  0.320925  0.626480  1
  Sc  Sc17  1  0.330312  0.179149  0.873488  1
  Sc  Sc18  1  0.830271  0.320870  0.873485  1
  Sc  Sc19  1  0.169699  0.679142  0.126477  1
  Si  Si20  1  0.031853  0.104805  0.749981  1
  Si  Si21  1  0.968169  0.895132  0.250001  1
  Si  Si22  1  0.468187  0.604847  0.250007  1
  Si  Si23  1  0.531734  0.395313  0.749900  1
  Si  Si24  1  0.282237  0.882136  0.749901  1
  Si  Si25  1  0.717917  0.117701  0.250006  1
  Si  Si26  1  0.217911  0.382307  0.250001  1
  Si  Si27  1  0.781867  0.617862  0.749874  1
  Si  Si28  1  0.157980  0.463191  0.535353  1
  Si  Si29  1  0.842210  0.537008  0.464756  1
  Si  Si30  1  0.342364  0.962798  0.464812  1
  Si  Si31  1  0.842301  0.536968  0.035263  1
  Si  Si32  1  0.657637  0.036726  0.535344  1
  Si  Si33  1  0.157702  0.463010  0.964728  1
  Si  Si34  1  0.657697  0.036972  0.964725  1
  Si  Si35  1  0.342310  0.963034  0.035262  1
