# generated using pymatgen
data_Th4PdRu3Pb2
_symmetry_space_group_name_H-M   'P 1'
_cell_length_a   7.91269908
_cell_length_b   7.91269809
_cell_length_c   3.77270400
_cell_angle_alpha   90.00000000
_cell_angle_beta   90.00000000
_cell_angle_gamma   88.99779289
_symmetry_Int_Tables_number   1
_chemical_formula_structural   Th4PdRu3Pb2
_chemical_formula_sum   'Th4 Pd1 Ru3 Pb2'
_cell_volume   236.17587629
_cell_formula_units_Z   1
loop_
 _symmetry_equiv_pos_site_id
 _symmetry_equiv_pos_as_xyz
  1  'x, y, z'
loop_
 _atom_site_type_symbol
 _atom_site_label
 _atom_site_symmetry_multiplicity
 _atom_site_fract_x
 _atom_site_fract_y
 _atom_site_fract_z
 _atom_site_occupancy
  Th  Th0  1  0.653320  0.153320  0.500000  1
  Th  Th1  1  0.182993  0.338212  0.500000  1
  Th  Th2  1  0.838212  0.682993  0.500000  1
  Th  Th3  1  0.327477  0.827477  0.500000  1
  Pd  Pd4  1  0.867347  0.367347  0.000000  1
  Ru  Ru5  1  0.363135  0.134010  0.000000  1
  Ru  Ru6  1  0.127023  0.627023  0.000000  1
  Ru  Ru7  1  0.634010  0.863135  0.000000  1
  Pb  Pb8  1  0.000909  0.005574  0.000000  1
  Pb  Pb9  1  0.505574  0.500909  0.000000  1
