# generated using pymatgen
data_Tb6Dy2Ti11Si16Ru
_symmetry_space_group_name_H-M   'P 1'
_cell_length_a   7.04293623
_cell_length_b   7.04314368
_cell_length_c   12.92020810
_cell_angle_alpha   90.04384910
_cell_angle_beta   89.96353116
_cell_angle_gamma   89.88893085
_symmetry_Int_Tables_number   1
_chemical_formula_structural   Tb6Dy2Ti11Si16Ru
_chemical_formula_sum   'Tb6 Dy2 Ti11 Si16 Ru1'
_cell_volume   640.89780068
_cell_formula_units_Z   1
loop_
 _symmetry_equiv_pos_site_id
 _symmetry_equiv_pos_as_xyz
  1  'x, y, z'
loop_
 _atom_site_type_symbol
 _atom_site_label
 _atom_site_symmetry_multiplicity
 _atom_site_fract_x
 _atom_site_fract_y
 _atom_site_fract_z
 _atom_site_occupancy
  Tb  Tb0  1  0.500426  0.159797  0.215012  1
  Tb  Tb1  1  0.840631  0.496621  0.281988  1
  Tb  Tb2  1  0.159856  0.500432  0.785040  1
  Tb  Tb3  1  0.658480  0.998366  0.968247  1
  Tb  Tb4  1  0.004414  0.339914  0.532573  1
  Tb  Tb5  1  0.998359  0.658502  0.031632  1
  Dy  Dy6  1  0.340233  0.004098  0.467430  1
  Dy  Dy7  1  0.496867  0.840843  0.717997  1
  Ti  Ti8  1  0.174948  0.827650  0.248741  1
  Ti  Ti9  1  0.827491  0.174972  0.751335  1
  Ti  Ti10  1  0.673728  0.673987  0.500007  1
  Ti  Ti11  1  0.151190  0.004262  0.876011  1
  Ti  Ti12  1  0.492427  0.656263  0.125698  1
  Ti  Ti13  1  0.507274  0.348262  0.628055  1
  Ti  Ti14  1  0.656191  0.492384  0.874251  1
  Ti  Ti15  1  0.348192  0.507410  0.371990  1
  Ti  Ti16  1  0.847793  0.993436  0.375490  1
  Ti  Ti17  1  0.004401  0.151103  0.123923  1
  Ti  Ti18  1  0.993556  0.847833  0.624551  1
  Si  Si19  1  0.202499  0.130500  0.685813  1
  Si  Si20  1  0.373978  0.699237  0.934609  1
  Si  Si21  1  0.629895  0.296487  0.434957  1
  Si  Si22  1  0.699173  0.373925  0.065179  1
  Si  Si23  1  0.297017  0.630575  0.565132  1
  Si  Si24  1  0.797001  0.870025  0.184580  1
  Si  Si25  1  0.130810  0.201983  0.314296  1
  Si  Si26  1  0.869639  0.797018  0.815442  1
  Si  Si27  1  0.286624  0.953318  0.064502  1
  Si  Si28  1  0.546642  0.791994  0.315864  1
  Si  Si29  1  0.449896  0.209638  0.818010  1
  Si  Si30  1  0.791619  0.546892  0.684310  1
  Si  Si31  1  0.209912  0.449772  0.181929  1
  Si  Si32  1  0.708653  0.047681  0.565682  1
  Si  Si33  1  0.953250  0.286608  0.935432  1
  Si  Si34  1  0.048056  0.709357  0.434302  1
  Ru  Ru35  1  0.328875  0.328854  0.999987  1
