# generated using pymatgen
data_Dy6Ho2Si12Ir3Rh
_symmetry_space_group_name_H-M   'P 1'
_cell_length_a   8.16394407
_cell_length_b   8.16389962
_cell_length_c   7.91433100
_cell_angle_alpha   90.00186067
_cell_angle_beta   89.99852458
_cell_angle_gamma   120.01464559
_symmetry_Int_Tables_number   1
_chemical_formula_structural   Dy6Ho2Si12Ir3Rh
_chemical_formula_sum   'Dy6 Ho2 Si12 Ir3 Rh1'
_cell_volume   456.74984268
_cell_formula_units_Z   1
loop_
 _symmetry_equiv_pos_site_id
 _symmetry_equiv_pos_as_xyz
  1  'x, y, z'
loop_
 _atom_site_type_symbol
 _atom_site_label
 _atom_site_symmetry_multiplicity
 _atom_site_fract_x
 _atom_site_fract_y
 _atom_site_fract_z
 _atom_site_occupancy
  Dy  Dy0  1  0.999972  0.000028  0.248899  1
  Dy  Dy1  1  0.000018  0.999982  0.750349  1
  Dy  Dy2  1  0.509800  0.490195  0.250167  1
  Dy  Dy3  1  0.509810  0.019597  0.250164  1
  Dy  Dy4  1  0.980401  0.490193  0.250163  1
  Dy  Dy5  1  0.490636  0.509365  0.749872  1
  Ho  Ho6  1  0.490726  0.981554  0.749859  1
  Ho  Ho7  1  0.018447  0.509272  0.749861  1
  Si  Si8  1  0.166850  0.833151  0.499098  1
  Si  Si9  1  0.166726  0.333624  0.498947  1
  Si  Si10  1  0.666376  0.833276  0.498948  1
  Si  Si11  1  0.833252  0.166749  0.500891  1
  Si  Si12  1  0.833318  0.666518  0.500851  1
  Si  Si13  1  0.333481  0.166682  0.500851  1
  Si  Si14  1  0.833385  0.166619  0.999164  1
  Si  Si15  1  0.833450  0.666782  0.999205  1
  Si  Si16  1  0.333219  0.166553  0.999205  1
  Si  Si17  1  0.167257  0.832743  0.999769  1
  Si  Si18  1  0.167114  0.334418  0.999920  1
  Si  Si19  1  0.665584  0.832887  0.999919  1
  Ir  Ir20  1  0.333260  0.666741  0.468748  1
  Ir  Ir21  1  0.666822  0.333179  0.533900  1
  Ir  Ir22  1  0.666827  0.333169  0.964870  1
  Rh  Rh23  1  0.333268  0.666729  0.036383  1
