# generated using pymatgen
data_Eu4Cd7InAu6
_symmetry_space_group_name_H-M   'P 1'
_cell_length_a   15.39258900
_cell_length_b   15.32378879
_cell_length_c   4.56079600
_cell_angle_alpha   90.00000000
_cell_angle_beta   90.00000000
_cell_angle_gamma   119.95952196
_symmetry_Int_Tables_number   1
_chemical_formula_structural   Eu4Cd7InAu6
_chemical_formula_sum   'Eu8 Cd14 In2 Au12'
_cell_volume   932.02187742
_cell_formula_units_Z   2
loop_
 _symmetry_equiv_pos_site_id
 _symmetry_equiv_pos_as_xyz
  1  'x, y, z'
loop_
 _atom_site_type_symbol
 _atom_site_label
 _atom_site_symmetry_multiplicity
 _atom_site_fract_x
 _atom_site_fract_y
 _atom_site_fract_z
 _atom_site_occupancy
  Eu  Eu0  1  0.448588  0.999178  0.000000  1
  Eu  Eu1  1  0.001287  0.451418  0.000000  1
  Eu  Eu2  1  0.550374  0.549595  0.000000  1
  Eu  Eu3  1  0.333282  0.665944  0.000000  1
  Eu  Eu4  1  0.666738  0.333585  0.000000  1
  Eu  Eu5  1  0.820670  0.999090  0.500000  1
  Eu  Eu6  1  0.999781  0.820240  0.500000  1
  Eu  Eu7  1  0.179753  0.179666  0.500000  1
  Cd  Cd8  1  0.180400  0.379046  0.000000  1
  Cd  Cd9  1  0.621568  0.801467  0.000000  1
  Cd  Cd10  1  0.377658  0.179431  0.000000  1
  Cd  Cd11  1  0.198199  0.819754  0.000000  1
  Cd  Cd12  1  0.802357  0.621140  0.000000  1
  Cd  Cd13  1  0.280984  0.000821  0.500000  1
  Cd  Cd14  1  0.004679  0.283363  0.500000  1
  Cd  Cd15  1  0.718606  0.719231  0.500000  1
  Cd  Cd16  1  0.347381  0.471590  0.500000  1
  Cd  Cd17  1  0.528973  0.876459  0.500000  1
  Cd  Cd18  1  0.471414  0.347570  0.500000  1
  Cd  Cd19  1  0.123710  0.652206  0.500000  1
  Cd  Cd20  1  0.876124  0.528018  0.500000  1
  Cd  Cd21  1  0.649129  0.123306  0.500000  1
  In  In22  1  0.818572  0.198488  0.000000  1
  In  In23  1  0.000358  0.000150  0.000000  1
  Au  Au24  1  0.170007  0.494010  0.500000  1
  Au  Au25  1  0.506145  0.675538  0.500000  1
  Au  Au26  1  0.493506  0.170146  0.500000  1
  Au  Au27  1  0.324242  0.830256  0.500000  1
  Au  Au28  1  0.676356  0.506169  0.500000  1
  Au  Au29  1  0.831045  0.322629  0.500000  1
  Au  Au30  1  0.175081  0.000395  0.000000  1
  Au  Au31  1  0.997165  0.174223  0.000000  1
  Au  Au32  1  0.824687  0.824970  0.000000  1
  Au  Au33  1  0.656642  0.000698  0.000000  1
  Au  Au34  1  0.000278  0.655773  0.000000  1
  Au  Au35  1  0.344259  0.344439  0.000000  1
