# generated using pymatgen
data_Pr8Zn8Ru3Pt4Rh
_symmetry_space_group_name_H-M   'P 1'
_cell_length_a   4.05399200
_cell_length_b   7.41190705
_cell_length_c   16.82164412
_cell_angle_alpha   90.01366558
_cell_angle_beta   90.00000000
_cell_angle_gamma   90.00000000
_symmetry_Int_Tables_number   1
_chemical_formula_structural   Pr8Zn8Ru3Pt4Rh
_chemical_formula_sum   'Pr8 Zn8 Ru3 Pt4 Rh1'
_cell_volume   505.45358392
_cell_formula_units_Z   1
loop_
 _symmetry_equiv_pos_site_id
 _symmetry_equiv_pos_as_xyz
  1  'x, y, z'
loop_
 _atom_site_type_symbol
 _atom_site_label
 _atom_site_symmetry_multiplicity
 _atom_site_fract_x
 _atom_site_fract_y
 _atom_site_fract_z
 _atom_site_occupancy
  Pr  Pr0  1  0.750000  0.459775  0.217856  1
  Pr  Pr1  1  0.750000  0.942988  0.285554  1
  Pr  Pr2  1  0.750000  0.829471  0.058649  1
  Pr  Pr3  1  0.250000  0.035012  0.716842  1
  Pr  Pr4  1  0.250000  0.164309  0.938630  1
  Pr  Pr5  1  0.250000  0.557623  0.784472  1
  Pr  Pr6  1  0.750000  0.336657  0.439906  1
  Pr  Pr7  1  0.250000  0.670975  0.560971  1
  Zn  Zn8  1  0.250000  0.993793  0.439256  1
  Zn  Zn9  1  0.750000  0.507154  0.938280  1
  Zn  Zn10  1  0.750000  0.994999  0.558761  1
  Zn  Zn11  1  0.250000  0.628786  0.351391  1
  Zn  Zn12  1  0.750000  0.384712  0.651929  1
  Zn  Zn13  1  0.750000  0.868253  0.850302  1
  Zn  Zn14  1  0.250000  0.503278  0.057507  1
  Zn  Zn15  1  0.250000  0.118927  0.152273  1
  Ru  Ru16  1  0.250000  0.745980  0.935866  1
  Ru  Ru17  1  0.750000  0.752843  0.685172  1
  Ru  Ru18  1  0.750000  0.756938  0.433855  1
  Pt  Pt19  1  0.250000  0.241253  0.565953  1
  Pt  Pt20  1  0.750000  0.258880  0.066310  1
  Pt  Pt21  1  0.250000  0.244754  0.312593  1
  Pt  Pt22  1  0.750000  0.255755  0.812515  1
  Rh  Rh23  1  0.250000  0.746886  0.185155  1
