# generated using pymatgen
data_Li(GaNi)6
_symmetry_space_group_name_H-M   'P 1'
_cell_length_a   4.97025976
_cell_length_b   6.41568878
_cell_length_c   6.41568978
_cell_angle_alpha   83.91549732
_cell_angle_beta   67.21018543
_cell_angle_gamma   67.21016809
_symmetry_Int_Tables_number   1
_chemical_formula_structural   Li(GaNi)6
_chemical_formula_sum   'Li1 Ga6 Ni6'
_cell_volume   173.65190332
_cell_formula_units_Z   1
loop_
 _symmetry_equiv_pos_site_id
 _symmetry_equiv_pos_as_xyz
  1  'x, y, z'
loop_
 _atom_site_type_symbol
 _atom_site_label
 _atom_site_symmetry_multiplicity
 _atom_site_fract_x
 _atom_site_fract_y
 _atom_site_fract_z
 _atom_site_occupancy
  Li  Li0  1  0.000000  0.000000  0.000000  1
  Ga  Ga1  1  0.000000  0.335946  0.664054  1
  Ga  Ga2  1  0.000000  0.664054  0.335946  1
  Ga  Ga3  1  0.500000  0.170179  0.829821  1
  Ga  Ga4  1  0.500000  0.829821  0.170179  1
  Ga  Ga5  1  0.311510  0.688490  0.688490  1
  Ga  Ga6  1  0.688490  0.311510  0.311510  1
  Ni  Ni7  1  0.254679  0.245321  0.245321  1
  Ni  Ni8  1  0.745321  0.754679  0.754679  1
  Ni  Ni9  1  0.500000  0.000000  0.500000  1
  Ni  Ni10  1  0.500000  0.500000  0.000000  1
  Ni  Ni11  1  0.000000  0.500000  0.000000  1
  Ni  Ni12  1  0.000000  0.000000  0.500000  1
