# generated using pymatgen
data_KEuCr2O8
_symmetry_space_group_name_H-M   'P 1'
_cell_length_a   5.85655503
_cell_length_b   5.85655396
_cell_length_c   7.72260104
_cell_angle_alpha   90.01111297
_cell_angle_beta   89.98888809
_cell_angle_gamma   119.99794552
_symmetry_Int_Tables_number   1
_chemical_formula_structural   KEuCr2O8
_chemical_formula_sum   'K1 Eu1 Cr2 O8'
_cell_volume   229.39692308
_cell_formula_units_Z   1
loop_
 _symmetry_equiv_pos_site_id
 _symmetry_equiv_pos_as_xyz
  1  'x, y, z'
loop_
 _atom_site_type_symbol
 _atom_site_label
 _atom_site_symmetry_multiplicity
 _atom_site_fract_x
 _atom_site_fract_y
 _atom_site_fract_z
 _atom_site_occupancy
  K  K0  1  0.000000  0.000000  0.500000  1
  Eu  Eu1  1  0.000000  0.000000  0.000000  1
  Cr  Cr2  1  0.666502  0.333499  0.262188  1
  Cr  Cr3  1  0.333499  0.666502  0.737812  1
  O  O4  1  0.353226  0.176601  0.191465  1
  O  O5  1  0.823389  0.176611  0.191648  1
  O  O6  1  0.823399  0.646774  0.191465  1
  O  O7  1  0.666548  0.333453  0.472057  1
  O  O8  1  0.333453  0.666548  0.527943  1
  O  O9  1  0.176600  0.353224  0.808535  1
  O  O10  1  0.176611  0.823389  0.808352  1
  O  O11  1  0.646774  0.823399  0.808535  1
