# generated using pymatgen
data_ErVI18
_symmetry_space_group_name_H-M   'P 1'
_cell_length_a   10.20808268
_cell_length_b   10.20808411
_cell_length_c   10.20808589
_cell_angle_alpha   89.35437662
_cell_angle_beta   89.35437527
_cell_angle_gamma   89.35439755
_symmetry_Int_Tables_number   1
_chemical_formula_structural   ErVI18
_chemical_formula_sum   'Er1 V1 I18'
_cell_volume   1063.53216653
_cell_formula_units_Z   1
loop_
 _symmetry_equiv_pos_site_id
 _symmetry_equiv_pos_as_xyz
  1  'x, y, z'
loop_
 _atom_site_type_symbol
 _atom_site_label
 _atom_site_symmetry_multiplicity
 _atom_site_fract_x
 _atom_site_fract_y
 _atom_site_fract_z
 _atom_site_occupancy
  Er  Er0  1  0.500000  0.500000  0.500000  1
  V  V1  1  0.000000  0.000000  0.000000  1
  I  I2  1  0.751270  0.120811  0.616287  1
  I  I3  1  0.995913  0.023006  0.730673  1
  I  I4  1  0.616287  0.751270  0.120811  1
  I  I5  1  0.976994  0.269327  0.004087  1
  I  I6  1  0.730673  0.995913  0.023006  1
  I  I7  1  0.023006  0.730673  0.995913  1
  I  I8  1  0.004087  0.976994  0.269327  1
  I  I9  1  0.879189  0.383713  0.248730  1
  I  I10  1  0.269327  0.004087  0.976994  1
  I  I11  1  0.248730  0.879189  0.383713  1
  I  I12  1  0.120811  0.616287  0.751270  1
  I  I13  1  0.383713  0.248730  0.879189  1
  I  I14  1  0.793767  0.531292  0.484365  1
  I  I15  1  0.531292  0.484365  0.793767  1
  I  I16  1  0.206233  0.468708  0.515635  1
  I  I17  1  0.468708  0.515635  0.206233  1
  I  I18  1  0.484365  0.793767  0.531292  1
  I  I19  1  0.515635  0.206233  0.468708  1
