# generated using pymatgen
data_ErZr4(Re5Tc3)3
_symmetry_space_group_name_H-M   'P 1'
_cell_length_a   8.49336548
_cell_length_b   8.49342182
_cell_length_c   8.49336600
_cell_angle_alpha   109.51322188
_cell_angle_beta   109.51344873
_cell_angle_gamma   109.51331385
_symmetry_Int_Tables_number   1
_chemical_formula_structural   ErZr4(Re5Tc3)3
_chemical_formula_sum   'Er1 Zr4 Re15 Tc9'
_cell_volume   470.91393487
_cell_formula_units_Z   1
loop_
 _symmetry_equiv_pos_site_id
 _symmetry_equiv_pos_as_xyz
  1  'x, y, z'
loop_
 _atom_site_type_symbol
 _atom_site_label
 _atom_site_symmetry_multiplicity
 _atom_site_fract_x
 _atom_site_fract_y
 _atom_site_fract_z
 _atom_site_occupancy
  Er  Er0  1  0.999286  0.999286  0.999286  1
  Zr  Zr1  1  0.625206  0.999719  0.999719  1
  Zr  Zr2  1  0.999725  0.625212  0.999727  1
  Zr  Zr3  1  0.999720  0.999718  0.625206  1
  Zr  Zr4  1  0.372815  0.372818  0.372814  1
  Re  Re5  1  0.604466  0.604452  0.278486  1
  Re  Re6  1  0.278480  0.604448  0.604472  1
  Re  Re7  1  0.604471  0.278501  0.604461  1
  Re  Re8  1  0.378037  0.195955  0.000880  1
  Re  Re9  1  0.181160  0.805131  0.805140  1
  Re  Re10  1  0.378042  0.000888  0.195949  1
  Re  Re11  1  0.195945  0.378027  0.000857  1
  Re  Re12  1  0.000865  0.378025  0.195948  1
  Re  Re13  1  0.805154  0.181183  0.805143  1
  Re  Re14  1  0.805144  0.805147  0.181170  1
  Re  Re15  1  0.000879  0.195960  0.378051  1
  Re  Re16  1  0.195949  0.000890  0.378039  1
  Re  Re17  1  0.621056  0.621053  0.815325  1
  Re  Re18  1  0.815334  0.621051  0.621060  1
  Re  Re19  1  0.621079  0.815332  0.621077  1
  Tc  Tc20  1  0.396557  0.676855  0.001038  1
  Tc  Tc21  1  0.720943  0.323661  0.323662  1
  Tc  Tc22  1  0.396562  0.001050  0.676862  1
  Tc  Tc23  1  0.676858  0.396561  0.001044  1
  Tc  Tc24  1  0.001046  0.396561  0.676858  1
  Tc  Tc25  1  0.323659  0.720947  0.323656  1
  Tc  Tc26  1  0.323657  0.323660  0.720943  1
  Tc  Tc27  1  0.001040  0.676856  0.396561  1
  Tc  Tc28  1  0.676861  0.001049  0.396560  1
