# generated using pymatgen
data_La2CdIn3Rh2
_symmetry_space_group_name_H-M   'P 1'
_cell_length_a   5.50289670
_cell_length_b   5.50289750
_cell_length_c   8.38802426
_cell_angle_alpha   89.88477452
_cell_angle_beta   90.11522400
_cell_angle_gamma   131.91254350
_symmetry_Int_Tables_number   1
_chemical_formula_structural   La2CdIn3Rh2
_chemical_formula_sum   'La2 Cd1 In3 Rh2'
_cell_volume   189.02133979
_cell_formula_units_Z   1
loop_
 _symmetry_equiv_pos_site_id
 _symmetry_equiv_pos_as_xyz
  1  'x, y, z'
loop_
 _atom_site_type_symbol
 _atom_site_label
 _atom_site_symmetry_multiplicity
 _atom_site_fract_x
 _atom_site_fract_y
 _atom_site_fract_z
 _atom_site_occupancy
  La  La0  1  0.060521  0.939479  0.250640  1
  La  La1  1  0.939772  0.060228  0.746123  1
  Cd  Cd2  1  0.647049  0.352951  0.547284  1
  In  In3  1  0.347309  0.652691  0.454496  1
  In  In4  1  0.649676  0.350324  0.947464  1
  In  In5  1  0.351195  0.648805  0.051263  1
  Rh  Rh6  1  0.210456  0.789544  0.756645  1
  Rh  Rh7  1  0.794021  0.205979  0.246084  1
