# generated using pymatgen
data_Rb2IF7
_symmetry_space_group_name_H-M   'P 1'
_cell_length_a   6.13618100
_cell_length_b   6.12462000
_cell_length_c   10.81193500
_cell_angle_alpha   90.00000000
_cell_angle_beta   90.00000000
_cell_angle_gamma   90.00000000
_symmetry_Int_Tables_number   1
_chemical_formula_structural   Rb2IF7
_chemical_formula_sum   'Rb4 I2 F14'
_cell_volume   406.33172877
_cell_formula_units_Z   2
loop_
 _symmetry_equiv_pos_site_id
 _symmetry_equiv_pos_as_xyz
  1  'x, y, z'
loop_
 _atom_site_type_symbol
 _atom_site_label
 _atom_site_symmetry_multiplicity
 _atom_site_fract_x
 _atom_site_fract_y
 _atom_site_fract_z
 _atom_site_occupancy
  Rb  Rb0  1  0.000000  0.500000  0.364539  1
  Rb  Rb1  1  0.500000  0.000000  0.635461  1
  Rb  Rb2  1  0.500000  0.500000  0.999763  1
  Rb  Rb3  1  0.000000  0.000000  0.000237  1
  I  I4  1  0.000000  0.500000  0.755774  1
  I  I5  1  0.500000  0.000000  0.244226  1
  F  F6  1  0.220710  0.257800  0.799372  1
  F  F7  1  0.279290  0.242200  0.200628  1
  F  F8  1  0.720710  0.757800  0.200628  1
  F  F9  1  0.779290  0.742200  0.799372  1
  F  F10  1  0.220710  0.742200  0.799372  1
  F  F11  1  0.720710  0.242200  0.200628  1
  F  F12  1  0.279290  0.757800  0.200628  1
  F  F13  1  0.779290  0.257800  0.799372  1
  F  F14  1  0.000000  0.500000  0.949369  1
  F  F15  1  0.500000  0.000000  0.050631  1
  F  F16  1  0.207642  0.500000  0.603039  1
  F  F17  1  0.792358  0.500000  0.603039  1
  F  F18  1  0.292358  0.000000  0.396961  1
  F  F19  1  0.707642  0.000000  0.396961  1
