# generated using pymatgen
data_TmPa2(Al3Os)4
_symmetry_space_group_name_H-M   'P 1'
_cell_length_a   8.84261199
_cell_length_b   8.84261296
_cell_length_c   9.44129900
_cell_angle_alpha   90.00000000
_cell_angle_beta   90.00000000
_cell_angle_gamma   119.75632039
_symmetry_Int_Tables_number   1
_chemical_formula_structural   TmPa2(Al3Os)4
_chemical_formula_sum   'Tm2 Pa4 Al24 Os8'
_cell_volume   640.89183795
_cell_formula_units_Z   2
loop_
 _symmetry_equiv_pos_site_id
 _symmetry_equiv_pos_as_xyz
  1  'x, y, z'
loop_
 _atom_site_type_symbol
 _atom_site_label
 _atom_site_symmetry_multiplicity
 _atom_site_fract_x
 _atom_site_fract_y
 _atom_site_fract_z
 _atom_site_occupancy
  Tm  Tm0  1  0.198323  0.801677  0.250000  1
  Tm  Tm1  1  0.801677  0.198323  0.750000  1
  Pa  Pa2  1  0.198813  0.393435  0.250000  1
  Pa  Pa3  1  0.801187  0.606565  0.750000  1
  Pa  Pa4  1  0.606565  0.801187  0.250000  1
  Pa  Pa5  1  0.393435  0.198813  0.750000  1
  Al  Al6  1  0.331628  0.668372  0.019437  1
  Al  Al7  1  0.668372  0.331628  0.980563  1
  Al  Al8  1  0.668372  0.331628  0.519437  1
  Al  Al9  1  0.331628  0.668372  0.480563  1
  Al  Al10  1  0.161665  0.324545  0.578063  1
  Al  Al11  1  0.838335  0.675455  0.421937  1
  Al  Al12  1  0.675455  0.838335  0.578063  1
  Al  Al13  1  0.838335  0.675455  0.078063  1
  Al  Al14  1  0.324545  0.161665  0.421937  1
  Al  Al15  1  0.161665  0.324545  0.921937  1
  Al  Al16  1  0.162435  0.837565  0.579621  1
  Al  Al17  1  0.324545  0.161665  0.078063  1
  Al  Al18  1  0.837565  0.162435  0.420379  1
  Al  Al19  1  0.675455  0.838335  0.921937  1
  Al  Al20  1  0.837565  0.162435  0.079621  1
  Al  Al21  1  0.162435  0.837565  0.920379  1
  Al  Al22  1  0.560217  0.122370  0.250000  1
  Al  Al23  1  0.439783  0.877630  0.750000  1
  Al  Al24  1  0.877630  0.439783  0.250000  1
  Al  Al25  1  0.122370  0.560217  0.750000  1
  Al  Al26  1  0.564210  0.435790  0.250000  1
  Al  Al27  1  0.435790  0.564210  0.750000  1
  Al  Al28  1  0.999963  0.000037  0.250000  1
  Al  Al29  1  0.000037  0.999963  0.750000  1
  Os  Os30  1  0.500000  0.000000  0.000000  1
  Os  Os31  1  0.000000  0.500000  0.000000  1
  Os  Os32  1  0.500000  0.000000  0.500000  1
  Os  Os33  1  0.500000  0.500000  0.000000  1
  Os  Os34  1  0.000000  0.500000  0.500000  1
  Os  Os35  1  0.500000  0.500000  0.500000  1
  Os  Os36  1  0.000000  0.000000  0.000000  1
  Os  Os37  1  0.000000  0.000000  0.500000  1
