# generated using pymatgen
data_Hf6BAs5Ru6
_symmetry_space_group_name_H-M   'P 1'
_cell_length_a   7.62331249
_cell_length_b   7.62410103
_cell_length_c   7.62331386
_cell_angle_alpha   127.62852221
_cell_angle_beta   122.10854628
_cell_angle_gamma   81.82987349
_symmetry_Int_Tables_number   1
_chemical_formula_structural   Hf6BAs5Ru6
_chemical_formula_sum   'Hf6 B1 As5 Ru6'
_cell_volume   286.03595336
_cell_formula_units_Z   1
loop_
 _symmetry_equiv_pos_site_id
 _symmetry_equiv_pos_as_xyz
  1  'x, y, z'
loop_
 _atom_site_type_symbol
 _atom_site_label
 _atom_site_symmetry_multiplicity
 _atom_site_fract_x
 _atom_site_fract_y
 _atom_site_fract_z
 _atom_site_occupancy
  Hf  Hf0  1  0.452441  0.661114  0.708673  1
  Hf  Hf1  1  0.555701  0.260012  0.204311  1
  Hf  Hf2  1  0.750140  0.830194  0.580054  1
  Hf  Hf3  1  0.250203  0.857945  0.107741  1
  Hf  Hf4  1  0.047122  0.256504  0.709382  1
  Hf  Hf5  1  0.943790  0.647356  0.203566  1
  B  B6  1  0.249884  0.255241  0.505358  1
  As  As7  1  0.749819  0.225834  0.976016  1
  As  As8  1  0.331491  0.589887  0.255153  1
  As  As9  1  0.665662  0.923393  0.254791  1
  As  As10  1  0.168601  0.923393  0.757731  1
  As  As11  1  0.834735  0.589887  0.758396  1
  Ru  Ru12  1  0.465195  0.494708  0.959827  1
  Ru  Ru13  1  0.034881  0.494708  0.529513  1
  Ru  Ru14  1  0.154096  0.258204  0.170140  1
  Ru  Ru15  1  0.912192  0.016508  0.170524  1
  Ru  Ru16  1  0.345984  0.016508  0.604316  1
  Ru  Ru17  1  0.588064  0.258204  0.604108  1
