# generated using pymatgen
data_Ca6Sc5Al11Ir7
_symmetry_space_group_name_H-M   'P 1'
_cell_length_a   9.18280123
_cell_length_b   9.18280158
_cell_length_c   9.19709528
_cell_angle_alpha   60.05139677
_cell_angle_beta   60.05139677
_cell_angle_gamma   59.99999575
_symmetry_Int_Tables_number   1
_chemical_formula_structural   Ca6Sc5Al11Ir7
_chemical_formula_sum   'Ca6 Sc5 Al11 Ir7'
_cell_volume   548.81125374
_cell_formula_units_Z   1
loop_
 _symmetry_equiv_pos_site_id
 _symmetry_equiv_pos_as_xyz
  1  'x, y, z'
loop_
 _atom_site_type_symbol
 _atom_site_label
 _atom_site_symmetry_multiplicity
 _atom_site_fract_x
 _atom_site_fract_y
 _atom_site_fract_z
 _atom_site_occupancy
  Ca  Ca0  1  0.700499  0.700499  0.300800  1
  Ca  Ca1  1  0.298200  0.700499  0.300800  1
  Ca  Ca2  1  0.700499  0.298200  0.300800  1
  Ca  Ca3  1  0.300754  0.300754  0.702511  1
  Ca  Ca4  1  0.695982  0.300754  0.702511  1
  Ca  Ca5  1  0.300754  0.695982  0.702511  1
  Sc  Sc6  1  0.881365  0.881365  0.355905  1
  Sc  Sc7  1  0.876459  0.359614  0.887468  1
  Sc  Sc8  1  0.359614  0.876459  0.887468  1
  Sc  Sc9  1  0.876459  0.876459  0.887468  1
  Sc  Sc10  1  0.122815  0.122815  0.631554  1
  Al  Al11  1  0.122087  0.637920  0.117906  1
  Al  Al12  1  0.637920  0.122087  0.117906  1
  Al  Al13  1  0.122087  0.122087  0.117906  1
  Al  Al14  1  0.670245  0.670245  0.989262  1
  Al  Al15  1  0.671776  0.984919  0.671528  1
  Al  Al16  1  0.984919  0.671776  0.671528  1
  Al  Al17  1  0.671776  0.671776  0.671528  1
  Al  Al18  1  0.327987  0.327987  0.016039  1
  Al  Al19  1  0.331785  0.014174  0.322256  1
  Al  Al20  1  0.014174  0.331785  0.322256  1
  Al  Al21  1  0.331785  0.331785  0.322256  1
  Ir  Ir22  1  0.999581  0.999581  0.001257  1
  Ir  Ir23  1  0.001982  0.001982  0.496782  1
  Ir  Ir24  1  0.499253  0.001982  0.496782  1
  Ir  Ir25  1  0.001982  0.499253  0.496782  1
  Ir  Ir26  1  0.497639  0.497639  0.002744  1
  Ir  Ir27  1  0.001978  0.497639  0.002744  1
  Ir  Ir28  1  0.497639  0.001978  0.002744  1
