# generated using pymatgen
data_Hf3Zr3CoSnBi
_symmetry_space_group_name_H-M   'P 1'
_cell_length_a   7.93660500
_cell_length_b   7.93660291
_cell_length_c   3.57892500
_cell_angle_alpha   90.00000000
_cell_angle_beta   90.00000000
_cell_angle_gamma   119.99999622
_symmetry_Int_Tables_number   1
_chemical_formula_structural   Hf3Zr3CoSnBi
_chemical_formula_sum   'Hf3 Zr3 Co1 Sn1 Bi1'
_cell_volume   195.23274642
_cell_formula_units_Z   1
loop_
 _symmetry_equiv_pos_site_id
 _symmetry_equiv_pos_as_xyz
  1  'x, y, z'
loop_
 _atom_site_type_symbol
 _atom_site_label
 _atom_site_symmetry_multiplicity
 _atom_site_fract_x
 _atom_site_fract_y
 _atom_site_fract_z
 _atom_site_occupancy
  Hf  Hf0  1  0.233226  0.997241  0.000000  1
  Hf  Hf1  1  0.764014  0.766774  0.000000  1
  Hf  Hf2  1  0.002759  0.235986  0.000000  1
  Zr  Zr3  1  0.606639  0.996596  0.500000  1
  Zr  Zr4  1  0.389957  0.393361  0.500000  1
  Zr  Zr5  1  0.003404  0.610043  0.500000  1
  Co  Co6  1  0.000000  0.000000  0.500000  1
  Sn  Sn7  1  0.333333  0.666667  0.000000  1
  Bi  Bi8  1  0.666667  0.333333  0.000000  1
