# generated using pymatgen
data_Rb3Na2TiAsP2
_symmetry_space_group_name_H-M   'P 1'
_cell_length_a   10.69768071
_cell_length_b   10.69755547
_cell_length_c   15.57983606
_cell_angle_alpha   89.99162640
_cell_angle_beta   90.00341021
_cell_angle_gamma   142.68778343
_symmetry_Int_Tables_number   1
_chemical_formula_structural   Rb3Na2TiAsP2
_chemical_formula_sum   'Rb12 Na8 Ti4 As4 P8'
_cell_volume   1080.74415280
_cell_formula_units_Z   4
loop_
 _symmetry_equiv_pos_site_id
 _symmetry_equiv_pos_as_xyz
  1  'x, y, z'
loop_
 _atom_site_type_symbol
 _atom_site_label
 _atom_site_symmetry_multiplicity
 _atom_site_fract_x
 _atom_site_fract_y
 _atom_site_fract_z
 _atom_site_occupancy
  Rb  Rb0  1  0.943328  0.606740  0.825336  1
  Rb  Rb1  1  0.558355  0.894159  0.324725  1
  Rb  Rb2  1  0.392771  0.056761  0.175542  1
  Rb  Rb3  1  0.058725  0.393844  0.175156  1
  Rb  Rb4  1  0.894117  0.558307  0.326092  1
  Rb  Rb5  1  0.443006  0.107138  0.674487  1
  Rb  Rb6  1  0.605696  0.941381  0.825706  1
  Rb  Rb7  1  0.273108  0.272828  0.315853  1
  Rb  Rb8  1  0.771725  0.774138  0.184044  1
  Rb  Rb9  1  0.226007  0.228449  0.815600  1
  Rb  Rb10  1  0.727282  0.727000  0.684372  1
  Rb  Rb11  1  0.107119  0.443011  0.675871  1
  Na  Na12  1  0.920463  0.079427  0.000011  1
  Na  Na13  1  0.577527  0.419678  0.499315  1
  Na  Na14  1  0.078265  0.921611  0.000001  1
  Na  Na15  1  0.419649  0.577558  0.499316  1
  Na  Na16  1  0.756131  0.243896  0.000018  1
  Na  Na17  1  0.745382  0.254846  0.498913  1
  Na  Na18  1  0.246677  0.753353  0.000015  1
  Na  Na19  1  0.254833  0.745383  0.498912  1
  Ti  Ti20  1  0.581595  0.418358  0.000185  1
  Ti  Ti21  1  0.920134  0.086264  0.498098  1
  Ti  Ti22  1  0.415593  0.584391  0.000173  1
  Ti  Ti23  1  0.086260  0.920106  0.498101  1
  As  As24  1  0.863082  0.555666  0.095947  1
  As  As25  1  0.444050  0.137078  0.904688  1
  As  As26  1  0.637306  0.944532  0.594741  1
  As  As27  1  0.944511  0.637213  0.594491  1
  P  P28  1  0.143071  0.446525  0.909298  1
  P  P29  1  0.553195  0.856938  0.091278  1
  P  P30  1  0.356908  0.053573  0.408067  1
  P  P31  1  0.189119  0.189316  0.579811  1
  P  P32  1  0.687470  0.688472  0.919132  1
  P  P33  1  0.311222  0.312233  0.081065  1
  P  P34  1  0.053505  0.356779  0.407808  1
  P  P35  1  0.812814  0.813048  0.417832  1
