# generated using pymatgen
data_Tb2Nb3P7Ir5Rh4
_symmetry_space_group_name_H-M   'P 1'
_cell_length_a   3.98300900
_cell_length_b   9.62799220
_cell_length_c   9.63676524
_cell_angle_alpha   119.97564428
_cell_angle_beta   89.99937373
_cell_angle_gamma   90.00031795
_symmetry_Int_Tables_number   1
_chemical_formula_structural   Tb2Nb3P7Ir5Rh4
_chemical_formula_sum   'Tb2 Nb3 P7 Ir5 Rh4'
_cell_volume   320.12195650
_cell_formula_units_Z   1
loop_
 _symmetry_equiv_pos_site_id
 _symmetry_equiv_pos_as_xyz
  1  'x, y, z'
loop_
 _atom_site_type_symbol
 _atom_site_label
 _atom_site_symmetry_multiplicity
 _atom_site_fract_x
 _atom_site_fract_y
 _atom_site_fract_z
 _atom_site_occupancy
  Tb  Tb0  1  0.261710  0.666689  0.333591  1
  Tb  Tb1  1  0.762034  0.333181  0.666840  1
  Nb  Nb2  1  0.761996  0.095387  0.872864  1
  Nb  Nb3  1  0.761974  0.128308  0.222450  1
  Nb  Nb4  1  0.761977  0.777818  0.905849  1
  P  P5  1  0.262178  0.999885  0.999466  1
  P  P6  1  0.761758  0.876833  0.591014  1
  P  P7  1  0.761757  0.409276  0.286016  1
  P  P8  1  0.761756  0.715021  0.123829  1
  P  P9  1  0.261930  0.117528  0.416771  1
  P  P10  1  0.261957  0.583250  0.701426  1
  P  P11  1  0.261941  0.297563  0.880955  1
  Ir  Ir12  1  0.261897  0.885783  0.161647  1
  Ir  Ir13  1  0.261904  0.837643  0.723270  1
  Ir  Ir14  1  0.261907  0.276581  0.114469  1
  Ir  Ir15  1  0.261922  0.367344  0.440443  1
  Ir  Ir16  1  0.261935  0.559589  0.927019  1
  Rh  Rh17  1  0.761842  0.609952  0.553880  1
  Rh  Rh18  1  0.761845  0.446689  0.056741  1
  Rh  Rh19  1  0.761849  0.945051  0.390187  1
  Rh  Rh20  1  0.261932  0.070632  0.631268  1
