# generated using pymatgen
data_YbTmMnIr3
_symmetry_space_group_name_H-M   'P 1'
_cell_length_a   5.15207483
_cell_length_b   5.15207693
_cell_length_c   5.15207604
_cell_angle_alpha   63.84430676
_cell_angle_beta   63.84429224
_cell_angle_gamma   63.84429838
_symmetry_Int_Tables_number   1
_chemical_formula_structural   YbTmMnIr3
_chemical_formula_sum   'Yb1 Tm1 Mn1 Ir3'
_cell_volume   104.89892442
_cell_formula_units_Z   1
loop_
 _symmetry_equiv_pos_site_id
 _symmetry_equiv_pos_as_xyz
  1  'x, y, z'
loop_
 _atom_site_type_symbol
 _atom_site_label
 _atom_site_symmetry_multiplicity
 _atom_site_fract_x
 _atom_site_fract_y
 _atom_site_fract_z
 _atom_site_occupancy
  Yb  Yb0  1  0.999907  0.999907  0.999907  1
  Tm  Tm1  1  0.249960  0.249960  0.249960  1
  Mn  Mn2  1  0.624698  0.624698  0.624698  1
  Ir  Ir3  1  0.625734  0.625734  0.123964  1
  Ir  Ir4  1  0.625734  0.123964  0.625734  1
  Ir  Ir5  1  0.123964  0.625734  0.625734  1
