# generated using pymatgen
data_DySnF7
_symmetry_space_group_name_H-M   'P 1'
_cell_length_a   5.64522900
_cell_length_b   8.99082368
_cell_length_c   12.12465103
_cell_angle_alpha   62.46271847
_cell_angle_beta   90.00000000
_cell_angle_gamma   90.00000000
_symmetry_Int_Tables_number   1
_chemical_formula_structural   DySnF7
_chemical_formula_sum   'Dy4 Sn4 F28'
_cell_volume   545.67240647
_cell_formula_units_Z   4
loop_
 _symmetry_equiv_pos_site_id
 _symmetry_equiv_pos_as_xyz
  1  'x, y, z'
loop_
 _atom_site_type_symbol
 _atom_site_label
 _atom_site_symmetry_multiplicity
 _atom_site_fract_x
 _atom_site_fract_y
 _atom_site_fract_z
 _atom_site_occupancy
  Dy  Dy0  1  0.757574  0.813850  0.764833  1
  Dy  Dy1  1  0.257574  0.186150  0.735167  1
  Dy  Dy2  1  0.242426  0.186150  0.235167  1
  Dy  Dy3  1  0.742426  0.813850  0.264833  1
  Sn  Sn4  1  0.757065  0.272733  0.957480  1
  Sn  Sn5  1  0.257065  0.727267  0.542520  1
  Sn  Sn6  1  0.242935  0.727267  0.042520  1
  Sn  Sn7  1  0.742935  0.272733  0.457480  1
  F  F8  1  0.450561  0.706398  0.916842  1
  F  F9  1  0.950561  0.293602  0.583158  1
  F  F10  1  0.549439  0.293602  0.083158  1
  F  F11  1  0.049439  0.706398  0.416842  1
  F  F12  1  0.443946  0.276912  0.546290  1
  F  F13  1  0.943946  0.723088  0.953710  1
  F  F14  1  0.556054  0.723088  0.453710  1
  F  F15  1  0.056054  0.276912  0.046290  1
  F  F16  1  0.777395  0.521639  0.860157  1
  F  F17  1  0.277395  0.478361  0.639843  1
  F  F18  1  0.222605  0.478361  0.139843  1
  F  F19  1  0.722605  0.521639  0.360157  1
  F  F20  1  0.758208  0.023012  0.054867  1
  F  F21  1  0.258208  0.976988  0.445133  1
  F  F22  1  0.241792  0.976988  0.945133  1
  F  F23  1  0.741792  0.023012  0.554867  1
  F  F24  1  0.974943  0.728815  0.641896  1
  F  F25  1  0.474943  0.271185  0.858104  1
  F  F26  1  0.025057  0.271185  0.358104  1
  F  F27  1  0.525057  0.728815  0.141896  1
  F  F28  1  0.044411  0.746165  0.173252  1
  F  F29  1  0.544411  0.253835  0.326748  1
  F  F30  1  0.955589  0.253835  0.826748  1
  F  F31  1  0.455589  0.746165  0.673252  1
  F  F32  1  0.421721  0.971170  0.233297  1
  F  F33  1  0.921721  0.028830  0.266703  1
  F  F34  1  0.578279  0.028830  0.766703  1
  F  F35  1  0.078279  0.971170  0.733297  1
