# generated using pymatgen
data_LaCdSnSbO7
_symmetry_space_group_name_H-M   'P 1'
_cell_length_a   7.52076301
_cell_length_b   7.52076315
_cell_length_c   7.52076338
_cell_angle_alpha   120.64507623
_cell_angle_beta   118.94164935
_cell_angle_gamma   90.36457013
_symmetry_Int_Tables_number   1
_chemical_formula_structural   LaCdSnSbO7
_chemical_formula_sum   'La2 Cd2 Sn2 Sb2 O14'
_cell_volume   301.64525976
_cell_formula_units_Z   2
loop_
 _symmetry_equiv_pos_site_id
 _symmetry_equiv_pos_as_xyz
  1  'x, y, z'
loop_
 _atom_site_type_symbol
 _atom_site_label
 _atom_site_symmetry_multiplicity
 _atom_site_fract_x
 _atom_site_fract_y
 _atom_site_fract_z
 _atom_site_occupancy
  La  La0  1  0.500000  0.000000  0.500000  1
  La  La1  1  0.000000  0.000000  0.000000  1
  Cd  Cd2  1  0.500000  0.000000  0.000000  1
  Cd  Cd3  1  0.500000  0.500000  0.500000  1
  Sn  Sn4  1  0.000000  0.500000  0.000000  1
  Sn  Sn5  1  0.000000  0.000000  0.500000  1
  Sb  Sb6  1  0.000000  0.500000  0.500000  1
  Sb  Sb7  1  0.500000  0.500000  0.000000  1
  O  O8  1  0.914480  0.164480  0.750000  1
  O  O9  1  0.319330  0.569330  0.750000  1
  O  O10  1  0.926081  0.577208  0.747112  1
  O  O11  1  0.330097  0.178969  0.752888  1
  O  O12  1  0.926081  0.178969  0.348873  1
  O  O13  1  0.330097  0.577208  0.151127  1
  O  O14  1  0.085520  0.835520  0.250000  1
  O  O15  1  0.680670  0.430670  0.250000  1
  O  O16  1  0.073919  0.422792  0.252888  1
  O  O17  1  0.669903  0.821031  0.247112  1
  O  O18  1  0.073919  0.821031  0.651127  1
  O  O19  1  0.669903  0.422792  0.848873  1
  O  O20  1  0.616347  0.866347  0.750000  1
  O  O21  1  0.383653  0.133653  0.250000  1
