# generated using pymatgen
data_Sc11HgOs3
_symmetry_space_group_name_H-M   'P 1'
_cell_length_a   9.68718915
_cell_length_b   9.51643850
_cell_length_c   9.68720658
_cell_angle_alpha   60.07844917
_cell_angle_beta   58.83371634
_cell_angle_gamma   60.07815049
_symmetry_Int_Tables_number   1
_chemical_formula_structural   Sc11HgOs3
_chemical_formula_sum   'Sc22 Hg2 Os6'
_cell_volume   626.44828910
_cell_formula_units_Z   2
loop_
 _symmetry_equiv_pos_site_id
 _symmetry_equiv_pos_as_xyz
  1  'x, y, z'
loop_
 _atom_site_type_symbol
 _atom_site_label
 _atom_site_symmetry_multiplicity
 _atom_site_fract_x
 _atom_site_fract_y
 _atom_site_fract_z
 _atom_site_occupancy
  Sc  Sc0  1  0.835811  0.858093  0.835797  1
  Sc  Sc1  1  0.529835  0.166650  0.141207  1
  Sc  Sc2  1  0.141203  0.166640  0.529838  1
  Sc  Sc3  1  0.165316  0.528153  0.165289  1
  Sc  Sc4  1  0.858797  0.833360  0.470162  1
  Sc  Sc5  1  0.834684  0.471847  0.834711  1
  Sc  Sc6  1  0.470165  0.833350  0.858793  1
  Sc  Sc7  1  0.164189  0.141907  0.164203  1
  Sc  Sc8  1  0.196369  0.803254  0.196372  1
  Sc  Sc9  1  0.196559  0.803895  0.803479  1
  Sc  Sc10  1  0.803441  0.196105  0.196521  1
  Sc  Sc11  1  0.803478  0.803895  0.196561  1
  Sc  Sc12  1  0.196522  0.196105  0.803439  1
  Sc  Sc13  1  0.803631  0.196746  0.803628  1
  Sc  Sc14  1  0.380448  0.393343  0.380437  1
  Sc  Sc15  1  0.151778  0.621802  0.607262  1
  Sc  Sc16  1  0.621091  0.151145  0.621085  1
  Sc  Sc17  1  0.607262  0.621792  0.151778  1
  Sc  Sc18  1  0.378909  0.848855  0.378915  1
  Sc  Sc19  1  0.392738  0.378208  0.848222  1
  Sc  Sc20  1  0.848222  0.378198  0.392738  1
  Sc  Sc21  1  0.619552  0.606657  0.619563  1
  Hg  Hg22  1  0.500000  0.000000  0.500000  1
  Hg  Hg23  1  0.000000  0.500000  0.000000  1
  Os  Os24  1  0.500000  0.500000  0.000000  1
  Os  Os25  1  0.000000  0.000000  0.500000  1
  Os  Os26  1  0.000000  0.500000  0.500000  1
  Os  Os27  1  0.500000  0.000000  0.000000  1
  Os  Os28  1  0.500000  0.500000  0.500000  1
  Os  Os29  1  0.000000  0.000000  0.000000  1
