# generated using pymatgen
data_Dy5Ho7Rh4
_symmetry_space_group_name_H-M   'P 1'
_cell_length_a   6.25809116
_cell_length_b   7.14769307
_cell_length_c   9.47898020
_cell_angle_alpha   90.00832165
_cell_angle_beta   89.97819845
_cell_angle_gamma   89.98593021
_symmetry_Int_Tables_number   1
_chemical_formula_structural   Dy5Ho7Rh4
_chemical_formula_sum   'Dy5 Ho7 Rh4'
_cell_volume   424.00340795
_cell_formula_units_Z   1
loop_
 _symmetry_equiv_pos_site_id
 _symmetry_equiv_pos_as_xyz
  1  'x, y, z'
loop_
 _atom_site_type_symbol
 _atom_site_label
 _atom_site_symmetry_multiplicity
 _atom_site_fract_x
 _atom_site_fract_y
 _atom_site_fract_z
 _atom_site_occupancy
  Dy  Dy0  1  0.169966  0.177751  0.062851  1
  Dy  Dy1  1  0.866344  0.531997  0.250065  1
  Dy  Dy2  1  0.633610  0.031814  0.250093  1
  Dy  Dy3  1  0.133512  0.468123  0.749929  1
  Dy  Dy4  1  0.366485  0.968073  0.749931  1
  Ho  Ho5  1  0.330067  0.677720  0.063034  1
  Ho  Ho6  1  0.169955  0.177716  0.437109  1
  Ho  Ho7  1  0.669979  0.322297  0.563014  1
  Ho  Ho8  1  0.830001  0.822210  0.936923  1
  Ho  Ho9  1  0.669934  0.322338  0.936896  1
  Ho  Ho10  1  0.830003  0.822271  0.563004  1
  Ho  Ho11  1  0.330009  0.677728  0.436979  1
  Rh  Rh12  1  0.060965  0.882001  0.250164  1
  Rh  Rh13  1  0.439254  0.382349  0.250126  1
  Rh  Rh14  1  0.938981  0.117801  0.749869  1
  Rh  Rh15  1  0.560936  0.617812  0.750013  1
