# generated using pymatgen
data_Nd3NiCl3
_symmetry_space_group_name_H-M   'P 1'
_cell_length_a   10.08195054
_cell_length_b   10.07720082
_cell_length_c   10.07655355
_cell_angle_alpha   109.08370396
_cell_angle_beta   109.09855298
_cell_angle_gamma   110.24138153
_symmetry_Int_Tables_number   1
_chemical_formula_structural   Nd3NiCl3
_chemical_formula_sum   'Nd12 Ni4 Cl12'
_cell_volume   787.91109411
_cell_formula_units_Z   4
loop_
 _symmetry_equiv_pos_site_id
 _symmetry_equiv_pos_as_xyz
  1  'x, y, z'
loop_
 _atom_site_type_symbol
 _atom_site_label
 _atom_site_symmetry_multiplicity
 _atom_site_fract_x
 _atom_site_fract_y
 _atom_site_fract_z
 _atom_site_occupancy
  Nd  Nd0  1  0.387547  0.612340  0.999987  1
  Nd  Nd1  1  0.612462  0.387644  0.999995  1
  Nd  Nd2  1  0.637479  0.137496  0.275022  1
  Nd  Nd3  1  0.862438  0.362453  0.724871  1
  Nd  Nd4  1  0.400045  0.392046  0.263158  1
  Nd  Nd5  1  0.128856  0.136944  0.736821  1
  Nd  Nd6  1  0.121103  0.357863  0.507942  1
  Nd  Nd7  1  0.850019  0.613175  0.492074  1
  Nd  Nd8  1  0.607995  0.599905  0.736849  1
  Nd  Nd9  1  0.863121  0.871123  0.263172  1
  Nd  Nd10  1  0.642038  0.878909  0.492037  1
  Nd  Nd11  1  0.386790  0.150062  0.507913  1
  Ni  Ni12  1  0.626246  0.626208  0.252461  1
  Ni  Ni13  1  0.373836  0.373768  0.747594  1
  Ni  Ni14  1  0.876144  0.123803  0.499979  1
  Ni  Ni15  1  0.623852  0.376260  0.500064  1
  Cl  Cl16  1  0.370810  0.629143  0.500102  1
  Cl  Cl17  1  0.129317  0.870913  0.500086  1
  Cl  Cl18  1  0.120659  0.120681  0.241366  1
  Cl  Cl19  1  0.879248  0.879278  0.758497  1
  Cl  Cl20  1  0.878679  0.628347  0.997753  1
  Cl  Cl21  1  0.630549  0.880698  0.002269  1
  Cl  Cl22  1  0.619331  0.121897  0.750290  1
  Cl  Cl23  1  0.371477  0.869090  0.249685  1
  Cl  Cl24  1  0.371708  0.121549  0.002227  1
  Cl  Cl25  1  0.119068  0.369389  0.997716  1
  Cl  Cl26  1  0.878176  0.380561  0.249726  1
  Cl  Cl27  1  0.131009  0.628454  0.750345  1
