# generated using pymatgen
data_SrAc3(ZnSn)4
_symmetry_space_group_name_H-M   'P 1'
_cell_length_a   4.73516200
_cell_length_b   4.73516150
_cell_length_c   17.59476600
_cell_angle_alpha   90.00000000
_cell_angle_beta   90.00000000
_cell_angle_gamma   120.00000353
_symmetry_Int_Tables_number   1
_chemical_formula_structural   SrAc3(ZnSn)4
_chemical_formula_sum   'Sr1 Ac3 Zn4 Sn4'
_cell_volume   341.65182802
_cell_formula_units_Z   1
loop_
 _symmetry_equiv_pos_site_id
 _symmetry_equiv_pos_as_xyz
  1  'x, y, z'
loop_
 _atom_site_type_symbol
 _atom_site_label
 _atom_site_symmetry_multiplicity
 _atom_site_fract_x
 _atom_site_fract_y
 _atom_site_fract_z
 _atom_site_occupancy
  Sr  Sr0  1  0.000000  0.000000  0.500000  1
  Ac  Ac1  1  0.000000  0.000000  0.000000  1
  Ac  Ac2  1  0.000000  0.000000  0.249893  1
  Ac  Ac3  1  0.000000  0.000000  0.750107  1
  Zn  Zn4  1  0.333333  0.666667  0.349009  1
  Zn  Zn5  1  0.666667  0.333333  0.650991  1
  Zn  Zn6  1  0.666667  0.333333  0.850319  1
  Zn  Zn7  1  0.333333  0.666667  0.149681  1
  Sn  Sn8  1  0.333333  0.666667  0.884369  1
  Sn  Sn9  1  0.666667  0.333333  0.115631  1
  Sn  Sn10  1  0.666667  0.333333  0.378532  1
  Sn  Sn11  1  0.333333  0.666667  0.621468  1
