# generated using pymatgen
data_ScTa(SnRu2)2
_symmetry_space_group_name_H-M   'P 1'
_cell_length_a   4.53181400
_cell_length_b   6.41280200
_cell_length_c   13.57431200
_cell_angle_alpha   90.00000000
_cell_angle_beta   89.99875158
_cell_angle_gamma   90.00000000
_symmetry_Int_Tables_number   1
_chemical_formula_structural   ScTa(SnRu2)2
_chemical_formula_sum   'Sc3 Ta3 Sn6 Ru12'
_cell_volume   394.49157691
_cell_formula_units_Z   3
loop_
 _symmetry_equiv_pos_site_id
 _symmetry_equiv_pos_as_xyz
  1  'x, y, z'
loop_
 _atom_site_type_symbol
 _atom_site_label
 _atom_site_symmetry_multiplicity
 _atom_site_fract_x
 _atom_site_fract_y
 _atom_site_fract_z
 _atom_site_occupancy
  Sc  Sc0  1  0.499983  0.500001  0.501328  1
  Sc  Sc1  1  0.000030  0.000000  0.666679  1
  Sc  Sc2  1  0.500074  0.500001  0.831963  1
  Ta  Ta3  1  0.000028  0.000000  0.996717  1
  Ta  Ta4  1  0.499929  0.500001  0.166652  1
  Ta  Ta5  1  0.999947  0.000000  0.336592  1
  Sn  Sn6  1  0.000021  0.500001  0.998312  1
  Sn  Sn7  1  0.499757  0.000000  0.166753  1
  Sn  Sn8  1  0.999891  0.500001  0.334990  1
  Sn  Sn9  1  0.499991  0.000000  0.503691  1
  Sn  Sn10  1  0.000330  0.500001  0.666677  1
  Sn  Sn11  1  0.500101  0.000000  0.829646  1
  Ru  Ru12  1  0.500024  0.245459  0.005250  1
  Ru  Ru13  1  0.500024  0.754541  0.005250  1
  Ru  Ru14  1  0.999954  0.252399  0.166665  1
  Ru  Ru15  1  0.999954  0.747601  0.166665  1
  Ru  Ru16  1  0.499945  0.245449  0.328105  1
  Ru  Ru17  1  0.499945  0.754550  0.328105  1
  Ru  Ru18  1  0.000000  0.244825  0.494204  1
  Ru  Ru19  1  0.000000  0.755178  0.494204  1
  Ru  Ru20  1  0.499939  0.252268  0.666660  1
  Ru  Ru21  1  0.499939  0.747731  0.666660  1
  Ru  Ru22  1  0.000096  0.244834  0.839114  1
  Ru  Ru23  1  0.000096  0.755166  0.839114  1
