# generated using pymatgen
data_Pr13Nd7(IrPt2)4
_symmetry_space_group_name_H-M   'P 1'
_cell_length_a   11.49912009
_cell_length_b   11.50365507
_cell_length_c   6.56492806
_cell_angle_alpha   90.01002057
_cell_angle_beta   89.98766578
_cell_angle_gamma   90.00763241
_symmetry_Int_Tables_number   1
_chemical_formula_structural   Pr13Nd7(IrPt2)4
_chemical_formula_sum   'Pr13 Nd7 Ir4 Pt8'
_cell_volume   868.42118960
_cell_formula_units_Z   1
loop_
 _symmetry_equiv_pos_site_id
 _symmetry_equiv_pos_as_xyz
  1  'x, y, z'
loop_
 _atom_site_type_symbol
 _atom_site_label
 _atom_site_symmetry_multiplicity
 _atom_site_fract_x
 _atom_site_fract_y
 _atom_site_fract_z
 _atom_site_occupancy
  Pr  Pr0  1  0.705184  0.910874  0.374674  1
  Pr  Pr1  1  0.589175  0.795094  0.874696  1
  Pr  Pr2  1  0.589280  0.205037  0.374692  1
  Pr  Pr3  1  0.410373  0.795118  0.374682  1
  Pr  Pr4  1  0.410650  0.204777  0.874658  1
  Pr  Pr5  1  0.205282  0.410570  0.625213  1
  Pr  Pr6  1  0.205299  0.589418  0.125187  1
  Pr  Pr7  1  0.794700  0.410592  0.125217  1
  Pr  Pr8  1  0.794736  0.589302  0.625302  1
  Pr  Pr9  1  0.910620  0.705287  0.125326  1
  Pr  Pr10  1  0.910501  0.294629  0.625484  1
  Pr  Pr11  1  0.089531  0.705375  0.625442  1
  Pr  Pr12  1  0.089522  0.294651  0.125453  1
  Nd  Nd13  1  0.295358  0.089012  0.375202  1
  Nd  Nd14  1  0.295399  0.910986  0.875228  1
  Nd  Nd15  1  0.704625  0.089234  0.875161  1
  Nd  Nd16  1  0.000232  0.000078  0.500114  1
  Nd  Nd17  1  0.000072  0.000014  0.999915  1
  Nd  Nd18  1  0.499987  0.499969  0.999958  1
  Nd  Nd19  1  0.499981  0.500007  0.499938  1
  Ir  Ir20  1  0.499636  0.000132  0.114540  1
  Ir  Ir21  1  0.499509  0.000233  0.615459  1
  Ir  Ir22  1  0.000002  0.500004  0.885011  1
  Ir  Ir23  1  0.000008  0.499986  0.384967  1
  Pt  Pt24  1  0.846821  0.152617  0.249071  1
  Pt  Pt25  1  0.847017  0.847484  0.750169  1
  Pt  Pt26  1  0.153310  0.152344  0.749248  1
  Pt  Pt27  1  0.153312  0.847660  0.249281  1
  Pt  Pt28  1  0.652976  0.346669  0.750192  1
  Pt  Pt29  1  0.652849  0.652845  0.250017  1
  Pt  Pt30  1  0.347030  0.346672  0.250250  1
  Pt  Pt31  1  0.347023  0.653331  0.750253  1
