# generated using pymatgen
data_Pr2Co2Si3(P2Ru5)2
_symmetry_space_group_name_H-M   'P 1'
_cell_length_a   9.48565528
_cell_length_b   9.45952931
_cell_length_c   3.93373000
_cell_angle_alpha   90.00000000
_cell_angle_beta   90.00000000
_cell_angle_gamma   119.53602394
_symmetry_Int_Tables_number   1
_chemical_formula_structural   Pr2Co2Si3(P2Ru5)2
_chemical_formula_sum   'Pr2 Co2 Si3 P4 Ru10'
_cell_volume   307.10266619
_cell_formula_units_Z   1
loop_
 _symmetry_equiv_pos_site_id
 _symmetry_equiv_pos_as_xyz
  1  'x, y, z'
loop_
 _atom_site_type_symbol
 _atom_site_label
 _atom_site_symmetry_multiplicity
 _atom_site_fract_x
 _atom_site_fract_y
 _atom_site_fract_z
 _atom_site_occupancy
  Pr  Pr0  1  0.332986  0.666767  0.000000  1
  Pr  Pr1  1  0.670318  0.334437  0.500000  1
  Co  Co2  1  0.723238  0.886039  0.000000  1
  Co  Co3  1  0.115474  0.841428  0.000000  1
  Si  Si4  1  0.106609  0.390943  0.500000  1
  Si  Si5  1  0.609552  0.718531  0.500000  1
  Si  Si6  1  0.990208  0.989886  0.000000  1
  P  P7  1  0.282594  0.890586  0.500000  1
  P  P8  1  0.420505  0.312923  0.000000  1
  P  P9  1  0.694366  0.104156  0.000000  1
  P  P10  1  0.898805  0.594756  0.000000  1
  Ru  Ru11  1  0.419036  0.061149  0.000000  1
  Ru  Ru12  1  0.936483  0.363422  0.000000  1
  Ru  Ru13  1  0.645145  0.582318  0.000000  1
  Ru  Ru14  1  0.391816  0.432867  0.500000  1
  Ru  Ru15  1  0.561657  0.952293  0.500000  1
  Ru  Ru16  1  0.051121  0.620250  0.500000  1
  Ru  Ru17  1  0.157546  0.266915  0.000000  1
  Ru  Ru18  1  0.201076  0.082308  0.500000  1
  Ru  Ru19  1  0.900442  0.108385  0.500000  1
  Ru  Ru20  1  0.891019  0.799644  0.500000  1
