# generated using pymatgen
data_CaZrTaAlO7
_symmetry_space_group_name_H-M   'P 1'
_cell_length_a   7.33368746
_cell_length_b   7.33767981
_cell_length_c   11.41273757
_cell_angle_alpha   80.34683433
_cell_angle_beta   80.34252283
_cell_angle_gamma   60.54108475
_symmetry_Int_Tables_number   1
_chemical_formula_structural   CaZrTaAlO7
_chemical_formula_sum   'Ca4 Zr4 Ta4 Al4 O28'
_cell_volume   524.56109650
_cell_formula_units_Z   4
loop_
 _symmetry_equiv_pos_site_id
 _symmetry_equiv_pos_as_xyz
  1  'x, y, z'
loop_
 _atom_site_type_symbol
 _atom_site_label
 _atom_site_symmetry_multiplicity
 _atom_site_fract_x
 _atom_site_fract_y
 _atom_site_fract_z
 _atom_site_occupancy
  Ca  Ca0  1  0.251815  0.501319  0.002690  1
  Ca  Ca1  1  0.499288  0.748266  0.497473  1
  Ca  Ca2  1  0.748185  0.498681  0.997310  1
  Ca  Ca3  1  0.500712  0.251734  0.502527  1
  Zr  Zr4  1  0.982478  0.237279  0.530659  1
  Zr  Zr5  1  0.762687  0.016118  0.969129  1
  Zr  Zr6  1  0.017522  0.762721  0.469341  1
  Zr  Zr7  1  0.237313  0.983882  0.030871  1
  Ta  Ta8  1  0.128569  0.363441  0.753882  1
  Ta  Ta9  1  0.635957  0.869721  0.746021  1
  Ta  Ta10  1  0.871431  0.636559  0.246118  1
  Ta  Ta11  1  0.364043  0.130279  0.253979  1
  Al  Al12  1  0.862580  0.137944  0.249879  1
  Al  Al13  1  0.137420  0.862056  0.750121  1
  Al  Al14  1  0.472918  0.528377  0.249956  1
  Al  Al15  1  0.527082  0.471623  0.750044  1
  O  O16  1  0.534617  0.882733  0.917658  1
  O  O17  1  0.117250  0.466324  0.582439  1
  O  O18  1  0.465383  0.117267  0.082342  1
  O  O19  1  0.882750  0.533676  0.417561  1
  O  O20  1  0.241415  0.558543  0.777175  1
  O  O21  1  0.440209  0.757403  0.723273  1
  O  O22  1  0.758585  0.441457  0.222825  1
  O  O23  1  0.559791  0.242597  0.276727  1
  O  O24  1  0.068948  0.149671  0.711952  1
  O  O25  1  0.850665  0.928129  0.787958  1
  O  O26  1  0.931052  0.850329  0.288048  1
  O  O27  1  0.149335  0.071871  0.212042  1
  O  O28  1  0.341468  0.606717  0.392380  1
  O  O29  1  0.394441  0.661099  0.107787  1
  O  O30  1  0.658532  0.393283  0.607620  1
  O  O31  1  0.605559  0.338901  0.892213  1
  O  O32  1  0.876036  0.123926  0.082429  1
  O  O33  1  0.875102  0.123934  0.417795  1
  O  O34  1  0.123964  0.876074  0.917571  1
  O  O35  1  0.124898  0.876066  0.582205  1
  O  O36  1  0.128309  0.285225  0.930409  1
  O  O37  1  0.715789  0.870300  0.569547  1
  O  O38  1  0.871691  0.714775  0.069591  1
  O  O39  1  0.284211  0.129700  0.430453  1
  O  O40  1  0.168365  0.436901  0.215012  1
  O  O41  1  0.565656  0.834659  0.285601  1
  O  O42  1  0.831635  0.563099  0.784988  1
  O  O43  1  0.434344  0.165341  0.714399  1
