# generated using pymatgen
data_YIn2Cl5
_symmetry_space_group_name_H-M   'P 1'
_cell_length_a   8.18000500
_cell_length_b   8.59403000
_cell_length_c   13.01221500
_cell_angle_alpha   90.00000000
_cell_angle_beta   90.00000000
_cell_angle_gamma   90.00000000
_symmetry_Int_Tables_number   1
_chemical_formula_structural   YIn2Cl5
_chemical_formula_sum   'Y4 In8 Cl20'
_cell_volume   914.74841364
_cell_formula_units_Z   4
loop_
 _symmetry_equiv_pos_site_id
 _symmetry_equiv_pos_as_xyz
  1  'x, y, z'
loop_
 _atom_site_type_symbol
 _atom_site_label
 _atom_site_symmetry_multiplicity
 _atom_site_fract_x
 _atom_site_fract_y
 _atom_site_fract_z
 _atom_site_occupancy
  Y  Y0  1  0.927767  0.750000  0.503514  1
  Y  Y1  1  0.072233  0.250000  0.496486  1
  Y  Y2  1  0.427767  0.250000  0.996486  1
  Y  Y3  1  0.572233  0.750000  0.003514  1
  In  In4  1  0.950256  0.004876  0.827558  1
  In  In5  1  0.049744  0.995124  0.172442  1
  In  In6  1  0.450256  0.995124  0.672442  1
  In  In7  1  0.049744  0.504876  0.172442  1
  In  In8  1  0.549744  0.004876  0.327558  1
  In  In9  1  0.950256  0.495124  0.827558  1
  In  In10  1  0.549744  0.495124  0.327558  1
  In  In11  1  0.450256  0.504876  0.672442  1
  Cl  Cl12  1  0.111454  0.750000  0.674887  1
  Cl  Cl13  1  0.888546  0.250000  0.325113  1
  Cl  Cl14  1  0.611454  0.250000  0.825113  1
  Cl  Cl15  1  0.388546  0.750000  0.174887  1
  Cl  Cl16  1  0.840762  0.042735  0.572817  1
  Cl  Cl17  1  0.159238  0.957265  0.427183  1
  Cl  Cl18  1  0.340762  0.957265  0.927183  1
  Cl  Cl19  1  0.159238  0.542735  0.427183  1
  Cl  Cl20  1  0.659238  0.042735  0.072817  1
  Cl  Cl21  1  0.840762  0.457265  0.572817  1
  Cl  Cl22  1  0.659238  0.457265  0.072817  1
  Cl  Cl23  1  0.340762  0.542735  0.927183  1
  Cl  Cl24  1  0.592430  0.750000  0.509238  1
  Cl  Cl25  1  0.407570  0.250000  0.490762  1
  Cl  Cl26  1  0.092430  0.250000  0.990762  1
  Cl  Cl27  1  0.907570  0.750000  0.009238  1
  Cl  Cl28  1  0.657087  0.750000  0.803257  1
  Cl  Cl29  1  0.342913  0.250000  0.196743  1
  Cl  Cl30  1  0.157087  0.250000  0.696743  1
  Cl  Cl31  1  0.842913  0.750000  0.303257  1
