# generated using pymatgen
data_Sr8ScCr3F28
_symmetry_space_group_name_H-M   'P 1'
_cell_length_a   7.59306000
_cell_length_b   8.28635788
_cell_length_c   10.25295400
_cell_angle_alpha   89.97353140
_cell_angle_beta   90.00000000
_cell_angle_gamma   90.00000000
_symmetry_Int_Tables_number   1
_chemical_formula_structural   Sr8ScCr3F28
_chemical_formula_sum   'Sr8 Sc1 Cr3 F28'
_cell_volume   645.10362245
_cell_formula_units_Z   1
loop_
 _symmetry_equiv_pos_site_id
 _symmetry_equiv_pos_as_xyz
  1  'x, y, z'
loop_
 _atom_site_type_symbol
 _atom_site_label
 _atom_site_symmetry_multiplicity
 _atom_site_fract_x
 _atom_site_fract_y
 _atom_site_fract_z
 _atom_site_occupancy
  Sr  Sr0  1  0.250000  0.805577  0.396547  1
  Sr  Sr1  1  0.750000  0.195840  0.606945  1
  Sr  Sr2  1  0.750000  0.694029  0.891023  1
  Sr  Sr3  1  0.250000  0.304553  0.107422  1
  Sr  Sr4  1  0.250000  0.612077  0.739399  1
  Sr  Sr5  1  0.750000  0.386256  0.257607  1
  Sr  Sr6  1  0.750000  0.886664  0.244589  1
  Sr  Sr7  1  0.250000  0.116857  0.756110  1
  Sc  Sc8  1  0.250000  0.813190  0.056950  1
  Cr  Cr9  1  0.750000  0.186822  0.942652  1
  Cr  Cr10  1  0.750000  0.686773  0.557043  1
  Cr  Cr11  1  0.250000  0.312524  0.442443  1
  F  F12  1  0.250000  0.595532  0.139244  1
  F  F13  1  0.750000  0.398254  0.865633  1
  F  F14  1  0.750000  0.898815  0.633791  1
  F  F15  1  0.250000  0.100732  0.366474  1
  F  F16  1  0.250000  0.533368  0.509931  1
  F  F17  1  0.750000  0.466085  0.488648  1
  F  F18  1  0.750000  0.965776  0.011220  1
  F  F19  1  0.250000  0.042967  0.986862  1
  F  F20  1  0.071271  0.742586  0.919105  1
  F  F21  1  0.924441  0.253701  0.074036  1
  F  F22  1  0.925132  0.753257  0.426801  1
  F  F23  1  0.575559  0.253701  0.074036  1
  F  F24  1  0.075210  0.246604  0.573931  1
  F  F25  1  0.428729  0.742586  0.919105  1
  F  F26  1  0.424790  0.246604  0.573931  1
  F  F27  1  0.574868  0.753257  0.426801  1
  F  F28  1  0.250000  0.872510  0.628187  1
  F  F29  1  0.750000  0.129232  0.373874  1
  F  F30  1  0.750000  0.628937  0.126481  1
  F  F31  1  0.250000  0.373731  0.872920  1
  F  F32  1  0.572874  0.624236  0.685155  1
  F  F33  1  0.427832  0.373205  0.313868  1
  F  F34  1  0.431858  0.877173  0.192839  1
  F  F35  1  0.072168  0.373205  0.313868  1
  F  F36  1  0.572913  0.125689  0.813267  1
  F  F37  1  0.927126  0.624236  0.685155  1
  F  F38  1  0.927087  0.125689  0.813267  1
  F  F39  1  0.068142  0.877173  0.192839  1
