# generated using pymatgen
data_Cd4IrPd(RuO7)2
_symmetry_space_group_name_H-M   'P 1'
_cell_length_a   7.26584188
_cell_length_b   7.24045999
_cell_length_c   7.26584148
_cell_angle_alpha   60.02757453
_cell_angle_beta   60.21588481
_cell_angle_gamma   60.02756821
_symmetry_Int_Tables_number   1
_chemical_formula_structural   Cd4IrPd(RuO7)2
_chemical_formula_sum   'Cd4 Ir1 Pd1 Ru2 O14'
_cell_volume   270.83702988
_cell_formula_units_Z   1
loop_
 _symmetry_equiv_pos_site_id
 _symmetry_equiv_pos_as_xyz
  1  'x, y, z'
loop_
 _atom_site_type_symbol
 _atom_site_label
 _atom_site_symmetry_multiplicity
 _atom_site_fract_x
 _atom_site_fract_y
 _atom_site_fract_z
 _atom_site_occupancy
  Cd  Cd0  1  0.125000  0.625000  0.125000  1
  Cd  Cd1  1  0.125000  0.125000  0.625000  1
  Cd  Cd2  1  0.625000  0.125000  0.125000  1
  Cd  Cd3  1  0.125000  0.125000  0.125000  1
  Ir  Ir4  1  0.625000  0.625000  0.625000  1
  Pd  Pd5  1  0.625000  0.125000  0.625000  1
  Ru  Ru6  1  0.625000  0.625000  0.125000  1
  Ru  Ru7  1  0.125000  0.625000  0.625000  1
  O  O8  1  0.706649  0.671776  0.310413  1
  O  O9  1  0.939587  0.578224  0.543351  1
  O  O10  1  0.539893  0.951060  0.964288  1
  O  O11  1  0.964288  0.951060  0.539893  1
  O  O12  1  0.930207  0.582138  0.930207  1
  O  O13  1  0.539773  0.953346  0.539773  1
  O  O14  1  0.319793  0.667862  0.319793  1
  O  O15  1  0.310413  0.671776  0.706649  1
  O  O16  1  0.710107  0.298940  0.285712  1
  O  O17  1  0.710227  0.296654  0.710227  1
  O  O18  1  0.543351  0.578224  0.939587  1
  O  O19  1  0.285712  0.298940  0.710107  1
  O  O20  1  0.246432  0.259341  0.246432  1
  O  O21  1  0.003568  0.990659  0.003568  1
