# generated using pymatgen
data_NdSm5Ga4Pt13
_symmetry_space_group_name_H-M   'P 1'
_cell_length_a   8.35522097
_cell_length_b   8.35522097
_cell_length_c   8.35522100
_cell_angle_alpha   109.49381607
_cell_angle_beta   109.45992058
_cell_angle_gamma   109.45992802
_symmetry_Int_Tables_number   1
_chemical_formula_structural   NdSm5Ga4Pt13
_chemical_formula_sum   'Nd1 Sm5 Ga4 Pt13'
_cell_volume   449.00572480
_cell_formula_units_Z   1
loop_
 _symmetry_equiv_pos_site_id
 _symmetry_equiv_pos_as_xyz
  1  'x, y, z'
loop_
 _atom_site_type_symbol
 _atom_site_label
 _atom_site_symmetry_multiplicity
 _atom_site_fract_x
 _atom_site_fract_y
 _atom_site_fract_z
 _atom_site_occupancy
  Nd  Nd0  1  0.000000  0.700761  0.700761  1
  Sm  Sm1  1  0.698804  0.698678  0.999875  1
  Sm  Sm2  1  0.301196  0.999875  0.301071  1
  Sm  Sm3  1  0.000000  0.302594  0.302594  1
  Sm  Sm4  1  0.301196  0.301071  0.999875  1
  Sm  Sm5  1  0.698804  0.999875  0.698678  1
  Ga  Ga6  1  0.000000  0.999825  0.499056  1
  Ga  Ga7  1  0.000000  0.499056  0.999825  1
  Ga  Ga8  1  0.500769  0.999825  0.999825  1
  Ga  Ga9  1  0.499231  0.499056  0.499056  1
  Pt  Pt10  1  0.320994  0.321348  0.642341  1
  Pt  Pt11  1  0.679006  0.000355  0.321348  1
  Pt  Pt12  1  0.000000  0.679332  0.319711  1
  Pt  Pt13  1  0.679006  0.321348  0.000355  1
  Pt  Pt14  1  0.320994  0.642341  0.321348  1
  Pt  Pt15  1  0.000000  0.319711  0.679332  1
  Pt  Pt16  1  0.322578  0.678088  0.000666  1
  Pt  Pt17  1  0.322578  0.000666  0.678088  1
  Pt  Pt18  1  0.640377  0.319711  0.319711  1
  Pt  Pt19  1  0.677422  0.678088  0.355511  1
  Pt  Pt20  1  0.677422  0.355511  0.678088  1
  Pt  Pt21  1  0.359623  0.679332  0.679332  1
  Pt  Pt22  1  0.000000  0.003553  0.003553  1
