# generated using pymatgen
data_Nd2GaRhI
_symmetry_space_group_name_H-M   'P 1'
_cell_length_a   4.33191500
_cell_length_b   4.33191574
_cell_length_c   17.25115500
_cell_angle_alpha   90.00000000
_cell_angle_beta   90.00000000
_cell_angle_gamma   120.00000200
_symmetry_Int_Tables_number   1
_chemical_formula_structural   Nd2GaRhI
_chemical_formula_sum   'Nd4 Ga2 Rh2 I2'
_cell_volume   280.35527177
_cell_formula_units_Z   2
loop_
 _symmetry_equiv_pos_site_id
 _symmetry_equiv_pos_as_xyz
  1  'x, y, z'
loop_
 _atom_site_type_symbol
 _atom_site_label
 _atom_site_symmetry_multiplicity
 _atom_site_fract_x
 _atom_site_fract_y
 _atom_site_fract_z
 _atom_site_occupancy
  Nd  Nd0  1  0.000000  0.000000  0.395600  1
  Nd  Nd1  1  0.000000  0.000000  0.895600  1
  Nd  Nd2  1  0.000000  0.000000  0.607854  1
  Nd  Nd3  1  0.000000  0.000000  0.107854  1
  Ga  Ga4  1  0.333333  0.666667  0.504483  1
  Ga  Ga5  1  0.666667  0.333333  0.004483  1
  Rh  Rh6  1  0.666667  0.333333  0.494658  1
  Rh  Rh7  1  0.333333  0.666667  0.994658  1
  I  I8  1  0.333333  0.666667  0.247405  1
  I  I9  1  0.666667  0.333333  0.747405  1
