# generated using pymatgen
data_Hf7ZrIn4Co3Cu5
_symmetry_space_group_name_H-M   'P 1'
_cell_length_a   7.21407834
_cell_length_b   7.21407798
_cell_length_c   6.70556612
_cell_angle_alpha   89.97939400
_cell_angle_beta   89.97939365
_cell_angle_gamma   90.44698065
_symmetry_Int_Tables_number   1
_chemical_formula_structural   Hf7ZrIn4Co3Cu5
_chemical_formula_sum   'Hf7 Zr1 In4 Co3 Cu5'
_cell_volume   348.96660108
_cell_formula_units_Z   1
loop_
 _symmetry_equiv_pos_site_id
 _symmetry_equiv_pos_as_xyz
  1  'x, y, z'
loop_
 _atom_site_type_symbol
 _atom_site_label
 _atom_site_symmetry_multiplicity
 _atom_site_fract_x
 _atom_site_fract_y
 _atom_site_fract_z
 _atom_site_occupancy
  Hf  Hf0  1  0.830291  0.830291  0.996990  1
  Hf  Hf1  1  0.651916  0.353108  0.492429  1
  Hf  Hf2  1  0.353108  0.651916  0.492429  1
  Hf  Hf3  1  0.675597  0.337986  0.007267  1
  Hf  Hf4  1  0.337986  0.675597  0.007267  1
  Hf  Hf5  1  0.806171  0.806171  0.502565  1
  Hf  Hf6  1  0.191579  0.191579  0.491398  1
  Zr  Zr7  1  0.156469  0.156469  0.006267  1
  In  In8  1  0.501686  0.004507  0.246675  1
  In  In9  1  0.498448  0.000835  0.752278  1
  In  In10  1  0.004507  0.501686  0.246675  1
  In  In11  1  0.000835  0.498448  0.752278  1
  Co  Co12  1  0.372245  0.372245  0.227883  1
  Co  Co13  1  0.622891  0.622891  0.767383  1
  Co  Co14  1  0.630819  0.630819  0.229879  1
  Cu  Cu15  1  0.874126  0.123232  0.710663  1
  Cu  Cu16  1  0.873332  0.120456  0.287062  1
  Cu  Cu17  1  0.374308  0.374308  0.784887  1
  Cu  Cu18  1  0.120456  0.873332  0.287062  1
  Cu  Cu19  1  0.123232  0.874126  0.710663  1
