# generated using pymatgen
data_Li2Sc4Co18(SiP3)3
_symmetry_space_group_name_H-M   'P 1'
_cell_length_a   3.62223100
_cell_length_b   10.19321014
_cell_length_c   11.76613975
_cell_angle_alpha   90.16567974
_cell_angle_beta   90.00000000
_cell_angle_gamma   90.00000000
_symmetry_Int_Tables_number   1
_chemical_formula_structural   Li2Sc4Co18(SiP3)3
_chemical_formula_sum   'Li2 Sc4 Co18 Si3 P9'
_cell_volume   434.42949883
_cell_formula_units_Z   1
loop_
 _symmetry_equiv_pos_site_id
 _symmetry_equiv_pos_as_xyz
  1  'x, y, z'
loop_
 _atom_site_type_symbol
 _atom_site_label
 _atom_site_symmetry_multiplicity
 _atom_site_fract_x
 _atom_site_fract_y
 _atom_site_fract_z
 _atom_site_occupancy
  Li  Li0  1  0.250000  0.705117  0.992635  1
  Li  Li1  1  0.250000  0.796145  0.491199  1
  Sc  Sc2  1  0.250000  0.580668  0.703868  1
  Sc  Sc3  1  0.250000  0.919012  0.204288  1
  Sc  Sc4  1  0.750000  0.421971  0.299287  1
  Sc  Sc5  1  0.750000  0.073603  0.801030  1
  Co  Co6  1  0.750000  0.285987  0.008091  1
  Co  Co7  1  0.750000  0.213616  0.507438  1
  Co  Co8  1  0.250000  0.405150  0.484075  1
  Co  Co9  1  0.250000  0.090264  0.989623  1
  Co  Co10  1  0.750000  0.589888  0.517749  1
  Co  Co11  1  0.750000  0.907612  0.019714  1
  Co  Co12  1  0.250000  0.215868  0.175803  1
  Co  Co13  1  0.250000  0.285727  0.671614  1
  Co  Co14  1  0.750000  0.781865  0.826779  1
  Co  Co15  1  0.750000  0.718817  0.327516  1
  Co  Co16  1  0.250000  0.878294  0.700139  1
  Co  Co17  1  0.250000  0.620609  0.200977  1
  Co  Co18  1  0.750000  0.120902  0.299022  1
  Co  Co19  1  0.750000  0.383031  0.796775  1
  Co  Co20  1  0.250000  0.469044  0.926348  1
  Co  Co21  1  0.250000  0.037345  0.426307  1
  Co  Co22  1  0.750000  0.538982  0.065175  1
  Co  Co23  1  0.750000  0.961280  0.564658  1
  Si  Si24  1  0.250000  0.418341  0.110518  1
  Si  Si25  1  0.250000  0.080986  0.613236  1
  Si  Si26  1  0.250000  0.263878  0.867306  1
  P  P27  1  0.750000  0.578674  0.881683  1
  P  P28  1  0.750000  0.923174  0.381565  1
  P  P29  1  0.250000  0.236285  0.365176  1
  P  P30  1  0.750000  0.734323  0.140739  1
  P  P31  1  0.750000  0.764796  0.639380  1
  P  P32  1  0.250000  0.598368  0.390795  1
  P  P33  1  0.250000  0.900295  0.891320  1
  P  P34  1  0.750000  0.399563  0.608740  1
  P  P35  1  0.750000  0.100522  0.109436  1
