# generated using pymatgen
data_SrTh(Si7Ir3)2
_symmetry_space_group_name_H-M   'P 1'
_cell_length_a   8.13491707
_cell_length_b   8.13491798
_cell_length_c   8.13491696
_cell_angle_alpha   56.51268259
_cell_angle_beta   56.51267630
_cell_angle_gamma   56.51268288
_symmetry_Int_Tables_number   1
_chemical_formula_structural   SrTh(Si7Ir3)2
_chemical_formula_sum   'Sr1 Th1 Si14 Ir6'
_cell_volume   349.98476956
_cell_formula_units_Z   1
loop_
 _symmetry_equiv_pos_site_id
 _symmetry_equiv_pos_as_xyz
  1  'x, y, z'
loop_
 _atom_site_type_symbol
 _atom_site_label
 _atom_site_symmetry_multiplicity
 _atom_site_fract_x
 _atom_site_fract_y
 _atom_site_fract_z
 _atom_site_occupancy
  Sr  Sr0  1  0.000000  0.000000  0.000000  1
  Th  Th1  1  0.500000  0.500000  0.500000  1
  Si  Si2  1  0.062087  0.853121  0.673720  1
  Si  Si3  1  0.673720  0.062087  0.853121  1
  Si  Si4  1  0.853121  0.673720  0.062087  1
  Si  Si5  1  0.172130  0.348356  0.563595  1
  Si  Si6  1  0.563595  0.172130  0.348356  1
  Si  Si7  1  0.348356  0.563595  0.172130  1
  Si  Si8  1  0.937913  0.146879  0.326280  1
  Si  Si9  1  0.326280  0.937913  0.146879  1
  Si  Si10  1  0.146879  0.326280  0.937913  1
  Si  Si11  1  0.827870  0.651644  0.436405  1
  Si  Si12  1  0.436405  0.827870  0.651644  1
  Si  Si13  1  0.651644  0.436405  0.827870  1
  Si  Si14  1  0.749768  0.749768  0.749768  1
  Si  Si15  1  0.250232  0.250232  0.250232  1
  Ir  Ir16  1  0.071124  0.746728  0.435631  1
  Ir  Ir17  1  0.435631  0.071124  0.746728  1
  Ir  Ir18  1  0.746728  0.435631  0.071124  1
  Ir  Ir19  1  0.928876  0.253272  0.564369  1
  Ir  Ir20  1  0.564369  0.928876  0.253272  1
  Ir  Ir21  1  0.253272  0.564369  0.928876  1
