# generated using pymatgen
data_CaYb5(PrSn2)4
_symmetry_space_group_name_H-M   'P 1'
_cell_length_a   7.97476500
_cell_length_b   8.52530900
_cell_length_c   16.09247100
_cell_angle_alpha   90.00000000
_cell_angle_beta   90.00000000
_cell_angle_gamma   90.00000000
_symmetry_Int_Tables_number   1
_chemical_formula_structural   CaYb5(PrSn2)4
_chemical_formula_sum   'Ca2 Yb10 Pr8 Sn16'
_cell_volume   1094.08423017
_cell_formula_units_Z   2
loop_
 _symmetry_equiv_pos_site_id
 _symmetry_equiv_pos_as_xyz
  1  'x, y, z'
loop_
 _atom_site_type_symbol
 _atom_site_label
 _atom_site_symmetry_multiplicity
 _atom_site_fract_x
 _atom_site_fract_y
 _atom_site_fract_z
 _atom_site_occupancy
  Ca  Ca0  1  0.161951  0.503597  0.750000  1
  Ca  Ca1  1  0.661951  0.996403  0.750000  1
  Yb  Yb2  1  0.333981  0.826911  0.876546  1
  Yb  Yb3  1  0.833981  0.673089  0.623454  1
  Yb  Yb4  1  0.665871  0.173209  0.376428  1
  Yb  Yb5  1  0.165871  0.326791  0.123572  1
  Yb  Yb6  1  0.665871  0.173209  0.123572  1
  Yb  Yb7  1  0.165871  0.326791  0.376428  1
  Yb  Yb8  1  0.333981  0.826911  0.623454  1
  Yb  Yb9  1  0.833981  0.673089  0.876546  1
  Yb  Yb10  1  0.837931  0.495854  0.250000  1
  Yb  Yb11  1  0.337931  0.004146  0.250000  1
  Pr  Pr12  1  0.494000  0.315161  0.904157  1
  Pr  Pr13  1  0.994000  0.184839  0.595843  1
  Pr  Pr14  1  0.506167  0.684892  0.403989  1
  Pr  Pr15  1  0.006167  0.815108  0.096011  1
  Pr  Pr16  1  0.506167  0.684892  0.096011  1
  Pr  Pr17  1  0.006167  0.815108  0.403989  1
  Pr  Pr18  1  0.494000  0.315161  0.595843  1
  Pr  Pr19  1  0.994000  0.184839  0.904157  1
  Sn  Sn20  1  0.330509  0.035300  0.038703  1
  Sn  Sn21  1  0.830509  0.464700  0.461297  1
  Sn  Sn22  1  0.669448  0.964765  0.538466  1
  Sn  Sn23  1  0.169448  0.535235  0.961534  1
  Sn  Sn24  1  0.669448  0.964765  0.961534  1
  Sn  Sn25  1  0.169448  0.535235  0.538466  1
  Sn  Sn26  1  0.330509  0.035300  0.461297  1
  Sn  Sn27  1  0.830509  0.464700  0.038703  1
  Sn  Sn28  1  0.535323  0.602278  0.750000  1
  Sn  Sn29  1  0.035323  0.897722  0.750000  1
  Sn  Sn30  1  0.465045  0.397911  0.250000  1
  Sn  Sn31  1  0.965045  0.102089  0.250000  1
  Sn  Sn32  1  0.289596  0.141103  0.750000  1
  Sn  Sn33  1  0.789596  0.358897  0.750000  1
  Sn  Sn34  1  0.710203  0.858701  0.250000  1
  Sn  Sn35  1  0.210203  0.641299  0.250000  1
