# generated using pymatgen
data_Ba4Sb4PdAu3
_symmetry_space_group_name_H-M   'P 1'
_cell_length_a   9.68145000
_cell_length_b   4.75253500
_cell_length_c   8.25420100
_cell_angle_alpha   90.00000000
_cell_angle_beta   89.99861516
_cell_angle_gamma   90.00000000
_symmetry_Int_Tables_number   1
_chemical_formula_structural   Ba4Sb4PdAu3
_chemical_formula_sum   'Ba4 Sb4 Pd1 Au3'
_cell_volume   379.78759132
_cell_formula_units_Z   1
loop_
 _symmetry_equiv_pos_site_id
 _symmetry_equiv_pos_as_xyz
  1  'x, y, z'
loop_
 _atom_site_type_symbol
 _atom_site_label
 _atom_site_symmetry_multiplicity
 _atom_site_fract_x
 _atom_site_fract_y
 _atom_site_fract_z
 _atom_site_occupancy
  Ba  Ba0  1  0.503741  0.749999  0.246347  1
  Ba  Ba1  1  0.995981  0.749999  0.247365  1
  Ba  Ba2  1  0.995535  0.250000  0.753423  1
  Ba  Ba3  1  0.504838  0.250000  0.754556  1
  Sb  Sb4  1  0.249291  0.250000  0.083229  1
  Sb  Sb5  1  0.749430  0.250000  0.409472  1
  Sb  Sb6  1  0.250751  0.749999  0.582598  1
  Sb  Sb7  1  0.750673  0.749999  0.924388  1
  Pd  Pd8  1  0.750072  0.250000  0.081122  1
  Au  Au9  1  0.250345  0.250000  0.416198  1
  Au  Au10  1  0.749670  0.749999  0.585981  1
  Au  Au11  1  0.249670  0.749999  0.915326  1
