# generated using pymatgen
data_U2Cr2C3
_symmetry_space_group_name_H-M   'P 1'
_cell_length_a   6.05400465
_cell_length_b   6.05400383
_cell_length_c   5.28161794
_cell_angle_alpha   64.53823193
_cell_angle_beta   64.53823319
_cell_angle_gamma   29.20791219
_symmetry_Int_Tables_number   1
_chemical_formula_structural   U2Cr2C3
_chemical_formula_sum   'U2 Cr2 C3'
_cell_volume   84.62772243
_cell_formula_units_Z   1
loop_
 _symmetry_equiv_pos_site_id
 _symmetry_equiv_pos_as_xyz
  1  'x, y, z'
loop_
 _atom_site_type_symbol
 _atom_site_label
 _atom_site_symmetry_multiplicity
 _atom_site_fract_x
 _atom_site_fract_y
 _atom_site_fract_z
 _atom_site_occupancy
  U  U0  1  0.591870  0.591870  0.228518  1
  U  U1  1  0.408130  0.408130  0.771482  1
  Cr  Cr2  1  0.838702  0.838702  0.326642  1
  Cr  Cr3  1  0.161298  0.161298  0.673358  1
  C  C4  1  0.749002  0.749002  0.751179  1
  C  C5  1  0.250998  0.250998  0.248821  1
  C  C6  1  0.000000  0.000000  0.000000  1
