# generated using pymatgen
data_TbDy9Y2Co5Sn
_symmetry_space_group_name_H-M   'P 1'
_cell_length_a   8.29190532
_cell_length_b   8.28955954
_cell_length_c   8.28956010
_cell_angle_alpha   107.00493816
_cell_angle_beta   110.75925788
_cell_angle_gamma   110.66501140
_symmetry_Int_Tables_number   1
_chemical_formula_structural   TbDy9Y2Co5Sn
_chemical_formula_sum   'Tb1 Dy9 Y2 Co5 Sn1'
_cell_volume   438.08830804
_cell_formula_units_Z   1
loop_
 _symmetry_equiv_pos_site_id
 _symmetry_equiv_pos_as_xyz
  1  'x, y, z'
loop_
 _atom_site_type_symbol
 _atom_site_label
 _atom_site_symmetry_multiplicity
 _atom_site_fract_x
 _atom_site_fract_y
 _atom_site_fract_z
 _atom_site_occupancy
  Tb  Tb0  1  0.893080  0.706669  0.186412  1
  Dy  Dy1  1  0.519373  0.706443  0.812931  1
  Dy  Dy2  1  0.307046  0.620740  0.314122  1
  Dy  Dy3  1  0.307046  0.992926  0.686306  1
  Dy  Dy4  1  0.693036  0.379398  0.686306  1
  Dy  Dy5  1  0.693036  0.006728  0.313637  1
  Dy  Dy6  1  0.192436  0.206638  0.398659  1
  Dy  Dy7  1  0.808297  0.793518  0.602201  1
  Dy  Dy8  1  0.192436  0.793778  0.985798  1
  Dy  Dy9  1  0.808297  0.206096  0.014781  1
  Y  Y10  1  0.480928  0.293733  0.187195  1
  Y  Y11  1  0.106937  0.293894  0.813042  1
  Co  Co12  1  0.499813  0.612584  0.111705  1
  Co  Co13  1  0.499813  0.388108  0.887229  1
  Co  Co14  1  0.377321  0.999965  0.377354  1
  Co  Co15  1  0.621389  0.999465  0.621924  1
  Co  Co16  1  0.999691  0.999359  0.000333  1
  Sn  Sn17  1  0.000023  0.499958  0.500065  1
