# generated using pymatgen
data_Cs6DyHS4
_symmetry_space_group_name_H-M   'P 1'
_cell_length_a   11.16476500
_cell_length_b   11.16476565
_cell_length_c   8.32440400
_cell_angle_alpha   90.00000000
_cell_angle_beta   90.00000000
_cell_angle_gamma   120.00000697
_symmetry_Int_Tables_number   1
_chemical_formula_structural   Cs6DyHS4
_chemical_formula_sum   'Cs12 Dy2 H2 S8'
_cell_volume   898.63421128
_cell_formula_units_Z   2
loop_
 _symmetry_equiv_pos_site_id
 _symmetry_equiv_pos_as_xyz
  1  'x, y, z'
loop_
 _atom_site_type_symbol
 _atom_site_label
 _atom_site_symmetry_multiplicity
 _atom_site_fract_x
 _atom_site_fract_y
 _atom_site_fract_z
 _atom_site_occupancy
  Cs  Cs0  1  0.122458  0.877542  0.509849  1
  Cs  Cs1  1  0.755084  0.877542  0.509849  1
  Cs  Cs2  1  0.935917  0.467958  0.314428  1
  Cs  Cs3  1  0.532042  0.467958  0.314428  1
  Cs  Cs4  1  0.877542  0.755084  0.009849  1
  Cs  Cs5  1  0.244916  0.122458  0.009849  1
  Cs  Cs6  1  0.532042  0.064083  0.314428  1
  Cs  Cs7  1  0.122458  0.244916  0.509849  1
  Cs  Cs8  1  0.877542  0.122458  0.009849  1
  Cs  Cs9  1  0.064083  0.532042  0.814428  1
  Cs  Cs10  1  0.467958  0.935917  0.814428  1
  Cs  Cs11  1  0.467958  0.532042  0.814428  1
  Dy  Dy12  1  0.666667  0.333333  0.720758  1
  Dy  Dy13  1  0.333333  0.666667  0.220758  1
  H  H14  1  0.000000  0.000000  0.273868  1
  H  H15  1  0.000000  0.000000  0.773868  1
  S  S16  1  0.413013  0.206508  0.613249  1
  S  S17  1  0.586987  0.793492  0.113249  1
  S  S18  1  0.666667  0.333333  0.033393  1
  S  S19  1  0.793492  0.586987  0.613249  1
  S  S20  1  0.206508  0.413013  0.113249  1
  S  S21  1  0.333333  0.666667  0.533393  1
  S  S22  1  0.206508  0.793492  0.113249  1
  S  S23  1  0.793492  0.206508  0.613249  1
