# generated using pymatgen
data_Ho5Er5(Si5Ir2)4
_symmetry_space_group_name_H-M   'P 1'
_cell_length_a   12.61304300
_cell_length_b   12.61304300
_cell_length_c   4.25102700
_cell_angle_alpha   90.00000000
_cell_angle_beta   90.00000000
_cell_angle_gamma   90.00000000
_symmetry_Int_Tables_number   1
_chemical_formula_structural   Ho5Er5(Si5Ir2)4
_chemical_formula_sum   'Ho5 Er5 Si20 Ir8'
_cell_volume   676.29101256
_cell_formula_units_Z   1
loop_
 _symmetry_equiv_pos_site_id
 _symmetry_equiv_pos_as_xyz
  1  'x, y, z'
loop_
 _atom_site_type_symbol
 _atom_site_label
 _atom_site_symmetry_multiplicity
 _atom_site_fract_x
 _atom_site_fract_y
 _atom_site_fract_z
 _atom_site_occupancy
  Ho  Ho0  1  0.000000  0.000000  0.000000  1
  Ho  Ho1  1  0.883779  0.383785  0.500000  1
  Ho  Ho2  1  0.116221  0.616215  0.500000  1
  Ho  Ho3  1  0.383785  0.116221  0.500000  1
  Ho  Ho4  1  0.616215  0.883779  0.500000  1
  Er  Er5  1  0.500000  0.500000  0.000000  1
  Er  Er6  1  0.675612  0.175728  0.500000  1
  Er  Er7  1  0.324388  0.824272  0.500000  1
  Er  Er8  1  0.175728  0.324388  0.500000  1
  Er  Er9  1  0.824272  0.675612  0.500000  1
  Si  Si10  1  0.565821  0.065815  0.000000  1
  Si  Si11  1  0.434179  0.934185  0.000000  1
  Si  Si12  1  0.065815  0.434179  0.000000  1
  Si  Si13  1  0.934185  0.565821  0.000000  1
  Si  Si14  1  0.663757  0.700725  0.000000  1
  Si  Si15  1  0.336243  0.299275  0.000000  1
  Si  Si16  1  0.163761  0.799260  0.000000  1
  Si  Si17  1  0.836239  0.200740  0.000000  1
  Si  Si18  1  0.299275  0.663757  0.000000  1
  Si  Si19  1  0.700725  0.336243  0.000000  1
  Si  Si20  1  0.200740  0.163761  0.000000  1
  Si  Si21  1  0.799260  0.836239  0.000000  1
  Si  Si22  1  0.656340  0.503266  0.500000  1
  Si  Si23  1  0.343660  0.496734  0.500000  1
  Si  Si24  1  0.156526  0.996728  0.500000  1
  Si  Si25  1  0.843474  0.003272  0.500000  1
  Si  Si26  1  0.496734  0.656340  0.500000  1
  Si  Si27  1  0.503266  0.343660  0.500000  1
  Si  Si28  1  0.003272  0.156526  0.500000  1
  Si  Si29  1  0.996728  0.843474  0.500000  1
  Ir  Ir30  1  0.745662  0.520907  0.000000  1
  Ir  Ir31  1  0.254338  0.479093  0.000000  1
  Ir  Ir32  1  0.245836  0.979072  0.000000  1
  Ir  Ir33  1  0.754164  0.020928  0.000000  1
  Ir  Ir34  1  0.479093  0.745662  0.000000  1
  Ir  Ir35  1  0.520907  0.254338  0.000000  1
  Ir  Ir36  1  0.020928  0.245836  0.000000  1
  Ir  Ir37  1  0.979072  0.754164  0.000000  1
