# generated using pymatgen
data_Sc3Fe2CoSiP2
_symmetry_space_group_name_H-M   'P 1'
_cell_length_a   6.31080907
_cell_length_b   6.31080810
_cell_length_c   3.65892100
_cell_angle_alpha   90.00000000
_cell_angle_beta   90.00000000
_cell_angle_gamma   120.17153865
_symmetry_Int_Tables_number   1
_chemical_formula_structural   Sc3Fe2CoSiP2
_chemical_formula_sum   'Sc3 Fe2 Co1 Si1 P2'
_cell_volume   125.97964702
_cell_formula_units_Z   1
loop_
 _symmetry_equiv_pos_site_id
 _symmetry_equiv_pos_as_xyz
  1  'x, y, z'
loop_
 _atom_site_type_symbol
 _atom_site_label
 _atom_site_symmetry_multiplicity
 _atom_site_fract_x
 _atom_site_fract_y
 _atom_site_fract_z
 _atom_site_occupancy
  Sc  Sc0  1  0.420437  0.420437  0.500000  1
  Sc  Sc1  1  0.579010  0.001415  0.500000  1
  Sc  Sc2  1  0.001415  0.579010  0.500000  1
  Fe  Fe3  1  0.241045  0.000756  0.000000  1
  Fe  Fe4  1  0.000756  0.241045  0.000000  1
  Co  Co5  1  0.758870  0.758870  0.000000  1
  Si  Si6  1  0.998927  0.998927  0.500000  1
  P  P7  1  0.666597  0.332943  0.000000  1
  P  P8  1  0.332943  0.666597  0.000000  1
