# generated using pymatgen
data_YHo5Ni2
_symmetry_space_group_name_H-M   'P 1'
_cell_length_a   6.31982900
_cell_length_b   6.81328700
_cell_length_c   9.51394500
_cell_angle_alpha   90.00000000
_cell_angle_beta   90.00000000
_cell_angle_gamma   90.00000000
_symmetry_Int_Tables_number   1
_chemical_formula_structural   YHo5Ni2
_chemical_formula_sum   'Y2 Ho10 Ni4'
_cell_volume   409.65913838
_cell_formula_units_Z   2
loop_
 _symmetry_equiv_pos_site_id
 _symmetry_equiv_pos_as_xyz
  1  'x, y, z'
loop_
 _atom_site_type_symbol
 _atom_site_label
 _atom_site_symmetry_multiplicity
 _atom_site_fract_x
 _atom_site_fract_y
 _atom_site_fract_z
 _atom_site_occupancy
  Y  Y0  1  0.138832  0.467938  0.750000  1
  Y  Y1  1  0.361168  0.967938  0.750000  1
  Ho  Ho2  1  0.321742  0.677971  0.067042  1
  Ho  Ho3  1  0.178258  0.177971  0.432958  1
  Ho  Ho4  1  0.678424  0.321847  0.565389  1
  Ho  Ho5  1  0.821576  0.821847  0.934611  1
  Ho  Ho6  1  0.678424  0.321847  0.934611  1
  Ho  Ho7  1  0.821576  0.821847  0.565389  1
  Ho  Ho8  1  0.321742  0.677971  0.432958  1
  Ho  Ho9  1  0.178258  0.177971  0.067042  1
  Ho  Ho10  1  0.859803  0.534252  0.250000  1
  Ho  Ho11  1  0.640197  0.034252  0.250000  1
  Ni  Ni12  1  0.053613  0.890711  0.250000  1
  Ni  Ni13  1  0.446387  0.390711  0.250000  1
  Ni  Ni14  1  0.939433  0.107462  0.750000  1
  Ni  Ni15  1  0.560567  0.607462  0.750000  1
