# generated using pymatgen
data_Ca5NdRuWO12
_symmetry_space_group_name_H-M   'P 1'
_cell_length_a   6.62797282
_cell_length_b   6.61090719
_cell_length_c   6.64316038
_cell_angle_alpha   92.42768536
_cell_angle_beta   92.24458390
_cell_angle_gamma   92.34401765
_symmetry_Int_Tables_number   1
_chemical_formula_structural   Ca5NdRuWO12
_chemical_formula_sum   'Ca5 Nd1 Ru1 W1 O12'
_cell_volume   290.33422729
_cell_formula_units_Z   1
loop_
 _symmetry_equiv_pos_site_id
 _symmetry_equiv_pos_as_xyz
  1  'x, y, z'
loop_
 _atom_site_type_symbol
 _atom_site_label
 _atom_site_symmetry_multiplicity
 _atom_site_fract_x
 _atom_site_fract_y
 _atom_site_fract_z
 _atom_site_occupancy
  Ca  Ca0  1  0.740804  0.928599  0.434697  1
  Ca  Ca1  1  0.558171  0.256355  0.075474  1
  Ca  Ca2  1  0.438380  0.742528  0.927770  1
  Ca  Ca3  1  0.263122  0.068613  0.564499  1
  Ca  Ca4  1  0.074625  0.568719  0.257819  1
  Nd  Nd5  1  0.925265  0.431112  0.738038  1
  Ru  Ru6  1  0.497397  0.501480  0.496142  1
  W  W7  1  0.000340  0.000177  0.004751  1
  O  O8  1  0.941097  0.285098  0.068129  1
  O  O9  1  0.935617  0.062188  0.717644  1
  O  O10  1  0.788393  0.583010  0.453199  1
  O  O11  1  0.718431  0.933280  0.056395  1
  O  O12  1  0.579039  0.451668  0.787207  1
  O  O13  1  0.551002  0.215179  0.421665  1
  O  O14  1  0.452259  0.785036  0.580432  1
  O  O15  1  0.420113  0.548702  0.213819  1
  O  O16  1  0.281189  0.065229  0.942739  1
  O  O17  1  0.210248  0.417446  0.543773  1
  O  O18  1  0.066573  0.942547  0.282798  1
  O  O19  1  0.057937  0.713035  0.933010  1
