# generated using pymatgen
data_Y4Tm2TaMoO14
_symmetry_space_group_name_H-M   'P 1'
_cell_length_a   6.51342131
_cell_length_b   6.39652522
_cell_length_c   7.46916514
_cell_angle_alpha   90.24693268
_cell_angle_beta   89.68632016
_cell_angle_gamma   108.79602861
_symmetry_Int_Tables_number   1
_chemical_formula_structural   Y4Tm2TaMoO14
_chemical_formula_sum   'Y4 Tm2 Ta1 Mo1 O14'
_cell_volume   294.58906109
_cell_formula_units_Z   1
loop_
 _symmetry_equiv_pos_site_id
 _symmetry_equiv_pos_as_xyz
  1  'x, y, z'
loop_
 _atom_site_type_symbol
 _atom_site_label
 _atom_site_symmetry_multiplicity
 _atom_site_fract_x
 _atom_site_fract_y
 _atom_site_fract_z
 _atom_site_occupancy
  Y  Y0  1  0.532381  0.000632  0.755952  1
  Y  Y1  1  0.469961  0.998768  0.253375  1
  Y  Y2  1  0.469259  0.478468  0.002981  1
  Y  Y3  1  0.533488  0.523875  0.503209  1
  Tm  Tm4  1  0.000009  0.538798  0.247220  1
  Tm  Tm5  1  0.999345  0.461581  0.739886  1
  Ta  Ta6  1  0.003020  0.003861  0.500921  1
  Mo  Mo7  1  0.999408  0.997980  0.000653  1
  O  O8  1  0.931474  0.074655  0.749778  1
  O  O9  1  0.069279  0.926755  0.251441  1
  O  O10  1  0.351825  0.631158  0.255062  1
  O  O11  1  0.648080  0.369413  0.756683  1
  O  O12  1  0.359739  0.622229  0.746299  1
  O  O13  1  0.639140  0.377576  0.246241  1
  O  O14  1  0.332581  0.089489  0.977848  1
  O  O15  1  0.671946  0.912512  0.474701  1
  O  O16  1  0.317772  0.080185  0.536645  1
  O  O17  1  0.676438  0.913597  0.030211  1
  O  O18  1  0.031762  0.308091  0.454503  1
  O  O19  1  0.967249  0.696927  0.955780  1
  O  O20  1  0.927063  0.673345  0.529901  1
  O  O21  1  0.068779  0.320103  0.030708  1
