# generated using pymatgen
data_Pr5NdAl24Ir5Os3
_symmetry_space_group_name_H-M   'P 1'
_cell_length_a   8.89377900
_cell_length_b   8.93259160
_cell_length_c   9.68041201
_cell_angle_alpha   90.15185930
_cell_angle_beta   89.99998764
_cell_angle_gamma   119.85636687
_symmetry_Int_Tables_number   1
_chemical_formula_structural   Pr5NdAl24Ir5Os3
_chemical_formula_sum   'Pr5 Nd1 Al24 Ir5 Os3'
_cell_volume   666.98030882
_cell_formula_units_Z   1
loop_
 _symmetry_equiv_pos_site_id
 _symmetry_equiv_pos_as_xyz
  1  'x, y, z'
loop_
 _atom_site_type_symbol
 _atom_site_label
 _atom_site_symmetry_multiplicity
 _atom_site_fract_x
 _atom_site_fract_y
 _atom_site_fract_z
 _atom_site_occupancy
  Pr  Pr0  1  0.809528  0.619056  0.749926  1
  Pr  Pr1  1  0.619200  0.811523  0.250454  1
  Pr  Pr2  1  0.380863  0.188444  0.749541  1
  Pr  Pr3  1  0.192322  0.811523  0.250454  1
  Pr  Pr4  1  0.807582  0.188444  0.749541  1
  Nd  Nd5  1  0.190771  0.381541  0.250092  1
  Al  Al6  1  0.333306  0.666613  0.022326  1
  Al  Al7  1  0.666473  0.332947  0.978514  1
  Al  Al8  1  0.665772  0.331544  0.521518  1
  Al  Al9  1  0.334050  0.668100  0.477668  1
  Al  Al10  1  0.163800  0.327601  0.572982  1
  Al  Al11  1  0.836155  0.672310  0.426276  1
  Al  Al12  1  0.671443  0.836849  0.573990  1
  Al  Al13  1  0.836473  0.672946  0.074461  1
  Al  Al14  1  0.328230  0.163287  0.425577  1
  Al  Al15  1  0.163494  0.326988  0.926262  1
  Al  Al16  1  0.165407  0.836849  0.573991  1
  Al  Al17  1  0.327665  0.165049  0.074817  1
  Al  Al18  1  0.835057  0.163288  0.425576  1
  Al  Al19  1  0.671978  0.835158  0.925637  1
  Al  Al20  1  0.837384  0.165049  0.074818  1
  Al  Al21  1  0.163180  0.835158  0.925635  1
  Al  Al22  1  0.563869  0.127740  0.250736  1
  Al  Al23  1  0.436070  0.872141  0.749214  1
  Al  Al24  1  0.873835  0.437464  0.249737  1
  Al  Al25  1  0.126591  0.562297  0.750253  1
  Al  Al26  1  0.563631  0.437466  0.249738  1
  Al  Al27  1  0.435707  0.562298  0.750254  1
  Al  Al28  1  0.001405  0.002811  0.250084  1
  Al  Al29  1  0.999180  0.998359  0.749935  1
  Ir  Ir30  1  0.499939  0.999878  0.000149  1
  Ir  Ir31  1  0.000086  0.499834  0.000224  1
  Ir  Ir32  1  0.499748  0.499835  0.000224  1
  Ir  Ir33  1  0.000090  0.499814  0.499756  1
  Ir  Ir34  1  0.499724  0.499814  0.499757  1
  Os  Os35  1  0.499952  0.999904  0.499883  1
  Os  Os36  1  0.000021  0.000042  0.000078  1
  Os  Os37  1  0.000018  0.000036  0.499924  1
