# generated using pymatgen
data_Tm4Sc8Fe2Sn2Os
_symmetry_space_group_name_H-M   'P 1'
_cell_length_a   7.96472628
_cell_length_b   7.96472669
_cell_length_c   7.96472700
_cell_angle_alpha   108.31309263
_cell_angle_beta   108.31307847
_cell_angle_gamma   111.81317717
_symmetry_Int_Tables_number   1
_chemical_formula_structural   Tm4Sc8Fe2Sn2Os
_chemical_formula_sum   'Tm4 Sc8 Fe2 Sn2 Os1'
_cell_volume   388.45771850
_cell_formula_units_Z   1
loop_
 _symmetry_equiv_pos_site_id
 _symmetry_equiv_pos_as_xyz
  1  'x, y, z'
loop_
 _atom_site_type_symbol
 _atom_site_label
 _atom_site_symmetry_multiplicity
 _atom_site_fract_x
 _atom_site_fract_y
 _atom_site_fract_z
 _atom_site_occupancy
  Tm  Tm0  1  0.303362  0.303362  0.606716  1
  Tm  Tm1  1  0.696638  0.696638  0.393284  1
  Tm  Tm2  1  0.696645  0.303362  0.999999  1
  Tm  Tm3  1  0.303355  0.696638  0.000001  1
  Sc  Sc4  1  0.193549  0.427327  0.233777  1
  Sc  Sc5  1  0.806451  0.572673  0.766223  1
  Sc  Sc6  1  0.193552  0.959773  0.766220  1
  Sc  Sc7  1  0.959765  0.193544  0.766219  1
  Sc  Sc8  1  0.806448  0.040227  0.233780  1
  Sc  Sc9  1  0.040235  0.806456  0.233781  1
  Sc  Sc10  1  0.427326  0.193544  0.233780  1
  Sc  Sc11  1  0.572674  0.806456  0.766220  1
  Fe  Fe12  1  0.377250  0.377250  0.000000  1
  Fe  Fe13  1  0.622750  0.622750  0.000000  1
  Sn  Sn14  1  0.000000  0.500000  0.500000  1
  Sn  Sn15  1  0.500000  0.000000  0.500000  1
  Os  Os16  1  0.000000  0.000000  0.000000  1
