# generated using pymatgen
data_HoTm4Lu7Co5Bi
_symmetry_space_group_name_H-M   'P 1'
_cell_length_a   8.13568791
_cell_length_b   8.13769897
_cell_length_c   8.13769843
_cell_angle_alpha   111.01775125
_cell_angle_beta   111.00265473
_cell_angle_gamma   106.44472220
_symmetry_Int_Tables_number   1
_chemical_formula_structural   HoTm4Lu7Co5Bi
_chemical_formula_sum   'Ho1 Tm4 Lu7 Co5 Bi1'
_cell_volume   413.82646133
_cell_formula_units_Z   1
loop_
 _symmetry_equiv_pos_site_id
 _symmetry_equiv_pos_as_xyz
  1  'x, y, z'
loop_
 _atom_site_type_symbol
 _atom_site_label
 _atom_site_symmetry_multiplicity
 _atom_site_fract_x
 _atom_site_fract_y
 _atom_site_fract_z
 _atom_site_occupancy
  Ho  Ho0  1  0.015501  0.211104  0.804397  1
  Tm  Tm1  1  0.815712  0.713512  0.530296  1
  Tm  Tm2  1  0.183465  0.284774  0.467360  1
  Tm  Tm3  1  0.183465  0.716104  0.898691  1
  Tm  Tm4  1  0.815712  0.285417  0.102200  1
  Lu  Lu5  1  0.687639  0.380017  0.690714  1
  Lu  Lu6  1  0.312419  0.621254  0.309980  1
  Lu  Lu7  1  0.687639  0.996925  0.307621  1
  Lu  Lu8  1  0.312419  0.002440  0.691168  1
  Lu  Lu9  1  0.593219  0.788887  0.804332  1
  Lu  Lu10  1  0.407588  0.210821  0.196767  1
  Lu  Lu11  1  0.985481  0.789426  0.196055  1
  Co  Co12  1  0.624368  0.999240  0.625128  1
  Co  Co13  1  0.374387  0.000427  0.373960  1
  Co  Co14  1  0.113311  0.612876  0.500435  1
  Co  Co15  1  0.886392  0.387597  0.498796  1
  Co  Co16  1  0.000194  0.998690  0.001504  1
  Bi  Bi17  1  0.501088  0.500491  0.000598  1
