# generated using pymatgen
data_Ta2MoHC2
_symmetry_space_group_name_H-M   'P 1'
_cell_length_a   3.10183900
_cell_length_b   3.10183843
_cell_length_c   7.59215900
_cell_angle_alpha   90.00000000
_cell_angle_beta   90.00000000
_cell_angle_gamma   119.99999544
_symmetry_Int_Tables_number   1
_chemical_formula_structural   Ta2MoHC2
_chemical_formula_sum   'Ta2 Mo1 H1 C2'
_cell_volume   63.26075497
_cell_formula_units_Z   1
loop_
 _symmetry_equiv_pos_site_id
 _symmetry_equiv_pos_as_xyz
  1  'x, y, z'
loop_
 _atom_site_type_symbol
 _atom_site_label
 _atom_site_symmetry_multiplicity
 _atom_site_fract_x
 _atom_site_fract_y
 _atom_site_fract_z
 _atom_site_occupancy
  Ta  Ta0  1  0.000000  0.000000  0.497816  1
  Ta  Ta1  1  0.666667  0.333333  0.842160  1
  Mo  Mo2  1  0.333333  0.666667  0.172274  1
  H  H3  1  0.000000  0.000000  0.992653  1
  C  C4  1  0.333333  0.666667  0.671262  1
  C  C5  1  0.666667  0.333333  0.323835  1
