# generated using pymatgen
data_Sc4Co2As6Ru5
_symmetry_space_group_name_H-M   'P 1'
_cell_length_a   7.02431844
_cell_length_b   7.02431863
_cell_length_c   6.99666582
_cell_angle_alpha   109.77963359
_cell_angle_beta   109.77963064
_cell_angle_gamma   109.01755053
_symmetry_Int_Tables_number   1
_chemical_formula_structural   Sc4Co2As6Ru5
_chemical_formula_sum   'Sc4 Co2 As6 Ru5'
_cell_volume   265.20452255
_cell_formula_units_Z   1
loop_
 _symmetry_equiv_pos_site_id
 _symmetry_equiv_pos_as_xyz
  1  'x, y, z'
loop_
 _atom_site_type_symbol
 _atom_site_label
 _atom_site_symmetry_multiplicity
 _atom_site_fract_x
 _atom_site_fract_y
 _atom_site_fract_z
 _atom_site_occupancy
  Sc  Sc0  1  0.004695  0.004695  0.505777  1
  Sc  Sc1  1  0.498076  0.998076  0.996152  1
  Sc  Sc2  1  0.998076  0.498076  0.996152  1
  Sc  Sc3  1  0.501082  0.501082  0.505777  1
  Co  Co4  1  0.750016  0.501190  0.251206  1
  Co  Co5  1  0.501190  0.750016  0.251206  1
  As  As6  1  0.313739  0.995678  0.309417  1
  As  As7  1  0.995678  0.313739  0.309417  1
  As  As8  1  0.994001  0.683723  0.677723  1
  As  As9  1  0.325600  0.325600  0.013819  1
  As  As10  1  0.688219  0.688219  0.013819  1
  As  As11  1  0.683723  0.994001  0.677723  1
  Ru  Ru12  1  0.502287  0.251339  0.753626  1
  Ru  Ru13  1  0.746366  0.246366  0.492733  1
  Ru  Ru14  1  0.246366  0.746366  0.492733  1
  Ru  Ru15  1  0.251339  0.502287  0.753626  1
  Ru  Ru16  1  0.999546  0.999546  0.999091  1
