# generated using pymatgen
data_Tb3Y(Nb3Si4)2
_symmetry_space_group_name_H-M   'P 1'
_cell_length_a   7.08734223
_cell_length_b   7.08669991
_cell_length_c   13.07982200
_cell_angle_alpha   90.00000000
_cell_angle_beta   90.00000000
_cell_angle_gamma   89.92844333
_symmetry_Int_Tables_number   1
_chemical_formula_structural   Tb3Y(Nb3Si4)2
_chemical_formula_sum   'Tb6 Y2 Nb12 Si16'
_cell_volume   656.94489482
_cell_formula_units_Z   2
loop_
 _symmetry_equiv_pos_site_id
 _symmetry_equiv_pos_as_xyz
  1  'x, y, z'
loop_
 _atom_site_type_symbol
 _atom_site_label
 _atom_site_symmetry_multiplicity
 _atom_site_fract_x
 _atom_site_fract_y
 _atom_site_fract_z
 _atom_site_occupancy
  Tb  Tb0  1  0.158981  0.498214  0.467735  1
  Tb  Tb1  1  0.501692  0.841103  0.032188  1
  Tb  Tb2  1  0.841019  0.501786  0.967735  1
  Tb  Tb3  1  0.498308  0.158897  0.532188  1
  Tb  Tb4  1  0.341230  0.998897  0.782268  1
  Tb  Tb5  1  0.658770  0.001103  0.282268  1
  Y  Y6  1  0.998777  0.340910  0.217681  1
  Y  Y7  1  0.001223  0.659090  0.717681  1
  Nb  Nb8  1  0.171089  0.171010  0.999972  1
  Nb  Nb9  1  0.828911  0.828990  0.499972  1
  Nb  Nb10  1  0.329263  0.670651  0.250076  1
  Nb  Nb11  1  0.670737  0.329349  0.750076  1
  Nb  Nb12  1  0.153959  0.992034  0.376355  1
  Nb  Nb13  1  0.846041  0.007966  0.876355  1
  Nb  Nb14  1  0.507697  0.654133  0.625991  1
  Nb  Nb15  1  0.346162  0.492862  0.874034  1
  Nb  Nb16  1  0.492303  0.345867  0.125991  1
  Nb  Nb17  1  0.653838  0.507138  0.374034  1
  Nb  Nb18  1  0.992668  0.154116  0.623677  1
  Nb  Nb19  1  0.007332  0.845884  0.123677  1
  Si  Si20  1  0.293050  0.044953  0.186508  1
  Si  Si21  1  0.706950  0.955047  0.686508  1
  Si  Si22  1  0.454815  0.792586  0.436470  1
  Si  Si23  1  0.207114  0.545121  0.063612  1
  Si  Si24  1  0.545185  0.207414  0.936470  1
  Si  Si25  1  0.792886  0.454879  0.563612  1
  Si  Si26  1  0.045423  0.293824  0.813395  1
  Si  Si27  1  0.954577  0.706176  0.313395  1
  Si  Si28  1  0.368027  0.294918  0.317586  1
  Si  Si29  1  0.631973  0.705082  0.817586  1
  Si  Si30  1  0.204238  0.868017  0.567640  1
  Si  Si31  1  0.131849  0.795920  0.932371  1
  Si  Si32  1  0.795762  0.131983  0.067640  1
  Si  Si33  1  0.868151  0.204080  0.432371  1
  Si  Si34  1  0.295288  0.368667  0.682441  1
  Si  Si35  1  0.704712  0.631333  0.182441  1
