# generated using pymatgen
data_La9Ce(Cu2Ru3)2
_symmetry_space_group_name_H-M   'P 1'
_cell_length_a   8.46674809
_cell_length_b   8.54487592
_cell_length_c   8.54487600
_cell_angle_alpha   109.65569823
_cell_angle_beta   109.28611136
_cell_angle_gamma   109.28610529
_symmetry_Int_Tables_number   1
_chemical_formula_structural   La9Ce(Cu2Ru3)2
_chemical_formula_sum   'La9 Ce1 Cu4 Ru6'
_cell_volume   476.97248900
_cell_formula_units_Z   1
loop_
 _symmetry_equiv_pos_site_id
 _symmetry_equiv_pos_as_xyz
  1  'x, y, z'
loop_
 _atom_site_type_symbol
 _atom_site_label
 _atom_site_symmetry_multiplicity
 _atom_site_fract_x
 _atom_site_fract_y
 _atom_site_fract_z
 _atom_site_occupancy
  La  La0  1  0.254178  0.305427  0.054048  1
  La  La1  1  0.727359  0.733496  0.231432  1
  La  La2  1  0.200129  0.945952  0.251379  1
  La  La3  1  0.993864  0.497937  0.266505  1
  La  La4  1  0.749526  0.193385  0.441153  1
  La  La5  1  0.495929  0.768570  0.502065  1
  La  La6  1  0.948751  0.748621  0.694573  1
  La  La7  1  0.308373  0.558847  0.752231  1
  La  La8  1  0.556141  0.247769  0.806614  1
  Ce  Ce9  1  0.797631  0.000000  0.000000  1
  Cu  Cu10  1  0.430484  0.000000  0.000000  1
  Cu  Cu11  1  0.492987  0.409524  0.495973  1
  Cu  Cu12  1  0.083462  0.086449  0.590476  1
  Cu  Cu13  1  0.997014  0.504027  0.913551  1
  Ru  Ru14  1  0.380665  0.755058  0.135306  1
  Ru  Ru15  1  0.625607  0.380248  0.244942  1
  Ru  Ru16  1  0.094702  0.222349  0.349213  1
  Ru  Ru17  1  0.245358  0.864694  0.619753  1
  Ru  Ru18  1  0.872353  0.126864  0.777651  1
  Ru  Ru19  1  0.745489  0.650787  0.873136  1
