# generated using pymatgen
data_Sc6Ti16ReIr6
_symmetry_space_group_name_H-M   'P 1'
_cell_length_a   8.97324464
_cell_length_b   8.97324466
_cell_length_c   8.97324400
_cell_angle_alpha   60.00000243
_cell_angle_beta   60.00000237
_cell_angle_gamma   60.00000589
_symmetry_Int_Tables_number   1
_chemical_formula_structural   Sc6Ti16ReIr6
_chemical_formula_sum   'Sc6 Ti16 Re1 Ir6'
_cell_volume   510.89721098
_cell_formula_units_Z   1
loop_
 _symmetry_equiv_pos_site_id
 _symmetry_equiv_pos_as_xyz
  1  'x, y, z'
loop_
 _atom_site_type_symbol
 _atom_site_label
 _atom_site_symmetry_multiplicity
 _atom_site_fract_x
 _atom_site_fract_y
 _atom_site_fract_z
 _atom_site_occupancy
  Sc  Sc0  1  0.694188  0.694188  0.305812  1
  Sc  Sc1  1  0.305812  0.694188  0.305812  1
  Sc  Sc2  1  0.694188  0.305812  0.305812  1
  Sc  Sc3  1  0.305812  0.305812  0.694188  1
  Sc  Sc4  1  0.694188  0.305812  0.694188  1
  Sc  Sc5  1  0.305812  0.694188  0.694188  1
  Ti  Ti6  1  0.882543  0.882543  0.352371  1
  Ti  Ti7  1  0.882543  0.352371  0.882543  1
  Ti  Ti8  1  0.352371  0.882543  0.882543  1
  Ti  Ti9  1  0.882543  0.882543  0.882543  1
  Ti  Ti10  1  0.117457  0.117457  0.647629  1
  Ti  Ti11  1  0.117457  0.647629  0.117457  1
  Ti  Ti12  1  0.647629  0.117457  0.117457  1
  Ti  Ti13  1  0.117457  0.117457  0.117457  1
  Ti  Ti14  1  0.669973  0.669973  0.990079  1
  Ti  Ti15  1  0.669973  0.990079  0.669973  1
  Ti  Ti16  1  0.990079  0.669973  0.669973  1
  Ti  Ti17  1  0.669973  0.669973  0.669973  1
  Ti  Ti18  1  0.330027  0.330027  0.009921  1
  Ti  Ti19  1  0.330027  0.009921  0.330027  1
  Ti  Ti20  1  0.009921  0.330027  0.330027  1
  Ti  Ti21  1  0.330027  0.330027  0.330027  1
  Re  Re22  1  0.000000  0.000000  0.000000  1
  Ir  Ir23  1  0.000000  0.000000  0.500000  1
  Ir  Ir24  1  0.500000  0.000000  0.500000  1
  Ir  Ir25  1  0.000000  0.500000  0.500000  1
  Ir  Ir26  1  0.500000  0.500000  0.000000  1
  Ir  Ir27  1  0.000000  0.500000  0.000000  1
  Ir  Ir28  1  0.500000  0.000000  0.000000  1
