# generated using pymatgen
data_Sr2La(PtPb)3
_symmetry_space_group_name_H-M   'P 1'
_cell_length_a   8.00005200
_cell_length_b   7.98907794
_cell_length_c   4.23579900
_cell_angle_alpha   90.00000000
_cell_angle_beta   90.00000000
_cell_angle_gamma   119.95462113
_symmetry_Int_Tables_number   1
_chemical_formula_structural   Sr2La(PtPb)3
_chemical_formula_sum   'Sr2 La1 Pt3 Pb3'
_cell_volume   234.55994473
_cell_formula_units_Z   1
loop_
 _symmetry_equiv_pos_site_id
 _symmetry_equiv_pos_as_xyz
  1  'x, y, z'
loop_
 _atom_site_type_symbol
 _atom_site_label
 _atom_site_symmetry_multiplicity
 _atom_site_fract_x
 _atom_site_fract_y
 _atom_site_fract_z
 _atom_site_occupancy
  Sr  Sr0  1  0.589278  0.999469  0.500000  1
  Sr  Sr1  1  0.410722  0.410191  0.500000  1
  La  La2  1  0.000000  0.584971  0.500000  1
  Pt  Pt3  1  0.000000  0.987280  0.500000  1
  Pt  Pt4  1  0.694818  0.356838  0.000000  1
  Pt  Pt5  1  0.305182  0.662021  0.000000  1
  Pb  Pb6  1  0.000000  0.246999  0.000000  1
  Pb  Pb7  1  0.259266  0.005750  0.000000  1
  Pb  Pb8  1  0.740734  0.746483  0.000000  1
