# generated using pymatgen
data_Sc2P7(Rh3W)3
_symmetry_space_group_name_H-M   'P 1'
_cell_length_a   3.90577809
_cell_length_b   9.46860819
_cell_length_c   9.46858102
_cell_angle_alpha   119.99951794
_cell_angle_beta   90.00165864
_cell_angle_gamma   89.99485513
_symmetry_Int_Tables_number   1
_chemical_formula_structural   Sc2P7(Rh3W)3
_chemical_formula_sum   'Sc2 P7 Rh9 W3'
_cell_volume   303.25735970
_cell_formula_units_Z   1
loop_
 _symmetry_equiv_pos_site_id
 _symmetry_equiv_pos_as_xyz
  1  'x, y, z'
loop_
 _atom_site_type_symbol
 _atom_site_label
 _atom_site_symmetry_multiplicity
 _atom_site_fract_x
 _atom_site_fract_y
 _atom_site_fract_z
 _atom_site_occupancy
  Sc  Sc0  1  0.261748  0.666641  0.333284  1
  Sc  Sc1  1  0.762206  0.333336  0.666682  1
  P  P2  1  0.261837  0.000006  0.999971  1
  P  P3  1  0.761880  0.876923  0.588846  1
  P  P4  1  0.761916  0.411148  0.288064  1
  P  P5  1  0.761854  0.711910  0.123045  1
  P  P6  1  0.261920  0.121099  0.415599  1
  P  P7  1  0.261916  0.584437  0.705530  1
  P  P8  1  0.261878  0.294508  0.878926  1
  Rh  Rh9  1  0.261915  0.885643  0.160997  1
  Rh  Rh10  1  0.261901  0.838964  0.724547  1
  Rh  Rh11  1  0.261901  0.275404  0.114431  1
  Rh  Rh12  1  0.761907  0.612992  0.556312  1
  Rh  Rh13  1  0.761917  0.443623  0.056617  1
  Rh  Rh14  1  0.761909  0.943287  0.386983  1
  Rh  Rh15  1  0.261910  0.370171  0.441185  1
  Rh  Rh16  1  0.261903  0.558882  0.929050  1
  Rh  Rh17  1  0.261956  0.070984  0.629841  1
  W  W18  1  0.761876  0.090452  0.868579  1
  W  W19  1  0.761877  0.131496  0.221996  1
  W  W20  1  0.761872  0.778094  0.909514  1
