# generated using pymatgen
data_Sr4V2BrClO6
_symmetry_space_group_name_H-M   'P 1'
_cell_length_a   5.68031383
_cell_length_b   5.68557963
_cell_length_c   14.90269705
_cell_angle_alpha   90.00111137
_cell_angle_beta   89.99951800
_cell_angle_gamma   88.54210253
_symmetry_Int_Tables_number   1
_chemical_formula_structural   Sr4V2BrClO6
_chemical_formula_sum   'Sr8 V4 Br2 Cl2 O12'
_cell_volume   481.13986495
_cell_formula_units_Z   2
loop_
 _symmetry_equiv_pos_site_id
 _symmetry_equiv_pos_as_xyz
  1  'x, y, z'
loop_
 _atom_site_type_symbol
 _atom_site_label
 _atom_site_symmetry_multiplicity
 _atom_site_fract_x
 _atom_site_fract_y
 _atom_site_fract_z
 _atom_site_occupancy
  Sr  Sr0  1  0.250014  0.000010  0.330597  1
  Sr  Sr1  1  0.750011  0.500020  0.328786  1
  Sr  Sr2  1  0.749984  0.999994  0.671220  1
  Sr  Sr3  1  0.249968  0.500016  0.669394  1
  Sr  Sr4  1  0.250050  0.999951  0.092531  1
  Sr  Sr5  1  0.749965  0.500084  0.088421  1
  Sr  Sr6  1  0.750036  0.000039  0.911579  1
  Sr  Sr7  1  0.249829  0.499940  0.907462  1
  V  V8  1  0.250038  0.500014  0.200017  1
  V  V9  1  0.750019  0.499992  0.790674  1
  V  V10  1  0.749968  0.999995  0.209341  1
  V  V11  1  0.249977  0.999985  0.799986  1
  Br  Br12  1  0.250006  0.500012  0.422633  1
  Br  Br13  1  0.250005  0.000013  0.577341  1
  Cl  Cl14  1  0.750030  0.000040  0.403893  1
  Cl  Cl15  1  0.749963  0.500028  0.596114  1
  O  O16  1  0.249865  0.000092  0.927587  1
  O  O17  1  0.750315  0.499836  0.926297  1
  O  O18  1  0.749845  0.999845  0.073705  1
  O  O19  1  0.250153  0.500120  0.072421  1
  O  O20  1  0.495987  0.253709  0.224345  1
  O  O21  1  0.004007  0.746301  0.224336  1
  O  O22  1  0.503082  0.254314  0.778200  1
  O  O23  1  0.996899  0.745650  0.778181  1
  O  O24  1  0.503097  0.754331  0.221843  1
  O  O25  1  0.996903  0.245691  0.221780  1
  O  O26  1  0.495970  0.753726  0.775694  1
  O  O27  1  0.004019  0.246249  0.775621  1
