# generated using pymatgen
data_CuPdRhSe4
_symmetry_space_group_name_H-M   'P 1'
_cell_length_a   7.42509162
_cell_length_b   7.43250339
_cell_length_c   7.42509202
_cell_angle_alpha   59.96697844
_cell_angle_beta   59.92831295
_cell_angle_gamma   59.96697615
_symmetry_Int_Tables_number   1
_chemical_formula_structural   CuPdRhSe4
_chemical_formula_sum   'Cu2 Pd2 Rh2 Se8'
_cell_volume   289.44844066
_cell_formula_units_Z   2
loop_
 _symmetry_equiv_pos_site_id
 _symmetry_equiv_pos_as_xyz
  1  'x, y, z'
loop_
 _atom_site_type_symbol
 _atom_site_label
 _atom_site_symmetry_multiplicity
 _atom_site_fract_x
 _atom_site_fract_y
 _atom_site_fract_z
 _atom_site_occupancy
  Cu  Cu0  1  0.498478  0.501522  0.498478  1
  Cu  Cu1  1  0.751522  0.748478  0.751522  1
  Pd  Pd2  1  0.125000  0.125000  0.125000  1
  Pd  Pd3  1  0.125000  0.625000  0.125000  1
  Rh  Rh4  1  0.125000  0.125000  0.625000  1
  Rh  Rh5  1  0.625000  0.125000  0.125000  1
  Se  Se6  1  0.346159  0.886567  0.880708  1
  Se  Se7  1  0.367635  0.358985  0.367635  1
  Se  Se8  1  0.903841  0.363433  0.369292  1
  Se  Se9  1  0.880708  0.886567  0.346159  1
  Se  Se10  1  0.882365  0.891015  0.882365  1
  Se  Se11  1  0.367635  0.905745  0.367635  1
  Se  Se12  1  0.369292  0.363433  0.903841  1
  Se  Se13  1  0.882365  0.344255  0.882365  1
