# generated using pymatgen
data_Cd2PdO4
_symmetry_space_group_name_H-M   'P 1'
_cell_length_a   3.17179300
_cell_length_b   5.60384000
_cell_length_c   9.98822000
_cell_angle_alpha   90.00000000
_cell_angle_beta   90.00000000
_cell_angle_gamma   90.00000000
_symmetry_Int_Tables_number   1
_chemical_formula_structural   Cd2PdO4
_chemical_formula_sum   'Cd4 Pd2 O8'
_cell_volume   177.53282453
_cell_formula_units_Z   2
loop_
 _symmetry_equiv_pos_site_id
 _symmetry_equiv_pos_as_xyz
  1  'x, y, z'
loop_
 _atom_site_type_symbol
 _atom_site_label
 _atom_site_symmetry_multiplicity
 _atom_site_fract_x
 _atom_site_fract_y
 _atom_site_fract_z
 _atom_site_occupancy
  Cd  Cd0  1  0.500000  0.061613  0.322671  1
  Cd  Cd1  1  0.500000  0.938387  0.677329  1
  Cd  Cd2  1  0.500000  0.438387  0.822671  1
  Cd  Cd3  1  0.500000  0.561613  0.177329  1
  Pd  Pd4  1  0.000000  0.000000  0.000000  1
  Pd  Pd5  1  0.000000  0.500000  0.500000  1
  O  O6  1  0.000000  0.133788  0.810213  1
  O  O7  1  0.000000  0.866212  0.189787  1
  O  O8  1  0.000000  0.633788  0.689787  1
  O  O9  1  0.000000  0.366212  0.310213  1
  O  O10  1  0.500000  0.274108  0.536676  1
  O  O11  1  0.500000  0.725892  0.463324  1
  O  O12  1  0.500000  0.225892  0.036676  1
  O  O13  1  0.500000  0.774108  0.963324  1
