# generated using pymatgen
data_LaScWO6
_symmetry_space_group_name_H-M   'P 1'
_cell_length_a   5.38346300
_cell_length_b   5.38340863
_cell_length_c   10.28027100
_cell_angle_alpha   89.99978664
_cell_angle_beta   90.00009676
_cell_angle_gamma   119.99967290
_symmetry_Int_Tables_number   1
_chemical_formula_structural   LaScWO6
_chemical_formula_sum   'La2 Sc2 W2 O12'
_cell_volume   258.02138699
_cell_formula_units_Z   2
loop_
 _symmetry_equiv_pos_site_id
 _symmetry_equiv_pos_as_xyz
  1  'x, y, z'
loop_
 _atom_site_type_symbol
 _atom_site_label
 _atom_site_symmetry_multiplicity
 _atom_site_fract_x
 _atom_site_fract_y
 _atom_site_fract_z
 _atom_site_occupancy
  La  La0  1  0.000000  0.000000  0.000000  1
  La  La1  1  0.000000  0.000000  0.500000  1
  Sc  Sc2  1  0.333358  0.666678  0.250000  1
  Sc  Sc3  1  0.666642  0.333322  0.750000  1
  W  W4  1  0.666664  0.333332  0.250000  1
  W  W5  1  0.333336  0.666668  0.750000  1
  O  O6  1  0.645257  0.623093  0.143256  1
  O  O7  1  0.376898  0.022147  0.143252  1
  O  O8  1  0.977851  0.354750  0.143253  1
  O  O9  1  0.977851  0.623099  0.356747  1
  O  O10  1  0.376896  0.354749  0.356748  1
  O  O11  1  0.645257  0.022161  0.356744  1
  O  O12  1  0.022149  0.376901  0.643253  1
  O  O13  1  0.354743  0.977839  0.643256  1
  O  O14  1  0.623104  0.645251  0.643253  1
  O  O15  1  0.623104  0.977853  0.856747  1
  O  O16  1  0.354745  0.376907  0.856744  1
  O  O17  1  0.022151  0.645250  0.856747  1
