# generated using pymatgen
data_Sc6Ta3TiAl12Ru7
_symmetry_space_group_name_H-M   'P 1'
_cell_length_a   8.85247572
_cell_length_b   8.85247471
_cell_length_c   8.85247549
_cell_angle_alpha   60.07577377
_cell_angle_beta   60.07577548
_cell_angle_gamma   60.07577715
_symmetry_Int_Tables_number   1
_chemical_formula_structural   Sc6Ta3TiAl12Ru7
_chemical_formula_sum   'Sc6 Ta3 Ti1 Al12 Ru7'
_cell_volume   491.38772489
_cell_formula_units_Z   1
loop_
 _symmetry_equiv_pos_site_id
 _symmetry_equiv_pos_as_xyz
  1  'x, y, z'
loop_
 _atom_site_type_symbol
 _atom_site_label
 _atom_site_symmetry_multiplicity
 _atom_site_fract_x
 _atom_site_fract_y
 _atom_site_fract_z
 _atom_site_occupancy
  Sc  Sc0  1  0.712004  0.712004  0.283710  1
  Sc  Sc1  1  0.290293  0.710261  0.290293  1
  Sc  Sc2  1  0.710261  0.290293  0.290293  1
  Sc  Sc3  1  0.290293  0.290293  0.710261  1
  Sc  Sc4  1  0.712004  0.283710  0.712004  1
  Sc  Sc5  1  0.283710  0.712004  0.712004  1
  Ta  Ta6  1  0.878942  0.878942  0.361252  1
  Ta  Ta7  1  0.878942  0.361252  0.878942  1
  Ta  Ta8  1  0.361252  0.878942  0.878942  1
  Ti  Ti9  1  0.880693  0.880693  0.880693  1
  Al  Al10  1  0.120335  0.120335  0.638411  1
  Al  Al11  1  0.120335  0.638411  0.120335  1
  Al  Al12  1  0.638411  0.120335  0.120335  1
  Al  Al13  1  0.120592  0.120592  0.120592  1
  Al  Al14  1  0.666610  0.666610  0.004869  1
  Al  Al15  1  0.666610  0.004869  0.666610  1
  Al  Al16  1  0.004869  0.666610  0.666610  1
  Al  Al17  1  0.661791  0.661791  0.661791  1
  Al  Al18  1  0.334684  0.334684  0.997088  1
  Al  Al19  1  0.334684  0.997088  0.334684  1
  Al  Al20  1  0.997088  0.334684  0.334684  1
  Al  Al21  1  0.335057  0.335057  0.335057  1
  Ru  Ru22  1  0.000162  0.000162  0.000162  1
  Ru  Ru23  1  0.997868  0.997868  0.500796  1
  Ru  Ru24  1  0.503581  0.996684  0.503581  1
  Ru  Ru25  1  0.996684  0.503581  0.503581  1
  Ru  Ru26  1  0.503581  0.503581  0.996684  1
  Ru  Ru27  1  0.997868  0.500796  0.997868  1
  Ru  Ru28  1  0.500796  0.997868  0.997868  1
