# generated using pymatgen
data_NaPd2Se3
_symmetry_space_group_name_H-M   'P 1'
_cell_length_a   7.46264200
_cell_length_b   7.46264152
_cell_length_c   11.73088200
_cell_angle_alpha   90.00000000
_cell_angle_beta   90.00000000
_cell_angle_gamma   120.00000212
_symmetry_Int_Tables_number   1
_chemical_formula_structural   NaPd2Se3
_chemical_formula_sum   'Na4 Pd8 Se12'
_cell_volume   565.77854826
_cell_formula_units_Z   4
loop_
 _symmetry_equiv_pos_site_id
 _symmetry_equiv_pos_as_xyz
  1  'x, y, z'
loop_
 _atom_site_type_symbol
 _atom_site_label
 _atom_site_symmetry_multiplicity
 _atom_site_fract_x
 _atom_site_fract_y
 _atom_site_fract_z
 _atom_site_occupancy
  Na  Na0  1  0.333333  0.666667  0.312060  1
  Na  Na1  1  0.666667  0.333333  0.812060  1
  Na  Na2  1  0.000000  0.000000  0.692822  1
  Na  Na3  1  0.000000  0.000000  0.192822  1
  Pd  Pd4  1  0.834202  0.165798  0.006445  1
  Pd  Pd5  1  0.668402  0.834202  0.506445  1
  Pd  Pd6  1  0.165798  0.331598  0.506445  1
  Pd  Pd7  1  0.834202  0.668402  0.006445  1
  Pd  Pd8  1  0.331598  0.165798  0.006445  1
  Pd  Pd9  1  0.165798  0.834202  0.506445  1
  Pd  Pd10  1  0.666667  0.333333  0.498867  1
  Pd  Pd11  1  0.333333  0.666667  0.998867  1
  Se  Se12  1  0.498497  0.501503  0.611542  1
  Se  Se13  1  0.996995  0.498497  0.111542  1
  Se  Se14  1  0.501503  0.003005  0.111542  1
  Se  Se15  1  0.498497  0.996995  0.611542  1
  Se  Se16  1  0.159496  0.840504  0.896029  1
  Se  Se17  1  0.318992  0.159496  0.396029  1
  Se  Se18  1  0.840504  0.681008  0.396029  1
  Se  Se19  1  0.159496  0.318992  0.896029  1
  Se  Se20  1  0.681008  0.840504  0.896029  1
  Se  Se21  1  0.840504  0.159496  0.396029  1
  Se  Se22  1  0.501503  0.498497  0.111542  1
  Se  Se23  1  0.003005  0.501503  0.611542  1
