# generated using pymatgen
data_Hf3(TaSi2)2
_symmetry_space_group_name_H-M   'P 1'
_cell_length_a   6.92568574
_cell_length_b   6.92669926
_cell_length_c   12.73899800
_cell_angle_alpha   90.32285557
_cell_angle_beta   89.94049274
_cell_angle_gamma   89.98361816
_symmetry_Int_Tables_number   1
_chemical_formula_structural   Hf3(TaSi2)2
_chemical_formula_sum   'Hf12 Ta8 Si16'
_cell_volume   611.10696685
_cell_formula_units_Z   4
loop_
 _symmetry_equiv_pos_site_id
 _symmetry_equiv_pos_as_xyz
  1  'x, y, z'
loop_
 _atom_site_type_symbol
 _atom_site_label
 _atom_site_symmetry_multiplicity
 _atom_site_fract_x
 _atom_site_fract_y
 _atom_site_fract_z
 _atom_site_occupancy
  Hf  Hf0  1  0.650627  0.496477  0.876456  1
  Hf  Hf1  1  0.501842  0.351437  0.623394  1
  Hf  Hf2  1  0.500171  0.648193  0.124764  1
  Hf  Hf3  1  0.148028  0.999176  0.873954  1
  Hf  Hf4  1  0.000540  0.655030  0.033997  1
  Hf  Hf5  1  0.000380  0.344020  0.528801  1
  Hf  Hf6  1  0.657639  0.998893  0.969546  1
  Hf  Hf7  1  0.154451  0.499499  0.779737  1
  Hf  Hf8  1  0.844165  0.500938  0.280942  1
  Hf  Hf9  1  0.500375  0.157244  0.221639  1
  Hf  Hf10  1  0.500845  0.842764  0.717065  1
  Hf  Hf11  1  0.340924  0.001504  0.468611  1
  Ta  Ta12  1  0.349633  0.506770  0.375305  1
  Ta  Ta13  1  0.852438  0.998202  0.374335  1
  Ta  Ta14  1  0.006237  0.148663  0.126550  1
  Ta  Ta15  1  0.995609  0.850779  0.624988  1
  Ta  Ta16  1  0.671762  0.672767  0.498591  1
  Ta  Ta17  1  0.829205  0.170629  0.748729  1
  Ta  Ta18  1  0.171207  0.831088  0.251369  1
  Ta  Ta19  1  0.328878  0.325628  0.001298  1
  Si  Si20  1  0.044386  0.701146  0.435703  1
  Si  Si21  1  0.957175  0.300901  0.936639  1
  Si  Si22  1  0.701087  0.044469  0.562957  1
  Si  Si23  1  0.199518  0.452880  0.186332  1
  Si  Si24  1  0.802522  0.547187  0.684044  1
  Si  Si25  1  0.454544  0.195901  0.814679  1
  Si  Si26  1  0.547337  0.802162  0.315315  1
  Si  Si27  1  0.302446  0.955779  0.065638  1
  Si  Si28  1  0.855833  0.795466  0.820072  1
  Si  Si29  1  0.138493  0.209063  0.323522  1
  Si  Si30  1  0.796679  0.864025  0.178533  1
  Si  Si31  1  0.290469  0.642097  0.572142  1
  Si  Si32  1  0.709089  0.353667  0.074361  1
  Si  Si33  1  0.638198  0.294228  0.425324  1
  Si  Si34  1  0.355218  0.701591  0.928500  1
  Si  Si35  1  0.202052  0.139736  0.676171  1
