# generated using pymatgen
data_Lu8HfZr3Ga20
_symmetry_space_group_name_H-M   'P 1'
_cell_length_a   5.86130203
_cell_length_b   9.36532400
_cell_length_c   11.34090206
_cell_angle_alpha   90.00000000
_cell_angle_beta   89.98806041
_cell_angle_gamma   90.00000000
_symmetry_Int_Tables_number   1
_chemical_formula_structural   Lu8HfZr3Ga20
_chemical_formula_sum   'Lu8 Hf1 Zr3 Ga20'
_cell_volume   622.53603931
_cell_formula_units_Z   1
loop_
 _symmetry_equiv_pos_site_id
 _symmetry_equiv_pos_as_xyz
  1  'x, y, z'
loop_
 _atom_site_type_symbol
 _atom_site_label
 _atom_site_symmetry_multiplicity
 _atom_site_fract_x
 _atom_site_fract_y
 _atom_site_fract_z
 _atom_site_occupancy
  Lu  Lu0  1  0.885648  0.500633  0.352481  1
  Lu  Lu1  1  0.614416  0.999256  0.852905  1
  Lu  Lu2  1  0.114439  0.000442  0.647453  1
  Lu  Lu3  1  0.385989  0.499670  0.147365  1
  Lu  Lu4  1  0.114439  0.499558  0.647453  1
  Lu  Lu5  1  0.385989  0.000330  0.147365  1
  Lu  Lu6  1  0.885648  0.999367  0.352481  1
  Lu  Lu7  1  0.614416  0.500744  0.852905  1
  Hf  Hf8  1  0.857232  0.750000  0.072924  1
  Zr  Zr9  1  0.641316  0.750000  0.572884  1
  Zr  Zr10  1  0.141249  0.250000  0.927208  1
  Zr  Zr11  1  0.358254  0.250000  0.427224  1
  Ga  Ga12  1  0.875637  0.052701  0.090093  1
  Ga  Ga13  1  0.624487  0.446542  0.590248  1
  Ga  Ga14  1  0.124374  0.553621  0.909983  1
  Ga  Ga15  1  0.375531  0.946508  0.409658  1
  Ga  Ga16  1  0.124374  0.946379  0.909983  1
  Ga  Ga17  1  0.375531  0.553492  0.409658  1
  Ga  Ga18  1  0.875637  0.447299  0.090093  1
  Ga  Ga19  1  0.624487  0.053458  0.590248  1
  Ga  Ga20  1  0.151647  0.750000  0.257493  1
  Ga  Ga21  1  0.347111  0.750000  0.758316  1
  Ga  Ga22  1  0.847478  0.250000  0.741924  1
  Ga  Ga23  1  0.652608  0.250000  0.241865  1
  Ga  Ga24  1  0.396815  0.750000  0.999759  1
  Ga  Ga25  1  0.104580  0.750000  0.499649  1
  Ga  Ga26  1  0.604735  0.250000  0.000363  1
  Ga  Ga27  1  0.895486  0.250000  0.500373  1
  Ga  Ga28  1  0.615568  0.750000  0.294180  1
  Ga  Ga29  1  0.885056  0.750000  0.794831  1
  Ga  Ga30  1  0.384741  0.250000  0.705356  1
  Ga  Ga31  1  0.115084  0.250000  0.205279  1
