# generated using pymatgen
data_TiBe8Tc3
_symmetry_space_group_name_H-M   'P 1'
_cell_length_a   4.38936100
_cell_length_b   4.38936200
_cell_length_c   7.20688000
_cell_angle_alpha   90.00000000
_cell_angle_beta   90.00000000
_cell_angle_gamma   119.99999999
_symmetry_Int_Tables_number   1
_chemical_formula_structural   TiBe8Tc3
_chemical_formula_sum   'Ti1 Be8 Tc3'
_cell_volume   120.24876446
_cell_formula_units_Z   1
loop_
 _symmetry_equiv_pos_site_id
 _symmetry_equiv_pos_as_xyz
  1  'x, y, z'
loop_
 _atom_site_type_symbol
 _atom_site_label
 _atom_site_symmetry_multiplicity
 _atom_site_fract_x
 _atom_site_fract_y
 _atom_site_fract_z
 _atom_site_occupancy
  Ti  Ti0  1  0.666667  0.333333  0.565125  1
  Be  Be1  1  0.169646  0.339291  0.752939  1
  Be  Be2  1  0.169646  0.830354  0.752939  1
  Be  Be3  1  0.336765  0.168383  0.247783  1
  Be  Be4  1  0.831617  0.663235  0.247783  1
  Be  Be5  1  0.000000  0.000000  0.999610  1
  Be  Be6  1  0.660709  0.830354  0.752939  1
  Be  Be7  1  0.831617  0.168383  0.247783  1
  Be  Be8  1  0.000000  0.000000  0.499435  1
  Tc  Tc9  1  0.333333  0.666667  0.432375  1
  Tc  Tc10  1  0.666667  0.333333  0.937810  1
  Tc  Tc11  1  0.333333  0.666667  0.063478  1
