# generated using pymatgen
data_Ho3ZnGa7Ag3
_symmetry_space_group_name_H-M   'P 1'
_cell_length_a   4.34141980
_cell_length_b   8.28774568
_cell_length_c   8.29062810
_cell_angle_alpha   70.84155979
_cell_angle_beta   74.82149891
_cell_angle_gamma   74.81609650
_symmetry_Int_Tables_number   1
_chemical_formula_structural   Ho3ZnGa7Ag3
_chemical_formula_sum   'Ho3 Zn1 Ga7 Ag3'
_cell_volume   266.83476457
_cell_formula_units_Z   1
loop_
 _symmetry_equiv_pos_site_id
 _symmetry_equiv_pos_as_xyz
  1  'x, y, z'
loop_
 _atom_site_type_symbol
 _atom_site_label
 _atom_site_symmetry_multiplicity
 _atom_site_fract_x
 _atom_site_fract_y
 _atom_site_fract_z
 _atom_site_occupancy
  Ho  Ho0  1  0.498933  0.500461  0.501673  1
  Ho  Ho1  1  0.202019  0.797046  0.798915  1
  Ho  Ho2  1  0.798765  0.203070  0.199400  1
  Zn  Zn3  1  0.356876  0.364298  0.921948  1
  Ga  Ga4  1  0.643079  0.638808  0.075034  1
  Ga  Ga5  1  0.356600  0.926017  0.360782  1
  Ga  Ga6  1  0.641845  0.075709  0.640602  1
  Ga  Ga7  1  0.161218  0.469936  0.207627  1
  Ga  Ga8  1  0.842582  0.524894  0.789944  1
  Ga  Ga9  1  0.157952  0.211402  0.472692  1
  Ga  Ga10  1  0.841658  0.787735  0.528949  1
  Ag  Ag11  1  0.499078  0.001213  0.000631  1
  Ag  Ag12  1  0.000206  0.806272  0.193316  1
  Ag  Ag13  1  0.999188  0.193139  0.808486  1
