# generated using pymatgen
data_Er2Tm14CdIn3Ni4
_symmetry_space_group_name_H-M   'P 1'
_cell_length_a   9.45647370
_cell_length_b   9.45315314
_cell_length_c   9.45134800
_cell_angle_alpha   60.00632358
_cell_angle_beta   60.01793562
_cell_angle_gamma   60.02025982
_symmetry_Int_Tables_number   1
_chemical_formula_structural   Er2Tm14CdIn3Ni4
_chemical_formula_sum   'Er2 Tm14 Cd1 In3 Ni4'
_cell_volume   597.62772289
_cell_formula_units_Z   1
loop_
 _symmetry_equiv_pos_site_id
 _symmetry_equiv_pos_as_xyz
  1  'x, y, z'
loop_
 _atom_site_type_symbol
 _atom_site_label
 _atom_site_symmetry_multiplicity
 _atom_site_fract_x
 _atom_site_fract_y
 _atom_site_fract_z
 _atom_site_occupancy
  Er  Er0  1  0.347535  0.347975  0.347976  1
  Er  Er1  1  0.347535  0.347975  0.956513  1
  Tm  Tm2  1  0.347417  0.956806  0.347888  1
  Tm  Tm3  1  0.955271  0.348210  0.348259  1
  Tm  Tm4  1  0.811833  0.188093  0.188116  1
  Tm  Tm5  1  0.187735  0.812690  0.812677  1
  Tm  Tm6  1  0.187735  0.812690  0.186899  1
  Tm  Tm7  1  0.811833  0.188093  0.811958  1
  Tm  Tm8  1  0.187686  0.186899  0.812708  1
  Tm  Tm9  1  0.811768  0.811959  0.188136  1
  Tm  Tm10  1  0.938603  0.562963  0.562933  1
  Tm  Tm11  1  0.564119  0.936743  0.936791  1
  Tm  Tm12  1  0.564119  0.936743  0.562346  1
  Tm  Tm13  1  0.938603  0.562963  0.935501  1
  Tm  Tm14  1  0.564074  0.562329  0.936798  1
  Tm  Tm15  1  0.938626  0.935387  0.562993  1
  Cd  Cd16  1  0.251877  0.582799  0.582663  1
  In  In17  1  0.581525  0.583187  0.583107  1
  In  In18  1  0.581525  0.583187  0.252180  1
  In  In19  1  0.581607  0.252115  0.583139  1
  Ni  Ni20  1  0.142107  0.142029  0.142160  1
  Ni  Ni21  1  0.142107  0.142029  0.573705  1
  Ni  Ni22  1  0.142102  0.573784  0.142057  1
  Ni  Ni23  1  0.572658  0.142352  0.142495  1
