# generated using pymatgen
data_CePuGa12
_symmetry_space_group_name_H-M   'P 1'
_cell_length_a   5.99921000
_cell_length_b   5.99921000
_cell_length_c   7.71863100
_cell_angle_alpha   90.00000000
_cell_angle_beta   90.00000000
_cell_angle_gamma   90.00000000
_symmetry_Int_Tables_number   1
_chemical_formula_structural   CePuGa12
_chemical_formula_sum   'Ce1 Pu1 Ga12'
_cell_volume   277.79754820
_cell_formula_units_Z   1
loop_
 _symmetry_equiv_pos_site_id
 _symmetry_equiv_pos_as_xyz
  1  'x, y, z'
loop_
 _atom_site_type_symbol
 _atom_site_label
 _atom_site_symmetry_multiplicity
 _atom_site_fract_x
 _atom_site_fract_y
 _atom_site_fract_z
 _atom_site_occupancy
  Ce  Ce0  1  0.500000  0.000000  0.000000  1
  Pu  Pu1  1  0.000000  0.500000  0.000000  1
  Ga  Ga2  1  0.683140  0.816860  0.353105  1
  Ga  Ga3  1  0.316860  0.183140  0.353105  1
  Ga  Ga4  1  0.000000  0.000000  0.160691  1
  Ga  Ga5  1  0.000000  0.000000  0.839309  1
  Ga  Ga6  1  0.500000  0.500000  0.839309  1
  Ga  Ga7  1  0.500000  0.500000  0.160691  1
  Ga  Ga8  1  0.181334  0.318666  0.648617  1
  Ga  Ga9  1  0.683140  0.183140  0.646895  1
  Ga  Ga10  1  0.316860  0.816860  0.646895  1
  Ga  Ga11  1  0.181334  0.681334  0.351383  1
  Ga  Ga12  1  0.818666  0.318666  0.351383  1
  Ga  Ga13  1  0.818666  0.681334  0.648617  1
