# generated using pymatgen
data_Hf6TiCr(Co4P3)4
_symmetry_space_group_name_H-M   'P 1'
_cell_length_a   3.60656600
_cell_length_b   10.30811600
_cell_length_c   11.95326500
_cell_angle_alpha   90.00000000
_cell_angle_beta   90.00000000
_cell_angle_gamma   90.00000000
_symmetry_Int_Tables_number   1
_chemical_formula_structural   Hf6TiCr(Co4P3)4
_chemical_formula_sum   'Hf6 Ti1 Cr1 Co16 P12'
_cell_volume   444.38534582
_cell_formula_units_Z   1
loop_
 _symmetry_equiv_pos_site_id
 _symmetry_equiv_pos_as_xyz
  1  'x, y, z'
loop_
 _atom_site_type_symbol
 _atom_site_label
 _atom_site_symmetry_multiplicity
 _atom_site_fract_x
 _atom_site_fract_y
 _atom_site_fract_z
 _atom_site_occupancy
  Hf  Hf0  1  0.000000  0.500000  0.528351  1
  Hf  Hf1  1  0.500000  0.000000  0.468751  1
  Hf  Hf2  1  0.500000  0.822688  0.206374  1
  Hf  Hf3  1  0.500000  0.177312  0.206374  1
  Hf  Hf4  1  0.000000  0.676332  0.791886  1
  Hf  Hf5  1  0.000000  0.323668  0.791886  1
  Ti  Ti6  1  0.000000  0.000000  0.843804  1
  Cr  Cr7  1  0.500000  0.500000  0.160179  1
  Co  Co8  1  0.500000  0.500000  0.703239  1
  Co  Co9  1  0.000000  0.000000  0.297032  1
  Co  Co10  1  0.000000  0.500000  0.989509  1
  Co  Co11  1  0.500000  0.000000  0.012434  1
  Co  Co12  1  0.500000  0.335298  0.993499  1
  Co  Co13  1  0.500000  0.664702  0.993499  1
  Co  Co14  1  0.000000  0.170609  0.010024  1
  Co  Co15  1  0.000000  0.829391  0.010024  1
  Co  Co16  1  0.500000  0.300550  0.432961  1
  Co  Co17  1  0.500000  0.699450  0.432961  1
  Co  Co18  1  0.000000  0.201368  0.565537  1
  Co  Co19  1  0.000000  0.798632  0.565537  1
  Co  Co20  1  0.500000  0.874672  0.705927  1
  Co  Co21  1  0.500000  0.125328  0.705927  1
  Co  Co22  1  0.000000  0.623812  0.294029  1
  Co  Co23  1  0.000000  0.376188  0.294029  1
  P  P24  1  0.500000  0.500000  0.878770  1
  P  P25  1  0.000000  0.000000  0.121105  1
  P  P26  1  0.500000  0.500000  0.352042  1
  P  P27  1  0.000000  0.000000  0.638430  1
  P  P28  1  0.500000  0.318291  0.616755  1
  P  P29  1  0.500000  0.681709  0.616755  1
  P  P30  1  0.000000  0.183057  0.381612  1
  P  P31  1  0.000000  0.816943  0.381612  1
  P  P32  1  0.500000  0.837775  0.890036  1
  P  P33  1  0.500000  0.162225  0.890036  1
  P  P34  1  0.000000  0.654177  0.114538  1
  P  P35  1  0.000000  0.345823  0.114538  1
