# generated using pymatgen
data_DyTm5Rh18
_symmetry_space_group_name_H-M   'P 1'
_cell_length_a   5.24467100
_cell_length_b   5.24467084
_cell_length_c   17.53708000
_cell_angle_alpha   90.00000000
_cell_angle_beta   90.00000000
_cell_angle_gamma   119.99998210
_symmetry_Int_Tables_number   1
_chemical_formula_structural   DyTm5Rh18
_chemical_formula_sum   'Dy1 Tm5 Rh18'
_cell_volume   417.75771563
_cell_formula_units_Z   1
loop_
 _symmetry_equiv_pos_site_id
 _symmetry_equiv_pos_as_xyz
  1  'x, y, z'
loop_
 _atom_site_type_symbol
 _atom_site_label
 _atom_site_symmetry_multiplicity
 _atom_site_fract_x
 _atom_site_fract_y
 _atom_site_fract_z
 _atom_site_occupancy
  Dy  Dy0  1  0.666667  0.333333  0.250000  1
  Tm  Tm1  1  0.333333  0.666667  0.958022  1
  Tm  Tm2  1  0.666667  0.333333  0.041694  1
  Tm  Tm3  1  0.666667  0.333333  0.458306  1
  Tm  Tm4  1  0.333333  0.666667  0.541978  1
  Tm  Tm5  1  0.333333  0.666667  0.750000  1
  Rh  Rh6  1  0.167509  0.832491  0.375177  1
  Rh  Rh7  1  0.167509  0.335018  0.375177  1
  Rh  Rh8  1  0.664982  0.832491  0.375177  1
  Rh  Rh9  1  0.832452  0.167548  0.625090  1
  Rh  Rh10  1  0.832452  0.664903  0.625090  1
  Rh  Rh11  1  0.335097  0.167548  0.625090  1
  Rh  Rh12  1  0.832452  0.167548  0.874910  1
  Rh  Rh13  1  0.832452  0.664903  0.874910  1
  Rh  Rh14  1  0.335097  0.167548  0.874910  1
  Rh  Rh15  1  0.167509  0.832491  0.124823  1
  Rh  Rh16  1  0.167509  0.335018  0.124823  1
  Rh  Rh17  1  0.664982  0.832491  0.124823  1
  Rh  Rh18  1  0.333333  0.666667  0.250000  1
  Rh  Rh19  1  0.666667  0.333333  0.750000  1
  Rh  Rh20  1  0.000000  0.000000  0.250000  1
  Rh  Rh21  1  0.000000  0.000000  0.750000  1
  Rh  Rh22  1  0.000000  0.000000  0.500101  1
  Rh  Rh23  1  0.000000  0.000000  0.999899  1
