# generated using pymatgen
data_YHo(Si2Pd)2
_symmetry_space_group_name_H-M   'P 1'
_cell_length_a   3.91659600
_cell_length_b   7.22504044
_cell_length_c   10.05029089
_cell_angle_alpha   90.07138375
_cell_angle_beta   90.00000000
_cell_angle_gamma   90.00000000
_symmetry_Int_Tables_number   1
_chemical_formula_structural   YHo(Si2Pd)2
_chemical_formula_sum   'Y2 Ho2 Si8 Pd4'
_cell_volume   284.39853407
_cell_formula_units_Z   2
loop_
 _symmetry_equiv_pos_site_id
 _symmetry_equiv_pos_as_xyz
  1  'x, y, z'
loop_
 _atom_site_type_symbol
 _atom_site_label
 _atom_site_symmetry_multiplicity
 _atom_site_fract_x
 _atom_site_fract_y
 _atom_site_fract_z
 _atom_site_occupancy
  Y  Y0  1  0.250000  0.639432  0.631825  1
  Y  Y1  1  0.750000  0.360568  0.368175  1
  Ho  Ho2  1  0.250000  0.138802  0.868262  1
  Ho  Ho3  1  0.750000  0.861198  0.131738  1
  Si  Si4  1  0.750000  0.276350  0.067274  1
  Si  Si5  1  0.250000  0.723650  0.932726  1
  Si  Si6  1  0.750000  0.778342  0.431227  1
  Si  Si7  1  0.250000  0.221658  0.568773  1
  Si  Si8  1  0.750000  0.840095  0.824062  1
  Si  Si9  1  0.250000  0.159905  0.175938  1
  Si  Si10  1  0.750000  0.338709  0.677600  1
  Si  Si11  1  0.250000  0.661291  0.322400  1
  Pd  Pd12  1  0.250000  0.999488  0.383283  1
  Pd  Pd13  1  0.750000  0.000512  0.616717  1
  Pd  Pd14  1  0.250000  0.499166  0.115740  1
  Pd  Pd15  1  0.750000  0.500834  0.884260  1
