# generated using pymatgen
data_PrNd3Al18PtRh5
_symmetry_space_group_name_H-M   'P 1'
_cell_length_a   7.63715315
_cell_length_b   7.63569591
_cell_length_c   9.61281501
_cell_angle_alpha   89.99253236
_cell_angle_beta   89.98702612
_cell_angle_gamma   119.38832868
_symmetry_Int_Tables_number   1
_chemical_formula_structural   PrNd3Al18PtRh5
_chemical_formula_sum   'Pr1 Nd3 Al18 Pt1 Rh5'
_cell_volume   488.43330480
_cell_formula_units_Z   1
loop_
 _symmetry_equiv_pos_site_id
 _symmetry_equiv_pos_as_xyz
  1  'x, y, z'
loop_
 _atom_site_type_symbol
 _atom_site_label
 _atom_site_symmetry_multiplicity
 _atom_site_fract_x
 _atom_site_fract_y
 _atom_site_fract_z
 _atom_site_occupancy
  Pr  Pr0  1  0.329233  0.004916  0.250216  1
  Nd  Nd1  1  0.995183  0.670811  0.749801  1
  Nd  Nd2  1  0.004809  0.329241  0.250208  1
  Nd  Nd3  1  0.670765  0.995149  0.749799  1
  Al  Al4  1  0.132223  0.132264  0.752684  1
  Al  Al5  1  0.867297  0.867646  0.247316  1
  Al  Al6  1  0.002703  0.338455  0.574589  1
  Al  Al7  1  0.996875  0.661122  0.425551  1
  Al  Al8  1  0.997188  0.664249  0.072742  1
  Al  Al9  1  0.335338  0.002439  0.926724  1
  Al  Al10  1  0.002385  0.335326  0.927098  1
  Al  Al11  1  0.665078  0.997594  0.072708  1
  Al  Al12  1  0.661952  0.997278  0.425609  1
  Al  Al13  1  0.338483  0.002760  0.574956  1
  Al  Al14  1  0.334038  0.334344  0.046036  1
  Al  Al15  1  0.665973  0.665974  0.953701  1
  Al  Al16  1  0.662781  0.662775  0.547714  1
  Al  Al17  1  0.337233  0.337537  0.452529  1
  Al  Al18  1  0.339923  0.547801  0.750156  1
  Al  Al19  1  0.660484  0.452698  0.249846  1
  Al  Al20  1  0.547860  0.339976  0.750157  1
  Al  Al21  1  0.452266  0.659700  0.249842  1
  Pt  Pt22  1  0.999799  0.999960  0.500175  1
  Rh  Rh23  1  0.671160  0.329111  0.500155  1
  Rh  Rh24  1  0.329009  0.670894  0.500156  1
  Rh  Rh25  1  0.328901  0.670971  0.999851  1
  Rh  Rh26  1  0.671259  0.329026  0.999859  1
  Rh  Rh27  1  0.999803  0.999983  0.999822  1
