# generated using pymatgen
data_Tm19Lu(CoBi2)4
_symmetry_space_group_name_H-M   'P 1'
_cell_length_a   7.86832208
_cell_length_b   8.83810206
_cell_length_c   12.27484007
_cell_angle_alpha   89.99431557
_cell_angle_beta   90.01069566
_cell_angle_gamma   89.98784155
_symmetry_Int_Tables_number   1
_chemical_formula_structural   Tm19Lu(CoBi2)4
_chemical_formula_sum   'Tm19 Lu1 Co4 Bi8'
_cell_volume   853.60502706
_cell_formula_units_Z   1
loop_
 _symmetry_equiv_pos_site_id
 _symmetry_equiv_pos_as_xyz
  1  'x, y, z'
loop_
 _atom_site_type_symbol
 _atom_site_label
 _atom_site_symmetry_multiplicity
 _atom_site_fract_x
 _atom_site_fract_y
 _atom_site_fract_z
 _atom_site_occupancy
  Tm  Tm0  1  0.347105  0.749779  0.699519  1
  Tm  Tm1  1  0.653101  0.250097  0.300573  1
  Tm  Tm2  1  0.846612  0.250067  0.800214  1
  Tm  Tm3  1  0.153263  0.749989  0.199620  1
  Tm  Tm4  1  0.886111  0.750043  0.812317  1
  Tm  Tm5  1  0.113822  0.249992  0.187685  1
  Tm  Tm6  1  0.386718  0.250229  0.687324  1
  Tm  Tm7  1  0.614150  0.749582  0.312668  1
  Tm  Tm8  1  0.325949  0.461703  0.437079  1
  Tm  Tm9  1  0.173908  0.461602  0.937019  1
  Tm  Tm10  1  0.326003  0.038091  0.437207  1
  Tm  Tm11  1  0.826095  0.538330  0.062956  1
  Tm  Tm12  1  0.674025  0.961825  0.562975  1
  Tm  Tm13  1  0.826108  0.961619  0.062892  1
  Tm  Tm14  1  0.173954  0.038381  0.937049  1
  Tm  Tm15  1  0.055707  0.749711  0.497922  1
  Tm  Tm16  1  0.943011  0.250481  0.502228  1
  Tm  Tm17  1  0.555888  0.250027  0.002040  1
  Tm  Tm18  1  0.444170  0.749939  0.997921  1
  Lu  Lu19  1  0.672562  0.538408  0.562818  1
  Co  Co20  1  0.066730  0.749979  0.992138  1
  Co  Co21  1  0.933269  0.250003  0.007777  1
  Co  Co22  1  0.567240  0.250464  0.507875  1
  Co  Co23  1  0.434444  0.749492  0.492504  1
  Bi  Bi24  1  0.570733  0.509765  0.827023  1
  Bi  Bi25  1  0.429463  0.490297  0.172865  1
  Bi  Bi26  1  0.069842  0.490465  0.672600  1
  Bi  Bi27  1  0.429527  0.009669  0.172937  1
  Bi  Bi28  1  0.929764  0.509770  0.327118  1
  Bi  Bi29  1  0.570606  0.990268  0.827180  1
  Bi  Bi30  1  0.929514  0.990240  0.327217  1
  Bi  Bi31  1  0.070605  0.009696  0.672741  1
