# generated using pymatgen
data_AcZn4
_symmetry_space_group_name_H-M   'P 1'
_cell_length_a   5.99102333
_cell_length_b   5.99102369
_cell_length_c   5.99102318
_cell_angle_alpha   134.96447850
_cell_angle_beta   134.96447625
_cell_angle_gamma   65.58539655
_symmetry_Int_Tables_number   1
_chemical_formula_structural   AcZn4
_chemical_formula_sum   'Ac1 Zn4'
_cell_volume   106.04737259
_cell_formula_units_Z   1
loop_
 _symmetry_equiv_pos_site_id
 _symmetry_equiv_pos_as_xyz
  1  'x, y, z'
loop_
 _atom_site_type_symbol
 _atom_site_label
 _atom_site_symmetry_multiplicity
 _atom_site_fract_x
 _atom_site_fract_y
 _atom_site_fract_z
 _atom_site_occupancy
  Ac  Ac0  1  0.000000  0.000000  0.000000  1
  Zn  Zn1  1  0.624892  0.624892  0.000000  1
  Zn  Zn2  1  0.750000  0.250000  0.500000  1
  Zn  Zn3  1  0.250000  0.750000  0.500000  1
  Zn  Zn4  1  0.375108  0.375108  0.000000  1
