# generated using pymatgen
data_AcGeRhO
_symmetry_space_group_name_H-M   'P 1'
_cell_length_a   4.22259700
_cell_length_b   4.22259700
_cell_length_c   9.00396900
_cell_angle_alpha   90.00000000
_cell_angle_beta   90.00000000
_cell_angle_gamma   90.00000000
_symmetry_Int_Tables_number   1
_chemical_formula_structural   AcGeRhO
_chemical_formula_sum   'Ac2 Ge2 Rh2 O2'
_cell_volume   160.54369738
_cell_formula_units_Z   2
loop_
 _symmetry_equiv_pos_site_id
 _symmetry_equiv_pos_as_xyz
  1  'x, y, z'
loop_
 _atom_site_type_symbol
 _atom_site_label
 _atom_site_symmetry_multiplicity
 _atom_site_fract_x
 _atom_site_fract_y
 _atom_site_fract_z
 _atom_site_occupancy
  Ac  Ac0  1  0.250001  0.250001  0.142309  1
  Ac  Ac1  1  0.750002  0.750002  0.857693  1
  Ge  Ge2  1  0.750002  0.750002  0.357186  1
  Ge  Ge3  1  0.250001  0.250001  0.642813  1
  Rh  Rh4  1  0.750002  0.250001  0.500000  1
  Rh  Rh5  1  0.250001  0.750002  0.500000  1
  O  O6  1  0.750002  0.250001  0.000000  1
  O  O7  1  0.250001  0.750002  0.000000  1
