# generated using pymatgen
data_CeU(Al3Ir)3
_symmetry_space_group_name_H-M   'P 1'
_cell_length_a   7.59887749
_cell_length_b   7.63429431
_cell_length_c   9.43182600
_cell_angle_alpha   90.00000000
_cell_angle_beta   90.00000000
_cell_angle_gamma   119.57575497
_symmetry_Int_Tables_number   1
_chemical_formula_structural   CeU(Al3Ir)3
_chemical_formula_sum   'Ce2 U2 Al18 Ir6'
_cell_volume   475.86692685
_cell_formula_units_Z   2
loop_
 _symmetry_equiv_pos_site_id
 _symmetry_equiv_pos_as_xyz
  1  'x, y, z'
loop_
 _atom_site_type_symbol
 _atom_site_label
 _atom_site_symmetry_multiplicity
 _atom_site_fract_x
 _atom_site_fract_y
 _atom_site_fract_z
 _atom_site_occupancy
  Ce  Ce0  1  0.998372  0.671606  0.750000  1
  Ce  Ce1  1  0.001628  0.328394  0.250000  1
  U  U2  1  0.669548  0.995644  0.750000  1
  U  U3  1  0.330452  0.004356  0.250000  1
  Al  Al4  1  0.129196  0.128604  0.750000  1
  Al  Al5  1  0.870804  0.871396  0.250000  1
  Al  Al6  1  0.001782  0.334428  0.576376  1
  Al  Al7  1  0.998218  0.665572  0.423624  1
  Al  Al8  1  0.998218  0.665572  0.076376  1
  Al  Al9  1  0.336712  0.002706  0.927009  1
  Al  Al10  1  0.001782  0.334428  0.923624  1
  Al  Al11  1  0.663288  0.997294  0.072991  1
  Al  Al12  1  0.663288  0.997294  0.427009  1
  Al  Al13  1  0.336712  0.002706  0.572991  1
  Al  Al14  1  0.334552  0.334816  0.053180  1
  Al  Al15  1  0.665448  0.665184  0.946820  1
  Al  Al16  1  0.665448  0.665184  0.553180  1
  Al  Al17  1  0.334552  0.334816  0.446820  1
  Al  Al18  1  0.343420  0.546906  0.750000  1
  Al  Al19  1  0.656580  0.453094  0.250000  1
  Al  Al20  1  0.547944  0.337665  0.750000  1
  Al  Al21  1  0.452056  0.662335  0.250000  1
  Ir  Ir22  1  0.672585  0.328852  0.499478  1
  Ir  Ir23  1  0.327415  0.671148  0.500522  1
  Ir  Ir24  1  0.327415  0.671148  0.999478  1
  Ir  Ir25  1  0.672585  0.328852  0.000522  1
  Ir  Ir26  1  0.000000  0.000000  0.500000  1
  Ir  Ir27  1  0.000000  0.000000  0.000000  1
