# generated using pymatgen
data_SrY2(GaIr2)3
_symmetry_space_group_name_H-M   'P 1'
_cell_length_a   5.60706100
_cell_length_b   5.60706102
_cell_length_c   15.95633800
_cell_angle_alpha   90.00000000
_cell_angle_beta   90.00000000
_cell_angle_gamma   120.00000579
_symmetry_Int_Tables_number   1
_chemical_formula_structural   SrY2(GaIr2)3
_chemical_formula_sum   'Sr2 Y4 Ga6 Ir12'
_cell_volume   434.44459345
_cell_formula_units_Z   2
loop_
 _symmetry_equiv_pos_site_id
 _symmetry_equiv_pos_as_xyz
  1  'x, y, z'
loop_
 _atom_site_type_symbol
 _atom_site_label
 _atom_site_symmetry_multiplicity
 _atom_site_fract_x
 _atom_site_fract_y
 _atom_site_fract_z
 _atom_site_occupancy
  Sr  Sr0  1  0.333333  0.666667  0.750000  1
  Sr  Sr1  1  0.666667  0.333333  0.250000  1
  Y  Y2  1  0.333333  0.666667  0.542560  1
  Y  Y3  1  0.666667  0.333333  0.457440  1
  Y  Y4  1  0.666667  0.333333  0.042560  1
  Y  Y5  1  0.333333  0.666667  0.957440  1
  Ga  Ga6  1  0.000000  0.000000  0.250000  1
  Ga  Ga7  1  0.000000  0.000000  0.750000  1
  Ga  Ga8  1  0.333333  0.666667  0.250000  1
  Ga  Ga9  1  0.666667  0.333333  0.750000  1
  Ga  Ga10  1  0.000000  0.000000  0.000000  1
  Ga  Ga11  1  0.000000  0.000000  0.500000  1
  Ir  Ir12  1  0.170017  0.340033  0.123903  1
  Ir  Ir13  1  0.829983  0.659967  0.876097  1
  Ir  Ir14  1  0.659967  0.829983  0.123903  1
  Ir  Ir15  1  0.829983  0.659967  0.623903  1
  Ir  Ir16  1  0.340033  0.170017  0.876097  1
  Ir  Ir17  1  0.170017  0.340033  0.376097  1
  Ir  Ir18  1  0.170017  0.829983  0.123903  1
  Ir  Ir19  1  0.340033  0.170017  0.623903  1
  Ir  Ir20  1  0.829983  0.170017  0.876097  1
  Ir  Ir21  1  0.659967  0.829983  0.376097  1
  Ir  Ir22  1  0.829983  0.170017  0.623903  1
  Ir  Ir23  1  0.170017  0.829983  0.376097  1
