# generated using pymatgen
data_YbTm4(In2Ir)2
_symmetry_space_group_name_H-M   'P 1'
_cell_length_a   3.61218200
_cell_length_b   7.94662700
_cell_length_c   18.16230000
_cell_angle_alpha   90.00000000
_cell_angle_beta   90.00000000
_cell_angle_gamma   90.00000000
_symmetry_Int_Tables_number   1
_chemical_formula_structural   YbTm4(In2Ir)2
_chemical_formula_sum   'Yb2 Tm8 In8 Ir4'
_cell_volume   521.34270099
_cell_formula_units_Z   2
loop_
 _symmetry_equiv_pos_site_id
 _symmetry_equiv_pos_as_xyz
  1  'x, y, z'
loop_
 _atom_site_type_symbol
 _atom_site_label
 _atom_site_symmetry_multiplicity
 _atom_site_fract_x
 _atom_site_fract_y
 _atom_site_fract_z
 _atom_site_occupancy
  Yb  Yb0  1  0.000000  0.000000  0.000000  1
  Yb  Yb1  1  0.000000  0.500000  0.500000  1
  Tm  Tm2  1  0.000000  0.116538  0.411251  1
  Tm  Tm3  1  0.000000  0.883462  0.588749  1
  Tm  Tm4  1  0.000000  0.383462  0.911251  1
  Tm  Tm5  1  0.000000  0.616538  0.088749  1
  Tm  Tm6  1  0.000000  0.244972  0.221625  1
  Tm  Tm7  1  0.000000  0.755028  0.778375  1
  Tm  Tm8  1  0.000000  0.255028  0.721625  1
  Tm  Tm9  1  0.000000  0.744972  0.278375  1
  In  In10  1  0.500000  0.427643  0.349838  1
  In  In11  1  0.500000  0.572357  0.650162  1
  In  In12  1  0.500000  0.072357  0.849838  1
  In  In13  1  0.500000  0.927643  0.150162  1
  In  In14  1  0.500000  0.294910  0.067433  1
  In  In15  1  0.500000  0.705090  0.932567  1
  In  In16  1  0.500000  0.205090  0.567433  1
  In  In17  1  0.500000  0.794910  0.432567  1
  Ir  Ir18  1  0.500000  0.021709  0.304573  1
  Ir  Ir19  1  0.500000  0.978291  0.695427  1
  Ir  Ir20  1  0.500000  0.478291  0.804573  1
  Ir  Ir21  1  0.500000  0.521709  0.195427  1
