# generated using pymatgen
data_Y5HoAl20(SiOs2)4
_symmetry_space_group_name_H-M   'P 1'
_cell_length_a   8.70489400
_cell_length_b   8.70449051
_cell_length_c   9.62932400
_cell_angle_alpha   90.00000000
_cell_angle_beta   90.00000000
_cell_angle_gamma   120.00152581
_symmetry_Int_Tables_number   1
_chemical_formula_structural   Y5HoAl20(SiOs2)4
_chemical_formula_sum   'Y5 Ho1 Al20 Si4 Os8'
_cell_volume   631.86834215
_cell_formula_units_Z   1
loop_
 _symmetry_equiv_pos_site_id
 _symmetry_equiv_pos_as_xyz
  1  'x, y, z'
loop_
 _atom_site_type_symbol
 _atom_site_label
 _atom_site_symmetry_multiplicity
 _atom_site_fract_x
 _atom_site_fract_y
 _atom_site_fract_z
 _atom_site_occupancy
  Y  Y0  1  0.804632  0.609265  0.750000  1
  Y  Y1  1  0.609031  0.804353  0.250000  1
  Y  Y2  1  0.390726  0.195371  0.750000  1
  Y  Y3  1  0.195322  0.804353  0.250000  1
  Y  Y4  1  0.804645  0.195371  0.750000  1
  Ho  Ho5  1  0.195882  0.391764  0.250000  1
  Al  Al6  1  0.165130  0.330260  0.576328  1
  Al  Al7  1  0.834870  0.669739  0.423399  1
  Al  Al8  1  0.669743  0.834905  0.576578  1
  Al  Al9  1  0.834870  0.669739  0.076601  1
  Al  Al10  1  0.330139  0.165243  0.423242  1
  Al  Al11  1  0.165130  0.330260  0.923672  1
  Al  Al12  1  0.165162  0.834905  0.576578  1
  Al  Al13  1  0.330139  0.165243  0.076758  1
  Al  Al14  1  0.835103  0.165243  0.423242  1
  Al  Al15  1  0.669743  0.834905  0.923422  1
  Al  Al16  1  0.835103  0.165243  0.076758  1
  Al  Al17  1  0.165162  0.834905  0.923422  1
  Al  Al18  1  0.563792  0.127582  0.250000  1
  Al  Al19  1  0.436240  0.872481  0.750000  1
  Al  Al20  1  0.872791  0.436138  0.250000  1
  Al  Al21  1  0.127509  0.563769  0.750000  1
  Al  Al22  1  0.563348  0.436138  0.250000  1
  Al  Al23  1  0.436259  0.563769  0.750000  1
  Al  Al24  1  0.000363  0.000726  0.250000  1
  Al  Al25  1  0.000004  0.000008  0.750000  1
  Si  Si26  1  0.333094  0.666189  0.037085  1
  Si  Si27  1  0.666654  0.333306  0.963338  1
  Si  Si28  1  0.666654  0.333306  0.536662  1
  Si  Si29  1  0.333094  0.666189  0.462915  1
  Os  Os30  1  0.499958  0.999916  0.000003  1
  Os  Os31  1  0.000226  0.499892  0.000280  1
  Os  Os32  1  0.499958  0.999916  0.499997  1
  Os  Os33  1  0.499666  0.499892  0.000280  1
  Os  Os34  1  0.000226  0.499892  0.499720  1
  Os  Os35  1  0.499666  0.499892  0.499720  1
  Os  Os36  1  0.999982  0.999964  0.999967  1
  Os  Os37  1  0.999982  0.999964  0.500033  1
