# generated using pymatgen
data_Nb3Cr4(Si2Tc)5
_symmetry_space_group_name_H-M   'P 1'
_cell_length_a   9.22105208
_cell_length_b   9.22105292
_cell_length_c   9.18811249
_cell_angle_alpha   58.46078957
_cell_angle_beta   131.55367890
_cell_angle_gamma   149.34595846
_symmetry_Int_Tables_number   1
_chemical_formula_structural   Nb3Cr4(Si2Tc)5
_chemical_formula_sum   'Nb3 Cr4 Si10 Tc5'
_cell_volume   295.75309342
_cell_formula_units_Z   1
loop_
 _symmetry_equiv_pos_site_id
 _symmetry_equiv_pos_as_xyz
  1  'x, y, z'
loop_
 _atom_site_type_symbol
 _atom_site_label
 _atom_site_symmetry_multiplicity
 _atom_site_fract_x
 _atom_site_fract_y
 _atom_site_fract_z
 _atom_site_occupancy
  Nb  Nb0  1  0.878059  0.854026  0.732089  1
  Nb  Nb1  1  0.384210  0.646240  0.030452  1
  Nb  Nb2  1  0.617614  0.354900  0.972514  1
  Cr  Cr3  1  0.250650  0.557111  0.305793  1
  Cr  Cr4  1  0.253461  0.944291  0.696456  1
  Cr  Cr5  1  0.752166  0.442995  0.696457  1
  Cr  Cr6  1  0.748682  0.055140  0.305792  1
  Si  Si7  1  0.248978  0.249831  0.002930  1
  Si  Si8  1  0.753098  0.753951  0.002930  1
  Si  Si9  1  0.407221  0.068721  0.475942  1
  Si  Si10  1  0.579316  0.933736  0.513056  1
  Si  Si11  1  0.082067  0.566856  0.648923  1
  Si  Si12  1  0.920596  0.432081  0.352680  1
  Si  Si13  1  0.289273  0.284883  0.574156  1
  Si  Si14  1  0.708055  0.711404  0.419462  1
  Si  Si15  1  0.206826  0.786096  0.992922  1
  Si  Si16  1  0.798007  0.212827  0.010838  1
  Tc  Tc17  1  0.242870  0.437518  0.680388  1
  Tc  Tc18  1  0.756685  0.559528  0.316217  1
  Tc  Tc19  1  0.257801  0.935651  0.193455  1
  Tc  Tc20  1  0.742712  0.061945  0.804658  1
  Tc  Tc21  1  0.121638  0.150253  0.271891  1
