# generated using pymatgen
data_Lu7Sc3(CoTe)4
_symmetry_space_group_name_H-M   'P 1'
_cell_length_a   7.48154323
_cell_length_b   7.48154396
_cell_length_c   14.57236564
_cell_angle_alpha   90.12093755
_cell_angle_beta   89.87906275
_cell_angle_gamma   149.80109972
_symmetry_Int_Tables_number   1
_chemical_formula_structural   Lu7Sc3(CoTe)4
_chemical_formula_sum   'Lu7 Sc3 Co4 Te4'
_cell_volume   410.28187161
_cell_formula_units_Z   1
loop_
 _symmetry_equiv_pos_site_id
 _symmetry_equiv_pos_as_xyz
  1  'x, y, z'
loop_
 _atom_site_type_symbol
 _atom_site_label
 _atom_site_symmetry_multiplicity
 _atom_site_fract_x
 _atom_site_fract_y
 _atom_site_fract_z
 _atom_site_occupancy
  Lu  Lu0  1  0.966496  0.033504  0.130316  1
  Lu  Lu1  1  0.034471  0.965529  0.867422  1
  Lu  Lu2  1  0.965664  0.034336  0.371369  1
  Lu  Lu3  1  0.034891  0.965109  0.628668  1
  Lu  Lu4  1  0.258248  0.741752  0.134713  1
  Lu  Lu5  1  0.257783  0.742217  0.367046  1
  Lu  Lu6  1  0.741793  0.258207  0.863806  1
  Sc  Sc7  1  0.608585  0.391415  0.250750  1
  Sc  Sc8  1  0.741547  0.258453  0.636315  1
  Sc  Sc9  1  0.390031  0.609969  0.748376  1
  Co  Co10  1  0.417041  0.582959  0.250671  1
  Co  Co11  1  0.585403  0.414597  0.747988  1
  Co  Co12  1  0.817947  0.182053  0.250765  1
  Co  Co13  1  0.184198  0.815802  0.746724  1
  Te  Te14  1  0.620068  0.379932  0.038962  1
  Te  Te15  1  0.619656  0.380344  0.463858  1
  Te  Te16  1  0.375904  0.624096  0.542650  1
  Te  Te17  1  0.380272  0.619728  0.959600  1
