# generated using pymatgen
data_MgPaTcB6
_symmetry_space_group_name_H-M   'P 1'
_cell_length_a   3.64208300
_cell_length_b   8.92321400
_cell_length_c   11.29619600
_cell_angle_alpha   90.00000000
_cell_angle_beta   90.00000000
_cell_angle_gamma   90.00000000
_symmetry_Int_Tables_number   1
_chemical_formula_structural   MgPaTcB6
_chemical_formula_sum   'Mg4 Pa4 Tc4 B24'
_cell_volume   367.11604544
_cell_formula_units_Z   4
loop_
 _symmetry_equiv_pos_site_id
 _symmetry_equiv_pos_as_xyz
  1  'x, y, z'
loop_
 _atom_site_type_symbol
 _atom_site_label
 _atom_site_symmetry_multiplicity
 _atom_site_fract_x
 _atom_site_fract_y
 _atom_site_fract_z
 _atom_site_occupancy
  Mg  Mg0  1  0.000000  0.947370  0.376745  1
  Mg  Mg1  1  0.000000  0.052630  0.623255  1
  Mg  Mg2  1  0.000000  0.447370  0.123255  1
  Mg  Mg3  1  0.000000  0.552630  0.876745  1
  Pa  Pa4  1  0.000000  0.321268  0.413844  1
  Pa  Pa5  1  0.000000  0.678732  0.586156  1
  Pa  Pa6  1  0.000000  0.821268  0.086156  1
  Pa  Pa7  1  0.000000  0.178732  0.913844  1
  Tc  Tc8  1  0.000000  0.641807  0.319564  1
  Tc  Tc9  1  0.000000  0.358193  0.680436  1
  Tc  Tc10  1  0.000000  0.141807  0.180436  1
  Tc  Tc11  1  0.000000  0.858193  0.819564  1
  B  B12  1  0.500000  0.555688  0.433093  1
  B  B13  1  0.500000  0.444312  0.566907  1
  B  B14  1  0.500000  0.055688  0.066907  1
  B  B15  1  0.500000  0.944312  0.933093  1
  B  B16  1  0.500000  0.755130  0.419735  1
  B  B17  1  0.500000  0.244870  0.580265  1
  B  B18  1  0.500000  0.255130  0.080265  1
  B  B19  1  0.500000  0.744870  0.919735  1
  B  B20  1  0.500000  0.793582  0.263201  1
  B  B21  1  0.500000  0.206418  0.736799  1
  B  B22  1  0.500000  0.293582  0.236799  1
  B  B23  1  0.500000  0.706418  0.763201  1
  B  B24  1  0.500000  0.629109  0.182185  1
  B  B25  1  0.500000  0.370891  0.817815  1
  B  B26  1  0.500000  0.129109  0.317815  1
  B  B27  1  0.500000  0.870891  0.682185  1
  B  B28  1  0.500000  0.982377  0.212975  1
  B  B29  1  0.500000  0.017623  0.787025  1
  B  B30  1  0.500000  0.482377  0.287025  1
  B  B31  1  0.500000  0.517623  0.712975  1
  B  B32  1  0.500000  0.598884  0.027559  1
  B  B33  1  0.500000  0.401116  0.972441  1
  B  B34  1  0.500000  0.098884  0.472441  1
  B  B35  1  0.500000  0.901116  0.527559  1
