# generated using pymatgen
data_Hf11Sc7Re6(PW)2
_symmetry_space_group_name_H-M   'P 1'
_cell_length_a   8.66633458
_cell_length_b   8.66633447
_cell_length_c   8.53052004
_cell_angle_alpha   89.99073555
_cell_angle_beta   90.00926277
_cell_angle_gamma   120.08795136
_symmetry_Int_Tables_number   1
_chemical_formula_structural   Hf11Sc7Re6(PW)2
_chemical_formula_sum   'Hf11 Sc7 Re6 P2 W2'
_cell_volume   554.35944421
_cell_formula_units_Z   1
loop_
 _symmetry_equiv_pos_site_id
 _symmetry_equiv_pos_as_xyz
  1  'x, y, z'
loop_
 _atom_site_type_symbol
 _atom_site_label
 _atom_site_symmetry_multiplicity
 _atom_site_fract_x
 _atom_site_fract_y
 _atom_site_fract_z
 _atom_site_occupancy
  Hf  Hf0  1  0.196139  0.392020  0.453484  1
  Hf  Hf1  1  0.607980  0.803861  0.453484  1
  Hf  Hf2  1  0.803362  0.196638  0.546318  1
  Hf  Hf3  1  0.804153  0.607778  0.547077  1
  Hf  Hf4  1  0.392222  0.195847  0.547077  1
  Hf  Hf5  1  0.803613  0.196387  0.953331  1
  Hf  Hf6  1  0.803612  0.607222  0.952976  1
  Hf  Hf7  1  0.392778  0.196388  0.952976  1
  Hf  Hf8  1  0.196244  0.803756  0.046481  1
  Hf  Hf9  1  0.196318  0.392514  0.047111  1
  Hf  Hf10  1  0.607486  0.803682  0.047111  1
  Sc  Sc11  1  0.197720  0.802280  0.451709  1
  Sc  Sc12  1  0.540322  0.459678  0.250418  1
  Sc  Sc13  1  0.540327  0.080987  0.250029  1
  Sc  Sc14  1  0.919013  0.459673  0.250029  1
  Sc  Sc15  1  0.459834  0.540166  0.749812  1
  Sc  Sc16  1  0.459667  0.919532  0.750459  1
  Sc  Sc17  1  0.080468  0.540333  0.750459  1
  Re  Re18  1  0.889659  0.110341  0.250297  1
  Re  Re19  1  0.888622  0.780053  0.249339  1
  Re  Re20  1  0.219947  0.111378  0.249339  1
  Re  Re21  1  0.109391  0.890609  0.752396  1
  Re  Re22  1  0.110037  0.220549  0.749667  1
  Re  Re23  1  0.779451  0.889963  0.749667  1
  P  P24  1  0.334112  0.665888  0.249617  1
  P  P25  1  0.666688  0.333312  0.749816  1
  W  W26  1  0.001167  0.998833  0.499555  1
  W  W27  1  0.999669  0.000331  0.999964  1
