# generated using pymatgen
data_Tm2Hf3Zr3F30
_symmetry_space_group_name_H-M   'P 1'
_cell_length_a   8.13777596
_cell_length_b   8.13563377
_cell_length_c   8.13072508
_cell_angle_alpha   79.78750562
_cell_angle_beta   79.73445703
_cell_angle_gamma   100.04404832
_symmetry_Int_Tables_number   1
_chemical_formula_structural   Tm2Hf3Zr3F30
_chemical_formula_sum   'Tm2 Hf3 Zr3 F30'
_cell_volume   509.36262030
_cell_formula_units_Z   1
loop_
 _symmetry_equiv_pos_site_id
 _symmetry_equiv_pos_as_xyz
  1  'x, y, z'
loop_
 _atom_site_type_symbol
 _atom_site_label
 _atom_site_symmetry_multiplicity
 _atom_site_fract_x
 _atom_site_fract_y
 _atom_site_fract_z
 _atom_site_occupancy
  Tm  Tm0  1  0.177329  0.821437  0.251238  1
  Tm  Tm1  1  0.821618  0.178409  0.749559  1
  Hf  Hf2  1  0.751199  0.248576  0.249685  1
  Hf  Hf3  1  0.248821  0.751265  0.750119  1
  Hf  Hf4  1  0.748960  0.678064  0.673860  1
  Zr  Zr5  1  0.322322  0.251426  0.825715  1
  Zr  Zr6  1  0.250599  0.321683  0.325809  1
  Zr  Zr7  1  0.678360  0.749350  0.173945  1
  F  F8  1  0.317240  0.352037  0.052916  1
  F  F9  1  0.939009  0.812828  0.151589  1
  F  F10  1  0.842209  0.459973  0.684126  1
  F  F11  1  0.457986  0.844817  0.183589  1
  F  F12  1  0.810547  0.935336  0.653269  1
  F  F13  1  0.351446  0.317158  0.552586  1
  F  F14  1  0.685338  0.650490  0.943097  1
  F  F15  1  0.061421  0.187260  0.848347  1
  F  F16  1  0.154673  0.541584  0.317185  1
  F  F17  1  0.542052  0.155320  0.816635  1
  F  F18  1  0.186681  0.060838  0.349493  1
  F  F19  1  0.651095  0.683408  0.449053  1
  F  F20  1  0.774760  0.279091  0.997336  1
  F  F21  1  0.005850  0.275482  0.219880  1
  F  F22  1  0.776350  0.504338  0.222874  1
  F  F23  1  0.504796  0.774357  0.723013  1
  F  F24  1  0.276410  0.005979  0.719891  1
  F  F25  1  0.279463  0.774392  0.497528  1
  F  F26  1  0.225281  0.720837  0.002625  1
  F  F27  1  0.994178  0.723918  0.778187  1
  F  F28  1  0.223515  0.495548  0.776301  1
  F  F29  1  0.495623  0.223304  0.276045  1
  F  F30  1  0.724176  0.993885  0.280112  1
  F  F31  1  0.720873  0.225259  0.502215  1
  F  F32  1  0.467317  0.533606  0.249579  1
  F  F33  1  0.748327  0.956967  0.969293  1
  F  F34  1  0.043037  0.251495  0.531402  1
  F  F35  1  0.251831  0.043943  0.031578  1
  F  F36  1  0.954634  0.747689  0.471186  1
  F  F37  1  0.534675  0.468654  0.749138  1
