# generated using pymatgen
data_LuTa2(Nb2Sn3)2
_symmetry_space_group_name_H-M   'P 1'
_cell_length_a   5.79959802
_cell_length_b   5.79683980
_cell_length_c   9.57555500
_cell_angle_alpha   90.00000000
_cell_angle_beta   90.00000000
_cell_angle_gamma   119.98427527
_symmetry_Int_Tables_number   1
_chemical_formula_structural   LuTa2(Nb2Sn3)2
_chemical_formula_sum   'Lu1 Ta2 Nb4 Sn6'
_cell_volume   278.83839325
_cell_formula_units_Z   1
loop_
 _symmetry_equiv_pos_site_id
 _symmetry_equiv_pos_as_xyz
  1  'x, y, z'
loop_
 _atom_site_type_symbol
 _atom_site_label
 _atom_site_symmetry_multiplicity
 _atom_site_fract_x
 _atom_site_fract_y
 _atom_site_fract_z
 _atom_site_occupancy
  Lu  Lu0  1  0.000000  0.000000  0.999880  1
  Ta  Ta1  1  0.500000  0.500000  0.751272  1
  Ta  Ta2  1  0.500000  0.000000  0.751272  1
  Nb  Nb3  1  0.000000  0.500000  0.750812  1
  Nb  Nb4  1  0.000000  0.500000  0.249134  1
  Nb  Nb5  1  0.500000  0.500000  0.249255  1
  Nb  Nb6  1  0.500000  0.000000  0.249255  1
  Sn  Sn7  1  0.666177  0.333088  0.499896  1
  Sn  Sn8  1  0.333823  0.666912  0.499896  1
  Sn  Sn9  1  0.666640  0.333320  0.000208  1
  Sn  Sn10  1  0.333360  0.666680  0.000208  1
  Sn  Sn11  1  0.000000  0.000000  0.669257  1
  Sn  Sn12  1  0.000000  0.000000  0.329656  1
