# generated using pymatgen
data_YInNiPt3
_symmetry_space_group_name_H-M   'P 1'
_cell_length_a   5.20149381
_cell_length_b   5.42873727
_cell_length_c   5.42873700
_cell_angle_alpha   59.99999552
_cell_angle_beta   58.54396658
_cell_angle_gamma   58.54396206
_symmetry_Int_Tables_number   1
_chemical_formula_structural   YInNiPt3
_chemical_formula_sum   'Y1 In1 Ni1 Pt3'
_cell_volume   105.94820985
_cell_formula_units_Z   1
loop_
 _symmetry_equiv_pos_site_id
 _symmetry_equiv_pos_as_xyz
  1  'x, y, z'
loop_
 _atom_site_type_symbol
 _atom_site_label
 _atom_site_symmetry_multiplicity
 _atom_site_fract_x
 _atom_site_fract_y
 _atom_site_fract_z
 _atom_site_occupancy
  Y  Y0  1  0.996915  0.001028  0.001028  1
  In  In1  1  0.238034  0.253987  0.253988  1
  Ni  Ni2  1  0.130578  0.623141  0.623140  1
  Pt  Pt3  1  0.628158  0.623496  0.124850  1
  Pt  Pt4  1  0.628157  0.623495  0.623496  1
  Pt  Pt5  1  0.628158  0.124851  0.623495  1
