# generated using pymatgen
data_Ce3DyHo6(SiB4)4
_symmetry_space_group_name_H-M   'P 1'
_cell_length_a   7.25287404
_cell_length_b   7.25287429
_cell_length_c   8.16192700
_cell_angle_alpha   89.99647868
_cell_angle_beta   89.99647850
_cell_angle_gamma   90.14001481
_symmetry_Int_Tables_number   1
_chemical_formula_structural   Ce3DyHo6(SiB4)4
_chemical_formula_sum   'Ce3 Dy1 Ho6 Si4 B16'
_cell_volume   429.35022297
_cell_formula_units_Z   1
loop_
 _symmetry_equiv_pos_site_id
 _symmetry_equiv_pos_as_xyz
  1  'x, y, z'
loop_
 _atom_site_type_symbol
 _atom_site_label
 _atom_site_symmetry_multiplicity
 _atom_site_fract_x
 _atom_site_fract_y
 _atom_site_fract_z
 _atom_site_occupancy
  Ce  Ce0  1  0.681855  0.181855  0.228884  1
  Ce  Ce1  1  0.317574  0.817574  0.770821  1
  Ce  Ce2  1  0.318403  0.818403  0.229734  1
  Dy  Dy3  1  0.681563  0.181563  0.778563  1
  Ho  Ho4  1  0.819942  0.679884  0.220462  1
  Ho  Ho5  1  0.819735  0.680275  0.779400  1
  Ho  Ho6  1  0.180275  0.319735  0.779400  1
  Ho  Ho7  1  0.179884  0.319942  0.220462  1
  Ho  Ho8  1  0.999265  0.000935  0.500518  1
  Ho  Ho9  1  0.500935  0.499265  0.500518  1
  Si  Si10  1  0.113956  0.613956  0.500619  1
  Si  Si11  1  0.884272  0.384272  0.501040  1
  Si  Si12  1  0.384872  0.115858  0.501322  1
  Si  Si13  1  0.615858  0.884872  0.501322  1
  B  B14  1  0.172411  0.039060  0.998816  1
  B  B15  1  0.827111  0.961400  0.999293  1
  B  B16  1  0.959904  0.172594  0.999077  1
  B  B17  1  0.328291  0.539255  0.998972  1
  B  B18  1  0.039255  0.828291  0.998972  1
  B  B19  1  0.672594  0.459904  0.999077  1
  B  B20  1  0.539060  0.672411  0.998816  1
  B  B21  1  0.461400  0.327111  0.999293  1
  B  B22  1  0.091152  0.591152  0.999145  1
  B  B23  1  0.909094  0.409094  0.000654  1
  B  B24  1  0.409854  0.090522  0.999379  1
  B  B25  1  0.590522  0.909854  0.999379  1
  B  B26  1  0.999814  0.000161  0.160376  1
  B  B27  1  0.000451  0.000542  0.837656  1
  B  B28  1  0.500542  0.500451  0.837656  1
  B  B29  1  0.500161  0.499814  0.160376  1
