# generated using pymatgen
data_Tb5Y3Si12PdPt3
_symmetry_space_group_name_H-M   'P 1'
_cell_length_a   8.15744100
_cell_length_b   8.15617182
_cell_length_c   8.32945900
_cell_angle_alpha   90.00068141
_cell_angle_beta   90.00044250
_cell_angle_gamma   120.01788027
_symmetry_Int_Tables_number   1
_chemical_formula_structural   Tb5Y3Si12PdPt3
_chemical_formula_sum   'Tb5 Y3 Si12 Pd1 Pt3'
_cell_volume   479.85437337
_cell_formula_units_Z   1
loop_
 _symmetry_equiv_pos_site_id
 _symmetry_equiv_pos_as_xyz
  1  'x, y, z'
loop_
 _atom_site_type_symbol
 _atom_site_label
 _atom_site_symmetry_multiplicity
 _atom_site_fract_x
 _atom_site_fract_y
 _atom_site_fract_z
 _atom_site_occupancy
  Tb  Tb0  1  0.997877  0.498903  0.750250  1
  Tb  Tb1  1  0.500605  0.499388  0.249875  1
  Tb  Tb2  1  0.501050  0.498882  0.750269  1
  Tb  Tb3  1  0.000002  0.000004  0.250304  1
  Tb  Tb4  1  0.999996  0.000006  0.749437  1
  Y  Y5  1  0.500628  0.001237  0.249682  1
  Y  Y6  1  0.501144  0.002318  0.750476  1
  Y  Y7  1  0.998690  0.499355  0.249670  1
  Si  Si8  1  0.165860  0.331638  0.999370  1
  Si  Si9  1  0.834296  0.668612  0.000340  1
  Si  Si10  1  0.668275  0.834064  0.999486  1
  Si  Si11  1  0.834631  0.669276  0.500242  1
  Si  Si12  1  0.331465  0.165744  0.000480  1
  Si  Si13  1  0.165732  0.331407  0.499739  1
  Si  Si14  1  0.165865  0.834064  0.999384  1
  Si  Si15  1  0.330795  0.165412  0.500105  1
  Si  Si16  1  0.834234  0.165770  0.000329  1
  Si  Si17  1  0.668518  0.834206  0.499663  1
  Si  Si18  1  0.834570  0.165442  0.500249  1
  Si  Si19  1  0.165765  0.834187  0.499732  1
  Pd  Pd20  1  0.333278  0.666797  0.501009  1
  Pt  Pt21  1  0.333347  0.666701  0.000781  1
  Pt  Pt22  1  0.666697  0.333289  0.000417  1
  Pt  Pt23  1  0.666678  0.333300  0.498709  1
