# generated using pymatgen
data_YLuCo9Mo3As7
_symmetry_space_group_name_H-M   'P 1'
_cell_length_a   3.84095900
_cell_length_b   9.38604972
_cell_length_c   9.38605000
_cell_angle_alpha   119.99999392
_cell_angle_beta   90.00000000
_cell_angle_gamma   90.00000000
_symmetry_Int_Tables_number   1
_chemical_formula_structural   YLuCo9Mo3As7
_chemical_formula_sum   'Y1 Lu1 Co9 Mo3 As7'
_cell_volume   293.04616593
_cell_formula_units_Z   1
loop_
 _symmetry_equiv_pos_site_id
 _symmetry_equiv_pos_as_xyz
  1  'x, y, z'
loop_
 _atom_site_type_symbol
 _atom_site_label
 _atom_site_symmetry_multiplicity
 _atom_site_fract_x
 _atom_site_fract_y
 _atom_site_fract_z
 _atom_site_occupancy
  Y  Y0  1  0.500000  0.333333  0.666667  1
  Lu  Lu1  1  0.000000  0.666667  0.333333  1
  Co  Co2  1  0.000000  0.570055  0.940940  1
  Co  Co3  1  0.000000  0.370885  0.429945  1
  Co  Co4  1  0.000000  0.059060  0.629115  1
  Co  Co5  1  0.000000  0.876013  0.158759  1
  Co  Co6  1  0.000000  0.282746  0.123987  1
  Co  Co7  1  0.000000  0.841241  0.717254  1
  Co  Co8  1  0.500000  0.948133  0.382848  1
  Co  Co9  1  0.500000  0.434714  0.051867  1
  Co  Co10  1  0.500000  0.617152  0.565286  1
  Mo  Mo11  1  0.500000  0.781003  0.902562  1
  Mo  Mo12  1  0.500000  0.121558  0.218997  1
  Mo  Mo13  1  0.500000  0.097438  0.878442  1
  As  As14  1  0.000000  0.000000  0.000000  1
  As  As15  1  0.500000  0.707489  0.121356  1
  As  As16  1  0.500000  0.413868  0.292511  1
  As  As17  1  0.500000  0.878644  0.586132  1
  As  As18  1  0.000000  0.585837  0.699587  1
  As  As19  1  0.000000  0.113751  0.414163  1
  As  As20  1  0.000000  0.300413  0.886249  1
