# generated using pymatgen
data_Rb8HoEr5BeBr20
_symmetry_space_group_name_H-M   'P 1'
_cell_length_a   12.29282721
_cell_length_b   12.29512543
_cell_length_c   12.29512621
_cell_angle_alpha   59.98763882
_cell_angle_beta   60.00618752
_cell_angle_gamma   60.00618488
_symmetry_Int_Tables_number   1
_chemical_formula_structural   Rb8HoEr5BeBr20
_chemical_formula_sum   'Rb8 Ho1 Er5 Be1 Br20'
_cell_volume   1314.02231555
_cell_formula_units_Z   1
loop_
 _symmetry_equiv_pos_site_id
 _symmetry_equiv_pos_as_xyz
  1  'x, y, z'
loop_
 _atom_site_type_symbol
 _atom_site_label
 _atom_site_symmetry_multiplicity
 _atom_site_fract_x
 _atom_site_fract_y
 _atom_site_fract_z
 _atom_site_occupancy
  Rb  Rb0  1  0.358732  0.358733  0.358733  1
  Rb  Rb1  1  0.641283  0.641267  0.641267  1
  Rb  Rb2  1  0.358733  0.358717  0.923818  1
  Rb  Rb3  1  0.358733  0.923818  0.358717  1
  Rb  Rb4  1  0.641267  0.641268  0.076199  1
  Rb  Rb5  1  0.641267  0.076199  0.641268  1
  Rb  Rb6  1  0.923801  0.358733  0.358733  1
  Rb  Rb7  1  0.076182  0.641267  0.641267  1
  Ho  Ho8  1  0.845577  0.154423  0.154423  1
  Er  Er9  1  0.154346  0.845654  0.845654  1
  Er  Er10  1  0.154348  0.845652  0.154264  1
  Er  Er11  1  0.845736  0.154264  0.845652  1
  Er  Er12  1  0.154348  0.154264  0.845652  1
  Er  Er13  1  0.845736  0.845652  0.154264  1
  Be  Be14  1  0.000117  0.999883  0.999883  1
  Br  Br15  1  0.329881  0.999993  0.999993  1
  Br  Br16  1  0.670133  0.999993  0.999993  1
  Br  Br17  1  0.000007  0.329867  0.670119  1
  Br  Br18  1  0.000007  0.670119  0.329867  1
  Br  Br19  1  0.000344  0.330130  0.999656  1
  Br  Br20  1  0.669870  0.999656  0.330130  1
  Br  Br21  1  0.000007  0.670140  0.999993  1
  Br  Br22  1  0.329860  0.999993  0.670140  1
  Br  Br23  1  0.000344  0.999656  0.330130  1
  Br  Br24  1  0.000007  0.999993  0.670140  1
  Br  Br25  1  0.669870  0.330130  0.999656  1
  Br  Br26  1  0.329860  0.670140  0.999993  1
  Br  Br27  1  0.680258  0.319742  0.319742  1
  Br  Br28  1  0.319308  0.680692  0.680692  1
  Br  Br29  1  0.319306  0.680694  0.319308  1
  Br  Br30  1  0.680692  0.319308  0.680694  1
  Br  Br31  1  0.319306  0.319308  0.680694  1
  Br  Br32  1  0.680692  0.680694  0.319308  1
  Br  Br33  1  0.250021  0.249979  0.249979  1
  Br  Br34  1  0.750021  0.749979  0.749979  1
