# generated using pymatgen
data_Ce3TmCu3SiRh9
_symmetry_space_group_name_H-M   'P 1'
_cell_length_a   7.12700587
_cell_length_b   7.12700659
_cell_length_c   7.26138800
_cell_angle_alpha   109.85363027
_cell_angle_beta   109.85363237
_cell_angle_gamma   109.08612260
_symmetry_Int_Tables_number   1
_chemical_formula_structural   Ce3TmCu3SiRh9
_chemical_formula_sum   'Ce3 Tm1 Cu3 Si1 Rh9'
_cell_volume   282.57944513
_cell_formula_units_Z   1
loop_
 _symmetry_equiv_pos_site_id
 _symmetry_equiv_pos_as_xyz
  1  'x, y, z'
loop_
 _atom_site_type_symbol
 _atom_site_label
 _atom_site_symmetry_multiplicity
 _atom_site_fract_x
 _atom_site_fract_y
 _atom_site_fract_z
 _atom_site_occupancy
  Ce  Ce0  1  0.023142  0.511571  0.011571  1
  Ce  Ce1  1  0.488429  0.976858  0.988429  1
  Ce  Ce2  1  0.488429  0.511571  0.500000  1
  Tm  Tm3  1  0.000000  0.000000  0.500000  1
  Cu  Cu4  1  0.750167  0.249833  0.500000  1
  Cu  Cu5  1  0.750167  0.500334  0.250167  1
  Cu  Cu6  1  0.499666  0.249833  0.749833  1
  Si  Si7  1  0.000000  0.000000  0.000000  1
  Rh  Rh8  1  0.247820  0.495639  0.747820  1
  Rh  Rh9  1  0.247820  0.752180  0.500000  1
  Rh  Rh10  1  0.504361  0.752180  0.252180  1
  Rh  Rh11  1  0.732340  0.707058  0.002911  1
  Rh  Rh12  1  0.292942  0.025283  0.295853  1
  Rh  Rh13  1  0.974717  0.267660  0.270569  1
  Rh  Rh14  1  0.292942  0.267660  0.997089  1
  Rh  Rh15  1  0.732340  0.025283  0.729431  1
  Rh  Rh16  1  0.974717  0.707058  0.704147  1
