# generated using pymatgen
data_TbDyMoWC3
_symmetry_space_group_name_H-M   'P 1'
_cell_length_a   6.14835414
_cell_length_b   6.14835394
_cell_length_c   5.74344858
_cell_angle_alpha   68.12351531
_cell_angle_beta   68.12351746
_cell_angle_gamma   31.61844139
_symmetry_Int_Tables_number   1
_chemical_formula_structural   TbDyMoWC3
_chemical_formula_sum   'Tb1 Dy1 Mo1 W1 C3'
_cell_volume   104.94341965
_cell_formula_units_Z   1
loop_
 _symmetry_equiv_pos_site_id
 _symmetry_equiv_pos_as_xyz
  1  'x, y, z'
loop_
 _atom_site_type_symbol
 _atom_site_label
 _atom_site_symmetry_multiplicity
 _atom_site_fract_x
 _atom_site_fract_y
 _atom_site_fract_z
 _atom_site_occupancy
  Tb  Tb0  1  0.390607  0.390607  0.819616  1
  Dy  Dy1  1  0.610100  0.610100  0.175129  1
  Mo  Mo2  1  0.156495  0.156495  0.675390  1
  W  W3  1  0.842249  0.842249  0.327318  1
  C  C4  1  0.751036  0.751036  0.733473  1
  C  C5  1  0.249992  0.249992  0.265470  1
  C  C6  1  0.999522  0.999522  0.003602  1
