# generated using pymatgen
data_Cs3KIn3GaI16
_symmetry_space_group_name_H-M   'P 1'
_cell_length_a   8.52395469
_cell_length_b   9.26529310
_cell_length_c   17.22455301
_cell_angle_alpha   86.32055537
_cell_angle_beta   90.88533316
_cell_angle_gamma   90.39329940
_symmetry_Int_Tables_number   1
_chemical_formula_structural   Cs3KIn3GaI16
_chemical_formula_sum   'Cs3 K1 In3 Ga1 I16'
_cell_volume   1357.35282711
_cell_formula_units_Z   1
loop_
 _symmetry_equiv_pos_site_id
 _symmetry_equiv_pos_as_xyz
  1  'x, y, z'
loop_
 _atom_site_type_symbol
 _atom_site_label
 _atom_site_symmetry_multiplicity
 _atom_site_fract_x
 _atom_site_fract_y
 _atom_site_fract_z
 _atom_site_occupancy
  Cs  Cs0  1  0.505820  0.255605  0.642235  1
  Cs  Cs1  1  0.010753  0.743536  0.862405  1
  Cs  Cs2  1  0.492258  0.745491  0.356837  1
  K  K3  1  0.004728  0.250657  0.133367  1
  In  In4  1  0.350104  0.248053  0.358828  1
  In  In5  1  0.863917  0.752963  0.139229  1
  In  In6  1  0.643173  0.752294  0.639228  1
  Ga  Ga7  1  0.139494  0.247673  0.863687  1
  I  I8  1  0.870164  0.147325  0.910307  1
  I  I9  1  0.355915  0.856233  0.586064  1
  I  I10  1  0.145644  0.869760  0.087694  1
  I  I11  1  0.637695  0.145531  0.411885  1
  I  I12  1  0.382348  0.405679  0.217863  1
  I  I13  1  0.900506  0.582145  0.275349  1
  I  I14  1  0.599196  0.593517  0.778783  1
  I  I15  1  0.100296  0.400358  0.733613  1
  I  I16  1  0.667598  0.983518  0.161201  1
  I  I17  1  0.138865  0.028086  0.333692  1
  I  I18  1  0.338460  0.043644  0.841897  1
  I  I19  1  0.854030  0.973519  0.662731  1
  I  I20  1  0.233666  0.425930  0.467056  1
  I  I21  1  0.745999  0.566917  0.033093  1
  I  I22  1  0.766070  0.574287  0.533000  1
  I  I23  1  0.253303  0.407281  0.969959  1
