# generated using pymatgen
data_Ho12AlCo5
_symmetry_space_group_name_H-M   'P 1'
_cell_length_a   8.20460518
_cell_length_b   8.20463565
_cell_length_c   8.20460601
_cell_angle_alpha   110.81624259
_cell_angle_beta   110.79288514
_cell_angle_gamma   106.83608670
_symmetry_Int_Tables_number   1
_chemical_formula_structural   Ho12AlCo5
_chemical_formula_sum   'Ho12 Al1 Co5'
_cell_volume   424.49063497
_cell_formula_units_Z   1
loop_
 _symmetry_equiv_pos_site_id
 _symmetry_equiv_pos_as_xyz
  1  'x, y, z'
loop_
 _atom_site_type_symbol
 _atom_site_label
 _atom_site_symmetry_multiplicity
 _atom_site_fract_x
 _atom_site_fract_y
 _atom_site_fract_z
 _atom_site_occupancy
  Ho  Ho0  1  0.813841  0.709784  0.523626  1
  Ho  Ho1  1  0.186159  0.290216  0.476374  1
  Ho  Ho2  1  0.186159  0.709784  0.895943  1
  Ho  Ho3  1  0.813841  0.290216  0.104057  1
  Ho  Ho4  1  0.684399  0.380900  0.696502  1
  Ho  Ho5  1  0.315601  0.619100  0.303498  1
  Ho  Ho6  1  0.684402  0.987902  0.303500  1
  Ho  Ho7  1  0.315598  0.012098  0.696500  1
  Ho  Ho8  1  0.594938  0.786396  0.808545  1
  Ho  Ho9  1  0.405062  0.213604  0.191455  1
  Ho  Ho10  1  0.977851  0.786396  0.191457  1
  Ho  Ho11  1  0.022149  0.213604  0.808543  1
  Al  Al12  1  0.500000  0.500000  0.000000  1
  Co  Co13  1  0.623465  0.000000  0.623465  1
  Co  Co14  1  0.376535  0.000000  0.376535  1
  Co  Co15  1  0.113122  0.613124  0.500003  1
  Co  Co16  1  0.886878  0.386876  0.499997  1
  Co  Co17  1  0.000000  0.000000  0.000000  1
