# generated using pymatgen
data_DyTm3(SiRh2)8
_symmetry_space_group_name_H-M   'P 1'
_cell_length_a   4.11712900
_cell_length_b   9.07731044
_cell_length_c   11.25469104
_cell_angle_alpha   90.08408483
_cell_angle_beta   90.00000000
_cell_angle_gamma   90.00000000
_symmetry_Int_Tables_number   1
_chemical_formula_structural   DyTm3(SiRh2)8
_chemical_formula_sum   'Dy1 Tm3 Si8 Rh16'
_cell_volume   420.61501566
_cell_formula_units_Z   1
loop_
 _symmetry_equiv_pos_site_id
 _symmetry_equiv_pos_as_xyz
  1  'x, y, z'
loop_
 _atom_site_type_symbol
 _atom_site_label
 _atom_site_symmetry_multiplicity
 _atom_site_fract_x
 _atom_site_fract_y
 _atom_site_fract_z
 _atom_site_occupancy
  Dy  Dy0  1  0.250000  0.147998  0.825190  1
  Tm  Tm1  1  0.250000  0.352972  0.324986  1
  Tm  Tm2  1  0.750000  0.852456  0.175255  1
  Tm  Tm3  1  0.750000  0.647622  0.674615  1
  Si  Si4  1  0.250000  0.412430  0.636413  1
  Si  Si5  1  0.250000  0.088074  0.137386  1
  Si  Si6  1  0.750000  0.588352  0.362678  1
  Si  Si7  1  0.750000  0.910865  0.863155  1
  Si  Si8  1  0.250000  0.616490  0.058683  1
  Si  Si9  1  0.250000  0.883282  0.558702  1
  Si  Si10  1  0.750000  0.383085  0.941635  1
  Si  Si11  1  0.750000  0.116278  0.441577  1
  Rh  Rh12  1  0.250000  0.615798  0.501353  1
  Rh  Rh13  1  0.250000  0.883529  0.001945  1
  Rh  Rh14  1  0.750000  0.384363  0.497259  1
  Rh  Rh15  1  0.750000  0.113891  0.000818  1
  Rh  Rh16  1  0.250000  0.685706  0.268594  1
  Rh  Rh17  1  0.250000  0.813265  0.768550  1
  Rh  Rh18  1  0.750000  0.317567  0.730009  1
  Rh  Rh19  1  0.750000  0.186581  0.232366  1
  Rh  Rh20  1  0.250000  0.173046  0.558538  1
  Rh  Rh21  1  0.250000  0.327270  0.060096  1
  Rh  Rh22  1  0.750000  0.827320  0.440061  1
  Rh  Rh23  1  0.750000  0.672325  0.940739  1
  Rh  Rh24  1  0.250000  0.006833  0.343655  1
  Rh  Rh25  1  0.250000  0.493347  0.844226  1
  Rh  Rh26  1  0.750000  0.992095  0.655541  1
  Rh  Rh27  1  0.750000  0.507158  0.155977  1
