# generated using pymatgen
data_Th2NiN3
_symmetry_space_group_name_H-M   'P 1'
_cell_length_a   3.53244054
_cell_length_b   3.86913725
_cell_length_c   6.80300932
_cell_angle_alpha   106.52116488
_cell_angle_beta   105.04772466
_cell_angle_gamma   89.99998667
_symmetry_Int_Tables_number   1
_chemical_formula_structural   Th2NiN3
_chemical_formula_sum   'Th2 Ni1 N3'
_cell_volume   85.81060060
_cell_formula_units_Z   1
loop_
 _symmetry_equiv_pos_site_id
 _symmetry_equiv_pos_as_xyz
  1  'x, y, z'
loop_
 _atom_site_type_symbol
 _atom_site_label
 _atom_site_symmetry_multiplicity
 _atom_site_fract_x
 _atom_site_fract_y
 _atom_site_fract_z
 _atom_site_occupancy
  Th  Th0  1  0.642227  0.642227  0.284452  1
  Th  Th1  1  0.357774  0.357774  0.715548  1
  Ni  Ni2  1  0.000000  0.000000  0.000000  1
  N  N3  1  0.000000  0.500001  0.000000  1
  N  N4  1  0.164501  0.164501  0.329002  1
  N  N5  1  0.835500  0.835500  0.670998  1
