# generated using pymatgen
data_Nd2Lu2Al13Ga5Ir6
_symmetry_space_group_name_H-M   'P 1'
_cell_length_a   7.54222246
_cell_length_b   7.54544967
_cell_length_c   9.59690900
_cell_angle_alpha   90.00000000
_cell_angle_beta   90.00000000
_cell_angle_gamma   119.51501396
_symmetry_Int_Tables_number   1
_chemical_formula_structural   Nd2Lu2Al13Ga5Ir6
_chemical_formula_sum   'Nd2 Lu2 Al13 Ga5 Ir6'
_cell_volume   475.27854533
_cell_formula_units_Z   1
loop_
 _symmetry_equiv_pos_site_id
 _symmetry_equiv_pos_as_xyz
  1  'x, y, z'
loop_
 _atom_site_type_symbol
 _atom_site_label
 _atom_site_symmetry_multiplicity
 _atom_site_fract_x
 _atom_site_fract_y
 _atom_site_fract_z
 _atom_site_occupancy
  Nd  Nd0  1  0.995414  0.669582  0.250000  1
  Nd  Nd1  1  0.669698  0.996168  0.250000  1
  Lu  Lu2  1  0.999973  0.324624  0.750000  1
  Lu  Lu3  1  0.329297  0.006435  0.750000  1
  Al  Al4  1  0.004568  0.334846  0.067042  1
  Al  Al5  1  0.000839  0.664918  0.922339  1
  Al  Al6  1  0.000839  0.664918  0.577661  1
  Al  Al7  1  0.334883  0.004146  0.433102  1
  Al  Al8  1  0.004568  0.334846  0.432958  1
  Al  Al9  1  0.664111  0.999116  0.577764  1
  Al  Al10  1  0.664111  0.999116  0.922236  1
  Al  Al11  1  0.334883  0.004146  0.066898  1
  Al  Al12  1  0.332945  0.333461  0.563045  1
  Al  Al13  1  0.665095  0.664864  0.455226  1
  Al  Al14  1  0.665095  0.664864  0.044774  1
  Al  Al15  1  0.332945  0.333461  0.936955  1
  Al  Al16  1  0.447499  0.661619  0.750000  1
  Ga  Ga17  1  0.131552  0.131432  0.250000  1
  Ga  Ga18  1  0.870694  0.870110  0.750000  1
  Ga  Ga19  1  0.338305  0.544016  0.250000  1
  Ga  Ga20  1  0.661169  0.452066  0.750000  1
  Ga  Ga21  1  0.544254  0.338802  0.250000  1
  Ir  Ir22  1  0.672119  0.327846  0.997455  1
  Ir  Ir23  1  0.329131  0.671303  0.995218  1
  Ir  Ir24  1  0.329131  0.671303  0.504782  1
  Ir  Ir25  1  0.672119  0.327846  0.502545  1
  Ir  Ir26  1  0.002382  0.002072  0.996146  1
  Ir  Ir27  1  0.002382  0.002072  0.503854  1
