# generated using pymatgen
data_LiHo12InNi4
_symmetry_space_group_name_H-M   'P 1'
_cell_length_a   8.30814132
_cell_length_b   8.30814188
_cell_length_c   8.30814198
_cell_angle_alpha   111.96519693
_cell_angle_beta   110.27605288
_cell_angle_gamma   106.22518179
_symmetry_Int_Tables_number   1
_chemical_formula_structural   LiHo12InNi4
_chemical_formula_sum   'Li1 Ho12 In1 Ni4'
_cell_volume   440.30163195
_cell_formula_units_Z   1
loop_
 _symmetry_equiv_pos_site_id
 _symmetry_equiv_pos_as_xyz
  1  'x, y, z'
loop_
 _atom_site_type_symbol
 _atom_site_label
 _atom_site_symmetry_multiplicity
 _atom_site_fract_x
 _atom_site_fract_y
 _atom_site_fract_z
 _atom_site_occupancy
  Li  Li0  1  0.000000  0.000000  0.000000  1
  Ho  Ho1  1  0.424398  0.227237  0.197160  1
  Ho  Ho2  1  0.575602  0.772763  0.802840  1
  Ho  Ho3  1  0.030076  0.227237  0.802840  1
  Ho  Ho4  1  0.969924  0.772763  0.197160  1
  Ho  Ho5  1  0.183912  0.294291  0.478203  1
  Ho  Ho6  1  0.816088  0.705709  0.521797  1
  Ho  Ho7  1  0.183912  0.705709  0.889622  1
  Ho  Ho8  1  0.816088  0.294291  0.110378  1
  Ho  Ho9  1  0.321224  0.626250  0.305024  1
  Ho  Ho10  1  0.678776  0.373750  0.694976  1
  Ho  Ho11  1  0.321224  0.016200  0.694976  1
  Ho  Ho12  1  0.678776  0.983800  0.305024  1
  In  In13  1  0.500000  0.500000  0.000000  1
  Ni  Ni14  1  0.352174  0.000000  0.352174  1
  Ni  Ni15  1  0.647826  0.000000  0.647826  1
  Ni  Ni16  1  0.124958  0.624958  0.500000  1
  Ni  Ni17  1  0.875042  0.375042  0.500000  1
