# generated using pymatgen
data_Tb2Sm2(Ga8Pt3)3
_symmetry_space_group_name_H-M   'P 1'
_cell_length_a   7.55518917
_cell_length_b   7.60622139
_cell_length_c   13.39361007
_cell_angle_alpha   84.75636914
_cell_angle_beta   79.40355448
_cell_angle_gamma   60.17547735
_symmetry_Int_Tables_number   1
_chemical_formula_structural   Tb2Sm2(Ga8Pt3)3
_chemical_formula_sum   'Tb2 Sm2 Ga24 Pt9'
_cell_volume   656.35349133
_cell_formula_units_Z   1
loop_
 _symmetry_equiv_pos_site_id
 _symmetry_equiv_pos_as_xyz
  1  'x, y, z'
loop_
 _atom_site_type_symbol
 _atom_site_label
 _atom_site_symmetry_multiplicity
 _atom_site_fract_x
 _atom_site_fract_y
 _atom_site_fract_z
 _atom_site_occupancy
  Tb  Tb0  1  0.732251  0.497414  0.811260  1
  Tb  Tb1  1  0.267749  0.502586  0.188740  1
  Sm  Sm2  1  0.392840  0.168454  0.811540  1
  Sm  Sm3  1  0.607160  0.831546  0.188460  1
  Ga  Ga4  1  0.686425  0.832684  0.939156  1
  Ga  Ga5  1  0.313575  0.167316  0.060844  1
  Ga  Ga6  1  0.146231  0.832689  0.559004  1
  Ga  Ga7  1  0.853769  0.167311  0.440996  1
  Ga  Ga8  1  0.478748  0.167055  0.556139  1
  Ga  Ga9  1  0.521252  0.832945  0.443861  1
  Ga  Ga10  1  0.220127  0.165948  0.325134  1
  Ga  Ga11  1  0.779873  0.834052  0.674866  1
  Ga  Ga12  1  0.437818  0.504094  0.673882  1
  Ga  Ga13  1  0.562182  0.495906  0.326118  1
  Ga  Ga14  1  0.106503  0.163760  0.673299  1
  Ga  Ga15  1  0.893497  0.836240  0.326701  1
  Ga  Ga16  1  0.356534  0.499154  0.939970  1
  Ga  Ga17  1  0.643466  0.500846  0.060030  1
  Ga  Ga18  1  0.017701  0.169265  0.945349  1
  Ga  Ga19  1  0.982299  0.830735  0.054651  1
  Ga  Ga20  1  0.186629  0.499091  0.442812  1
  Ga  Ga21  1  0.813371  0.500909  0.557188  1
  Ga  Ga22  1  0.734396  0.165542  0.182330  1
  Ga  Ga23  1  0.265604  0.834458  0.817670  1
  Ga  Ga24  1  0.059670  0.632634  0.816982  1
  Ga  Ga25  1  0.940330  0.367366  0.183018  1
  Ga  Ga26  1  0.857799  0.040258  0.816915  1
  Ga  Ga27  1  0.142201  0.959742  0.183086  1
  Pt  Pt28  1  0.117811  0.496645  0.638238  1
  Pt  Pt29  1  0.882189  0.503355  0.361762  1
  Pt  Pt30  1  0.659895  0.169430  0.999572  1
  Pt  Pt31  1  0.340105  0.830570  0.000428  1
  Pt  Pt32  1  0.540655  0.166881  0.360949  1
  Pt  Pt33  1  0.459345  0.833119  0.639051  1
  Pt  Pt34  1  0.780302  0.171531  0.636725  1
  Pt  Pt35  1  0.219698  0.828469  0.363275  1
  Pt  Pt36  1  0.000000  0.500000  0.000000  1
