# generated using pymatgen
data_TbPa3(Co3Si5)2
_symmetry_space_group_name_H-M   'P 1'
_cell_length_a   7.84164541
_cell_length_b   7.87333275
_cell_length_c   7.87333297
_cell_angle_alpha   138.16755187
_cell_angle_beta   104.64485266
_cell_angle_gamma   90.17789666
_symmetry_Int_Tables_number   1
_chemical_formula_structural   TbPa3(Co3Si5)2
_chemical_formula_sum   'Tb1 Pa3 Co6 Si10'
_cell_volume   299.54388810
_cell_formula_units_Z   1
loop_
 _symmetry_equiv_pos_site_id
 _symmetry_equiv_pos_as_xyz
  1  'x, y, z'
loop_
 _atom_site_type_symbol
 _atom_site_label
 _atom_site_symmetry_multiplicity
 _atom_site_fract_x
 _atom_site_fract_y
 _atom_site_fract_z
 _atom_site_occupancy
  Tb  Tb0  1  0.602615  0.368444  0.234171  1
  Pa  Pa1  1  0.865672  0.131380  0.734292  1
  Pa  Pa2  1  0.132032  0.866916  0.265116  1
  Pa  Pa3  1  0.399979  0.633946  0.766035  1
  Co  Co4  1  0.002581  0.247897  0.248461  1
  Co  Co5  1  0.002581  0.754121  0.754684  1
  Co  Co6  1  0.241223  0.360098  0.881125  1
  Co  Co7  1  0.757824  0.640438  0.117386  1
  Co  Co8  1  0.477604  0.863190  0.614414  1
  Co  Co9  1  0.519810  0.134734  0.385075  1
  Si  Si10  1  0.499586  0.252147  0.752961  1
  Si  Si11  1  0.499586  0.746625  0.247439  1
  Si  Si12  1  0.233053  0.483700  0.251446  1
  Si  Si13  1  0.767073  0.019870  0.250802  1
  Si  Si14  1  0.767073  0.516271  0.747203  1
  Si  Si15  1  0.233053  0.981608  0.749353  1
  Si  Si16  1  0.045420  0.395611  0.649809  1
  Si  Si17  1  0.953184  0.603428  0.349756  1
  Si  Si18  1  0.742040  0.894004  0.848037  1
  Si  Si19  1  0.258010  0.105574  0.152436  1
