# generated using pymatgen
data_Sc8Al14AsOs7
_symmetry_space_group_name_H-M   'P 1'
_cell_length_a   8.88739614
_cell_length_b   8.88739562
_cell_length_c   8.88739500
_cell_angle_alpha   120.10267274
_cell_angle_beta   119.92634421
_cell_angle_gamma   89.97493918
_symmetry_Int_Tables_number   1
_chemical_formula_structural   Sc8Al14AsOs7
_chemical_formula_sum   'Sc8 Al14 As1 Os7'
_cell_volume   496.26307289
_cell_formula_units_Z   1
loop_
 _symmetry_equiv_pos_site_id
 _symmetry_equiv_pos_as_xyz
  1  'x, y, z'
loop_
 _atom_site_type_symbol
 _atom_site_label
 _atom_site_symmetry_multiplicity
 _atom_site_fract_x
 _atom_site_fract_y
 _atom_site_fract_z
 _atom_site_occupancy
  Sc  Sc0  1  0.793823  0.285678  0.074434  1
  Sc  Sc1  1  0.211244  0.285678  0.491856  1
  Sc  Sc2  1  0.206111  0.706111  0.500000  1
  Sc  Sc3  1  0.211244  0.719388  0.925566  1
  Sc  Sc4  1  0.793823  0.719388  0.508144  1
  Sc  Sc5  1  0.780771  0.280771  0.500000  1
  Sc  Sc6  1  0.378948  0.115251  0.736303  1
  Sc  Sc7  1  0.378948  0.642645  0.263697  1
  Al  Al8  1  0.163363  0.334740  0.171376  1
  Al  Al9  1  0.163363  0.991987  0.828624  1
  Al  Al10  1  0.161051  0.338176  0.822877  1
  Al  Al11  1  0.515298  0.338176  0.177123  1
  Al  Al12  1  0.837684  0.663334  0.825651  1
  Al  Al13  1  0.837684  0.012033  0.174349  1
  Al  Al14  1  0.839012  0.663008  0.176004  1
  Al  Al15  1  0.487004  0.663008  0.823996  1
  Al  Al16  1  0.373800  0.121821  0.251979  1
  Al  Al17  1  0.869843  0.121821  0.748021  1
  Al  Al18  1  0.620783  0.872011  0.251228  1
  Al  Al19  1  0.620783  0.369554  0.748772  1
  Al  Al20  1  0.622226  0.879169  0.743057  1
  Al  Al21  1  0.136111  0.879169  0.256943  1
  As  As22  1  0.995256  0.495256  0.500000  1
  Os  Os23  1  0.992506  0.997670  0.496652  1
  Os  Os24  1  0.501018  0.997670  0.005164  1
  Os  Os25  1  0.503106  0.503106  0.000000  1
  Os  Os26  1  0.501018  0.495854  0.503348  1
  Os  Os27  1  0.992506  0.495854  0.994836  1
  Os  Os28  1  0.999524  0.999524  0.000000  1
  Os  Os29  1  0.512145  0.012145  0.500000  1
