# generated using pymatgen
data_Yb2Ho4Si24OsRu7
_symmetry_space_group_name_H-M   'P 1'
_cell_length_a   10.13463082
_cell_length_b   10.13463270
_cell_length_c   8.11611604
_cell_angle_alpha   89.99949260
_cell_angle_beta   89.99948843
_cell_angle_gamma   132.71544902
_symmetry_Int_Tables_number   1
_chemical_formula_structural   Yb2Ho4Si24OsRu7
_chemical_formula_sum   'Yb2 Ho4 Si24 Os1 Ru7'
_cell_volume   612.48150521
_cell_formula_units_Z   1
loop_
 _symmetry_equiv_pos_site_id
 _symmetry_equiv_pos_as_xyz
  1  'x, y, z'
loop_
 _atom_site_type_symbol
 _atom_site_label
 _atom_site_symmetry_multiplicity
 _atom_site_fract_x
 _atom_site_fract_y
 _atom_site_fract_z
 _atom_site_occupancy
  Yb  Yb0  1  0.500002  0.499998  0.500000  1
  Yb  Yb1  1  0.000020  0.999980  0.000000  1
  Ho  Ho2  1  0.501330  0.001428  0.750017  1
  Ho  Ho3  1  0.998572  0.498670  0.249983  1
  Ho  Ho4  1  0.497728  0.997812  0.249941  1
  Ho  Ho5  1  0.002188  0.502272  0.750059  1
  Si  Si6  1  0.796660  0.203340  0.500000  1
  Si  Si7  1  0.295973  0.704027  0.000000  1
  Si  Si8  1  0.204036  0.795964  0.500000  1
  Si  Si9  1  0.703958  0.296042  0.000000  1
  Si  Si10  1  0.332453  0.333028  0.832662  1
  Si  Si11  1  0.666972  0.667547  0.167338  1
  Si  Si12  1  0.167668  0.166812  0.332633  1
  Si  Si13  1  0.833188  0.832332  0.667367  1
  Si  Si14  1  0.122593  0.889893  0.729957  1
  Si  Si15  1  0.110107  0.877407  0.270043  1
  Si  Si16  1  0.609680  0.377699  0.229129  1
  Si  Si17  1  0.622301  0.390320  0.770871  1
  Si  Si18  1  0.876758  0.108978  0.269342  1
  Si  Si19  1  0.891022  0.123242  0.730658  1
  Si  Si20  1  0.390091  0.622744  0.770265  1
  Si  Si21  1  0.377256  0.609909  0.229735  1
  Si  Si22  1  0.345423  0.113609  0.506259  1
  Si  Si23  1  0.886391  0.654577  0.493741  1
  Si  Si24  1  0.385689  0.153319  0.006333  1
  Si  Si25  1  0.846681  0.614311  0.993667  1
  Si  Si26  1  0.652886  0.885180  0.492576  1
  Si  Si27  1  0.114820  0.347114  0.507424  1
  Si  Si28  1  0.614154  0.846282  0.993782  1
  Si  Si29  1  0.153718  0.385846  0.006218  1
  Os  Os30  1  0.671748  0.328252  0.500000  1
  Ru  Ru31  1  0.171397  0.828603  0.000000  1
  Ru  Ru32  1  0.328598  0.671402  0.500000  1
  Ru  Ru33  1  0.828271  0.171729  0.000000  1
  Ru  Ru34  1  0.125787  0.126025  0.626405  1
  Ru  Ru35  1  0.873975  0.874213  0.373595  1
  Ru  Ru36  1  0.373628  0.373724  0.126198  1
  Ru  Ru37  1  0.626276  0.626372  0.873802  1
