# generated using pymatgen
data_Pr15ThCd2(HgIr2)2
_symmetry_space_group_name_H-M   'P 1'
_cell_length_a   10.04946772
_cell_length_b   10.04946719
_cell_length_c   10.05319056
_cell_angle_alpha   59.74079607
_cell_angle_beta   59.74079760
_cell_angle_gamma   59.72501885
_symmetry_Int_Tables_number   1
_chemical_formula_structural   Pr15ThCd2(HgIr2)2
_chemical_formula_sum   'Pr15 Th1 Cd2 Hg2 Ir4'
_cell_volume   713.60648519
_cell_formula_units_Z   1
loop_
 _symmetry_equiv_pos_site_id
 _symmetry_equiv_pos_as_xyz
  1  'x, y, z'
loop_
 _atom_site_type_symbol
 _atom_site_label
 _atom_site_symmetry_multiplicity
 _atom_site_fract_x
 _atom_site_fract_y
 _atom_site_fract_z
 _atom_site_occupancy
  Pr  Pr0  1  0.349476  0.349476  0.952497  1
  Pr  Pr1  1  0.350026  0.951179  0.349879  1
  Pr  Pr2  1  0.951179  0.350026  0.349879  1
  Pr  Pr3  1  0.810208  0.189886  0.190468  1
  Pr  Pr4  1  0.189596  0.808407  0.808728  1
  Pr  Pr5  1  0.189886  0.810208  0.190468  1
  Pr  Pr6  1  0.808407  0.189596  0.808728  1
  Pr  Pr7  1  0.189466  0.189466  0.810927  1
  Pr  Pr8  1  0.807618  0.807618  0.190944  1
  Pr  Pr9  1  0.940671  0.561505  0.561990  1
  Pr  Pr10  1  0.559061  0.938832  0.939917  1
  Pr  Pr11  1  0.561505  0.940671  0.561990  1
  Pr  Pr12  1  0.938832  0.559061  0.939917  1
  Pr  Pr13  1  0.561402  0.561402  0.941574  1
  Pr  Pr14  1  0.939014  0.939014  0.559413  1
  Th  Th15  1  0.344123  0.344123  0.344215  1
  Cd  Cd16  1  0.578045  0.260415  0.578745  1
  Cd  Cd17  1  0.260415  0.578045  0.578745  1
  Hg  Hg18  1  0.582624  0.582624  0.584720  1
  Hg  Hg19  1  0.581991  0.581991  0.248856  1
  Ir  Ir20  1  0.142129  0.142129  0.142448  1
  Ir  Ir21  1  0.146738  0.146738  0.570961  1
  Ir  Ir22  1  0.146713  0.570871  0.146993  1
  Ir  Ir23  1  0.570871  0.146713  0.146993  1
