# generated using pymatgen
data_LaNpO4
_symmetry_space_group_name_H-M   'P 1'
_cell_length_a   6.65825681
_cell_length_b   6.65825696
_cell_length_c   6.65825698
_cell_angle_alpha   34.31133493
_cell_angle_beta   34.31133625
_cell_angle_gamma   34.31133272
_symmetry_Int_Tables_number   1
_chemical_formula_structural   LaNpO4
_chemical_formula_sum   'La1 Np1 O4'
_cell_volume   83.64662902
_cell_formula_units_Z   1
loop_
 _symmetry_equiv_pos_site_id
 _symmetry_equiv_pos_as_xyz
  1  'x, y, z'
loop_
 _atom_site_type_symbol
 _atom_site_label
 _atom_site_symmetry_multiplicity
 _atom_site_fract_x
 _atom_site_fract_y
 _atom_site_fract_z
 _atom_site_occupancy
  La  La0  1  0.000000  0.000000  0.000000  1
  Np  Np1  1  0.500000  0.500000  0.500000  1
  O  O2  1  0.613663  0.613663  0.613663  1
  O  O3  1  0.134117  0.134117  0.134117  1
  O  O4  1  0.865883  0.865883  0.865883  1
  O  O5  1  0.386337  0.386337  0.386337  1
