# generated using pymatgen
data_YbHf2(AsRu)3
_symmetry_space_group_name_H-M   'P 1'
_cell_length_a   7.73786992
_cell_length_b   7.73787038
_cell_length_c   7.73787022
_cell_angle_alpha   127.98679509
_cell_angle_beta   120.66625887
_cell_angle_gamma   82.78942336
_symmetry_Int_Tables_number   1
_chemical_formula_structural   YbHf2(AsRu)3
_chemical_formula_sum   'Yb2 Hf4 As6 Ru6'
_cell_volume   301.71482814
_cell_formula_units_Z   2
loop_
 _symmetry_equiv_pos_site_id
 _symmetry_equiv_pos_as_xyz
  1  'x, y, z'
loop_
 _atom_site_type_symbol
 _atom_site_label
 _atom_site_symmetry_multiplicity
 _atom_site_fract_x
 _atom_site_fract_y
 _atom_site_fract_z
 _atom_site_occupancy
  Yb  Yb0  1  0.471899  0.704699  0.732799  1
  Yb  Yb1  1  0.528101  0.260900  0.232799  1
  Hf  Hf2  1  0.749726  0.829692  0.579966  1
  Hf  Hf3  1  0.250274  0.830242  0.079966  1
  Hf  Hf4  1  0.053732  0.259149  0.705417  1
  Hf  Hf5  1  0.946268  0.651686  0.205417  1
  As  As6  1  0.280579  0.270488  0.489911  1
  As  As7  1  0.719421  0.209332  0.989911  1
  As  As8  1  0.325917  0.590624  0.247808  1
  As  As9  1  0.674083  0.921891  0.264707  1
  As  As10  1  0.157184  0.921891  0.747808  1
  As  As11  1  0.842816  0.590624  0.764707  1
  Ru  Ru12  1  0.500000  0.494993  0.994993  1
  Ru  Ru13  1  0.000000  0.494993  0.494993  1
  Ru  Ru14  1  0.082249  0.252628  0.093819  1
  Ru  Ru15  1  0.917751  0.011570  0.170379  1
  Ru  Ru16  1  0.341191  0.011570  0.593819  1
  Ru  Ru17  1  0.658809  0.252628  0.670379  1
