# generated using pymatgen
data_Li4CaLa3Sn4
_symmetry_space_group_name_H-M   'P 1'
_cell_length_a   4.85173300
_cell_length_b   7.86953196
_cell_length_c   8.25934200
_cell_angle_alpha   90.57404262
_cell_angle_beta   90.00000000
_cell_angle_gamma   90.00000000
_symmetry_Int_Tables_number   1
_chemical_formula_structural   Li4CaLa3Sn4
_chemical_formula_sum   'Li4 Ca1 La3 Sn4'
_cell_volume   315.33301900
_cell_formula_units_Z   1
loop_
 _symmetry_equiv_pos_site_id
 _symmetry_equiv_pos_as_xyz
  1  'x, y, z'
loop_
 _atom_site_type_symbol
 _atom_site_label
 _atom_site_symmetry_multiplicity
 _atom_site_fract_x
 _atom_site_fract_y
 _atom_site_fract_z
 _atom_site_occupancy
  Li  Li0  1  0.250000  0.172163  0.922077  1
  Li  Li1  1  0.250000  0.662198  0.580019  1
  Li  Li2  1  0.750000  0.825907  0.075805  1
  Li  Li3  1  0.750000  0.337125  0.428624  1
  Ca  Ca4  1  0.750000  0.498931  0.789979  1
  La  La5  1  0.250000  0.999852  0.285813  1
  La  La6  1  0.250000  0.501596  0.201981  1
  La  La7  1  0.750000  0.000987  0.715167  1
  Sn  Sn8  1  0.250000  0.276790  0.592013  1
  Sn  Sn9  1  0.250000  0.787459  0.907704  1
  Sn  Sn10  1  0.750000  0.719182  0.404826  1
  Sn  Sn11  1  0.750000  0.217812  0.095994  1
