# generated using pymatgen
data_Ce2U5Pa(B6Mo)4
_symmetry_space_group_name_H-M   'P 1'
_cell_length_a   3.73733300
_cell_length_b   9.29358626
_cell_length_c   11.40183901
_cell_angle_alpha   90.03199891
_cell_angle_beta   90.00000000
_cell_angle_gamma   90.00000000
_symmetry_Int_Tables_number   1
_chemical_formula_structural   Ce2U5Pa(B6Mo)4
_chemical_formula_sum   'Ce2 U5 Pa1 B24 Mo4'
_cell_volume   396.02259655
_cell_formula_units_Z   1
loop_
 _symmetry_equiv_pos_site_id
 _symmetry_equiv_pos_as_xyz
  1  'x, y, z'
loop_
 _atom_site_type_symbol
 _atom_site_label
 _atom_site_symmetry_multiplicity
 _atom_site_fract_x
 _atom_site_fract_y
 _atom_site_fract_z
 _atom_site_occupancy
  Ce  Ce0  1  0.000000  0.665088  0.592459  1
  Ce  Ce1  1  0.000000  0.835100  0.091909  1
  U  U2  1  0.000000  0.164829  0.907813  1
  U  U3  1  0.000000  0.956178  0.394758  1
  U  U4  1  0.000000  0.043203  0.605661  1
  U  U5  1  0.000000  0.456533  0.104881  1
  U  U6  1  0.000000  0.543257  0.894844  1
  Pa  Pa7  1  0.000000  0.335009  0.407846  1
  B  B8  1  0.500000  0.551165  0.431264  1
  B  B9  1  0.500000  0.446370  0.568902  1
  B  B10  1  0.500000  0.053674  0.066803  1
  B  B11  1  0.500000  0.951248  0.931246  1
  B  B12  1  0.500000  0.745115  0.422533  1
  B  B13  1  0.500000  0.255136  0.577048  1
  B  B14  1  0.500000  0.243961  0.075664  1
  B  B15  1  0.500000  0.755195  0.922398  1
  B  B16  1  0.500000  0.803175  0.273815  1
  B  B17  1  0.500000  0.195554  0.727937  1
  B  B18  1  0.500000  0.303898  0.226109  1
  B  B19  1  0.500000  0.697178  0.774178  1
  B  B20  1  0.500000  0.643082  0.187719  1
  B  B21  1  0.500000  0.354235  0.813018  1
  B  B22  1  0.500000  0.144626  0.312157  1
  B  B23  1  0.500000  0.857140  0.688246  1
  B  B24  1  0.500000  0.989137  0.219454  1
  B  B25  1  0.500000  0.014187  0.781971  1
  B  B26  1  0.500000  0.487254  0.280714  1
  B  B27  1  0.500000  0.510841  0.720373  1
  B  B28  1  0.500000  0.637206  0.037579  1
  B  B29  1  0.500000  0.357947  0.960727  1
  B  B30  1  0.500000  0.139645  0.461258  1
  B  B31  1  0.500000  0.862992  0.538061  1
  Mo  Mo32  1  0.000000  0.644994  0.319074  1
  Mo  Mo33  1  0.000000  0.351155  0.682339  1
  Mo  Mo34  1  0.000000  0.148037  0.179675  1
  Mo  Mo35  1  0.000000  0.856660  0.819569  1
