# generated using pymatgen
data_Dy17Tm3(Ir5Au)2
_symmetry_space_group_name_H-M   'P 1'
_cell_length_a   11.02295798
_cell_length_b   10.95626328
_cell_length_c   6.31879716
_cell_angle_alpha   90.02551122
_cell_angle_beta   89.87532675
_cell_angle_gamma   89.99472477
_symmetry_Int_Tables_number   1
_chemical_formula_structural   Dy17Tm3(Ir5Au)2
_chemical_formula_sum   'Dy17 Tm3 Ir10 Au2'
_cell_volume   763.12196400
_cell_formula_units_Z   1
loop_
 _symmetry_equiv_pos_site_id
 _symmetry_equiv_pos_as_xyz
  1  'x, y, z'
loop_
 _atom_site_type_symbol
 _atom_site_label
 _atom_site_symmetry_multiplicity
 _atom_site_fract_x
 _atom_site_fract_y
 _atom_site_fract_z
 _atom_site_occupancy
  Dy  Dy0  1  0.291724  0.088238  0.371802  1
  Dy  Dy1  1  0.291406  0.911977  0.871794  1
  Dy  Dy2  1  0.698180  0.091737  0.865699  1
  Dy  Dy3  1  0.698099  0.908046  0.365434  1
  Dy  Dy4  1  0.577586  0.788554  0.877077  1
  Dy  Dy5  1  0.577727  0.211332  0.377415  1
  Dy  Dy6  1  0.408905  0.789908  0.376755  1
  Dy  Dy7  1  0.408982  0.210072  0.876490  1
  Dy  Dy8  1  0.210655  0.411801  0.621288  1
  Dy  Dy9  1  0.210619  0.588207  0.121568  1
  Dy  Dy10  1  0.788720  0.419914  0.123368  1
  Dy  Dy11  1  0.788812  0.580099  0.623081  1
  Dy  Dy12  1  0.917745  0.705667  0.138815  1
  Dy  Dy13  1  0.917510  0.294427  0.639081  1
  Dy  Dy14  1  0.095959  0.703149  0.624148  1
  Dy  Dy15  1  0.095715  0.296564  0.124122  1
  Dy  Dy16  1  0.009016  0.997677  0.500042  1
  Tm  Tm17  1  0.009209  0.002317  0.000007  1
  Tm  Tm18  1  0.500098  0.498795  0.000707  1
  Tm  Tm19  1  0.500058  0.501176  0.500719  1
  Ir  Ir20  1  0.153212  0.153459  0.751224  1
  Ir  Ir21  1  0.153357  0.846812  0.249213  1
  Ir  Ir22  1  0.654562  0.347558  0.748277  1
  Ir  Ir23  1  0.654490  0.652562  0.248161  1
  Ir  Ir24  1  0.348855  0.347490  0.251611  1
  Ir  Ir25  1  0.348766  0.652436  0.751622  1
  Ir  Ir26  1  0.499548  0.999770  0.120262  1
  Ir  Ir27  1  0.499467  0.000272  0.620415  1
  Ir  Ir28  1  0.000100  0.500928  0.879440  1
  Ir  Ir29  1  0.000096  0.499042  0.379484  1
  Au  Au30  1  0.845385  0.154478  0.249237  1
  Au  Au31  1  0.845440  0.845537  0.751639  1
