# generated using pymatgen
data_InTc3S4
_symmetry_space_group_name_H-M   'P 1'
_cell_length_a   12.60489300
_cell_length_b   6.44774914
_cell_length_c   11.77922520
_cell_angle_alpha   65.47069266
_cell_angle_beta   90.00000000
_cell_angle_gamma   90.00000000
_symmetry_Int_Tables_number   1
_chemical_formula_structural   InTc3S4
_chemical_formula_sum   'In4 Tc12 S16'
_cell_volume   870.93475719
_cell_formula_units_Z   4
loop_
 _symmetry_equiv_pos_site_id
 _symmetry_equiv_pos_as_xyz
  1  'x, y, z'
loop_
 _atom_site_type_symbol
 _atom_site_label
 _atom_site_symmetry_multiplicity
 _atom_site_fract_x
 _atom_site_fract_y
 _atom_site_fract_z
 _atom_site_occupancy
  In  In0  1  0.674636  0.932066  0.849475  1
  In  In1  1  0.825364  0.932066  0.349475  1
  In  In2  1  0.325364  0.067934  0.150525  1
  In  In3  1  0.174636  0.067934  0.650525  1
  Tc  Tc4  1  0.524247  0.311277  0.441480  1
  Tc  Tc5  1  0.450987  0.040009  0.345386  1
  Tc  Tc6  1  0.364150  0.041127  0.544159  1
  Tc  Tc7  1  0.475753  0.688723  0.558520  1
  Tc  Tc8  1  0.024247  0.688723  0.058520  1
  Tc  Tc9  1  0.975753  0.311277  0.941480  1
  Tc  Tc10  1  0.549013  0.959991  0.654614  1
  Tc  Tc11  1  0.049013  0.040009  0.845386  1
  Tc  Tc12  1  0.635850  0.958873  0.455841  1
  Tc  Tc13  1  0.950987  0.959991  0.154614  1
  Tc  Tc14  1  0.864150  0.958873  0.955841  1
  Tc  Tc15  1  0.135850  0.041127  0.044159  1
  S  S16  1  0.648070  0.641258  0.656135  1
  S  S17  1  0.562498  0.730011  0.357291  1
  S  S18  1  0.937502  0.730011  0.857291  1
  S  S19  1  0.306561  0.789493  0.454123  1
  S  S20  1  0.806561  0.210507  0.045877  1
  S  S21  1  0.898184  0.283785  0.761709  1
  S  S22  1  0.101816  0.716215  0.238291  1
  S  S23  1  0.693439  0.210507  0.545877  1
  S  S24  1  0.062498  0.269989  0.142709  1
  S  S25  1  0.437502  0.269989  0.642709  1
  S  S26  1  0.398184  0.716215  0.738291  1
  S  S27  1  0.351930  0.358742  0.343865  1
  S  S28  1  0.148070  0.358742  0.843865  1
  S  S29  1  0.601816  0.283785  0.261709  1
  S  S30  1  0.851930  0.641258  0.156135  1
  S  S31  1  0.193439  0.789493  0.954123  1
