# generated using pymatgen
data_Si12Ni(P4Ir)3
_symmetry_space_group_name_H-M   'P 1'
_cell_length_a   5.89966885
_cell_length_b   6.09327388
_cell_length_c   12.95359279
_cell_angle_alpha   89.59955930
_cell_angle_beta   90.29748593
_cell_angle_gamma   90.26019547
_symmetry_Int_Tables_number   1
_chemical_formula_structural   Si12Ni(P4Ir)3
_chemical_formula_sum   'Si12 Ni1 P12 Ir3'
_cell_volume   465.63724057
_cell_formula_units_Z   1
loop_
 _symmetry_equiv_pos_site_id
 _symmetry_equiv_pos_as_xyz
  1  'x, y, z'
loop_
 _atom_site_type_symbol
 _atom_site_label
 _atom_site_symmetry_multiplicity
 _atom_site_fract_x
 _atom_site_fract_y
 _atom_site_fract_z
 _atom_site_occupancy
  Si  Si0  1  0.969237  0.168550  0.319611  1
  Si  Si1  1  0.465672  0.840752  0.680808  1
  Si  Si2  1  0.936073  0.623234  0.220031  1
  Si  Si3  1  0.431666  0.370646  0.785178  1
  Si  Si4  1  0.340478  0.915554  0.950774  1
  Si  Si5  1  0.841929  0.078611  0.050093  1
  Si  Si6  1  0.916769  0.531123  0.670809  1
  Si  Si7  1  0.406109  0.472158  0.327623  1
  Si  Si8  1  0.996344  0.063272  0.567275  1
  Si  Si9  1  0.495199  0.935513  0.428467  1
  Si  Si10  1  0.907246  0.622121  0.928287  1
  Si  Si11  1  0.408242  0.374403  0.072982  1
  Ni  Ni12  1  0.035766  0.518527  0.384733  1
  P  P13  1  0.578992  0.028107  0.825218  1
  P  P14  1  0.082119  0.969203  0.177649  1
  P  P15  1  0.517097  0.560477  0.929485  1
  P  P16  1  0.019023  0.435198  0.073148  1
  P  P17  1  0.609631  0.114068  0.572076  1
  P  P18  1  0.105338  0.883252  0.423841  1
  P  P19  1  0.547525  0.643790  0.182793  1
  P  P20  1  0.045540  0.354890  0.818625  1
  P  P21  1  0.577654  0.138427  0.289465  1
  P  P22  1  0.078997  0.870347  0.709772  1
  P  P23  1  0.153590  0.407124  0.548912  1
  P  P24  1  0.656586  0.597966  0.444418  1
  Ir  Ir25  1  0.965983  0.985542  0.878873  1
  Ir  Ir26  1  0.468281  0.011098  0.121740  1
  Ir  Ir27  1  0.536715  0.486046  0.617311  1
