# generated using pymatgen
data_Tm7Co5Sn23Os
_symmetry_space_group_name_H-M   'P 1'
_cell_length_a   9.69791859
_cell_length_b   9.69791869
_cell_length_c   9.93630218
_cell_angle_alpha   90.28763032
_cell_angle_beta   89.71236757
_cell_angle_gamma   119.97412149
_symmetry_Int_Tables_number   1
_chemical_formula_structural   Tm7Co5Sn23Os
_chemical_formula_sum   'Tm7 Co5 Sn23 Os1'
_cell_volume   809.50286159
_cell_formula_units_Z   1
loop_
 _symmetry_equiv_pos_site_id
 _symmetry_equiv_pos_as_xyz
  1  'x, y, z'
loop_
 _atom_site_type_symbol
 _atom_site_label
 _atom_site_symmetry_multiplicity
 _atom_site_fract_x
 _atom_site_fract_y
 _atom_site_fract_z
 _atom_site_occupancy
  Tm  Tm0  1  0.993693  0.006307  0.007924  1
  Tm  Tm1  1  0.480595  0.519405  0.306697  1
  Tm  Tm2  1  0.520087  0.479913  0.693433  1
  Tm  Tm3  1  0.482604  0.961141  0.305040  1
  Tm  Tm4  1  0.519299  0.040438  0.693677  1
  Tm  Tm5  1  0.038859  0.517396  0.305040  1
  Tm  Tm6  1  0.959562  0.480701  0.693677  1
  Co  Co7  1  0.168578  0.831422  0.802500  1
  Co  Co8  1  0.831793  0.662985  0.196587  1
  Co  Co9  1  0.170233  0.335980  0.801103  1
  Co  Co10  1  0.337015  0.168207  0.196587  1
  Co  Co11  1  0.664020  0.829767  0.801103  1
  Sn  Sn12  1  0.343630  0.999201  0.999553  1
  Sn  Sn13  1  0.646987  0.995277  0.994370  1
  Sn  Sn14  1  0.004723  0.353013  0.994370  1
  Sn  Sn15  1  0.000799  0.656370  0.999553  1
  Sn  Sn16  1  0.653501  0.653430  0.999527  1
  Sn  Sn17  1  0.346570  0.346499  0.999527  1
  Sn  Sn18  1  0.333531  0.666469  0.816789  1
  Sn  Sn19  1  0.665344  0.334656  0.179971  1
  Sn  Sn20  1  0.999477  0.000523  0.502052  1
  Sn  Sn21  1  0.779595  0.220405  0.457961  1
  Sn  Sn22  1  0.219160  0.780840  0.548284  1
  Sn  Sn23  1  0.781083  0.561619  0.451453  1
  Sn  Sn24  1  0.219205  0.438532  0.548408  1
  Sn  Sn25  1  0.438381  0.218917  0.451453  1
  Sn  Sn26  1  0.561468  0.780795  0.548408  1
  Sn  Sn27  1  0.333899  0.666101  0.121882  1
  Sn  Sn28  1  0.666041  0.333959  0.876011  1
  Sn  Sn29  1  0.118402  0.881598  0.273275  1
  Sn  Sn30  1  0.881603  0.118397  0.726593  1
  Sn  Sn31  1  0.125435  0.237728  0.278723  1
  Sn  Sn32  1  0.883519  0.764405  0.726428  1
  Sn  Sn33  1  0.762272  0.874565  0.278723  1
  Sn  Sn34  1  0.235595  0.116481  0.726428  1
  Os  Os35  1  0.833445  0.166555  0.196897  1
