# generated using pymatgen
data_CeYBi2F15
_symmetry_space_group_name_H-M   'P 1'
_cell_length_a   8.64357658
_cell_length_b   8.64357532
_cell_length_c   8.68088707
_cell_angle_alpha   79.56564770
_cell_angle_beta   79.56564467
_cell_angle_gamma   100.65891213
_symmetry_Int_Tables_number   1
_chemical_formula_structural   CeYBi2F15
_chemical_formula_sum   'Ce2 Y2 Bi4 F30'
_cell_volume   611.18240919
_cell_formula_units_Z   2
loop_
 _symmetry_equiv_pos_site_id
 _symmetry_equiv_pos_as_xyz
  1  'x, y, z'
loop_
 _atom_site_type_symbol
 _atom_site_label
 _atom_site_symmetry_multiplicity
 _atom_site_fract_x
 _atom_site_fract_y
 _atom_site_fract_z
 _atom_site_occupancy
  Ce  Ce0  1  0.246394  0.324634  0.329085  1
  Ce  Ce1  1  0.675366  0.753606  0.170915  1
  Y  Y2  1  0.173953  0.826047  0.250000  1
  Y  Y3  1  0.826380  0.173620  0.750000  1
  Bi  Bi4  1  0.749920  0.250080  0.250000  1
  Bi  Bi5  1  0.249289  0.750711  0.750000  1
  Bi  Bi6  1  0.756144  0.672485  0.669558  1
  Bi  Bi7  1  0.327515  0.243856  0.830442  1
  F  F8  1  0.307362  0.342373  0.065494  1
  F  F9  1  0.939967  0.805207  0.157794  1
  F  F10  1  0.845284  0.440943  0.689014  1
  F  F11  1  0.443915  0.834873  0.197250  1
  F  F12  1  0.810432  0.951036  0.660141  1
  F  F13  1  0.344568  0.308740  0.543241  1
  F  F14  1  0.691260  0.655432  0.956758  1
  F  F15  1  0.048964  0.189568  0.839859  1
  F  F16  1  0.165127  0.556085  0.302750  1
  F  F17  1  0.559057  0.154716  0.810986  1
  F  F18  1  0.194793  0.060033  0.342206  1
  F  F19  1  0.657627  0.692638  0.434506  1
  F  F20  1  0.769445  0.290480  0.006682  1
  F  F21  1  0.995581  0.269989  0.206627  1
  F  F22  1  0.793978  0.495383  0.230097  1
  F  F23  1  0.494196  0.794372  0.727885  1
  F  F24  1  0.269407  0.996789  0.710523  1
  F  F25  1  0.286773  0.773314  0.504164  1
  F  F26  1  0.226686  0.713227  0.995836  1
  F  F27  1  0.003211  0.730593  0.789477  1
  F  F28  1  0.205628  0.505804  0.772115  1
  F  F29  1  0.504617  0.206022  0.269903  1
  F  F30  1  0.730011  0.004419  0.293373  1
  F  F31  1  0.709520  0.230555  0.493318  1
  F  F32  1  0.477265  0.522735  0.250000  1
  F  F33  1  0.744695  0.973638  0.981215  1
  F  F34  1  0.026362  0.255305  0.518785  1
  F  F35  1  0.249315  0.022732  0.034780  1
  F  F36  1  0.977268  0.750685  0.465220  1
  F  F37  1  0.522726  0.477274  0.750000  1
