# generated using pymatgen
data_Ho4V3ReB16
_symmetry_space_group_name_H-M   'P 1'
_cell_length_a   3.49343700
_cell_length_b   5.97491402
_cell_length_c   11.56527604
_cell_angle_alpha   90.00958533
_cell_angle_beta   90.00000000
_cell_angle_gamma   90.00000000
_symmetry_Int_Tables_number   1
_chemical_formula_structural   Ho4V3ReB16
_chemical_formula_sum   'Ho4 V3 Re1 B16'
_cell_volume   241.40183817
_cell_formula_units_Z   1
loop_
 _symmetry_equiv_pos_site_id
 _symmetry_equiv_pos_as_xyz
  1  'x, y, z'
loop_
 _atom_site_type_symbol
 _atom_site_label
 _atom_site_symmetry_multiplicity
 _atom_site_fract_x
 _atom_site_fract_y
 _atom_site_fract_z
 _atom_site_occupancy
  Ho  Ho0  1  0.500000  0.123865  0.649975  1
  Ho  Ho1  1  0.500000  0.875603  0.348948  1
  Ho  Ho2  1  0.500000  0.626459  0.848272  1
  Ho  Ho3  1  0.500000  0.375034  0.151283  1
  V  V4  1  0.500000  0.871455  0.082418  1
  V  V5  1  0.500000  0.627355  0.583862  1
  V  V6  1  0.500000  0.372857  0.417414  1
  Re  Re7  1  0.500000  0.128212  0.916806  1
  B  B8  1  0.000000  0.476716  0.692468  1
  B  B9  1  0.000000  0.523363  0.307390  1
  B  B10  1  0.000000  0.976342  0.807380  1
  B  B11  1  0.000000  0.022585  0.192576  1
  B  B12  1  0.000000  0.285635  0.814540  1
  B  B13  1  0.000000  0.714647  0.185494  1
  B  B14  1  0.000000  0.786072  0.685638  1
  B  B15  1  0.000000  0.213576  0.314253  1
  B  B16  1  0.000000  0.365414  0.968223  1
  B  B17  1  0.000000  0.634965  0.032628  1
  B  B18  1  0.000000  0.864655  0.532488  1
  B  B19  1  0.000000  0.135180  0.467371  1
  B  B20  1  0.000000  0.385389  0.547478  1
  B  B21  1  0.000000  0.615006  0.452409  1
  B  B22  1  0.000000  0.885501  0.952901  1
  B  B23  1  0.000000  0.114114  0.047784  1
