# generated using pymatgen
data_Ce3LuMgIr3
_symmetry_space_group_name_H-M   'P 1'
_cell_length_a   6.12666000
_cell_length_b   8.18961118
_cell_length_c   8.18966101
_cell_angle_alpha   119.99980165
_cell_angle_beta   90.00069108
_cell_angle_gamma   89.99862280
_symmetry_Int_Tables_number   1
_chemical_formula_structural   Ce3LuMgIr3
_chemical_formula_sum   'Ce6 Lu2 Mg2 Ir6'
_cell_volume   355.86435446
_cell_formula_units_Z   2
loop_
 _symmetry_equiv_pos_site_id
 _symmetry_equiv_pos_as_xyz
  1  'x, y, z'
loop_
 _atom_site_type_symbol
 _atom_site_label
 _atom_site_symmetry_multiplicity
 _atom_site_fract_x
 _atom_site_fract_y
 _atom_site_fract_z
 _atom_site_occupancy
  Ce  Ce0  1  0.744377  0.259474  0.000000  1
  Ce  Ce1  1  0.744346  0.740577  0.740612  1
  Ce  Ce2  1  0.744346  0.999966  0.259388  1
  Ce  Ce3  1  0.255694  0.740422  0.000000  1
  Ce  Ce4  1  0.255644  0.259408  0.259440  1
  Ce  Ce5  1  0.255644  0.999969  0.740560  1
  Lu  Lu6  1  0.999984  0.666695  0.333372  1
  Lu  Lu7  1  0.999984  0.333322  0.666628  1
  Mg  Mg8  1  0.500025  0.333365  0.666688  1
  Mg  Mg9  1  0.500025  0.666677  0.333312  1
  Ir  Ir10  1  0.750643  0.613879  0.000000  1
  Ir  Ir11  1  0.750637  0.386271  0.386305  1
  Ir  Ir12  1  0.750637  0.999966  0.613695  1
  Ir  Ir13  1  0.249287  0.386361  0.000000  1
  Ir  Ir14  1  0.249363  0.613751  0.613854  1
  Ir  Ir15  1  0.249363  0.999897  0.386146  1
