# generated using pymatgen
data_Tm3In3NiAg2
_symmetry_space_group_name_H-M   'P 1'
_cell_length_a   7.88317000
_cell_length_b   7.88317045
_cell_length_c   3.66154800
_cell_angle_alpha   90.00000000
_cell_angle_beta   90.00000000
_cell_angle_gamma   119.99999812
_symmetry_Int_Tables_number   1
_chemical_formula_structural   Tm3In3NiAg2
_chemical_formula_sum   'Tm3 In3 Ni1 Ag2'
_cell_volume   197.05941118
_cell_formula_units_Z   1
loop_
 _symmetry_equiv_pos_site_id
 _symmetry_equiv_pos_as_xyz
  1  'x, y, z'
loop_
 _atom_site_type_symbol
 _atom_site_label
 _atom_site_symmetry_multiplicity
 _atom_site_fract_x
 _atom_site_fract_y
 _atom_site_fract_z
 _atom_site_occupancy
  Tm  Tm0  1  0.967233  0.385945  0.500000  1
  Tm  Tm1  1  0.614055  0.581287  0.500000  1
  Tm  Tm2  1  0.418713  0.032767  0.500000  1
  In  In3  1  0.271303  0.279617  0.000000  1
  In  In4  1  0.008315  0.728697  0.000000  1
  In  In5  1  0.720383  0.991685  0.000000  1
  Ni  Ni6  1  0.666667  0.333333  0.000000  1
  Ag  Ag7  1  0.333333  0.666667  0.000000  1
  Ag  Ag8  1  0.000000  0.000000  0.500000  1
