# generated using pymatgen
data_Ta12Al8CrFe3N4
_symmetry_space_group_name_H-M   'P 1'
_cell_length_a   8.16366961
_cell_length_b   8.16367082
_cell_length_c   8.18174072
_cell_angle_alpha   60.07303845
_cell_angle_beta   60.07303122
_cell_angle_gamma   59.99999672
_symmetry_Int_Tables_number   1
_chemical_formula_structural   Ta12Al8CrFe3N4
_chemical_formula_sum   'Ta12 Al8 Cr1 Fe3 N4'
_cell_volume   385.99364530
_cell_formula_units_Z   1
loop_
 _symmetry_equiv_pos_site_id
 _symmetry_equiv_pos_as_xyz
  1  'x, y, z'
loop_
 _atom_site_type_symbol
 _atom_site_label
 _atom_site_symmetry_multiplicity
 _atom_site_fract_x
 _atom_site_fract_y
 _atom_site_fract_z
 _atom_site_occupancy
  Ta  Ta0  1  0.804025  0.804025  0.192136  1
  Ta  Ta1  1  0.192752  0.192752  0.807357  1
  Ta  Ta2  1  0.807137  0.192752  0.807357  1
  Ta  Ta3  1  0.199813  0.804025  0.192136  1
  Ta  Ta4  1  0.192752  0.807137  0.807357  1
  Ta  Ta5  1  0.804025  0.199813  0.192136  1
  Ta  Ta6  1  0.445975  0.445975  0.057864  1
  Ta  Ta7  1  0.057248  0.057248  0.442643  1
  Ta  Ta8  1  0.442863  0.057248  0.442643  1
  Ta  Ta9  1  0.050187  0.445975  0.057864  1
  Ta  Ta10  1  0.057248  0.442863  0.442643  1
  Ta  Ta11  1  0.445975  0.050187  0.057864  1
  Al  Al12  1  0.745885  0.415385  0.423342  1
  Al  Al13  1  0.415385  0.745885  0.423342  1
  Al  Al14  1  0.416944  0.416944  0.749166  1
  Al  Al15  1  0.415385  0.415385  0.423342  1
  Al  Al16  1  0.504115  0.834615  0.826658  1
  Al  Al17  1  0.834615  0.504115  0.826658  1
  Al  Al18  1  0.833056  0.833056  0.500834  1
  Al  Al19  1  0.834615  0.834615  0.826658  1
  Cr  Cr20  1  0.625000  0.625000  0.125000  1
  Fe  Fe21  1  0.125000  0.625000  0.625000  1
  Fe  Fe22  1  0.625000  0.125000  0.625000  1
  Fe  Fe23  1  0.625000  0.625000  0.625000  1
  N  N24  1  0.625000  0.125000  0.125000  1
  N  N25  1  0.125000  0.625000  0.125000  1
  N  N26  1  0.125000  0.125000  0.625000  1
  N  N27  1  0.125000  0.125000  0.125000  1
