# generated using pymatgen
data_Gd12Co5Au
_symmetry_space_group_name_H-M   'P 1'
_cell_length_a   8.23609811
_cell_length_b   8.23609851
_cell_length_c   8.23609700
_cell_angle_alpha   106.77916463
_cell_angle_beta   111.00425052
_cell_angle_gamma   110.66351790
_symmetry_Int_Tables_number   1
_chemical_formula_structural   Gd12Co5Au
_chemical_formula_sum   'Gd12 Co5 Au1'
_cell_volume   429.36157192
_cell_formula_units_Z   1
loop_
 _symmetry_equiv_pos_site_id
 _symmetry_equiv_pos_as_xyz
  1  'x, y, z'
loop_
 _atom_site_type_symbol
 _atom_site_label
 _atom_site_symmetry_multiplicity
 _atom_site_fract_x
 _atom_site_fract_y
 _atom_site_fract_z
 _atom_site_occupancy
  Gd  Gd0  1  0.460861  0.280699  0.180162  1
  Gd  Gd1  1  0.100538  0.280699  0.819838  1
  Gd  Gd2  1  0.899462  0.719301  0.180162  1
  Gd  Gd3  1  0.539139  0.719301  0.819838  1
  Gd  Gd4  1  0.314732  0.638917  0.324186  1
  Gd  Gd5  1  0.314732  0.990547  0.675814  1
  Gd  Gd6  1  0.685268  0.361083  0.675814  1
  Gd  Gd7  1  0.685268  0.009453  0.324186  1
  Gd  Gd8  1  0.185080  0.227774  0.412852  1
  Gd  Gd9  1  0.814920  0.772226  0.587148  1
  Gd  Gd10  1  0.185080  0.772226  0.957305  1
  Gd  Gd11  1  0.814920  0.227774  0.042695  1
  Co  Co12  1  0.500000  0.616533  0.116533  1
  Co  Co13  1  0.500000  0.383467  0.883467  1
  Co  Co14  1  0.339600  0.000000  0.339600  1
  Co  Co15  1  0.660400  0.000000  0.660400  1
  Co  Co16  1  0.000000  0.000000  0.000000  1
  Au  Au17  1  0.000000  0.500000  0.500000  1
