# generated using pymatgen
data_NaPr6OsBr12
_symmetry_space_group_name_H-M   'P 1'
_cell_length_a   9.63250613
_cell_length_b   9.62568804
_cell_length_c   9.64172197
_cell_angle_alpha   107.23401286
_cell_angle_beta   107.02445016
_cell_angle_gamma   106.91993764
_symmetry_Int_Tables_number   1
_chemical_formula_structural   NaPr6OsBr12
_chemical_formula_sum   'Na1 Pr6 Os1 Br12'
_cell_volume   743.29593703
_cell_formula_units_Z   1
loop_
 _symmetry_equiv_pos_site_id
 _symmetry_equiv_pos_as_xyz
  1  'x, y, z'
loop_
 _atom_site_type_symbol
 _atom_site_label
 _atom_site_symmetry_multiplicity
 _atom_site_fract_x
 _atom_site_fract_y
 _atom_site_fract_z
 _atom_site_occupancy
  Na  Na0  1  0.500000  0.500000  0.500000  1
  Pr  Pr1  1  0.112951  0.321652  0.032517  1
  Pr  Pr2  1  0.322053  0.032233  0.113213  1
  Pr  Pr3  1  0.032211  0.112295  0.319850  1
  Pr  Pr4  1  0.967789  0.887706  0.680150  1
  Pr  Pr5  1  0.677947  0.967768  0.886787  1
  Pr  Pr6  1  0.887049  0.678348  0.967483  1
  Os  Os7  1  0.000000  0.000000  0.000000  1
  Br  Br8  1  0.215471  0.683713  0.069896  1
  Br  Br9  1  0.454916  0.373999  0.157604  1
  Br  Br10  1  0.683979  0.070499  0.215322  1
  Br  Br11  1  0.929594  0.783601  0.315838  1
  Br  Br12  1  0.157239  0.454574  0.373745  1
  Br  Br13  1  0.373910  0.157418  0.454658  1
  Br  Br14  1  0.626090  0.842582  0.545343  1
  Br  Br15  1  0.842761  0.545426  0.626255  1
  Br  Br16  1  0.070406  0.216399  0.684163  1
  Br  Br17  1  0.316021  0.929501  0.784678  1
  Br  Br18  1  0.545084  0.626001  0.842397  1
  Br  Br19  1  0.784529  0.316288  0.930104  1
