# generated using pymatgen
data_Li3ScCo12(Ni2P3)4
_symmetry_space_group_name_H-M   'P 1'
_cell_length_a   3.55389900
_cell_length_b   10.07853717
_cell_length_c   11.72818738
_cell_angle_alpha   89.87681447
_cell_angle_beta   90.00000000
_cell_angle_gamma   90.00000000
_symmetry_Int_Tables_number   1
_chemical_formula_structural   Li3ScCo12(Ni2P3)4
_chemical_formula_sum   'Li3 Sc1 Co12 Ni8 P12'
_cell_volume   420.08045485
_cell_formula_units_Z   1
loop_
 _symmetry_equiv_pos_site_id
 _symmetry_equiv_pos_as_xyz
  1  'x, y, z'
loop_
 _atom_site_type_symbol
 _atom_site_label
 _atom_site_symmetry_multiplicity
 _atom_site_fract_x
 _atom_site_fract_y
 _atom_site_fract_z
 _atom_site_occupancy
  Li  Li0  1  0.250000  0.578011  0.707054  1
  Li  Li1  1  0.250000  0.920840  0.206123  1
  Li  Li2  1  0.750000  0.420316  0.292855  1
  Sc  Sc3  1  0.750000  0.079872  0.792531  1
  Co  Co4  1  0.250000  0.218922  0.171712  1
  Co  Co5  1  0.250000  0.278621  0.674150  1
  Co  Co6  1  0.750000  0.782812  0.826787  1
  Co  Co7  1  0.750000  0.717236  0.328120  1
  Co  Co8  1  0.250000  0.878983  0.698303  1
  Co  Co9  1  0.250000  0.621385  0.199518  1
  Co  Co10  1  0.750000  0.121987  0.300956  1
  Co  Co11  1  0.750000  0.380142  0.800984  1
  Co  Co12  1  0.250000  0.466205  0.932277  1
  Co  Co13  1  0.250000  0.035570  0.429568  1
  Co  Co14  1  0.750000  0.537955  0.068725  1
  Co  Co15  1  0.750000  0.960658  0.566482  1
  Ni  Ni16  1  0.250000  0.715039  0.990837  1
  Ni  Ni17  1  0.250000  0.784251  0.491114  1
  Ni  Ni18  1  0.750000  0.285652  0.010040  1
  Ni  Ni19  1  0.750000  0.212829  0.511355  1
  Ni  Ni20  1  0.250000  0.406351  0.480549  1
  Ni  Ni21  1  0.250000  0.093373  0.979822  1
  Ni  Ni22  1  0.750000  0.590936  0.519957  1
  Ni  Ni23  1  0.750000  0.908909  0.020409  1
  P  P24  1  0.250000  0.422033  0.116640  1
  P  P25  1  0.250000  0.078356  0.612463  1
  P  P26  1  0.750000  0.580855  0.883648  1
  P  P27  1  0.750000  0.920423  0.381340  1
  P  P28  1  0.250000  0.267735  0.863400  1
  P  P29  1  0.250000  0.238059  0.359533  1
  P  P30  1  0.750000  0.738456  0.140603  1
  P  P31  1  0.750000  0.760211  0.639310  1
  P  P32  1  0.250000  0.597818  0.386437  1
  P  P33  1  0.250000  0.899366  0.886982  1
  P  P34  1  0.750000  0.400684  0.614522  1
  P  P35  1  0.750000  0.099151  0.114893  1
