# generated using pymatgen
data_NaNd6IrI12
_symmetry_space_group_name_H-M   'P 1'
_cell_length_a   10.05534435
_cell_length_b   10.05534412
_cell_length_c   10.05534464
_cell_angle_alpha   107.03363596
_cell_angle_beta   107.03363254
_cell_angle_gamma   107.03363791
_symmetry_Int_Tables_number   1
_chemical_formula_structural   NaNd6IrI12
_chemical_formula_sum   'Na1 Nd6 Ir1 I12'
_cell_volume   845.93554150
_cell_formula_units_Z   1
loop_
 _symmetry_equiv_pos_site_id
 _symmetry_equiv_pos_as_xyz
  1  'x, y, z'
loop_
 _atom_site_type_symbol
 _atom_site_label
 _atom_site_symmetry_multiplicity
 _atom_site_fract_x
 _atom_site_fract_y
 _atom_site_fract_z
 _atom_site_occupancy
  Na  Na0  1  0.500000  0.500000  0.500000  1
  Nd  Nd1  1  0.102094  0.028532  0.307551  1
  Nd  Nd2  1  0.307551  0.102094  0.028532  1
  Nd  Nd3  1  0.028532  0.307551  0.102094  1
  Nd  Nd4  1  0.897906  0.971468  0.692449  1
  Nd  Nd5  1  0.692449  0.897906  0.971468  1
  Nd  Nd6  1  0.971468  0.692449  0.897906  1
  Ir  Ir7  1  0.000000  0.000000  0.000000  1
  I  I8  1  0.071315  0.679355  0.223997  1
  I  I9  1  0.223997  0.071315  0.679355  1
  I  I10  1  0.679355  0.223997  0.071315  1
  I  I11  1  0.928685  0.320645  0.776003  1
  I  I12  1  0.776003  0.928685  0.320645  1
  I  I13  1  0.320645  0.776003  0.928685  1
  I  I14  1  0.453950  0.148262  0.375698  1
  I  I15  1  0.375698  0.453950  0.148262  1
  I  I16  1  0.148262  0.375698  0.453950  1
  I  I17  1  0.546050  0.851738  0.624302  1
  I  I18  1  0.624302  0.546050  0.851738  1
  I  I19  1  0.851738  0.624302  0.546050  1
