# generated using pymatgen
data_Tm5Zr3(Ta3Si4)4
_symmetry_space_group_name_H-M   'P 1'
_cell_length_a   6.95520976
_cell_length_b   6.95690836
_cell_length_c   12.84715200
_cell_angle_alpha   89.95022299
_cell_angle_beta   90.08815123
_cell_angle_gamma   90.08023751
_symmetry_Int_Tables_number   1
_chemical_formula_structural   Tm5Zr3(Ta3Si4)4
_chemical_formula_sum   'Tm5 Zr3 Ta12 Si16'
_cell_volume   621.63044293
_cell_formula_units_Z   1
loop_
 _symmetry_equiv_pos_site_id
 _symmetry_equiv_pos_as_xyz
  1  'x, y, z'
loop_
 _atom_site_type_symbol
 _atom_site_label
 _atom_site_symmetry_multiplicity
 _atom_site_fract_x
 _atom_site_fract_y
 _atom_site_fract_z
 _atom_site_occupancy
  Tm  Tm0  1  0.998471  0.659670  0.032101  1
  Tm  Tm1  1  0.002837  0.338946  0.531436  1
  Tm  Tm2  1  0.660354  0.998246  0.969396  1
  Tm  Tm3  1  0.161423  0.502519  0.779863  1
  Tm  Tm4  1  0.839199  0.497384  0.281535  1
  Zr  Zr5  1  0.496489  0.157486  0.219552  1
  Zr  Zr6  1  0.503825  0.844186  0.717791  1
  Zr  Zr7  1  0.343093  0.996963  0.468764  1
  Ta  Ta8  1  0.347860  0.507392  0.376076  1
  Ta  Ta9  1  0.846202  0.996281  0.374122  1
  Ta  Ta10  1  0.007937  0.153318  0.127354  1
  Ta  Ta11  1  0.993355  0.848507  0.625304  1
  Ta  Ta12  1  0.650313  0.492822  0.874674  1
  Ta  Ta13  1  0.503089  0.346134  0.623149  1
  Ta  Ta14  1  0.494485  0.653252  0.124945  1
  Ta  Ta15  1  0.153491  0.004773  0.872907  1
  Ta  Ta16  1  0.668165  0.672659  0.499824  1
  Ta  Ta17  1  0.828974  0.167677  0.749201  1
  Ta  Ta18  1  0.171392  0.832836  0.251092  1
  Ta  Ta19  1  0.330154  0.329139  0.999699  1
  Si  Si20  1  0.044933  0.705321  0.436549  1
  Si  Si21  1  0.956393  0.296263  0.936515  1
  Si  Si22  1  0.700783  0.044594  0.563576  1
  Si  Si23  1  0.204262  0.455759  0.187009  1
  Si  Si24  1  0.795058  0.543715  0.685874  1
  Si  Si25  1  0.456165  0.199923  0.812941  1
  Si  Si26  1  0.543958  0.799949  0.313709  1
  Si  Si27  1  0.297413  0.956892  0.064198  1
  Si  Si28  1  0.863332  0.793523  0.818432  1
  Si  Si29  1  0.138903  0.204828  0.321376  1
  Si  Si30  1  0.792277  0.868248  0.180930  1
  Si  Si31  1  0.296416  0.638524  0.571373  1
  Si  Si32  1  0.702607  0.363462  0.071669  1
  Si  Si33  1  0.631100  0.291631  0.428754  1
  Si  Si34  1  0.365970  0.705726  0.929638  1
  Si  Si35  1  0.209322  0.131451  0.678675  1
