# generated using pymatgen
data_Sr2Zn23Cu3
_symmetry_space_group_name_H-M   'P 1'
_cell_length_a   8.62180457
_cell_length_b   8.64635322
_cell_length_c   8.65157200
_cell_angle_alpha   59.79235605
_cell_angle_beta   59.76258859
_cell_angle_gamma   60.13389553
_symmetry_Int_Tables_number   1
_chemical_formula_structural   Sr2Zn23Cu3
_chemical_formula_sum   'Sr2 Zn23 Cu3'
_cell_volume   454.96365043
_cell_formula_units_Z   1
loop_
 _symmetry_equiv_pos_site_id
 _symmetry_equiv_pos_as_xyz
  1  'x, y, z'
loop_
 _atom_site_type_symbol
 _atom_site_label
 _atom_site_symmetry_multiplicity
 _atom_site_fract_x
 _atom_site_fract_y
 _atom_site_fract_z
 _atom_site_occupancy
  Sr  Sr0  1  0.248391  0.250435  0.250366  1
  Sr  Sr1  1  0.749634  0.749192  0.751609  1
  Zn  Zn2  1  0.563310  0.440552  0.201589  1
  Zn  Zn3  1  0.059428  0.944130  0.295223  1
  Zn  Zn4  1  0.290265  0.063587  0.943696  1
  Zn  Zn5  1  0.704777  0.298780  0.940572  1
  Zn  Zn6  1  0.204122  0.559307  0.439699  1
  Zn  Zn7  1  0.941449  0.058865  0.701296  1
  Zn  Zn8  1  0.196124  0.439952  0.803876  1
  Zn  Zn9  1  0.941622  0.702920  0.296652  1
  Zn  Zn10  1  0.440104  0.203410  0.559896  1
  Zn  Zn11  1  0.560287  0.797012  0.439713  1
  Zn  Zn12  1  0.441013  0.796493  0.202487  1
  Zn  Zn13  1  0.202965  0.796381  0.558576  1
  Zn  Zn14  1  0.703348  0.941193  0.058378  1
  Zn  Zn15  1  0.297339  0.940124  0.702661  1
  Zn  Zn16  1  0.798411  0.205451  0.436690  1
  Zn  Zn17  1  0.560301  0.203129  0.795878  1
  Zn  Zn18  1  0.056304  0.297548  0.709735  1
  Zn  Zn19  1  0.797513  0.439994  0.558987  1
  Zn  Zn20  1  0.705482  0.061466  0.294518  1
  Zn  Zn21  1  0.801362  0.554841  0.198638  1
  Zn  Zn22  1  0.298704  0.701611  0.058551  1
  Zn  Zn23  1  0.441424  0.557922  0.797035  1
  Zn  Zn24  1  0.060409  0.704585  0.939591  1
  Cu  Cu25  1  0.936713  0.291732  0.063287  1
  Cu  Cu26  1  0.498843  0.500077  0.501157  1
  Cu  Cu27  1  0.000356  0.999311  0.999644  1
