# generated using pymatgen
data_PrNdGa3GeIr4
_symmetry_space_group_name_H-M   'P 1'
_cell_length_a   4.27717100
_cell_length_b   4.27717100
_cell_length_c   10.32880800
_cell_angle_alpha   90.00000000
_cell_angle_beta   90.00000000
_cell_angle_gamma   90.00000000
_symmetry_Int_Tables_number   1
_chemical_formula_structural   PrNdGa3GeIr4
_chemical_formula_sum   'Pr1 Nd1 Ga3 Ge1 Ir4'
_cell_volume   188.95719424
_cell_formula_units_Z   1
loop_
 _symmetry_equiv_pos_site_id
 _symmetry_equiv_pos_as_xyz
  1  'x, y, z'
loop_
 _atom_site_type_symbol
 _atom_site_label
 _atom_site_symmetry_multiplicity
 _atom_site_fract_x
 _atom_site_fract_y
 _atom_site_fract_z
 _atom_site_occupancy
  Pr  Pr0  1  0.500000  0.000000  0.752068  1
  Nd  Nd1  1  0.000000  0.500000  0.245348  1
  Ga  Ga2  1  0.000000  0.000000  0.498985  1
  Ga  Ga3  1  0.500000  0.500000  0.498985  1
  Ga  Ga4  1  0.000000  0.500000  0.872630  1
  Ge  Ge5  1  0.500000  0.000000  0.127305  1
  Ir  Ir6  1  0.000000  0.000000  0.003941  1
  Ir  Ir7  1  0.500000  0.500000  0.003941  1
  Ir  Ir8  1  0.000000  0.500000  0.630461  1
  Ir  Ir9  1  0.500000  0.000000  0.366337  1
