# generated using pymatgen
data_TbNd6Gd(MoO6)4
_symmetry_space_group_name_H-M   'P 1'
_cell_length_a   5.53497472
_cell_length_b   10.20442269
_cell_length_c   10.20442066
_cell_angle_alpha   68.62460053
_cell_angle_beta   75.14192496
_cell_angle_gamma   75.14179461
_symmetry_Int_Tables_number   1
_chemical_formula_structural   TbNd6Gd(MoO6)4
_chemical_formula_sum   'Tb1 Nd6 Gd1 Mo4 O24'
_cell_volume   510.19232511
_cell_formula_units_Z   1
loop_
 _symmetry_equiv_pos_site_id
 _symmetry_equiv_pos_as_xyz
  1  'x, y, z'
loop_
 _atom_site_type_symbol
 _atom_site_label
 _atom_site_symmetry_multiplicity
 _atom_site_fract_x
 _atom_site_fract_y
 _atom_site_fract_z
 _atom_site_occupancy
  Tb  Tb0  1  0.250001  0.603741  0.396260  1
  Nd  Nd1  1  0.620480  0.787083  0.553007  1
  Nd  Nd2  1  0.119962  0.553626  0.787013  1
  Nd  Nd3  1  0.380040  0.212988  0.446374  1
  Nd  Nd4  1  0.879521  0.446993  0.212917  1
  Nd  Nd5  1  0.749999  0.864107  0.135893  1
  Nd  Nd6  1  0.250001  0.135377  0.864622  1
  Gd  Gd7  1  0.750001  0.396076  0.603926  1
  Mo  Mo8  1  0.064452  0.007343  0.297480  1
  Mo  Mo9  1  0.435545  0.702518  0.992658  1
  Mo  Mo10  1  0.936115  0.992317  0.702633  1
  Mo  Mo11  1  0.563888  0.297366  0.007682  1
  O  O12  1  0.924697  0.572908  0.606154  1
  O  O13  1  0.575305  0.393847  0.427094  1
  O  O14  1  0.077309  0.428736  0.392471  1
  O  O15  1  0.422690  0.607529  0.571266  1
  O  O16  1  0.934194  0.807319  0.337533  1
  O  O17  1  0.565802  0.662467  0.192681  1
  O  O18  1  0.068892  0.191194  0.662563  1
  O  O19  1  0.431109  0.337436  0.808807  1
  O  O20  1  0.373174  0.888227  0.328368  1
  O  O21  1  0.126821  0.671632  0.111773  1
  O  O22  1  0.627517  0.111691  0.671533  1
  O  O23  1  0.872486  0.328468  0.888307  1
  O  O24  1  0.633962  0.289333  0.176890  1
  O  O25  1  0.866040  0.823109  0.710668  1
  O  O26  1  0.366155  0.710482  0.823237  1
  O  O27  1  0.133845  0.176764  0.289518  1
  O  O28  1  0.521391  0.115786  0.044623  1
  O  O29  1  0.978608  0.955377  0.884213  1
  O  O30  1  0.763622  0.024071  0.427096  1
  O  O31  1  0.021169  0.044395  0.116087  1
  O  O32  1  0.263655  0.427358  0.024480  1
  O  O33  1  0.236351  0.975520  0.572641  1
  O  O34  1  0.736377  0.572903  0.975930  1
  O  O35  1  0.478830  0.883913  0.955606  1
