# generated using pymatgen
data_Ba2Zn(BrO)2
_symmetry_space_group_name_H-M   'P 1'
_cell_length_a   6.35353005
_cell_length_b   6.35352937
_cell_length_c   8.31037987
_cell_angle_alpha   119.21875855
_cell_angle_beta   119.21875429
_cell_angle_gamma   39.78638175
_symmetry_Int_Tables_number   1
_chemical_formula_structural   Ba2Zn(BrO)2
_chemical_formula_sum   'Ba2 Zn1 Br2 O2'
_cell_volume   183.48274264
_cell_formula_units_Z   1
loop_
 _symmetry_equiv_pos_site_id
 _symmetry_equiv_pos_as_xyz
  1  'x, y, z'
loop_
 _atom_site_type_symbol
 _atom_site_label
 _atom_site_symmetry_multiplicity
 _atom_site_fract_x
 _atom_site_fract_y
 _atom_site_fract_z
 _atom_site_occupancy
  Ba  Ba0  1  0.801251  0.801251  0.237342  1
  Ba  Ba1  1  0.198748  0.198748  0.762658  1
  Zn  Zn2  1  0.000000  0.000000  0.000000  1
  Br  Br3  1  0.566571  0.566571  0.347719  1
  Br  Br4  1  0.433428  0.433428  0.652280  1
  O  O5  1  0.169367  0.169367  0.060855  1
  O  O6  1  0.830633  0.830633  0.939146  1
