# generated using pymatgen
data_Ho20Si12P
_symmetry_space_group_name_H-M   'P 1'
_cell_length_a   6.34569547
_cell_length_b   8.43712533
_cell_length_c   14.70130600
_cell_angle_alpha   90.00000679
_cell_angle_beta   90.00000000
_cell_angle_gamma   89.87230486
_symmetry_Int_Tables_number   1
_chemical_formula_structural   Ho20Si12P
_chemical_formula_sum   'Ho20 Si12 P1'
_cell_volume   787.09755916
_cell_formula_units_Z   1
loop_
 _symmetry_equiv_pos_site_id
 _symmetry_equiv_pos_as_xyz
  1  'x, y, z'
loop_
 _atom_site_type_symbol
 _atom_site_label
 _atom_site_symmetry_multiplicity
 _atom_site_fract_x
 _atom_site_fract_y
 _atom_site_fract_z
 _atom_site_occupancy
  Ho  Ho0  1  0.500001  0.999998  0.335876  1
  Ho  Ho1  1  0.500000  0.500003  0.829646  1
  Ho  Ho2  1  0.500000  0.500003  0.170354  1
  Ho  Ho3  1  0.500001  0.999998  0.664124  1
  Ho  Ho4  1  0.999999  0.500000  0.166509  1
  Ho  Ho5  1  0.000000  0.000000  0.665908  1
  Ho  Ho6  1  0.000000  0.000000  0.334092  1
  Ho  Ho7  1  0.999999  0.500000  0.833491  1
  Ho  Ho8  1  0.747982  0.253208  0.000000  1
  Ho  Ho9  1  0.748526  0.744207  0.500000  1
  Ho  Ho10  1  0.751685  0.377464  0.380272  1
  Ho  Ho11  1  0.749334  0.871966  0.872294  1
  Ho  Ho12  1  0.749334  0.871966  0.127706  1
  Ho  Ho13  1  0.751685  0.377464  0.619728  1
  Ho  Ho14  1  0.252013  0.746789  0.000000  1
  Ho  Ho15  1  0.251465  0.255794  0.500000  1
  Ho  Ho16  1  0.250673  0.128036  0.127706  1
  Ho  Ho17  1  0.248311  0.622536  0.619726  1
  Ho  Ho18  1  0.248311  0.622536  0.380274  1
  Ho  Ho19  1  0.250673  0.128036  0.872294  1
  Si  Si20  1  0.746370  0.605244  0.000000  1
  Si  Si21  1  0.750206  0.105075  0.500000  1
  Si  Si22  1  0.749901  0.198393  0.199383  1
  Si  Si23  1  0.752844  0.696372  0.695313  1
  Si  Si24  1  0.752844  0.696372  0.304687  1
  Si  Si25  1  0.749901  0.198393  0.800617  1
  Si  Si26  1  0.253630  0.394755  0.000000  1
  Si  Si27  1  0.249793  0.894927  0.500000  1
  Si  Si28  1  0.247160  0.303628  0.304688  1
  Si  Si29  1  0.250099  0.801608  0.800616  1
  Si  Si30  1  0.250099  0.801608  0.199384  1
  Si  Si31  1  0.247160  0.303628  0.695312  1
  P  P32  1  0.500000  0.999998  0.000000  1
