# generated using pymatgen
data_CsRbSe3
_symmetry_space_group_name_H-M   'P 1'
_cell_length_a   7.01438593
_cell_length_b   7.01438762
_cell_length_c   8.33071200
_cell_angle_alpha   90.00000000
_cell_angle_beta   90.00000000
_cell_angle_gamma   109.58824747
_symmetry_Int_Tables_number   1
_chemical_formula_structural   CsRbSe3
_chemical_formula_sum   'Cs2 Rb2 Se6'
_cell_volume   386.16298199
_cell_formula_units_Z   2
loop_
 _symmetry_equiv_pos_site_id
 _symmetry_equiv_pos_as_xyz
  1  'x, y, z'
loop_
 _atom_site_type_symbol
 _atom_site_label
 _atom_site_symmetry_multiplicity
 _atom_site_fract_x
 _atom_site_fract_y
 _atom_site_fract_z
 _atom_site_occupancy
  Cs  Cs0  1  0.582169  0.417831  0.176290  1
  Cs  Cs1  1  0.417831  0.582169  0.676290  1
  Rb  Rb2  1  0.098820  0.901180  0.452329  1
  Rb  Rb3  1  0.901180  0.098820  0.952329  1
  Se  Se4  1  0.073802  0.398161  0.327362  1
  Se  Se5  1  0.926198  0.601839  0.827362  1
  Se  Se6  1  0.601839  0.926198  0.327362  1
  Se  Se7  1  0.398161  0.073802  0.827362  1
  Se  Se8  1  0.203712  0.796288  0.993658  1
  Se  Se9  1  0.796288  0.203712  0.493658  1
