# generated using pymatgen
data_Ho4S3N2
_symmetry_space_group_name_H-M   'P 1'
_cell_length_a   6.70509328
_cell_length_b   3.80858473
_cell_length_c   10.31335192
_cell_angle_alpha   89.99999759
_cell_angle_beta   50.69078506
_cell_angle_gamma   73.50050343
_symmetry_Int_Tables_number   1
_chemical_formula_structural   Ho4S3N2
_chemical_formula_sum   'Ho4 S3 N2'
_cell_volume   189.55612105
_cell_formula_units_Z   1
loop_
 _symmetry_equiv_pos_site_id
 _symmetry_equiv_pos_as_xyz
  1  'x, y, z'
loop_
 _atom_site_type_symbol
 _atom_site_label
 _atom_site_symmetry_multiplicity
 _atom_site_fract_x
 _atom_site_fract_y
 _atom_site_fract_z
 _atom_site_occupancy
  Ho  Ho0  1  0.224744  0.887627  0.649014  1
  Ho  Ho1  1  0.775256  0.112373  0.350986  1
  Ho  Ho2  1  0.580180  0.709910  0.146742  1
  Ho  Ho3  1  0.419820  0.290090  0.853258  1
  S  S4  1  0.000000  0.000000  0.000000  1
  S  S5  1  0.779798  0.610101  0.784870  1
  S  S6  1  0.220202  0.389899  0.215130  1
  N  N7  1  0.560236  0.719882  0.362851  1
  N  N8  1  0.439764  0.280118  0.637149  1
