# generated using pymatgen
data_La2TbBe2(PPd5)4
_symmetry_space_group_name_H-M   'P 1'
_cell_length_a   8.75398659
_cell_length_b   8.65553691
_cell_length_c   8.65553678
_cell_angle_alpha   60.75395638
_cell_angle_beta   59.62302237
_cell_angle_gamma   59.62302829
_symmetry_Int_Tables_number   1
_chemical_formula_structural   La2TbBe2(PPd5)4
_chemical_formula_sum   'La2 Tb1 Be2 P4 Pd20'
_cell_volume   463.62328158
_cell_formula_units_Z   1
loop_
 _symmetry_equiv_pos_site_id
 _symmetry_equiv_pos_as_xyz
  1  'x, y, z'
loop_
 _atom_site_type_symbol
 _atom_site_label
 _atom_site_symmetry_multiplicity
 _atom_site_fract_x
 _atom_site_fract_y
 _atom_site_fract_z
 _atom_site_occupancy
  La  La0  1  0.250000  0.250000  0.250000  1
  La  La1  1  0.750000  0.750000  0.750000  1
  Tb  Tb2  1  0.000000  0.000000  0.000000  1
  Be  Be3  1  0.732739  0.267261  0.267261  1
  Be  Be4  1  0.267261  0.732739  0.732739  1
  P  P5  1  0.265649  0.734351  0.265649  1
  P  P6  1  0.734351  0.265649  0.734351  1
  P  P7  1  0.265649  0.265649  0.734351  1
  P  P8  1  0.734351  0.734351  0.265649  1
  Pd  Pd9  1  0.389634  0.383876  0.383876  1
  Pd  Pd10  1  0.610366  0.616124  0.616124  1
  Pd  Pd11  1  0.383876  0.389634  0.842613  1
  Pd  Pd12  1  0.383876  0.842613  0.389634  1
  Pd  Pd13  1  0.616124  0.610366  0.157387  1
  Pd  Pd14  1  0.616124  0.157387  0.610366  1
  Pd  Pd15  1  0.842613  0.383876  0.383876  1
  Pd  Pd16  1  0.157387  0.616124  0.616124  1
  Pd  Pd17  1  0.343975  0.000000  0.000000  1
  Pd  Pd18  1  0.656025  0.000000  0.000000  1
  Pd  Pd19  1  0.000000  0.343975  0.656025  1
  Pd  Pd20  1  0.000000  0.656025  0.343975  1
  Pd  Pd21  1  0.996726  0.343040  0.003274  1
  Pd  Pd22  1  0.656960  0.003274  0.343040  1
  Pd  Pd23  1  0.003274  0.656960  0.996726  1
  Pd  Pd24  1  0.343040  0.996726  0.656960  1
  Pd  Pd25  1  0.996726  0.003274  0.343040  1
  Pd  Pd26  1  0.003274  0.996726  0.656960  1
  Pd  Pd27  1  0.656960  0.343040  0.003274  1
  Pd  Pd28  1  0.343040  0.656960  0.996726  1
