# generated using pymatgen
data_Tb2Dy2AlCo4
_symmetry_space_group_name_H-M   'P 1'
_cell_length_a   5.51445096
_cell_length_b   5.51444997
_cell_length_c   8.93360823
_cell_angle_alpha   70.93135027
_cell_angle_beta   70.93135512
_cell_angle_gamma   42.87669776
_symmetry_Int_Tables_number   1
_chemical_formula_structural   Tb2Dy2AlCo4
_chemical_formula_sum   'Tb2 Dy2 Al1 Co4'
_cell_volume   173.08639771
_cell_formula_units_Z   1
loop_
 _symmetry_equiv_pos_site_id
 _symmetry_equiv_pos_as_xyz
  1  'x, y, z'
loop_
 _atom_site_type_symbol
 _atom_site_label
 _atom_site_symmetry_multiplicity
 _atom_site_fract_x
 _atom_site_fract_y
 _atom_site_fract_z
 _atom_site_occupancy
  Tb  Tb0  1  0.745558  0.745558  0.662806  1
  Tb  Tb1  1  0.254442  0.254442  0.337194  1
  Dy  Dy2  1  0.391931  0.391931  0.885987  1
  Dy  Dy3  1  0.608069  0.608069  0.114013  1
  Al  Al4  1  0.500000  0.500000  0.500000  1
  Co  Co5  1  0.036168  0.036168  0.645477  1
  Co  Co6  1  0.963832  0.963832  0.354523  1
  Co  Co7  1  0.092136  0.092136  0.880432  1
  Co  Co8  1  0.907864  0.907864  0.119568  1
