# generated using pymatgen
data_UPaTcB6
_symmetry_space_group_name_H-M   'P 1'
_cell_length_a   3.67789000
_cell_length_b   9.30884600
_cell_length_c   11.39873400
_cell_angle_alpha   90.00000000
_cell_angle_beta   90.00000000
_cell_angle_gamma   90.00000000
_symmetry_Int_Tables_number   1
_chemical_formula_structural   UPaTcB6
_chemical_formula_sum   'U4 Pa4 Tc4 B24'
_cell_volume   390.25744848
_cell_formula_units_Z   4
loop_
 _symmetry_equiv_pos_site_id
 _symmetry_equiv_pos_as_xyz
  1  'x, y, z'
loop_
 _atom_site_type_symbol
 _atom_site_label
 _atom_site_symmetry_multiplicity
 _atom_site_fract_x
 _atom_site_fract_y
 _atom_site_fract_z
 _atom_site_occupancy
  U  U0  1  0.000000  0.956497  0.395764  1
  U  U1  1  0.000000  0.043503  0.604236  1
  U  U2  1  0.000000  0.456497  0.104236  1
  U  U3  1  0.000000  0.543503  0.895764  1
  Pa  Pa4  1  0.000000  0.335267  0.407202  1
  Pa  Pa5  1  0.000000  0.664733  0.592798  1
  Pa  Pa6  1  0.000000  0.835267  0.092798  1
  Pa  Pa7  1  0.000000  0.164733  0.907202  1
  Tc  Tc8  1  0.000000  0.645856  0.319354  1
  Tc  Tc9  1  0.000000  0.354144  0.680646  1
  Tc  Tc10  1  0.000000  0.145856  0.180646  1
  Tc  Tc11  1  0.000000  0.854144  0.819354  1
  B  B12  1  0.500000  0.550840  0.432059  1
  B  B13  1  0.500000  0.449160  0.567941  1
  B  B14  1  0.500000  0.050840  0.067941  1
  B  B15  1  0.500000  0.949160  0.932059  1
  B  B16  1  0.500000  0.742993  0.423139  1
  B  B17  1  0.500000  0.257007  0.576861  1
  B  B18  1  0.500000  0.242993  0.076861  1
  B  B19  1  0.500000  0.757007  0.923139  1
  B  B20  1  0.500000  0.803725  0.273853  1
  B  B21  1  0.500000  0.196275  0.726147  1
  B  B22  1  0.500000  0.303725  0.226147  1
  B  B23  1  0.500000  0.696275  0.773853  1
  B  B24  1  0.500000  0.644413  0.188479  1
  B  B25  1  0.500000  0.355587  0.811521  1
  B  B26  1  0.500000  0.144413  0.311521  1
  B  B27  1  0.500000  0.855587  0.688479  1
  B  B28  1  0.500000  0.986582  0.219670  1
  B  B29  1  0.500000  0.013418  0.780330  1
  B  B30  1  0.500000  0.486582  0.280330  1
  B  B31  1  0.500000  0.513418  0.719670  1
  B  B32  1  0.500000  0.642040  0.039314  1
  B  B33  1  0.500000  0.357960  0.960686  1
  B  B34  1  0.500000  0.142040  0.460686  1
  B  B35  1  0.500000  0.857960  0.539314  1
