# generated using pymatgen
data_RbCe(CO3)2
_symmetry_space_group_name_H-M   'P 1'
_cell_length_a   7.07537027
_cell_length_b   7.07558699
_cell_length_c   7.07547800
_cell_angle_alpha   45.19288587
_cell_angle_beta   45.19270633
_cell_angle_gamma   45.19305586
_symmetry_Int_Tables_number   1
_chemical_formula_structural   RbCe(CO3)2
_chemical_formula_sum   'Rb1 Ce1 C2 O6'
_cell_volume   162.35156992
_cell_formula_units_Z   1
loop_
 _symmetry_equiv_pos_site_id
 _symmetry_equiv_pos_as_xyz
  1  'x, y, z'
loop_
 _atom_site_type_symbol
 _atom_site_label
 _atom_site_symmetry_multiplicity
 _atom_site_fract_x
 _atom_site_fract_y
 _atom_site_fract_z
 _atom_site_occupancy
  Rb  Rb0  1  0.500000  0.500000  0.500000  1
  Ce  Ce1  1  0.000000  0.000000  0.000000  1
  C  C2  1  0.259422  0.259640  0.259622  1
  C  C3  1  0.740578  0.740360  0.740378  1
  O  O4  1  0.185240  0.525750  0.066398  1
  O  O5  1  0.525785  0.066251  0.185301  1
  O  O6  1  0.933807  0.814775  0.474212  1
  O  O7  1  0.066192  0.185225  0.525788  1
  O  O8  1  0.474215  0.933749  0.814699  1
  O  O9  1  0.814759  0.474250  0.933601  1
