# generated using pymatgen
data_Fe12Mo11WCN
_symmetry_space_group_name_H-M   'P 1'
_cell_length_a   7.71007242
_cell_length_b   7.71007278
_cell_length_c   7.71509800
_cell_angle_alpha   59.97843718
_cell_angle_beta   59.97843562
_cell_angle_gamma   60.07705377
_symmetry_Int_Tables_number   1
_chemical_formula_structural   Fe12Mo11WCN
_chemical_formula_sum   'Fe12 Mo11 W1 C1 N1'
_cell_volume   324.37984144
_cell_formula_units_Z   1
loop_
 _symmetry_equiv_pos_site_id
 _symmetry_equiv_pos_as_xyz
  1  'x, y, z'
loop_
 _atom_site_type_symbol
 _atom_site_label
 _atom_site_symmetry_multiplicity
 _atom_site_fract_x
 _atom_site_fract_y
 _atom_site_fract_z
 _atom_site_occupancy
  Fe  Fe0  1  0.920723  0.236670  0.921304  1
  Fe  Fe1  1  0.328844  0.012600  0.329277  1
  Fe  Fe2  1  0.329097  0.329097  0.328631  1
  Fe  Fe3  1  0.012600  0.328844  0.329277  1
  Fe  Fe4  1  0.921073  0.921073  0.236204  1
  Fe  Fe5  1  0.236670  0.920723  0.921304  1
  Fe  Fe6  1  0.329097  0.329097  0.013172  1
  Fe  Fe7  1  0.125133  0.125133  0.625112  1
  Fe  Fe8  1  0.921073  0.921073  0.921652  1
  Fe  Fe9  1  0.125105  0.624863  0.125017  1
  Fe  Fe10  1  0.125133  0.125133  0.124622  1
  Fe  Fe11  1  0.624863  0.125105  0.125017  1
  Mo  Mo12  1  0.302788  0.696116  0.697526  1
  Mo  Mo13  1  0.302610  0.302610  0.697390  1
  Mo  Mo14  1  0.552453  0.947726  0.551949  1
  Mo  Mo15  1  0.947726  0.552453  0.551949  1
  Mo  Mo16  1  0.552453  0.947726  0.947873  1
  Mo  Mo17  1  0.696116  0.302788  0.303570  1
  Mo  Mo18  1  0.947726  0.552453  0.947873  1
  Mo  Mo19  1  0.302788  0.696116  0.303570  1
  Mo  Mo20  1  0.553633  0.553633  0.946367  1
  Mo  Mo21  1  0.696116  0.302788  0.697526  1
  Mo  Mo22  1  0.696914  0.696914  0.303086  1
  W  W23  1  0.947789  0.947789  0.552211  1
  C  C24  1  0.499833  0.499833  0.500167  1
  N  N25  1  0.751644  0.751644  0.748356  1
