# generated using pymatgen
data_Ti13Be(AlCo)8
_symmetry_space_group_name_H-M   'P 1'
_cell_length_a   8.46990772
_cell_length_b   8.46990800
_cell_length_c   8.46990840
_cell_angle_alpha   59.42798129
_cell_angle_beta   59.42798035
_cell_angle_gamma   59.42799270
_symmetry_Int_Tables_number   1
_chemical_formula_structural   Ti13Be(AlCo)8
_chemical_formula_sum   'Ti13 Be1 Al8 Co8'
_cell_volume   424.06430182
_cell_formula_units_Z   1
loop_
 _symmetry_equiv_pos_site_id
 _symmetry_equiv_pos_as_xyz
  1  'x, y, z'
loop_
 _atom_site_type_symbol
 _atom_site_label
 _atom_site_symmetry_multiplicity
 _atom_site_fract_x
 _atom_site_fract_y
 _atom_site_fract_z
 _atom_site_occupancy
  Ti  Ti0  1  0.202415  0.202415  0.808780  1
  Ti  Ti1  1  0.808780  0.202415  0.202415  1
  Ti  Ti2  1  0.202415  0.808780  0.202415  1
  Ti  Ti3  1  0.798258  0.798258  0.186398  1
  Ti  Ti4  1  0.186398  0.798258  0.798258  1
  Ti  Ti5  1  0.798258  0.186398  0.798258  1
  Ti  Ti6  1  0.381284  0.381284  0.381284  1
  Ti  Ti7  1  0.374657  0.868094  0.374657  1
  Ti  Ti8  1  0.868094  0.374657  0.374657  1
  Ti  Ti9  1  0.374657  0.374657  0.868094  1
  Ti  Ti10  1  0.842322  0.474367  0.842322  1
  Ti  Ti11  1  0.474367  0.842322  0.842322  1
  Ti  Ti12  1  0.842322  0.842322  0.474367  1
  Be  Be13  1  0.162888  0.162888  0.162888  1
  Al  Al14  1  0.162895  0.520170  0.162895  1
  Al  Al15  1  0.520170  0.162895  0.162895  1
  Al  Al16  1  0.162895  0.162895  0.520170  1
  Al  Al17  1  0.617775  0.617775  0.617775  1
  Al  Al18  1  0.618379  0.146093  0.618379  1
  Al  Al19  1  0.146093  0.618379  0.618379  1
  Al  Al20  1  0.618379  0.618379  0.146093  1
  Al  Al21  1  0.829220  0.829220  0.829220  1
  Co  Co22  1  0.005948  0.005948  0.490756  1
  Co  Co23  1  0.490756  0.005948  0.005948  1
  Co  Co24  1  0.005948  0.490756  0.005948  1
  Co  Co25  1  0.500500  0.500500  0.001513  1
  Co  Co26  1  0.001513  0.500500  0.500500  1
  Co  Co27  1  0.500500  0.001513  0.500500  1
  Co  Co28  1  0.501375  0.501375  0.501375  1
  Co  Co29  1  0.000537  0.000537  0.000537  1
