# generated using pymatgen
data_Zr6Al7Au16
_symmetry_space_group_name_H-M   'P 1'
_cell_length_a   9.08302181
_cell_length_b   9.08265138
_cell_length_c   9.08047801
_cell_angle_alpha   60.01131072
_cell_angle_beta   60.00649878
_cell_angle_gamma   59.98470781
_symmetry_Int_Tables_number   1
_chemical_formula_structural   Zr6Al7Au16
_chemical_formula_sum   'Zr6 Al7 Au16'
_cell_volume   529.71823573
_cell_formula_units_Z   1
loop_
 _symmetry_equiv_pos_site_id
 _symmetry_equiv_pos_as_xyz
  1  'x, y, z'
loop_
 _atom_site_type_symbol
 _atom_site_label
 _atom_site_symmetry_multiplicity
 _atom_site_fract_x
 _atom_site_fract_y
 _atom_site_fract_z
 _atom_site_occupancy
  Zr  Zr0  1  0.707981  0.707981  0.292019  1
  Zr  Zr1  1  0.292058  0.707942  0.292059  1
  Zr  Zr2  1  0.707943  0.292056  0.292057  1
  Zr  Zr3  1  0.292019  0.292019  0.707981  1
  Zr  Zr4  1  0.707942  0.292058  0.707941  1
  Zr  Zr5  1  0.292057  0.707944  0.707943  1
  Al  Al6  1  0.000000  0.000000  0.000000  1
  Al  Al7  1  0.000000  0.000000  0.500000  1
  Al  Al8  1  0.500000  0.000000  0.500000  1
  Al  Al9  1  0.000000  0.500000  0.500000  1
  Al  Al10  1  0.500000  0.500000  0.000000  1
  Al  Al11  1  0.000000  0.500000  0.000000  1
  Al  Al12  1  0.500000  0.000000  0.000000  1
  Au  Au13  1  0.883539  0.883539  0.349347  1
  Au  Au14  1  0.883575  0.349346  0.883539  1
  Au  Au15  1  0.349347  0.883574  0.883541  1
  Au  Au16  1  0.883540  0.883539  0.883574  1
  Au  Au17  1  0.116461  0.116461  0.650653  1
  Au  Au18  1  0.116425  0.650654  0.116461  1
  Au  Au19  1  0.650653  0.116426  0.116459  1
  Au  Au20  1  0.116460  0.116461  0.116426  1
  Au  Au21  1  0.658429  0.658430  0.024715  1
  Au  Au22  1  0.658428  0.024713  0.658431  1
  Au  Au23  1  0.024714  0.658429  0.658429  1
  Au  Au24  1  0.658430  0.658429  0.658425  1
  Au  Au25  1  0.341571  0.341570  0.975285  1
  Au  Au26  1  0.341572  0.975287  0.341569  1
  Au  Au27  1  0.975286  0.341571  0.341571  1
  Au  Au28  1  0.341570  0.341571  0.341575  1
