# generated using pymatgen
data_LaErTm(ZnPt)4
_symmetry_space_group_name_H-M   'P 1'
_cell_length_a   8.23479544
_cell_length_b   8.23479545
_cell_length_c   8.23479596
_cell_angle_alpha   151.79041151
_cell_angle_beta   124.96272605
_cell_angle_gamma   62.98217235
_symmetry_Int_Tables_number   1
_chemical_formula_structural   LaErTm(ZnPt)4
_chemical_formula_sum   'La1 Er1 Tm1 Zn4 Pt4'
_cell_volume   214.46242172
_cell_formula_units_Z   1
loop_
 _symmetry_equiv_pos_site_id
 _symmetry_equiv_pos_as_xyz
  1  'x, y, z'
loop_
 _atom_site_type_symbol
 _atom_site_label
 _atom_site_symmetry_multiplicity
 _atom_site_fract_x
 _atom_site_fract_y
 _atom_site_fract_z
 _atom_site_occupancy
  La  La0  1  0.499925  0.999925  0.500000  1
  Er  Er1  1  0.875336  0.875336  0.000000  1
  Tm  Tm2  1  0.124791  0.124791  0.000000  1
  Zn  Zn3  1  0.476660  0.675297  0.801364  1
  Zn  Zn4  1  0.873933  0.675297  0.198636  1
  Zn  Zn5  1  0.126380  0.324662  0.801719  1
  Zn  Zn6  1  0.522944  0.324662  0.198281  1
  Pt  Pt7  1  0.274229  0.774229  0.500000  1
  Pt  Pt8  1  0.725287  0.225287  0.500000  1
  Pt  Pt9  1  0.812999  0.500257  0.312742  1
  Pt  Pt10  1  0.187515  0.500257  0.687258  1
