# generated using pymatgen
data_Na20AlV2GaP12
_symmetry_space_group_name_H-M   'P 1'
_cell_length_a   7.29002273
_cell_length_b   8.05175745
_cell_length_c   15.32727874
_cell_angle_alpha   59.19305911
_cell_angle_beta   89.95620313
_cell_angle_gamma   90.00051829
_symmetry_Int_Tables_number   1
_chemical_formula_structural   Na20AlV2GaP12
_chemical_formula_sum   'Na20 Al1 V2 Ga1 P12'
_cell_volume   772.72678899
_cell_formula_units_Z   1
loop_
 _symmetry_equiv_pos_site_id
 _symmetry_equiv_pos_as_xyz
  1  'x, y, z'
loop_
 _atom_site_type_symbol
 _atom_site_label
 _atom_site_symmetry_multiplicity
 _atom_site_fract_x
 _atom_site_fract_y
 _atom_site_fract_z
 _atom_site_occupancy
  Na  Na0  1  0.738479  0.942482  0.244812  1
  Na  Na1  1  0.261292  0.942491  0.745376  1
  Na  Na2  1  0.769732  0.053735  0.758136  1
  Na  Na3  1  0.230331  0.053749  0.258118  1
  Na  Na4  1  0.267094  0.244410  0.420055  1
  Na  Na5  1  0.733439  0.244256  0.920158  1
  Na  Na6  1  0.219460  0.754920  0.579375  1
  Na  Na7  1  0.781171  0.755099  0.079321  1
  Na  Na8  1  0.088525  0.344196  0.582407  1
  Na  Na9  1  0.911466  0.343891  0.082990  1
  Na  Na10  1  0.407854  0.655689  0.418954  1
  Na  Na11  1  0.591846  0.655455  0.919067  1
  Na  Na12  1  0.593528  0.336079  0.242618  1
  Na  Na13  1  0.406555  0.335659  0.742843  1
  Na  Na14  1  0.908364  0.664793  0.759457  1
  Na  Na15  1  0.091484  0.663953  0.259740  1
  Na  Na16  1  0.769699  0.418582  0.409361  1
  Na  Na17  1  0.230416  0.418024  0.909459  1
  Na  Na18  1  0.739926  0.582247  0.589398  1
  Na  Na19  1  0.259414  0.582608  0.089368  1
  Al  Al20  1  0.887291  0.012376  0.417131  1
  V  V21  1  0.616616  0.989514  0.578184  1
  V  V22  1  0.383403  0.989471  0.078031  1
  Ga  Ga23  1  0.111001  0.012551  0.916579  1
  P  P24  1  0.980454  0.313968  0.273335  1
  P  P25  1  0.019280  0.316862  0.772061  1
  P  P26  1  0.524079  0.705801  0.718732  1
  P  P27  1  0.475765  0.705868  0.218667  1
  P  P28  1  0.933373  0.019495  0.572989  1
  P  P29  1  0.066391  0.019669  0.074013  1
  P  P30  1  0.548857  0.979523  0.433955  1
  P  P31  1  0.454011  0.979260  0.933987  1
  P  P32  1  0.002696  0.728094  0.421702  1
  P  P33  1  0.996750  0.725639  0.921711  1
  P  P34  1  0.495384  0.254887  0.578994  1
  P  P35  1  0.504576  0.254705  0.078915  1
