# generated using pymatgen
data_CaTm2Al6(Si3Ru2)2
_symmetry_space_group_name_H-M   'P 1'
_cell_length_a   8.65877328
_cell_length_b   8.65877215
_cell_length_c   9.24573500
_cell_angle_alpha   90.00000000
_cell_angle_beta   90.00000000
_cell_angle_gamma   119.90023173
_symmetry_Int_Tables_number   1
_chemical_formula_structural   CaTm2Al6(Si3Ru2)2
_chemical_formula_sum   'Ca2 Tm4 Al12 Si12 Ru8'
_cell_volume   600.92529572
_cell_formula_units_Z   2
loop_
 _symmetry_equiv_pos_site_id
 _symmetry_equiv_pos_as_xyz
  1  'x, y, z'
loop_
 _atom_site_type_symbol
 _atom_site_label
 _atom_site_symmetry_multiplicity
 _atom_site_fract_x
 _atom_site_fract_y
 _atom_site_fract_z
 _atom_site_occupancy
  Ca  Ca0  1  0.808683  0.191317  0.750000  1
  Ca  Ca1  1  0.191317  0.808683  0.250000  1
  Tm  Tm2  1  0.385181  0.192475  0.750000  1
  Tm  Tm3  1  0.614819  0.807525  0.250000  1
  Tm  Tm4  1  0.807525  0.614819  0.750000  1
  Tm  Tm5  1  0.192475  0.385181  0.250000  1
  Al  Al6  1  0.834167  0.165833  0.420194  1
  Al  Al7  1  0.165833  0.834167  0.579806  1
  Al  Al8  1  0.331368  0.166308  0.418768  1
  Al  Al9  1  0.165833  0.834167  0.920194  1
  Al  Al10  1  0.668632  0.833692  0.581232  1
  Al  Al11  1  0.834167  0.165833  0.079806  1
  Al  Al12  1  0.833692  0.668632  0.418768  1
  Al  Al13  1  0.668632  0.833692  0.918768  1
  Al  Al14  1  0.166308  0.331368  0.581232  1
  Al  Al15  1  0.331368  0.166308  0.081232  1
  Al  Al16  1  0.166308  0.331368  0.918768  1
  Al  Al17  1  0.833692  0.668632  0.081232  1
  Si  Si18  1  0.666747  0.333253  0.955396  1
  Si  Si19  1  0.333253  0.666747  0.044604  1
  Si  Si20  1  0.333253  0.666747  0.455396  1
  Si  Si21  1  0.666747  0.333253  0.544604  1
  Si  Si22  1  0.437999  0.562001  0.750000  1
  Si  Si23  1  0.562001  0.437999  0.250000  1
  Si  Si24  1  0.125480  0.563010  0.750000  1
  Si  Si25  1  0.874520  0.436990  0.250000  1
  Si  Si26  1  0.436990  0.874520  0.750000  1
  Si  Si27  1  0.563010  0.125480  0.250000  1
  Si  Si28  1  0.003015  0.996985  0.750000  1
  Si  Si29  1  0.996985  0.003015  0.250000  1
  Ru  Ru30  1  0.500000  0.500000  0.000000  1
  Ru  Ru31  1  0.000000  0.500000  0.000000  1
  Ru  Ru32  1  0.500000  0.500000  0.500000  1
  Ru  Ru33  1  0.500000  0.000000  0.000000  1
  Ru  Ru34  1  0.000000  0.500000  0.500000  1
  Ru  Ru35  1  0.500000  0.000000  0.500000  1
  Ru  Ru36  1  0.000000  0.000000  0.000000  1
  Ru  Ru37  1  0.000000  0.000000  0.500000  1
