# generated using pymatgen
data_Ac2Ga10Pd
_symmetry_space_group_name_H-M   'P 1'
_cell_length_a   4.51278359
_cell_length_b   4.51278149
_cell_length_c   13.66596794
_cell_angle_alpha   99.27231131
_cell_angle_beta   99.27235772
_cell_angle_gamma   90.04382929
_symmetry_Int_Tables_number   1
_chemical_formula_structural   Ac2Ga10Pd
_chemical_formula_sum   'Ac2 Ga10 Pd1'
_cell_volume   270.98269207
_cell_formula_units_Z   1
loop_
 _symmetry_equiv_pos_site_id
 _symmetry_equiv_pos_as_xyz
  1  'x, y, z'
loop_
 _atom_site_type_symbol
 _atom_site_label
 _atom_site_symmetry_multiplicity
 _atom_site_fract_x
 _atom_site_fract_y
 _atom_site_fract_z
 _atom_site_occupancy
  Ac  Ac0  1  0.645343  0.645343  0.291699  1
  Ac  Ac1  1  0.354736  0.354736  0.708356  1
  Ga  Ga2  1  0.550257  0.049814  0.100039  1
  Ga  Ga3  1  0.049813  0.550257  0.100039  1
  Ga  Ga4  1  0.103564  0.103564  0.207336  1
  Ga  Ga5  1  0.197764  0.197764  0.396439  1
  Ga  Ga6  1  0.750718  0.249257  0.500006  1
  Ga  Ga7  1  0.249257  0.750717  0.500005  1
  Ga  Ga8  1  0.802212  0.802212  0.603536  1
  Ga  Ga9  1  0.896437  0.896437  0.792638  1
  Ga  Ga10  1  0.950179  0.449731  0.899962  1
  Ga  Ga11  1  0.449731  0.950179  0.899962  1
  Pd  Pd12  1  0.499986  0.499986  0.999981  1
