# generated using pymatgen
data_Er4Al12Ga5SiIr6
_symmetry_space_group_name_H-M   'P 1'
_cell_length_a   7.51835319
_cell_length_b   7.50372399
_cell_length_c   9.50654233
_cell_angle_alpha   90.02522292
_cell_angle_beta   89.84278058
_cell_angle_gamma   119.90676414
_symmetry_Int_Tables_number   1
_chemical_formula_structural   Er4Al12Ga5SiIr6
_chemical_formula_sum   'Er4 Al12 Ga5 Si1 Ir6'
_cell_volume   464.89852126
_cell_formula_units_Z   1
loop_
 _symmetry_equiv_pos_site_id
 _symmetry_equiv_pos_as_xyz
  1  'x, y, z'
loop_
 _atom_site_type_symbol
 _atom_site_label
 _atom_site_symmetry_multiplicity
 _atom_site_fract_x
 _atom_site_fract_y
 _atom_site_fract_z
 _atom_site_occupancy
  Er  Er0  1  0.998117  0.661981  0.747262  1
  Er  Er1  1  0.003048  0.331159  0.253747  1
  Er  Er2  1  0.672341  0.003838  0.747610  1
  Er  Er3  1  0.330665  0.003448  0.250049  1
  Al  Al4  1  0.125955  0.125642  0.749836  1
  Al  Al5  1  0.997841  0.670258  0.424401  1
  Al  Al6  1  0.998909  0.666624  0.073217  1
  Al  Al7  1  0.333184  0.999648  0.925628  1
  Al  Al8  1  0.001356  0.333897  0.929401  1
  Al  Al9  1  0.665563  0.998652  0.073407  1
  Al  Al10  1  0.660758  0.993727  0.424357  1
  Al  Al11  1  0.333216  0.999977  0.574840  1
  Al  Al12  1  0.334198  0.333603  0.055549  1
  Al  Al13  1  0.667814  0.667839  0.940637  1
  Al  Al14  1  0.666897  0.667423  0.560530  1
  Al  Al15  1  0.337126  0.334330  0.444254  1
  Ga  Ga16  1  0.873533  0.874984  0.249782  1
  Ga  Ga17  1  0.344524  0.548318  0.751177  1
  Ga  Ga18  1  0.660660  0.451557  0.250475  1
  Ga  Ga19  1  0.545057  0.339515  0.749726  1
  Ga  Ga20  1  0.450654  0.658635  0.250066  1
  Si  Si21  1  0.999333  0.333091  0.573208  1
  Ir  Ir22  1  0.679895  0.328705  0.501336  1
  Ir  Ir23  1  0.318905  0.663316  0.500812  1
  Ir  Ir24  1  0.327696  0.671666  0.999935  1
  Ir  Ir25  1  0.672769  0.328517  0.999355  1
  Ir  Ir26  1  0.999678  0.008458  0.502769  1
  Ir  Ir27  1  0.000305  0.001190  0.996632  1
