# generated using pymatgen
data_Ca4Cu3NiAs4
_symmetry_space_group_name_H-M   'P 1'
_cell_length_a   8.17811501
_cell_length_b   4.12935100
_cell_length_c   7.16802001
_cell_angle_alpha   90.00000000
_cell_angle_beta   89.99373615
_cell_angle_gamma   90.00000000
_symmetry_Int_Tables_number   1
_chemical_formula_structural   Ca4Cu3NiAs4
_chemical_formula_sum   'Ca4 Cu3 Ni1 As4'
_cell_volume   242.06623779
_cell_formula_units_Z   1
loop_
 _symmetry_equiv_pos_site_id
 _symmetry_equiv_pos_as_xyz
  1  'x, y, z'
loop_
 _atom_site_type_symbol
 _atom_site_label
 _atom_site_symmetry_multiplicity
 _atom_site_fract_x
 _atom_site_fract_y
 _atom_site_fract_z
 _atom_site_occupancy
  Ca  Ca0  1  0.996172  0.250001  0.245270  1
  Ca  Ca1  1  0.503784  0.250001  0.246969  1
  Ca  Ca2  1  0.502985  0.749999  0.753221  1
  Ca  Ca3  1  0.997051  0.749999  0.755208  1
  Cu  Cu4  1  0.249458  0.749999  0.416053  1
  Cu  Cu5  1  0.750489  0.250001  0.585141  1
  Cu  Cu6  1  0.250381  0.250001  0.915435  1
  Ni  Ni7  1  0.749347  0.749999  0.082277  1
  As  As8  1  0.250587  0.749999  0.082935  1
  As  As9  1  0.750882  0.749999  0.411591  1
  As  As10  1  0.249772  0.250001  0.582561  1
  As  As11  1  0.749091  0.250001  0.923340  1
