# generated using pymatgen
data_Tc(BMo)2
_symmetry_space_group_name_H-M   'P 1'
_cell_length_a   3.10804500
_cell_length_b   7.53855900
_cell_length_c   9.65425100
_cell_angle_alpha   90.00000000
_cell_angle_beta   90.00000000
_cell_angle_gamma   90.00000000
_symmetry_Int_Tables_number   1
_chemical_formula_structural   Tc(BMo)2
_chemical_formula_sum   'Tc4 B8 Mo8'
_cell_volume   226.20084456
_cell_formula_units_Z   4
loop_
 _symmetry_equiv_pos_site_id
 _symmetry_equiv_pos_as_xyz
  1  'x, y, z'
loop_
 _atom_site_type_symbol
 _atom_site_label
 _atom_site_symmetry_multiplicity
 _atom_site_fract_x
 _atom_site_fract_y
 _atom_site_fract_z
 _atom_site_occupancy
  Tc  Tc0  1  0.500000  0.623279  0.395704  1
  Tc  Tc1  1  0.500000  0.376721  0.604296  1
  Tc  Tc2  1  0.000000  0.876721  0.895704  1
  Tc  Tc3  1  0.000000  0.123279  0.104296  1
  B  B4  1  0.500000  0.115068  0.459075  1
  B  B5  1  0.500000  0.884932  0.540925  1
  B  B6  1  0.000000  0.384932  0.959075  1
  B  B7  1  0.000000  0.615068  0.040925  1
  B  B8  1  0.500000  0.122119  0.266451  1
  B  B9  1  0.500000  0.877881  0.733549  1
  B  B10  1  0.000000  0.377881  0.766451  1
  B  B11  1  0.000000  0.622119  0.233549  1
  Mo  Mo12  1  0.500000  0.810867  0.130093  1
  Mo  Mo13  1  0.500000  0.189133  0.869907  1
  Mo  Mo14  1  0.000000  0.689133  0.630093  1
  Mo  Mo15  1  0.000000  0.310867  0.369907  1
  Mo  Mo16  1  0.500000  0.577590  0.862178  1
  Mo  Mo17  1  0.500000  0.422410  0.137822  1
  Mo  Mo18  1  0.000000  0.922410  0.362178  1
  Mo  Mo19  1  0.000000  0.077590  0.637822  1
