# generated using pymatgen
data_SrAcHfThSb5
_symmetry_space_group_name_H-M   'P 1'
_cell_length_a   9.70532069
_cell_length_b   9.69259046
_cell_length_c   6.47810600
_cell_angle_alpha   90.00000000
_cell_angle_beta   90.00000000
_cell_angle_gamma   119.38296560
_symmetry_Int_Tables_number   1
_chemical_formula_structural   SrAcHfThSb5
_chemical_formula_sum   'Sr2 Ac2 Hf2 Th2 Sb10'
_cell_volume   531.00093260
_cell_formula_units_Z   2
loop_
 _symmetry_equiv_pos_site_id
 _symmetry_equiv_pos_as_xyz
  1  'x, y, z'
loop_
 _atom_site_type_symbol
 _atom_site_label
 _atom_site_symmetry_multiplicity
 _atom_site_fract_x
 _atom_site_fract_y
 _atom_site_fract_z
 _atom_site_occupancy
  Sr  Sr0  1  0.994391  0.610307  0.250000  1
  Sr  Sr1  1  0.005609  0.389693  0.750000  1
  Ac  Ac2  1  0.377753  0.385596  0.250000  1
  Ac  Ac3  1  0.622247  0.614404  0.750000  1
  Hf  Hf4  1  0.000000  0.000000  0.000000  1
  Hf  Hf5  1  0.000000  0.000000  0.500000  1
  Th  Th6  1  0.623113  0.005606  0.250000  1
  Th  Th7  1  0.376887  0.994394  0.750000  1
  Sb  Sb8  1  0.256771  0.996349  0.250000  1
  Sb  Sb9  1  0.743229  0.003651  0.750000  1
  Sb  Sb10  1  0.992666  0.250325  0.250000  1
  Sb  Sb11  1  0.007334  0.749675  0.750000  1
  Sb  Sb12  1  0.744549  0.750922  0.250000  1
  Sb  Sb13  1  0.255451  0.249078  0.750000  1
  Sb  Sb14  1  0.347039  0.686779  0.001797  1
  Sb  Sb15  1  0.652961  0.313221  0.998203  1
  Sb  Sb16  1  0.652961  0.313221  0.501797  1
  Sb  Sb17  1  0.347039  0.686779  0.498203  1
