# generated using pymatgen
data_Y2Th(GaNi)3
_symmetry_space_group_name_H-M   'P 1'
_cell_length_a   7.18696400
_cell_length_b   7.08096984
_cell_length_c   3.76637000
_cell_angle_alpha   90.00000000
_cell_angle_beta   90.00000000
_cell_angle_gamma   120.49641423
_symmetry_Int_Tables_number   1
_chemical_formula_structural   Y2Th(GaNi)3
_chemical_formula_sum   'Y2 Th1 Ga3 Ni3'
_cell_volume   165.15723109
_cell_formula_units_Z   1
loop_
 _symmetry_equiv_pos_site_id
 _symmetry_equiv_pos_as_xyz
  1  'x, y, z'
loop_
 _atom_site_type_symbol
 _atom_site_label
 _atom_site_symmetry_multiplicity
 _atom_site_fract_x
 _atom_site_fract_y
 _atom_site_fract_z
 _atom_site_occupancy
  Y  Y0  1  0.998317  0.411728  0.500000  1
  Y  Y1  1  0.586589  0.588272  0.500000  1
  Th  Th2  1  0.419621  0.000000  0.500000  1
  Ga  Ga3  1  0.989739  0.747294  0.000000  1
  Ga  Ga4  1  0.242446  0.252706  0.000000  1
  Ga  Ga5  1  0.768291  0.000000  0.000000  1
  Ni  Ni6  1  0.333198  0.678751  0.000000  1
  Ni  Ni7  1  0.654448  0.321249  0.000000  1
  Ni  Ni8  1  0.007351  0.000000  0.500000  1
