# generated using pymatgen
data_Lu3CdSn3Ir2
_symmetry_space_group_name_H-M   'P 1'
_cell_length_a   7.65446900
_cell_length_b   7.65446832
_cell_length_c   3.85582000
_cell_angle_alpha   90.00000000
_cell_angle_beta   90.00000000
_cell_angle_gamma   120.00000030
_symmetry_Int_Tables_number   1
_chemical_formula_structural   Lu3CdSn3Ir2
_chemical_formula_sum   'Lu3 Cd1 Sn3 Ir2'
_cell_volume   195.64893163
_cell_formula_units_Z   1
loop_
 _symmetry_equiv_pos_site_id
 _symmetry_equiv_pos_as_xyz
  1  'x, y, z'
loop_
 _atom_site_type_symbol
 _atom_site_label
 _atom_site_symmetry_multiplicity
 _atom_site_fract_x
 _atom_site_fract_y
 _atom_site_fract_z
 _atom_site_occupancy
  Lu  Lu0  1  0.969538  0.378353  0.500000  1
  Lu  Lu1  1  0.621647  0.591184  0.500000  1
  Lu  Lu2  1  0.408816  0.030462  0.500000  1
  Cd  Cd3  1  0.333333  0.666667  0.000000  1
  Sn  Sn4  1  0.001465  0.742844  0.000000  1
  Sn  Sn5  1  0.257156  0.258621  0.000000  1
  Sn  Sn6  1  0.741379  0.998535  0.000000  1
  Ir  Ir7  1  0.666667  0.333333  0.000000  1
  Ir  Ir8  1  0.000000  0.000000  0.500000  1
