# generated using pymatgen
data_Sc4Al17GaIr6
_symmetry_space_group_name_H-M   'P 1'
_cell_length_a   7.47595277
_cell_length_b   7.47049793
_cell_length_c   9.35117900
_cell_angle_alpha   90.00000000
_cell_angle_beta   90.00000000
_cell_angle_gamma   119.82769636
_symmetry_Int_Tables_number   1
_chemical_formula_structural   Sc4Al17GaIr6
_chemical_formula_sum   'Sc4 Al17 Ga1 Ir6'
_cell_volume   453.06918716
_cell_formula_units_Z   1
loop_
 _symmetry_equiv_pos_site_id
 _symmetry_equiv_pos_as_xyz
  1  'x, y, z'
loop_
 _atom_site_type_symbol
 _atom_site_label
 _atom_site_symmetry_multiplicity
 _atom_site_fract_x
 _atom_site_fract_y
 _atom_site_fract_z
 _atom_site_occupancy
  Sc  Sc0  1  0.997435  0.670816  0.250000  1
  Sc  Sc1  1  0.006646  0.332421  0.750000  1
  Sc  Sc2  1  0.670193  0.995672  0.250000  1
  Sc  Sc3  1  0.328488  0.001702  0.750000  1
  Al  Al4  1  0.123946  0.124031  0.250000  1
  Al  Al5  1  0.876859  0.877675  0.750000  1
  Al  Al6  1  0.998109  0.334492  0.075806  1
  Al  Al7  1  0.000511  0.665533  0.924249  1
  Al  Al8  1  0.000511  0.665533  0.575751  1
  Al  Al9  1  0.334211  0.998348  0.424025  1
  Al  Al10  1  0.998109  0.334492  0.424194  1
  Al  Al11  1  0.665604  0.001557  0.575281  1
  Al  Al12  1  0.665604  0.001557  0.924719  1
  Al  Al13  1  0.334211  0.998348  0.075975  1
  Al  Al14  1  0.331599  0.331604  0.557382  1
  Al  Al15  1  0.668834  0.668804  0.439108  1
  Al  Al16  1  0.668834  0.668804  0.060892  1
  Al  Al17  1  0.331599  0.331604  0.942618  1
  Al  Al18  1  0.338780  0.551670  0.250000  1
  Al  Al19  1  0.659701  0.446441  0.750000  1
  Al  Al20  1  0.551736  0.338859  0.250000  1
  Ga  Ga21  1  0.453086  0.659359  0.750000  1
  Ir  Ir22  1  0.671556  0.328158  0.999910  1
  Ir  Ir23  1  0.326808  0.672298  0.001817  1
  Ir  Ir24  1  0.326808  0.672298  0.498183  1
  Ir  Ir25  1  0.671556  0.328158  0.500090  1
  Ir  Ir26  1  0.999332  0.999883  0.999916  1
  Ir  Ir27  1  0.999332  0.999883  0.500084  1
