# generated using pymatgen
data_Dy7Y3In3Ru
_symmetry_space_group_name_H-M   'P 1'
_cell_length_a   9.74092500
_cell_length_b   9.74092481
_cell_length_c   9.77989700
_cell_angle_alpha   90.00000000
_cell_angle_beta   90.00000000
_cell_angle_gamma   120.00000404
_symmetry_Int_Tables_number   1
_chemical_formula_structural   Dy7Y3In3Ru
_chemical_formula_sum   'Dy14 Y6 In6 Ru2'
_cell_volume   803.64692180
_cell_formula_units_Z   2
loop_
 _symmetry_equiv_pos_site_id
 _symmetry_equiv_pos_as_xyz
  1  'x, y, z'
loop_
 _atom_site_type_symbol
 _atom_site_label
 _atom_site_symmetry_multiplicity
 _atom_site_fract_x
 _atom_site_fract_y
 _atom_site_fract_z
 _atom_site_occupancy
  Dy  Dy0  1  0.000000  0.000000  0.500000  1
  Dy  Dy1  1  0.000000  0.000000  0.000000  1
  Dy  Dy2  1  0.209904  0.790096  0.438632  1
  Dy  Dy3  1  0.209904  0.419808  0.438632  1
  Dy  Dy4  1  0.580192  0.790096  0.438632  1
  Dy  Dy5  1  0.790096  0.209904  0.561368  1
  Dy  Dy6  1  0.790096  0.580192  0.561368  1
  Dy  Dy7  1  0.419808  0.209904  0.561368  1
  Dy  Dy8  1  0.790096  0.209904  0.938632  1
  Dy  Dy9  1  0.790096  0.580192  0.938632  1
  Dy  Dy10  1  0.419808  0.209904  0.938632  1
  Dy  Dy11  1  0.209904  0.790096  0.061368  1
  Dy  Dy12  1  0.209904  0.419808  0.061368  1
  Dy  Dy13  1  0.580192  0.790096  0.061368  1
  Y  Y14  1  0.539754  0.460246  0.250000  1
  Y  Y15  1  0.539754  0.079509  0.250000  1
  Y  Y16  1  0.920491  0.460246  0.250000  1
  Y  Y17  1  0.460246  0.539754  0.750000  1
  Y  Y18  1  0.460246  0.920491  0.750000  1
  Y  Y19  1  0.079509  0.539754  0.750000  1
  In  In20  1  0.884713  0.115287  0.250000  1
  In  In21  1  0.884713  0.769426  0.250000  1
  In  In22  1  0.230574  0.115287  0.250000  1
  In  In23  1  0.115287  0.884713  0.750000  1
  In  In24  1  0.115287  0.230574  0.750000  1
  In  In25  1  0.769426  0.884713  0.750000  1
  Ru  Ru26  1  0.333333  0.666667  0.250000  1
  Ru  Ru27  1  0.666667  0.333333  0.750000  1
