# generated using pymatgen
data_WBr3N
_symmetry_space_group_name_H-M   'P 1'
_cell_length_a   8.91748631
_cell_length_b   8.73465000
_cell_length_c   9.54022058
_cell_angle_alpha   98.72689186
_cell_angle_beta   106.41720341
_cell_angle_gamma   110.27389614
_symmetry_Int_Tables_number   1
_chemical_formula_structural   WBr3N
_chemical_formula_sum   'W4 Br12 N4'
_cell_volume   642.38888956
_cell_formula_units_Z   4
loop_
 _symmetry_equiv_pos_site_id
 _symmetry_equiv_pos_as_xyz
  1  'x, y, z'
loop_
 _atom_site_type_symbol
 _atom_site_label
 _atom_site_symmetry_multiplicity
 _atom_site_fract_x
 _atom_site_fract_y
 _atom_site_fract_z
 _atom_site_occupancy
  W  W0  1  0.008186  0.053253  0.237706  1
  W  W1  1  0.991814  0.946747  0.762294  1
  W  W2  1  0.891007  0.670244  0.382524  1
  W  W3  1  0.108993  0.329756  0.617476  1
  Br  Br4  1  0.299190  0.059555  0.302399  1
  Br  Br5  1  0.700810  0.940445  0.697601  1
  Br  Br6  1  0.937970  0.771813  0.944579  1
  Br  Br7  1  0.062030  0.228187  0.055421  1
  Br  Br8  1  0.695257  0.960810  0.122392  1
  Br  Br9  1  0.304743  0.039190  0.877608  1
  Br  Br10  1  0.180572  0.656095  0.470626  1
  Br  Br11  1  0.819428  0.343905  0.529374  1
  Br  Br12  1  0.788071  0.432909  0.154600  1
  Br  Br13  1  0.211929  0.567091  0.845400  1
  Br  Br14  1  0.593993  0.628779  0.348310  1
  Br  Br15  1  0.406007  0.371221  0.651690  1
  N  N16  1  0.051702  0.210090  0.399728  1
  N  N17  1  0.948298  0.789910  0.600272  1
  N  N18  1  0.949507  0.844174  0.309396  1
  N  N19  1  0.050493  0.155826  0.690604  1
