# generated using pymatgen
data_EuNbB6Ru
_symmetry_space_group_name_H-M   'P 1'
_cell_length_a   3.52377900
_cell_length_b   9.04651800
_cell_length_c   11.42445500
_cell_angle_alpha   90.00000000
_cell_angle_beta   90.00000000
_cell_angle_gamma   90.00000000
_symmetry_Int_Tables_number   1
_chemical_formula_structural   EuNbB6Ru
_chemical_formula_sum   'Eu4 Nb4 B24 Ru4'
_cell_volume   364.18797851
_cell_formula_units_Z   4
loop_
 _symmetry_equiv_pos_site_id
 _symmetry_equiv_pos_as_xyz
  1  'x, y, z'
loop_
 _atom_site_type_symbol
 _atom_site_label
 _atom_site_symmetry_multiplicity
 _atom_site_fract_x
 _atom_site_fract_y
 _atom_site_fract_z
 _atom_site_occupancy
  Eu  Eu0  1  0.000000  0.323231  0.414141  1
  Eu  Eu1  1  0.000000  0.676769  0.585859  1
  Eu  Eu2  1  0.000000  0.823231  0.085859  1
  Eu  Eu3  1  0.000000  0.176769  0.914141  1
  Nb  Nb4  1  0.000000  0.947160  0.375967  1
  Nb  Nb5  1  0.000000  0.052840  0.624033  1
  Nb  Nb6  1  0.000000  0.447160  0.124033  1
  Nb  Nb7  1  0.000000  0.552840  0.875967  1
  B  B8  1  0.500000  0.556084  0.431902  1
  B  B9  1  0.500000  0.443916  0.568098  1
  B  B10  1  0.500000  0.056084  0.068098  1
  B  B11  1  0.500000  0.943916  0.931902  1
  B  B12  1  0.500000  0.755222  0.417025  1
  B  B13  1  0.500000  0.244778  0.582975  1
  B  B14  1  0.500000  0.255222  0.082975  1
  B  B15  1  0.500000  0.744778  0.917025  1
  B  B16  1  0.500000  0.798756  0.263656  1
  B  B17  1  0.500000  0.201244  0.736344  1
  B  B18  1  0.500000  0.298756  0.236344  1
  B  B19  1  0.500000  0.701244  0.763656  1
  B  B20  1  0.500000  0.630069  0.181227  1
  B  B21  1  0.500000  0.369931  0.818773  1
  B  B22  1  0.500000  0.130069  0.318773  1
  B  B23  1  0.500000  0.869931  0.681227  1
  B  B24  1  0.500000  0.983417  0.214529  1
  B  B25  1  0.500000  0.016583  0.785471  1
  B  B26  1  0.500000  0.483417  0.285471  1
  B  B27  1  0.500000  0.516583  0.714529  1
  B  B28  1  0.500000  0.598581  0.025967  1
  B  B29  1  0.500000  0.401419  0.974033  1
  B  B30  1  0.500000  0.098581  0.474033  1
  B  B31  1  0.500000  0.901419  0.525967  1
  Ru  Ru32  1  0.000000  0.645318  0.316757  1
  Ru  Ru33  1  0.000000  0.354682  0.683243  1
  Ru  Ru34  1  0.000000  0.145318  0.183243  1
  Ru  Ru35  1  0.000000  0.854682  0.816757  1
