# generated using pymatgen
data_Th8Si8Ir7Pd
_symmetry_space_group_name_H-M   'P 1'
_cell_length_a   5.87463331
_cell_length_b   7.76493123
_cell_length_c   10.81812926
_cell_angle_alpha   88.29489883
_cell_angle_beta   90.06653758
_cell_angle_gamma   89.89850309
_symmetry_Int_Tables_number   1
_chemical_formula_structural   Th8Si8Ir7Pd
_chemical_formula_sum   'Th8 Si8 Ir7 Pd1'
_cell_volume   493.26147834
_cell_formula_units_Z   1
loop_
 _symmetry_equiv_pos_site_id
 _symmetry_equiv_pos_as_xyz
  1  'x, y, z'
loop_
 _atom_site_type_symbol
 _atom_site_label
 _atom_site_symmetry_multiplicity
 _atom_site_fract_x
 _atom_site_fract_y
 _atom_site_fract_z
 _atom_site_occupancy
  Th  Th0  1  0.354065  0.967053  0.141295  1
  Th  Th1  1  0.643868  0.026892  0.861402  1
  Th  Th2  1  0.856474  0.536954  0.860549  1
  Th  Th3  1  0.147051  0.466423  0.142476  1
  Th  Th4  1  0.872382  0.826880  0.370347  1
  Th  Th5  1  0.124621  0.168453  0.629287  1
  Th  Th6  1  0.369089  0.680226  0.629337  1
  Th  Th7  1  0.630040  0.326203  0.366881  1
  Si  Si8  1  0.873260  0.535626  0.579105  1
  Si  Si9  1  0.134379  0.464363  0.423288  1
  Si  Si10  1  0.370737  0.965848  0.419344  1
  Si  Si11  1  0.622823  0.030947  0.581060  1
  Si  Si12  1  0.642151  0.623046  0.143844  1
  Si  Si13  1  0.355662  0.377799  0.857895  1
  Si  Si14  1  0.142181  0.878826  0.856073  1
  Si  Si15  1  0.858875  0.122936  0.142963  1
  Ir  Ir16  1  0.906692  0.833963  0.054023  1
  Ir  Ir17  1  0.092404  0.166035  0.945613  1
  Ir  Ir18  1  0.406868  0.666713  0.946066  1
  Ir  Ir19  1  0.597209  0.335655  0.052357  1
  Ir  Ir20  1  0.897137  0.823981  0.669325  1
  Ir  Ir21  1  0.099911  0.176196  0.330909  1
  Ir  Ir22  1  0.400043  0.674489  0.331313  1
  Pd  Pd23  1  0.602075  0.324496  0.665247  1
