# generated using pymatgen
data_Eu5TcMoO12
_symmetry_space_group_name_H-M   'P 1'
_cell_length_a   7.00454391
_cell_length_b   7.00454294
_cell_length_c   7.82522480
_cell_angle_alpha   73.62951285
_cell_angle_beta   73.62951684
_cell_angle_gamma   49.67638390
_symmetry_Int_Tables_number   1
_chemical_formula_structural   Eu5TcMoO12
_chemical_formula_sum   'Eu5 Tc1 Mo1 O12'
_cell_volume   278.23681305
_cell_formula_units_Z   1
loop_
 _symmetry_equiv_pos_site_id
 _symmetry_equiv_pos_as_xyz
  1  'x, y, z'
loop_
 _atom_site_type_symbol
 _atom_site_label
 _atom_site_symmetry_multiplicity
 _atom_site_fract_x
 _atom_site_fract_y
 _atom_site_fract_z
 _atom_site_occupancy
  Eu  Eu0  1  0.307003  0.305405  0.365067  1
  Eu  Eu1  1  0.694595  0.692997  0.634933  1
  Eu  Eu2  1  0.317229  0.313282  0.819793  1
  Eu  Eu3  1  0.686718  0.682771  0.180207  1
  Eu  Eu4  1  0.000053  0.999947  0.500000  1
  Tc  Tc5  1  0.765683  0.234317  0.000000  1
  Mo  Mo6  1  0.213619  0.786381  0.000000  1
  O  O7  1  0.906836  0.402966  0.923888  1
  O  O8  1  0.413139  0.899325  0.923962  1
  O  O9  1  0.100675  0.586861  0.076038  1
  O  O10  1  0.597034  0.093164  0.076112  1
  O  O11  1  0.097291  0.592873  0.577581  1
  O  O12  1  0.595698  0.095534  0.576381  1
  O  O13  1  0.904466  0.404302  0.423619  1
  O  O14  1  0.407127  0.902709  0.422419  1
  O  O15  1  0.999673  0.002912  0.807042  1
  O  O16  1  0.997088  0.000327  0.192958  1
  O  O17  1  0.499109  0.503035  0.831218  1
  O  O18  1  0.496965  0.500891  0.168782  1
