# generated using pymatgen
data_DyUP7Ru12
_symmetry_space_group_name_H-M   'P 1'
_cell_length_a   9.46703762
_cell_length_b   9.46541094
_cell_length_c   3.89734900
_cell_angle_alpha   90.00000000
_cell_angle_beta   90.00000000
_cell_angle_gamma   119.99213592
_symmetry_Int_Tables_number   1
_chemical_formula_structural   DyUP7Ru12
_chemical_formula_sum   'Dy1 U1 P7 Ru12'
_cell_volume   302.47390655
_cell_formula_units_Z   1
loop_
 _symmetry_equiv_pos_site_id
 _symmetry_equiv_pos_as_xyz
  1  'x, y, z'
loop_
 _atom_site_type_symbol
 _atom_site_label
 _atom_site_symmetry_multiplicity
 _atom_site_fract_x
 _atom_site_fract_y
 _atom_site_fract_z
 _atom_site_occupancy
  Dy  Dy0  1  0.333342  0.666639  0.000000  1
  U  U1  1  0.666674  0.333344  0.500000  1
  P  P2  1  0.596675  0.715218  0.500000  1
  P  P3  1  0.999988  0.999977  0.000000  1
  P  P4  1  0.284781  0.881427  0.500000  1
  P  P5  1  0.118548  0.403322  0.500000  1
  P  P6  1  0.891982  0.587957  0.000000  1
  P  P7  1  0.412067  0.304070  0.000000  1
  P  P8  1  0.695963  0.108023  0.000000  1
  Ru  Ru9  1  0.559415  0.951509  0.500000  1
  Ru  Ru10  1  0.392096  0.440519  0.500000  1
  Ru  Ru11  1  0.907006  0.127410  0.500000  1
  Ru  Ru12  1  0.220261  0.092920  0.500000  1
  Ru  Ru13  1  0.872673  0.779720  0.500000  1
  Ru  Ru14  1  0.727790  0.883317  0.000000  1
  Ru  Ru15  1  0.116768  0.844481  0.000000  1
  Ru  Ru16  1  0.155488  0.272218  0.000000  1
  Ru  Ru17  1  0.437171  0.075999  0.000000  1
  Ru  Ru18  1  0.923997  0.361180  0.000000  1
  Ru  Ru19  1  0.638818  0.562863  0.000000  1
  Ru  Ru20  1  0.048500  0.607887  0.500000  1
