# generated using pymatgen
data_Y15Tm5Cd6IrRu
_symmetry_space_group_name_H-M   'P 1'
_cell_length_a   9.61552800
_cell_length_b   9.61553238
_cell_length_c   9.81510700
_cell_angle_alpha   89.99999112
_cell_angle_beta   90.00001180
_cell_angle_gamma   119.99999777
_symmetry_Int_Tables_number   1
_chemical_formula_structural   Y15Tm5Cd6IrRu
_chemical_formula_sum   'Y15 Tm5 Cd6 Ir1 Ru1'
_cell_volume   785.90879962
_cell_formula_units_Z   1
loop_
 _symmetry_equiv_pos_site_id
 _symmetry_equiv_pos_as_xyz
  1  'x, y, z'
loop_
 _atom_site_type_symbol
 _atom_site_label
 _atom_site_symmetry_multiplicity
 _atom_site_fract_x
 _atom_site_fract_y
 _atom_site_fract_z
 _atom_site_occupancy
  Y  Y0  1  0.791530  0.208470  0.559650  1
  Y  Y1  1  0.791529  0.583058  0.559650  1
  Y  Y2  1  0.416941  0.208471  0.559651  1
  Y  Y3  1  0.791198  0.208803  0.939743  1
  Y  Y4  1  0.791197  0.582393  0.939743  1
  Y  Y5  1  0.417607  0.208803  0.939743  1
  Y  Y6  1  0.208589  0.791409  0.060468  1
  Y  Y7  1  0.208590  0.417180  0.060467  1
  Y  Y8  1  0.582819  0.791409  0.060467  1
  Y  Y9  1  0.540492  0.459509  0.251362  1
  Y  Y10  1  0.540491  0.080983  0.251362  1
  Y  Y11  1  0.919016  0.459508  0.251362  1
  Y  Y12  1  0.458584  0.541417  0.748316  1
  Y  Y13  1  0.458583  0.917166  0.748316  1
  Y  Y14  1  0.082834  0.541417  0.748315  1
  Tm  Tm15  1  0.000000  0.000000  0.498336  1
  Tm  Tm16  1  0.000000  0.000000  0.000173  1
  Tm  Tm17  1  0.209977  0.790024  0.440371  1
  Tm  Tm18  1  0.209977  0.419953  0.440370  1
  Tm  Tm19  1  0.580048  0.790024  0.440370  1
  Cd  Cd20  1  0.886304  0.113696  0.250121  1
  Cd  Cd21  1  0.886304  0.772608  0.250121  1
  Cd  Cd22  1  0.227392  0.113696  0.250121  1
  Cd  Cd23  1  0.113833  0.886166  0.749453  1
  Cd  Cd24  1  0.113834  0.227667  0.749453  1
  Cd  Cd25  1  0.772334  0.886166  0.749453  1
  Ir  Ir26  1  0.333333  0.666666  0.253377  1
  Ru  Ru27  1  0.666668  0.333333  0.749665  1
