# generated using pymatgen
data_Ho9Mg(BiPt2)2
_symmetry_space_group_name_H-M   'P 1'
_cell_length_a   8.80725387
_cell_length_b   8.80725331
_cell_length_c   8.80725296
_cell_angle_alpha   127.86363330
_cell_angle_beta   127.86363090
_cell_angle_gamma   76.84604925
_symmetry_Int_Tables_number   1
_chemical_formula_structural   Ho9Mg(BiPt2)2
_chemical_formula_sum   'Ho9 Mg1 Bi2 Pt4'
_cell_volume   413.41794898
_cell_formula_units_Z   1
loop_
 _symmetry_equiv_pos_site_id
 _symmetry_equiv_pos_as_xyz
  1  'x, y, z'
loop_
 _atom_site_type_symbol
 _atom_site_label
 _atom_site_symmetry_multiplicity
 _atom_site_fract_x
 _atom_site_fract_y
 _atom_site_fract_z
 _atom_site_occupancy
  Ho  Ho0  1  0.500000  0.500000  0.000000  1
  Ho  Ho1  1  0.800718  0.284137  0.819793  1
  Ho  Ho2  1  0.199282  0.715863  0.180207  1
  Ho  Ho3  1  0.464345  0.980926  0.180207  1
  Ho  Ho4  1  0.284137  0.464345  0.483419  1
  Ho  Ho5  1  0.019074  0.199282  0.483419  1
  Ho  Ho6  1  0.535655  0.019074  0.819793  1
  Ho  Ho7  1  0.715863  0.535655  0.516581  1
  Ho  Ho8  1  0.980926  0.800718  0.516581  1
  Mg  Mg9  1  0.000000  0.000000  0.000000  1
  Bi  Bi10  1  0.257686  0.257686  0.000000  1
  Bi  Bi11  1  0.742314  0.742314  0.000000  1
  Pt  Pt12  1  0.139252  0.633903  0.773155  1
  Pt  Pt13  1  0.860748  0.366097  0.226845  1
  Pt  Pt14  1  0.633903  0.860748  0.494652  1
  Pt  Pt15  1  0.366097  0.139252  0.505348  1
