# generated using pymatgen
data_Ac10CoOsI15
_symmetry_space_group_name_H-M   'P 1'
_cell_length_a   10.53259806
_cell_length_b   11.57513195
_cell_length_c   12.39871399
_cell_angle_alpha   92.59813771
_cell_angle_beta   113.97524136
_cell_angle_gamma   110.46142310
_symmetry_Int_Tables_number   1
_chemical_formula_structural   Ac10CoOsI15
_chemical_formula_sum   'Ac10 Co1 Os1 I15'
_cell_volume   1262.66414997
_cell_formula_units_Z   1
loop_
 _symmetry_equiv_pos_site_id
 _symmetry_equiv_pos_as_xyz
  1  'x, y, z'
loop_
 _atom_site_type_symbol
 _atom_site_label
 _atom_site_symmetry_multiplicity
 _atom_site_fract_x
 _atom_site_fract_y
 _atom_site_fract_z
 _atom_site_occupancy
  Ac  Ac0  1  0.218384  0.575186  0.046472  1
  Ac  Ac1  1  0.780337  0.427258  0.954406  1
  Ac  Ac2  1  0.296275  0.895601  0.265978  1
  Ac  Ac3  1  0.702521  0.100940  0.731775  1
  Ac  Ac4  1  0.093090  0.545586  0.330613  1
  Ac  Ac5  1  0.903993  0.454696  0.664117  1
  Ac  Ac6  1  0.836852  0.747271  0.176078  1
  Ac  Ac7  1  0.166388  0.253000  0.823232  1
  Ac  Ac8  1  0.973232  0.789391  0.900638  1
  Ac  Ac9  1  0.026903  0.207576  0.102121  1
  Co  Co10  1  0.033867  0.673796  0.119669  1
  Os  Os11  1  0.966844  0.330486  0.882915  1
  I  I12  1  0.347265  0.444160  0.304543  1
  I  I13  1  0.651916  0.555808  0.696031  1
  I  I14  1  0.212098  0.737552  0.810912  1
  I  I15  1  0.786162  0.262207  0.187879  1
  I  I16  1  0.140360  0.387794  0.582127  1
  I  I17  1  0.860161  0.613879  0.416765  1
  I  I18  1  0.391985  0.804898  0.529788  1
  I  I19  1  0.604450  0.192799  0.468689  1
  I  I20  1  0.260360  0.086340  0.053537  1
  I  I21  1  0.739521  0.912815  0.946414  1
  I  I22  1  0.568439  0.840264  0.225097  1
  I  I23  1  0.435386  0.159853  0.776213  1
  I  I24  1  0.096870  0.036639  0.334051  1
  I  I25  1  0.907039  0.962857  0.668190  1
  I  I26  1  0.499304  0.501349  0.001749  1
