# generated using pymatgen
data_HoSi5P(Pd10Pb)2
_symmetry_space_group_name_H-M   'P 1'
_cell_length_a   8.73159342
_cell_length_b   8.73159332
_cell_length_c   8.71641000
_cell_angle_alpha   60.05749793
_cell_angle_beta   60.05749832
_cell_angle_gamma   59.88499032
_symmetry_Int_Tables_number   1
_chemical_formula_structural   HoSi5P(Pd10Pb)2
_chemical_formula_sum   'Ho1 Si5 P1 Pd20 Pb2'
_cell_volume   469.90167316
_cell_formula_units_Z   1
loop_
 _symmetry_equiv_pos_site_id
 _symmetry_equiv_pos_as_xyz
  1  'x, y, z'
loop_
 _atom_site_type_symbol
 _atom_site_label
 _atom_site_symmetry_multiplicity
 _atom_site_fract_x
 _atom_site_fract_y
 _atom_site_fract_z
 _atom_site_occupancy
  Ho  Ho0  1  0.000505  0.000505  0.999495  1
  Si  Si1  1  0.730747  0.268106  0.269253  1
  Si  Si2  1  0.268106  0.730747  0.731894  1
  Si  Si3  1  0.268106  0.730747  0.269253  1
  Si  Si4  1  0.730747  0.268106  0.731894  1
  Si  Si5  1  0.268932  0.268932  0.731068  1
  P  P6  1  0.732775  0.732775  0.267225  1
  Pd  Pd7  1  0.383765  0.383765  0.383421  1
  Pd  Pd8  1  0.616192  0.616192  0.614502  1
  Pd  Pd9  1  0.383765  0.383765  0.849049  1
  Pd  Pd10  1  0.385498  0.846887  0.383808  1
  Pd  Pd11  1  0.616192  0.616192  0.153113  1
  Pd  Pd12  1  0.616579  0.150951  0.616235  1
  Pd  Pd13  1  0.846887  0.385498  0.383808  1
  Pd  Pd14  1  0.150951  0.616579  0.616235  1
  Pd  Pd15  1  0.343047  0.999669  0.000331  1
  Pd  Pd16  1  0.656923  0.999202  0.000798  1
  Pd  Pd17  1  0.999669  0.343047  0.656953  1
  Pd  Pd18  1  0.999202  0.656923  0.343077  1
  Pd  Pd19  1  0.999669  0.343047  0.000331  1
  Pd  Pd20  1  0.656923  0.999202  0.343077  1
  Pd  Pd21  1  0.999202  0.656923  0.000798  1
  Pd  Pd22  1  0.343047  0.999669  0.656953  1
  Pd  Pd23  1  0.000913  0.000913  0.342786  1
  Pd  Pd24  1  0.000913  0.000913  0.655387  1
  Pd  Pd25  1  0.657214  0.344613  0.999087  1
  Pd  Pd26  1  0.344613  0.657214  0.999087  1
  Pb  Pb27  1  0.249459  0.249459  0.250541  1
  Pb  Pb28  1  0.749459  0.749459  0.750541  1
