# generated using pymatgen
data_Y3LuCdPd
_symmetry_space_group_name_H-M   'P 1'
_cell_length_a   9.67476006
_cell_length_b   9.67476054
_cell_length_c   9.67476100
_cell_angle_alpha   60.00000185
_cell_angle_beta   60.00000019
_cell_angle_gamma   59.99999982
_symmetry_Int_Tables_number   1
_chemical_formula_structural   Y3LuCdPd
_chemical_formula_sum   'Y12 Lu4 Cd4 Pd4'
_cell_volume   640.33270074
_cell_formula_units_Z   4
loop_
 _symmetry_equiv_pos_site_id
 _symmetry_equiv_pos_as_xyz
  1  'x, y, z'
loop_
 _atom_site_type_symbol
 _atom_site_label
 _atom_site_symmetry_multiplicity
 _atom_site_fract_x
 _atom_site_fract_y
 _atom_site_fract_z
 _atom_site_occupancy
  Y  Y0  1  0.810207  0.189793  0.189793  1
  Y  Y1  1  0.189793  0.810207  0.810207  1
  Y  Y2  1  0.189793  0.810207  0.189793  1
  Y  Y3  1  0.810207  0.189793  0.810207  1
  Y  Y4  1  0.189793  0.189793  0.810207  1
  Y  Y5  1  0.810207  0.810207  0.189793  1
  Y  Y6  1  0.934491  0.565509  0.565509  1
  Y  Y7  1  0.565509  0.934491  0.934491  1
  Y  Y8  1  0.565509  0.934491  0.565509  1
  Y  Y9  1  0.934491  0.565509  0.934491  1
  Y  Y10  1  0.565509  0.565509  0.934491  1
  Y  Y11  1  0.934491  0.934491  0.565509  1
  Lu  Lu12  1  0.353096  0.353096  0.353096  1
  Lu  Lu13  1  0.353096  0.353096  0.940713  1
  Lu  Lu14  1  0.353096  0.940713  0.353096  1
  Lu  Lu15  1  0.940713  0.353096  0.353096  1
  Cd  Cd16  1  0.581830  0.581830  0.581830  1
  Cd  Cd17  1  0.581830  0.581830  0.254511  1
  Cd  Cd18  1  0.581830  0.254511  0.581830  1
  Cd  Cd19  1  0.254511  0.581830  0.581830  1
  Pd  Pd20  1  0.146967  0.146967  0.146967  1
  Pd  Pd21  1  0.146967  0.146967  0.559098  1
  Pd  Pd22  1  0.146967  0.559098  0.146967  1
  Pd  Pd23  1  0.559098  0.146967  0.146967  1
