# generated using pymatgen
data_Rb2AsCl3F2
_symmetry_space_group_name_H-M   'P 1'
_cell_length_a   7.48659961
_cell_length_b   7.49120552
_cell_length_c   13.13447972
_cell_angle_alpha   84.46986734
_cell_angle_beta   78.97575601
_cell_angle_gamma   60.42232795
_symmetry_Int_Tables_number   1
_chemical_formula_structural   Rb2AsCl3F2
_chemical_formula_sum   'Rb6 As3 Cl9 F6'
_cell_volume   628.81369817
_cell_formula_units_Z   3
loop_
 _symmetry_equiv_pos_site_id
 _symmetry_equiv_pos_as_xyz
  1  'x, y, z'
loop_
 _atom_site_type_symbol
 _atom_site_label
 _atom_site_symmetry_multiplicity
 _atom_site_fract_x
 _atom_site_fract_y
 _atom_site_fract_z
 _atom_site_occupancy
  Rb  Rb0  1  0.305550  0.332244  0.088498  1
  Rb  Rb1  1  0.436023  0.336354  0.689005  1
  Rb  Rb2  1  0.103666  0.000144  0.679749  1
  Rb  Rb3  1  0.694450  0.667756  0.911502  1
  Rb  Rb4  1  0.563977  0.663646  0.310995  1
  Rb  Rb5  1  0.896334  0.999856  0.320251  1
  As  As6  1  0.203305  0.333413  0.391766  1
  As  As7  1  0.796695  0.666587  0.608234  1
  As  As8  1  0.000000  0.000000  0.000000  1
  Cl  Cl9  1  0.275987  0.794684  0.112306  1
  Cl  Cl10  1  0.177565  0.671494  0.498792  1
  Cl  Cl11  1  0.822435  0.328506  0.501208  1
  Cl  Cl12  1  0.856601  0.314180  0.111426  1
  Cl  Cl13  1  0.245726  0.106167  0.886966  1
  Cl  Cl14  1  0.724013  0.205316  0.887694  1
  Cl  Cl15  1  0.500000  0.000000  0.500000  1
  Cl  Cl16  1  0.754274  0.893833  0.113034  1
  Cl  Cl17  1  0.143399  0.685820  0.888574  1
  F  F18  1  0.572824  0.662572  0.692687  1
  F  F19  1  0.770096  0.864560  0.691692  1
  F  F20  1  0.027424  0.533796  0.310673  1
  F  F21  1  0.972576  0.466204  0.689327  1
  F  F22  1  0.229904  0.135440  0.308308  1
  F  F23  1  0.427176  0.337428  0.307313  1
