# generated using pymatgen
data_Y3Ho7In8(PdRh)2
_symmetry_space_group_name_H-M   'P 1'
_cell_length_a   3.61343300
_cell_length_b   8.12459134
_cell_length_c   18.26493532
_cell_angle_alpha   89.94410758
_cell_angle_beta   90.00000000
_cell_angle_gamma   90.00000000
_symmetry_Int_Tables_number   1
_chemical_formula_structural   Y3Ho7In8(PdRh)2
_chemical_formula_sum   'Y3 Ho7 In8 Pd2 Rh2'
_cell_volume   536.21562359
_cell_formula_units_Z   1
loop_
 _symmetry_equiv_pos_site_id
 _symmetry_equiv_pos_as_xyz
  1  'x, y, z'
loop_
 _atom_site_type_symbol
 _atom_site_label
 _atom_site_symmetry_multiplicity
 _atom_site_fract_x
 _atom_site_fract_y
 _atom_site_fract_z
 _atom_site_occupancy
  Y  Y0  1  0.000000  0.499963  0.500017  1
  Y  Y1  1  0.000000  0.000010  0.999990  1
  Y  Y2  1  0.000000  0.731625  0.278385  1
  Ho  Ho3  1  0.000000  0.268566  0.721955  1
  Ho  Ho4  1  0.000000  0.748127  0.780122  1
  Ho  Ho5  1  0.000000  0.251831  0.219858  1
  Ho  Ho6  1  0.000000  0.613475  0.086731  1
  Ho  Ho7  1  0.000000  0.386434  0.913185  1
  Ho  Ho8  1  0.000000  0.884369  0.584304  1
  Ho  Ho9  1  0.000000  0.115669  0.415721  1
  In  In10  1  0.500000  0.709223  0.931443  1
  In  In11  1  0.500000  0.290668  0.068559  1
  In  In12  1  0.500000  0.790838  0.431755  1
  In  In13  1  0.500000  0.209271  0.568378  1
  In  In14  1  0.500000  0.578768  0.649702  1
  In  In15  1  0.500000  0.420923  0.350329  1
  In  In16  1  0.500000  0.920486  0.149885  1
  In  In17  1  0.500000  0.079662  0.850025  1
  Pd  Pd18  1  0.500000  0.978500  0.696105  1
  Pd  Pd19  1  0.500000  0.022646  0.303985  1
  Rh  Rh20  1  0.500000  0.520536  0.194740  1
  Rh  Rh21  1  0.500000  0.478410  0.804826  1
