# generated using pymatgen
data_Ba7Eu(SiO4)4
_symmetry_space_group_name_H-M   'P 1'
_cell_length_a   5.84558400
_cell_length_b   10.28338415
_cell_length_c   7.57167323
_cell_angle_alpha   90.19704946
_cell_angle_beta   90.00000000
_cell_angle_gamma   90.00000000
_symmetry_Int_Tables_number   1
_chemical_formula_structural   Ba7Eu(SiO4)4
_chemical_formula_sum   'Ba7 Eu1 Si4 O16'
_cell_volume   455.14865128
_cell_formula_units_Z   1
loop_
 _symmetry_equiv_pos_site_id
 _symmetry_equiv_pos_as_xyz
  1  'x, y, z'
loop_
 _atom_site_type_symbol
 _atom_site_label
 _atom_site_symmetry_multiplicity
 _atom_site_fract_x
 _atom_site_fract_y
 _atom_site_fract_z
 _atom_site_occupancy
  Ba  Ba0  1  0.249999  0.091716  0.164259  1
  Ba  Ba1  1  0.750000  0.580949  0.335913  1
  Ba  Ba2  1  0.249999  0.806360  0.490834  1
  Ba  Ba3  1  0.750000  0.195177  0.508624  1
  Ba  Ba4  1  0.249999  0.412700  0.661661  1
  Ba  Ba5  1  0.750000  0.919501  0.841982  1
  Ba  Ba6  1  0.249999  0.694232  0.990171  1
  Eu  Eu7  1  0.750000  0.303291  0.005915  1
  Si  Si8  1  0.249999  0.419546  0.219474  1
  Si  Si9  1  0.750000  0.923765  0.270098  1
  Si  Si10  1  0.249999  0.083731  0.736249  1
  Si  Si11  1  0.750000  0.573295  0.775137  1
  O  O12  1  0.249999  0.419474  0.003015  1
  O  O13  1  0.518409  0.852301  0.191530  1
  O  O14  1  0.981592  0.852301  0.191530  1
  O  O15  1  0.750000  0.075175  0.191256  1
  O  O16  1  0.249999  0.569033  0.304961  1
  O  O17  1  0.015751  0.346292  0.291779  1
  O  O18  1  0.484250  0.346292  0.291779  1
  O  O19  1  0.750000  0.919988  0.487552  1
  O  O20  1  0.249999  0.094515  0.519790  1
  O  O21  1  0.519430  0.643318  0.692054  1
  O  O22  1  0.980571  0.643318  0.692054  1
  O  O23  1  0.750000  0.418882  0.707158  1
  O  O24  1  0.249999  0.930015  0.804361  1
  O  O25  1  0.017533  0.152911  0.819499  1
  O  O26  1  0.482468  0.152911  0.819499  1
  O  O27  1  0.750000  0.579011  0.991864  1
