# generated using pymatgen
data_Sr3AgBi2H
_symmetry_space_group_name_H-M   'P 1'
_cell_length_a   4.83657900
_cell_length_b   13.10170500
_cell_length_c   13.37544700
_cell_angle_alpha   90.00000000
_cell_angle_beta   90.00000000
_cell_angle_gamma   90.00000000
_symmetry_Int_Tables_number   1
_chemical_formula_structural   Sr3AgBi2H
_chemical_formula_sum   'Sr12 Ag4 Bi8 H4'
_cell_volume   847.56771844
_cell_formula_units_Z   4
loop_
 _symmetry_equiv_pos_site_id
 _symmetry_equiv_pos_as_xyz
  1  'x, y, z'
loop_
 _atom_site_type_symbol
 _atom_site_label
 _atom_site_symmetry_multiplicity
 _atom_site_fract_x
 _atom_site_fract_y
 _atom_site_fract_z
 _atom_site_occupancy
  Sr  Sr0  1  0.250000  0.066809  0.626512  1
  Sr  Sr1  1  0.250000  0.566809  0.873488  1
  Sr  Sr2  1  0.750000  0.933191  0.373488  1
  Sr  Sr3  1  0.750000  0.433191  0.126512  1
  Sr  Sr4  1  0.250000  0.365419  0.558465  1
  Sr  Sr5  1  0.250000  0.865419  0.941535  1
  Sr  Sr6  1  0.750000  0.634581  0.441535  1
  Sr  Sr7  1  0.750000  0.134581  0.058465  1
  Sr  Sr8  1  0.250000  0.221545  0.289155  1
  Sr  Sr9  1  0.250000  0.721545  0.210845  1
  Sr  Sr10  1  0.750000  0.778455  0.710845  1
  Sr  Sr11  1  0.750000  0.278455  0.789155  1
  Ag  Ag12  1  0.250000  0.124560  0.875900  1
  Ag  Ag13  1  0.250000  0.624560  0.624100  1
  Ag  Ag14  1  0.750000  0.875440  0.124100  1
  Ag  Ag15  1  0.750000  0.375440  0.375900  1
  Bi  Bi16  1  0.250000  0.486161  0.316888  1
  Bi  Bi17  1  0.250000  0.986161  0.183112  1
  Bi  Bi18  1  0.750000  0.513839  0.683112  1
  Bi  Bi19  1  0.750000  0.013839  0.816888  1
  Bi  Bi20  1  0.250000  0.316823  0.987092  1
  Bi  Bi21  1  0.250000  0.816823  0.512908  1
  Bi  Bi22  1  0.750000  0.683177  0.012908  1
  Bi  Bi23  1  0.750000  0.183177  0.487092  1
  H  H24  1  0.250000  0.246916  0.708292  1
  H  H25  1  0.250000  0.746916  0.791708  1
  H  H26  1  0.750000  0.753084  0.291708  1
  H  H27  1  0.750000  0.253084  0.208292  1
