# generated using pymatgen
data_Cs2FeCoSeS3
_symmetry_space_group_name_H-M   'P 1'
_cell_length_a   7.64254927
_cell_length_b   7.64254873
_cell_length_c   7.64883522
_cell_angle_alpha   139.14027463
_cell_angle_beta   123.71637952
_cell_angle_gamma   71.79157929
_symmetry_Int_Tables_number   1
_chemical_formula_structural   Cs2FeCoSeS3
_chemical_formula_sum   'Cs2 Fe1 Co1 Se1 S3'
_cell_volume   238.33449956
_cell_formula_units_Z   1
loop_
 _symmetry_equiv_pos_site_id
 _symmetry_equiv_pos_as_xyz
  1  'x, y, z'
loop_
 _atom_site_type_symbol
 _atom_site_label
 _atom_site_symmetry_multiplicity
 _atom_site_fract_x
 _atom_site_fract_y
 _atom_site_fract_z
 _atom_site_occupancy
  Cs  Cs0  1  0.327560  0.826796  0.501300  1
  Cs  Cs1  1  0.674503  0.173739  0.501300  1
  Fe  Fe2  1  0.995527  0.247660  0.243187  1
  Co  Co3  1  0.993619  0.752120  0.745739  1
  Se  Se4  1  0.258881  0.498994  0.757875  1
  S  S5  1  0.757669  0.499825  0.257495  1
  S  S6  1  0.137734  0.142046  0.996552  1
  S  S7  1  0.854506  0.858819  0.996552  1
