# generated using pymatgen
data_Er3Np(BRu)16
_symmetry_space_group_name_H-M   'P 1'
_cell_length_a   9.19040085
_cell_length_b   7.46139335
_cell_length_c   7.46139308
_cell_angle_alpha   90.15791310
_cell_angle_beta   113.87954592
_cell_angle_gamma   113.87954406
_symmetry_Int_Tables_number   1
_chemical_formula_structural   Er3Np(BRu)16
_chemical_formula_sum   'Er3 Np1 B16 Ru16'
_cell_volume   419.22297172
_cell_formula_units_Z   1
loop_
 _symmetry_equiv_pos_site_id
 _symmetry_equiv_pos_as_xyz
  1  'x, y, z'
loop_
 _atom_site_type_symbol
 _atom_site_label
 _atom_site_symmetry_multiplicity
 _atom_site_fract_x
 _atom_site_fract_y
 _atom_site_fract_z
 _atom_site_occupancy
  Er  Er0  1  0.250000  0.625000  0.375000  1
  Er  Er1  1  0.750000  0.375000  0.625000  1
  Er  Er2  1  0.250000  0.125000  0.875001  1
  Np  Np3  1  0.750000  0.875000  0.125000  1
  B  B4  1  0.917869  0.291538  0.070679  1
  B  B5  1  0.410499  0.565401  0.124392  1
  B  B6  1  0.089501  0.213893  0.154901  1
  B  B7  1  0.584569  0.150965  0.211988  1
  B  B8  1  0.413400  0.066080  0.290427  1
  B  B9  1  0.917869  0.626331  0.347191  1
  B  B10  1  0.582131  0.652809  0.373669  1
  B  B11  1  0.089501  0.875607  0.434598  1
  B  B12  1  0.915431  0.127419  0.566396  1
  B  B13  1  0.413400  0.347320  0.622974  1
  B  B14  1  0.086600  0.377027  0.652679  1
  B  B15  1  0.582131  0.929322  0.708463  1
  B  B16  1  0.410499  0.845099  0.786107  1
  B  B17  1  0.915431  0.788012  0.849035  1
  B  B18  1  0.584569  0.433604  0.872581  1
  B  B19  1  0.086600  0.709574  0.933921  1
  Ru  Ru20  1  0.869765  0.550888  0.035258  1
  Ru  Ru21  1  0.376072  0.835163  0.052000  1
  Ru  Ru22  1  0.123928  0.948000  0.164838  1
  Ru  Ru23  1  0.628721  0.472419  0.177207  1
  Ru  Ru24  1  0.375231  0.334934  0.322604  1
  Ru  Ru25  1  0.869765  0.318877  0.334507  1
  Ru  Ru26  1  0.630235  0.964742  0.449112  1
  Ru  Ru27  1  0.123928  0.175928  0.459090  1
  Ru  Ru28  1  0.871279  0.822794  0.527581  1
  Ru  Ru29  1  0.375231  0.040297  0.552627  1
  Ru  Ru30  1  0.124769  0.677395  0.665065  1
  Ru  Ru31  1  0.630235  0.665493  0.681123  1
  Ru  Ru32  1  0.376072  0.540911  0.824073  1
  Ru  Ru33  1  0.871279  0.048485  0.843699  1
  Ru  Ru34  1  0.628721  0.156302  0.951515  1
  Ru  Ru35  1  0.124769  0.447374  0.959704  1
