# generated using pymatgen
data_Sm2GdNCl6
_symmetry_space_group_name_H-M   'P 1'
_cell_length_a   7.21501739
_cell_length_b   8.29809279
_cell_length_c   9.97781752
_cell_angle_alpha   75.17502393
_cell_angle_beta   71.12503325
_cell_angle_gamma   65.36153152
_symmetry_Int_Tables_number   1
_chemical_formula_structural   Sm2GdNCl6
_chemical_formula_sum   'Sm4 Gd2 N2 Cl12'
_cell_volume   508.68450998
_cell_formula_units_Z   2
loop_
 _symmetry_equiv_pos_site_id
 _symmetry_equiv_pos_as_xyz
  1  'x, y, z'
loop_
 _atom_site_type_symbol
 _atom_site_label
 _atom_site_symmetry_multiplicity
 _atom_site_fract_x
 _atom_site_fract_y
 _atom_site_fract_z
 _atom_site_occupancy
  Sm  Sm0  1  0.590351  0.087511  0.683058  1
  Sm  Sm1  1  0.719067  0.430721  0.775832  1
  Sm  Sm2  1  0.258374  0.584799  0.624410  1
  Sm  Sm3  1  0.281906  0.567061  0.222623  1
  Gd  Gd4  1  0.410359  0.908497  0.315235  1
  Gd  Gd5  1  0.735942  0.419711  0.376347  1
  N  N6  1  0.409649  0.631930  0.377893  1
  N  N7  1  0.593723  0.369934  0.618576  1
  Cl  Cl8  1  0.306216  0.582575  0.907043  1
  Cl  Cl9  1  0.288144  0.894351  0.093764  1
  Cl  Cl10  1  0.003609  0.995710  0.500055  1
  Cl  Cl11  1  0.824426  0.718415  0.795497  1
  Cl  Cl12  1  0.167511  0.261890  0.787700  1
  Cl  Cl13  1  0.713238  0.105633  0.907074  1
  Cl  Cl14  1  0.533654  0.180698  0.396781  1
  Cl  Cl15  1  0.171378  0.280714  0.209441  1
  Cl  Cl16  1  0.467587  0.821894  0.601578  1
  Cl  Cl17  1  0.693871  0.418173  0.093648  1
  Cl  Cl18  1  0.829844  0.738887  0.213833  1
  Cl  Cl19  1  0.001150  0.500895  0.499612  1
