# generated using pymatgen
data_Hf2Zr2Nb4SiP3
_symmetry_space_group_name_H-M   'P 1'
_cell_length_a   3.56547700
_cell_length_b   6.94316931
_cell_length_c   8.40037845
_cell_angle_alpha   89.77019596
_cell_angle_beta   90.00000000
_cell_angle_gamma   90.00000000
_symmetry_Int_Tables_number   1
_chemical_formula_structural   Hf2Zr2Nb4SiP3
_chemical_formula_sum   'Hf2 Zr2 Nb4 Si1 P3'
_cell_volume   207.95566411
_cell_formula_units_Z   1
loop_
 _symmetry_equiv_pos_site_id
 _symmetry_equiv_pos_as_xyz
  1  'x, y, z'
loop_
 _atom_site_type_symbol
 _atom_site_label
 _atom_site_symmetry_multiplicity
 _atom_site_fract_x
 _atom_site_fract_y
 _atom_site_fract_z
 _atom_site_occupancy
  Hf  Hf0  1  0.750000  0.467714  0.166482  1
  Hf  Hf1  1  0.750000  0.962348  0.331082  1
  Zr  Zr2  1  0.250000  0.035044  0.667342  1
  Zr  Zr3  1  0.250000  0.532512  0.830972  1
  Nb  Nb4  1  0.750000  0.858729  0.940126  1
  Nb  Nb5  1  0.250000  0.641561  0.439265  1
  Nb  Nb6  1  0.750000  0.364842  0.563065  1
  Nb  Nb7  1  0.250000  0.137369  0.059007  1
  Si  Si8  1  0.250000  0.261396  0.358427  1
  P  P9  1  0.250000  0.762422  0.143633  1
  P  P10  1  0.750000  0.740173  0.642013  1
  P  P11  1  0.750000  0.235892  0.858586  1
