# generated using pymatgen
data_Ho3U5(ReB6)4
_symmetry_space_group_name_H-M   'P 1'
_cell_length_a   3.63382800
_cell_length_b   9.29219087
_cell_length_c   11.40543705
_cell_angle_alpha   89.95069291
_cell_angle_beta   90.00000000
_cell_angle_gamma   90.00000000
_symmetry_Int_Tables_number   1
_chemical_formula_structural   Ho3U5(ReB6)4
_chemical_formula_sum   'Ho3 U5 Re4 B24'
_cell_volume   385.11839219
_cell_formula_units_Z   1
loop_
 _symmetry_equiv_pos_site_id
 _symmetry_equiv_pos_as_xyz
  1  'x, y, z'
loop_
 _atom_site_type_symbol
 _atom_site_label
 _atom_site_symmetry_multiplicity
 _atom_site_fract_x
 _atom_site_fract_y
 _atom_site_fract_z
 _atom_site_occupancy
  Ho  Ho0  1  0.000000  0.336947  0.407688  1
  Ho  Ho1  1  0.000000  0.663350  0.591851  1
  Ho  Ho2  1  0.000000  0.835507  0.093047  1
  U  U3  1  0.000000  0.163522  0.907232  1
  U  U4  1  0.000000  0.956178  0.396881  1
  U  U5  1  0.000000  0.042857  0.603355  1
  U  U6  1  0.000000  0.457761  0.103886  1
  U  U7  1  0.000000  0.543824  0.897192  1
  Re  Re8  1  0.000000  0.645428  0.319283  1
  Re  Re9  1  0.000000  0.352548  0.683351  1
  Re  Re10  1  0.000000  0.145722  0.177891  1
  Re  Re11  1  0.000000  0.856744  0.819772  1
  B  B12  1  0.500000  0.551312  0.431490  1
  B  B13  1  0.500000  0.448110  0.569369  1
  B  B14  1  0.500000  0.052159  0.067523  1
  B  B15  1  0.500000  0.950171  0.930525  1
  B  B16  1  0.500000  0.742807  0.423387  1
  B  B17  1  0.500000  0.257351  0.576500  1
  B  B18  1  0.500000  0.242738  0.075847  1
  B  B19  1  0.500000  0.756607  0.922883  1
  B  B20  1  0.500000  0.802256  0.275121  1
  B  B21  1  0.500000  0.196686  0.726251  1
  B  B22  1  0.500000  0.302336  0.225018  1
  B  B23  1  0.500000  0.697867  0.774754  1
  B  B24  1  0.500000  0.643975  0.188813  1
  B  B25  1  0.500000  0.355050  0.812033  1
  B  B26  1  0.500000  0.144297  0.311001  1
  B  B27  1  0.500000  0.855089  0.688287  1
  B  B28  1  0.500000  0.988858  0.219384  1
  B  B29  1  0.500000  0.013164  0.781030  1
  B  B30  1  0.500000  0.488399  0.281051  1
  B  B31  1  0.500000  0.511648  0.719354  1
  B  B32  1  0.500000  0.641164  0.038973  1
  B  B33  1  0.500000  0.357356  0.960385  1
  B  B34  1  0.500000  0.140690  0.460638  1
  B  B35  1  0.500000  0.859521  0.538956  1
