# generated using pymatgen
data_Ho3Zn(Ga3Co4)2
_symmetry_space_group_name_H-M   'P 1'
_cell_length_a   8.97030400
_cell_length_b   9.04500151
_cell_length_c   3.87028400
_cell_angle_alpha   90.00000000
_cell_angle_beta   90.00000000
_cell_angle_gamma   119.72718731
_symmetry_Int_Tables_number   1
_chemical_formula_structural   Ho3Zn(Ga3Co4)2
_chemical_formula_sum   'Ho3 Zn1 Ga6 Co8'
_cell_volume   272.69464685
_cell_formula_units_Z   1
loop_
 _symmetry_equiv_pos_site_id
 _symmetry_equiv_pos_as_xyz
  1  'x, y, z'
loop_
 _atom_site_type_symbol
 _atom_site_label
 _atom_site_symmetry_multiplicity
 _atom_site_fract_x
 _atom_site_fract_y
 _atom_site_fract_z
 _atom_site_occupancy
  Ho  Ho0  1  0.000000  0.000000  0.000000  1
  Ho  Ho1  1  0.669785  0.339569  0.500000  1
  Ho  Ho2  1  0.330215  0.660431  0.500000  1
  Zn  Zn3  1  0.500000  0.000000  0.000000  1
  Ga  Ga4  1  0.680711  0.679866  0.500000  1
  Ga  Ga5  1  0.289054  0.000000  0.500000  1
  Ga  Ga6  1  0.000845  0.320134  0.500000  1
  Ga  Ga7  1  0.319289  0.320134  0.500000  1
  Ga  Ga8  1  0.710946  0.000000  0.500000  1
  Ga  Ga9  1  0.999155  0.679866  0.500000  1
  Co  Co10  1  0.500000  0.500000  0.000000  1
  Co  Co11  1  0.000000  0.500000  0.000000  1
  Co  Co12  1  0.819271  0.181908  0.000000  1
  Co  Co13  1  0.818517  0.637034  0.000000  1
  Co  Co14  1  0.362636  0.181908  0.000000  1
  Co  Co15  1  0.180729  0.818092  0.000000  1
  Co  Co16  1  0.637364  0.818092  0.000000  1
  Co  Co17  1  0.181483  0.362966  0.000000  1
