# generated using pymatgen
data_Tb6BiRuO14
_symmetry_space_group_name_H-M   'P 1'
_cell_length_a   6.48028973
_cell_length_b   6.52103163
_cell_length_c   7.65634467
_cell_angle_alpha   106.38970655
_cell_angle_beta   89.95983086
_cell_angle_gamma   97.72277169
_symmetry_Int_Tables_number   1
_chemical_formula_structural   Tb6BiRuO14
_chemical_formula_sum   'Tb6 Bi1 Ru1 O14'
_cell_volume   307.34475125
_cell_formula_units_Z   1
loop_
 _symmetry_equiv_pos_site_id
 _symmetry_equiv_pos_as_xyz
  1  'x, y, z'
loop_
 _atom_site_type_symbol
 _atom_site_label
 _atom_site_symmetry_multiplicity
 _atom_site_fract_x
 _atom_site_fract_y
 _atom_site_fract_z
 _atom_site_occupancy
  Tb  Tb0  1  0.734892  0.459641  0.115218  1
  Tb  Tb1  1  0.734737  0.470955  0.605553  1
  Tb  Tb2  1  0.545149  0.997096  0.755869  1
  Tb  Tb3  1  0.454851  0.002904  0.244131  1
  Tb  Tb4  1  0.265263  0.529045  0.394447  1
  Tb  Tb5  1  0.265108  0.540359  0.884782  1
  Bi  Bi6  1  0.000000  0.000000  0.500000  1
  Ru  Ru7  1  0.000000  0.000000  0.000000  1
  O  O8  1  0.696636  0.072861  0.491435  1
  O  O9  1  0.932725  0.695640  0.986289  1
  O  O10  1  0.712232  0.071668  0.050289  1
  O  O11  1  0.929329  0.647076  0.384933  1
  O  O12  1  0.891241  0.901288  0.737554  1
  O  O13  1  0.562070  0.355826  0.834817  1
  O  O14  1  0.545880  0.359260  0.342411  1
  O  O15  1  0.454120  0.640740  0.657589  1
  O  O16  1  0.437930  0.644174  0.165183  1
  O  O17  1  0.108759  0.098712  0.262446  1
  O  O18  1  0.070671  0.352924  0.615067  1
  O  O19  1  0.287768  0.928332  0.949711  1
  O  O20  1  0.067275  0.304360  0.013711  1
  O  O21  1  0.303364  0.927139  0.508565  1
