# generated using pymatgen
data_SiSe23
_symmetry_space_group_name_H-M   'P 1'
_cell_length_a   5.96811026
_cell_length_b   9.84349145
_cell_length_c   15.83245300
_cell_angle_alpha   89.63402248
_cell_angle_beta   90.46347019
_cell_angle_gamma   87.71809577
_symmetry_Int_Tables_number   1
_chemical_formula_structural   SiSe23
_chemical_formula_sum   'Si1 Se23'
_cell_volume   929.32086823
_cell_formula_units_Z   1
loop_
 _symmetry_equiv_pos_site_id
 _symmetry_equiv_pos_as_xyz
  1  'x, y, z'
loop_
 _atom_site_type_symbol
 _atom_site_label
 _atom_site_symmetry_multiplicity
 _atom_site_fract_x
 _atom_site_fract_y
 _atom_site_fract_z
 _atom_site_occupancy
  Si  Si0  1  0.505712  0.306745  0.425255  1
  Se  Se1  1  0.514297  0.811916  0.375749  1
  Se  Se2  1  0.995971  0.327261  0.127395  1
  Se  Se3  1  0.867725  0.243382  0.467679  1
  Se  Se4  1  0.286521  0.775441  0.494325  1
  Se  Se5  1  0.200891  0.265517  0.005812  1
  Se  Se6  1  0.778681  0.731185  0.000148  1
  Se  Se7  1  0.144840  0.340226  0.372295  1
  Se  Se8  1  0.771469  0.624879  0.369375  1
  Se  Se9  1  0.786880  0.135548  0.163021  1
  Se  Se10  1  0.225469  0.855507  0.144694  1
  Se  Se11  1  0.704754  0.611427  0.637280  1
  Se  Se12  1  0.223627  0.374801  0.623964  1
  Se  Se13  1  0.217160  0.861133  0.855058  1
  Se  Se14  1  0.771441  0.138721  0.851024  1
  Se  Se15  1  0.998771  0.668531  0.119514  1
  Se  Se16  1  0.507595  0.821690  0.614131  1
  Se  Se17  1  0.425263  0.193327  0.556734  1
  Se  Se18  1  0.997811  0.671330  0.881637  1
  Se  Se19  1  0.982496  0.329215  0.886049  1
  Se  Se20  1  0.583456  0.445048  0.303445  1
  Se  Se21  1  0.030477  0.991498  0.244185  1
  Se  Se22  1  0.476362  0.472205  0.718971  1
  Se  Se23  1  0.002331  0.003469  0.762262  1
