# generated using pymatgen
data_Ho4ErPt9
_symmetry_space_group_name_H-M   'P 1'
_cell_length_a   9.73097100
_cell_length_b   9.73097100
_cell_length_c   5.75755600
_cell_angle_alpha   90.00000000
_cell_angle_beta   90.00000000
_cell_angle_gamma   90.00000000
_symmetry_Int_Tables_number   1
_chemical_formula_structural   Ho4ErPt9
_chemical_formula_sum   'Ho8 Er2 Pt18'
_cell_volume   545.19332168
_cell_formula_units_Z   2
loop_
 _symmetry_equiv_pos_site_id
 _symmetry_equiv_pos_as_xyz
  1  'x, y, z'
loop_
 _atom_site_type_symbol
 _atom_site_label
 _atom_site_symmetry_multiplicity
 _atom_site_fract_x
 _atom_site_fract_y
 _atom_site_fract_z
 _atom_site_occupancy
  Ho  Ho0  1  0.452548  0.808944  0.000000  1
  Ho  Ho1  1  0.547452  0.191056  0.000000  1
  Ho  Ho2  1  0.191056  0.547452  0.000000  1
  Ho  Ho3  1  0.808944  0.452548  0.000000  1
  Ho  Ho4  1  0.308944  0.047452  0.500000  1
  Ho  Ho5  1  0.691056  0.952548  0.500000  1
  Ho  Ho6  1  0.952548  0.691056  0.500000  1
  Ho  Ho7  1  0.047452  0.308944  0.500000  1
  Er  Er8  1  0.500000  0.500000  0.500000  1
  Er  Er9  1  0.000000  0.000000  0.000000  1
  Pt  Pt10  1  0.191713  0.808287  0.250486  1
  Pt  Pt11  1  0.808287  0.191713  0.749514  1
  Pt  Pt12  1  0.808287  0.191713  0.250486  1
  Pt  Pt13  1  0.191713  0.808287  0.749514  1
  Pt  Pt14  1  0.440909  0.781715  0.500000  1
  Pt  Pt15  1  0.559091  0.218285  0.500000  1
  Pt  Pt16  1  0.218285  0.559091  0.500000  1
  Pt  Pt17  1  0.781715  0.440909  0.500000  1
  Pt  Pt18  1  0.308287  0.308287  0.249514  1
  Pt  Pt19  1  0.691713  0.691713  0.750486  1
  Pt  Pt20  1  0.691713  0.691713  0.249514  1
  Pt  Pt21  1  0.308287  0.308287  0.750486  1
  Pt  Pt22  1  0.281715  0.059091  0.000000  1
  Pt  Pt23  1  0.718285  0.940909  0.000000  1
  Pt  Pt24  1  0.940909  0.718285  0.000000  1
  Pt  Pt25  1  0.059091  0.281715  0.000000  1
  Pt  Pt26  1  0.000000  0.000000  0.500000  1
  Pt  Pt27  1  0.500000  0.500000  0.000000  1
