# generated using pymatgen
data_Th3In2GaOsRh2
_symmetry_space_group_name_H-M   'P 1'
_cell_length_a   7.64572290
_cell_length_b   7.63616563
_cell_length_c   3.98240100
_cell_angle_alpha   90.00000000
_cell_angle_beta   90.00000000
_cell_angle_gamma   120.48961383
_symmetry_Int_Tables_number   1
_chemical_formula_structural   Th3In2GaOsRh2
_chemical_formula_sum   'Th3 In2 Ga1 Os1 Rh2'
_cell_volume   200.35751398
_cell_formula_units_Z   1
loop_
 _symmetry_equiv_pos_site_id
 _symmetry_equiv_pos_as_xyz
  1  'x, y, z'
loop_
 _atom_site_type_symbol
 _atom_site_label
 _atom_site_symmetry_multiplicity
 _atom_site_fract_x
 _atom_site_fract_y
 _atom_site_fract_z
 _atom_site_occupancy
  Th  Th0  1  0.002063  0.410565  0.500000  1
  Th  Th1  1  0.586331  0.596578  0.500000  1
  Th  Th2  1  0.430207  0.996880  0.500000  1
  In  In3  1  0.004311  0.758043  0.000000  1
  In  In4  1  0.249332  0.242116  0.000000  1
  Ga  Ga5  1  0.749071  0.998596  0.000000  1
  Os  Os6  1  0.337785  0.669907  0.000000  1
  Rh  Rh7  1  0.671601  0.326423  0.000000  1
  Rh  Rh8  1  0.969298  0.000892  0.500000  1
