# generated using pymatgen
data_Tb15Ho5CoBi8Ru3
_symmetry_space_group_name_H-M   'P 1'
_cell_length_a   8.00851470
_cell_length_b   9.02469008
_cell_length_c   12.46767269
_cell_angle_alpha   89.93377897
_cell_angle_beta   90.35904113
_cell_angle_gamma   90.06834536
_symmetry_Int_Tables_number   1
_chemical_formula_structural   Tb15Ho5CoBi8Ru3
_chemical_formula_sum   'Tb15 Ho5 Co1 Bi8 Ru3'
_cell_volume   901.07417640
_cell_formula_units_Z   1
loop_
 _symmetry_equiv_pos_site_id
 _symmetry_equiv_pos_as_xyz
  1  'x, y, z'
loop_
 _atom_site_type_symbol
 _atom_site_label
 _atom_site_symmetry_multiplicity
 _atom_site_fract_x
 _atom_site_fract_y
 _atom_site_fract_z
 _atom_site_occupancy
  Tb  Tb0  1  0.846388  0.750715  0.800215  1
  Tb  Tb1  1  0.155202  0.249568  0.205050  1
  Tb  Tb2  1  0.344768  0.249544  0.706533  1
  Tb  Tb3  1  0.653975  0.750313  0.294785  1
  Tb  Tb4  1  0.377236  0.750457  0.694193  1
  Tb  Tb5  1  0.620877  0.249451  0.306799  1
  Tb  Tb6  1  0.877966  0.249148  0.807753  1
  Tb  Tb7  1  0.119188  0.750881  0.188824  1
  Tb  Tb8  1  0.946633  0.750291  0.504477  1
  Tb  Tb9  1  0.053886  0.249759  0.496076  1
  Tb  Tb10  1  0.449637  0.249423  0.996503  1
  Tb  Tb11  1  0.550244  0.750399  0.003445  1
  Tb  Tb12  1  0.676195  0.458820  0.564413  1
  Tb  Tb13  1  0.823665  0.464229  0.063070  1
  Tb  Tb14  1  0.177529  0.542662  0.935390  1
  Ho  Ho15  1  0.674374  0.041492  0.564390  1
  Ho  Ho16  1  0.325088  0.957565  0.435632  1
  Ho  Ho17  1  0.175170  0.956603  0.935876  1
  Ho  Ho18  1  0.324114  0.542573  0.435445  1
  Ho  Ho19  1  0.826145  0.036407  0.062565  1
  Co  Co20  1  0.932987  0.750956  0.009185  1
  Bi  Bi21  1  0.572412  0.492551  0.827341  1
  Bi  Bi22  1  0.428328  0.507547  0.172773  1
  Bi  Bi23  1  0.070579  0.507433  0.673131  1
  Bi  Bi24  1  0.429356  0.992456  0.172569  1
  Bi  Bi25  1  0.929316  0.493066  0.326926  1
  Bi  Bi26  1  0.571709  0.007553  0.827275  1
  Bi  Bi27  1  0.929083  0.006935  0.326694  1
  Bi  Bi28  1  0.070097  0.992640  0.673141  1
  Ru  Ru29  1  0.571405  0.750633  0.511012  1
  Ru  Ru30  1  0.425596  0.249268  0.488647  1
  Ru  Ru31  1  0.070851  0.248661  0.989869  1
