# generated using pymatgen
data_Nb3SBr4Cl3
_symmetry_space_group_name_H-M   'P 1'
_cell_length_a   7.09387500
_cell_length_b   7.09387478
_cell_length_c   6.59463800
_cell_angle_alpha   90.00000000
_cell_angle_beta   90.00000000
_cell_angle_gamma   119.99999635
_symmetry_Int_Tables_number   1
_chemical_formula_structural   Nb3SBr4Cl3
_chemical_formula_sum   'Nb3 S1 Br4 Cl3'
_cell_volume   287.40125375
_cell_formula_units_Z   1
loop_
 _symmetry_equiv_pos_site_id
 _symmetry_equiv_pos_as_xyz
  1  'x, y, z'
loop_
 _atom_site_type_symbol
 _atom_site_label
 _atom_site_symmetry_multiplicity
 _atom_site_fract_x
 _atom_site_fract_y
 _atom_site_fract_z
 _atom_site_occupancy
  Nb  Nb0  1  0.269725  0.134862  0.782016  1
  Nb  Nb1  1  0.865137  0.134862  0.782016  1
  Nb  Nb2  1  0.865138  0.730275  0.782016  1
  S  S3  1  0.000000  0.000000  0.516838  1
  Br  Br4  1  0.666667  0.333334  0.001133  1
  Br  Br5  1  0.004118  0.502059  0.562313  1
  Br  Br6  1  0.497941  0.502059  0.562313  1
  Br  Br7  1  0.497941  0.995882  0.562313  1
  Cl  Cl8  1  0.163414  0.326828  0.021413  1
  Cl  Cl9  1  0.163414  0.836587  0.021413  1
  Cl  Cl10  1  0.673172  0.836587  0.021413  1
