# generated using pymatgen
data_CaAsF7
_symmetry_space_group_name_H-M   'P 1'
_cell_length_a   7.18975200
_cell_length_b   8.18701500
_cell_length_c   10.03235700
_cell_angle_alpha   90.00000000
_cell_angle_beta   90.00000000
_cell_angle_gamma   90.00000000
_symmetry_Int_Tables_number   1
_chemical_formula_structural   CaAsF7
_chemical_formula_sum   'Ca4 As4 F28'
_cell_volume   590.53069209
_cell_formula_units_Z   4
loop_
 _symmetry_equiv_pos_site_id
 _symmetry_equiv_pos_as_xyz
  1  'x, y, z'
loop_
 _atom_site_type_symbol
 _atom_site_label
 _atom_site_symmetry_multiplicity
 _atom_site_fract_x
 _atom_site_fract_y
 _atom_site_fract_z
 _atom_site_occupancy
  Ca  Ca0  1  0.250000  0.634127  0.735502  1
  Ca  Ca1  1  0.750000  0.365873  0.264498  1
  Ca  Ca2  1  0.250000  0.134127  0.764498  1
  Ca  Ca3  1  0.750000  0.865873  0.235502  1
  As  As4  1  0.250000  0.799395  0.059497  1
  As  As5  1  0.750000  0.200605  0.940503  1
  As  As6  1  0.250000  0.299395  0.440503  1
  As  As7  1  0.750000  0.700605  0.559497  1
  F  F8  1  0.925725  0.128782  0.830048  1
  F  F9  1  0.425725  0.871218  0.169952  1
  F  F10  1  0.574275  0.628782  0.669952  1
  F  F11  1  0.074275  0.371218  0.330048  1
  F  F12  1  0.074275  0.871218  0.169952  1
  F  F13  1  0.574275  0.128782  0.830048  1
  F  F14  1  0.425725  0.371218  0.330048  1
  F  F15  1  0.925725  0.628782  0.669952  1
  F  F16  1  0.750000  0.609945  0.186355  1
  F  F17  1  0.250000  0.390055  0.813645  1
  F  F18  1  0.750000  0.109945  0.313645  1
  F  F19  1  0.250000  0.890055  0.686355  1
  F  F20  1  0.750000  0.502348  0.483390  1
  F  F21  1  0.250000  0.497652  0.516610  1
  F  F22  1  0.750000  0.002348  0.016610  1
  F  F23  1  0.250000  0.997652  0.983390  1
  F  F24  1  0.750000  0.890373  0.636694  1
  F  F25  1  0.250000  0.109627  0.363306  1
  F  F26  1  0.750000  0.390373  0.863306  1
  F  F27  1  0.250000  0.609627  0.136694  1
  F  F28  1  0.921641  0.764003  0.441971  1
  F  F29  1  0.421641  0.235997  0.558029  1
  F  F30  1  0.578359  0.264003  0.058029  1
  F  F31  1  0.078359  0.735997  0.941971  1
  F  F32  1  0.078359  0.235997  0.558029  1
  F  F33  1  0.578359  0.764003  0.441971  1
  F  F34  1  0.421641  0.735997  0.941971  1
  F  F35  1  0.921641  0.264003  0.058029  1
