# generated using pymatgen
data_Yb3EuRhO6
_symmetry_space_group_name_H-M   'P 1'
_cell_length_a   6.50350543
_cell_length_b   6.50350452
_cell_length_c   6.50762284
_cell_angle_alpha   91.21062826
_cell_angle_beta   91.21062553
_cell_angle_gamma   90.14607927
_symmetry_Int_Tables_number   1
_chemical_formula_structural   Yb3EuRhO6
_chemical_formula_sum   'Yb6 Eu2 Rh2 O12'
_cell_volume   275.11956143
_cell_formula_units_Z   2
loop_
 _symmetry_equiv_pos_site_id
 _symmetry_equiv_pos_as_xyz
  1  'x, y, z'
loop_
 _atom_site_type_symbol
 _atom_site_label
 _atom_site_symmetry_multiplicity
 _atom_site_fract_x
 _atom_site_fract_y
 _atom_site_fract_z
 _atom_site_occupancy
  Yb  Yb0  1  0.253056  0.884375  0.615759  1
  Yb  Yb1  1  0.615625  0.246944  0.884241  1
  Yb  Yb2  1  0.745583  0.754417  0.750000  1
  Yb  Yb3  1  0.384375  0.753056  0.115759  1
  Yb  Yb4  1  0.254417  0.245583  0.250000  1
  Yb  Yb5  1  0.746944  0.115625  0.384241  1
  Eu  Eu6  1  0.879654  0.620346  0.250000  1
  Eu  Eu7  1  0.120346  0.379654  0.750000  1
  Rh  Rh8  1  0.000000  0.000000  0.000000  1
  Rh  Rh9  1  0.500000  0.500000  0.500000  1
  O  O10  1  0.446831  0.579207  0.802389  1
  O  O11  1  0.576255  0.801211  0.442317  1
  O  O12  1  0.943751  0.300312  0.078525  1
  O  O13  1  0.553169  0.420793  0.197611  1
  O  O14  1  0.199688  0.556249  0.421475  1
  O  O15  1  0.056249  0.699688  0.921475  1
  O  O16  1  0.800312  0.443751  0.578525  1
  O  O17  1  0.698789  0.923745  0.057683  1
  O  O18  1  0.079207  0.946831  0.302389  1
  O  O19  1  0.920793  0.053169  0.697611  1
  O  O20  1  0.423745  0.198789  0.557683  1
  O  O21  1  0.301211  0.076255  0.942317  1
