# generated using pymatgen
data_Tm20Sn12C
_symmetry_space_group_name_H-M   'P 1'
_cell_length_a   6.46990210
_cell_length_b   8.81598907
_cell_length_c   15.34400200
_cell_angle_alpha   90.00000650
_cell_angle_beta   90.00000000
_cell_angle_gamma   89.90796036
_symmetry_Int_Tables_number   1
_chemical_formula_structural   Tm20Sn12C
_chemical_formula_sum   'Tm20 Sn12 C1'
_cell_volume   875.19905062
_cell_formula_units_Z   1
loop_
 _symmetry_equiv_pos_site_id
 _symmetry_equiv_pos_as_xyz
  1  'x, y, z'
loop_
 _atom_site_type_symbol
 _atom_site_label
 _atom_site_symmetry_multiplicity
 _atom_site_fract_x
 _atom_site_fract_y
 _atom_site_fract_z
 _atom_site_occupancy
  Tm  Tm0  1  0.499976  0.000151  0.334724  1
  Tm  Tm1  1  0.500041  0.499927  0.831326  1
  Tm  Tm2  1  0.500041  0.499927  0.168674  1
  Tm  Tm3  1  0.499976  0.000151  0.665276  1
  Tm  Tm4  1  0.000055  0.499975  0.163794  1
  Tm  Tm5  1  0.999980  0.000020  0.668942  1
  Tm  Tm6  1  0.999980  0.000020  0.331058  1
  Tm  Tm7  1  0.000055  0.499975  0.836206  1
  Tm  Tm8  1  0.721801  0.225790  0.000000  1
  Tm  Tm9  1  0.750156  0.739508  0.500000  1
  Tm  Tm10  1  0.751486  0.381629  0.381952  1
  Tm  Tm11  1  0.722841  0.884716  0.886168  1
  Tm  Tm12  1  0.722841  0.884716  0.113832  1
  Tm  Tm13  1  0.751486  0.381629  0.618048  1
  Tm  Tm14  1  0.278329  0.774083  0.000000  1
  Tm  Tm15  1  0.249826  0.260437  0.500000  1
  Tm  Tm16  1  0.277166  0.115183  0.113851  1
  Tm  Tm17  1  0.248586  0.618440  0.618028  1
  Tm  Tm18  1  0.248586  0.618440  0.381972  1
  Tm  Tm19  1  0.277166  0.115183  0.886149  1
  Sn  Sn20  1  0.744112  0.598561  0.000000  1
  Sn  Sn21  1  0.753426  0.103903  0.500000  1
  Sn  Sn22  1  0.748326  0.199379  0.199428  1
  Sn  Sn23  1  0.752005  0.698550  0.698246  1
  Sn  Sn24  1  0.752005  0.698550  0.301754  1
  Sn  Sn25  1  0.748326  0.199379  0.800572  1
  Sn  Sn26  1  0.256193  0.401315  0.000000  1
  Sn  Sn27  1  0.246670  0.896139  0.500000  1
  Sn  Sn28  1  0.247642  0.301592  0.301778  1
  Sn  Sn29  1  0.251649  0.800588  0.800556  1
  Sn  Sn30  1  0.251649  0.800588  0.199444  1
  Sn  Sn31  1  0.247642  0.301592  0.698222  1
  C  C32  1  0.499986  0.999963  0.000000  1
