# generated using pymatgen
data_TbYHf2Al15(GaIr2)3
_symmetry_space_group_name_H-M   'P 1'
_cell_length_a   7.51750200
_cell_length_b   7.51387597
_cell_length_c   9.35110600
_cell_angle_alpha   90.00000000
_cell_angle_beta   90.00000000
_cell_angle_gamma   119.71591694
_symmetry_Int_Tables_number   1
_chemical_formula_structural   TbYHf2Al15(GaIr2)3
_chemical_formula_sum   'Tb1 Y1 Hf2 Al15 Ga3 Ir6'
_cell_volume   458.74072553
_cell_formula_units_Z   1
loop_
 _symmetry_equiv_pos_site_id
 _symmetry_equiv_pos_as_xyz
  1  'x, y, z'
loop_
 _atom_site_type_symbol
 _atom_site_label
 _atom_site_symmetry_multiplicity
 _atom_site_fract_x
 _atom_site_fract_y
 _atom_site_fract_z
 _atom_site_occupancy
  Tb  Tb0  1  0.329038  0.006336  0.750000  1
  Y  Y1  1  0.006285  0.328914  0.750000  1
  Hf  Hf2  1  0.997425  0.672385  0.250000  1
  Hf  Hf3  1  0.672546  0.997702  0.250000  1
  Al  Al4  1  0.123474  0.123493  0.250000  1
  Al  Al5  1  0.997548  0.335057  0.082788  1
  Al  Al6  1  0.997940  0.665178  0.931293  1
  Al  Al7  1  0.997940  0.665178  0.568707  1
  Al  Al8  1  0.335012  0.997564  0.417162  1
  Al  Al9  1  0.997548  0.335057  0.417212  1
  Al  Al10  1  0.665517  0.998008  0.568757  1
  Al  Al11  1  0.665517  0.998008  0.931243  1
  Al  Al12  1  0.335012  0.997564  0.082838  1
  Al  Al13  1  0.334737  0.334873  0.545963  1
  Al  Al14  1  0.669282  0.669314  0.429663  1
  Al  Al15  1  0.669282  0.669314  0.070337  1
  Al  Al16  1  0.334737  0.334873  0.954037  1
  Al  Al17  1  0.337961  0.553990  0.250000  1
  Al  Al18  1  0.553814  0.337918  0.250000  1
  Ga  Ga19  1  0.868704  0.868431  0.750000  1
  Ga  Ga20  1  0.658407  0.452265  0.750000  1
  Ga  Ga21  1  0.452428  0.658785  0.750000  1
  Ir  Ir22  1  0.673893  0.328350  0.005102  1
  Ir  Ir23  1  0.328385  0.673942  0.005055  1
  Ir  Ir24  1  0.328385  0.673942  0.494945  1
  Ir  Ir25  1  0.673893  0.328350  0.494898  1
  Ir  Ir26  1  0.997644  0.997605  0.005679  1
  Ir  Ir27  1  0.997644  0.997605  0.494321  1
