# generated using pymatgen
data_Li4CaYb(DySi4)2
_symmetry_space_group_name_H-M   'P 1'
_cell_length_a   3.79998900
_cell_length_b   7.79627395
_cell_length_c   10.33148333
_cell_angle_alpha   90.00671215
_cell_angle_beta   90.00000000
_cell_angle_gamma   90.00000000
_symmetry_Int_Tables_number   1
_chemical_formula_structural   Li4CaYb(DySi4)2
_chemical_formula_sum   'Li4 Ca1 Yb1 Dy2 Si8'
_cell_volume   306.07799419
_cell_formula_units_Z   1
loop_
 _symmetry_equiv_pos_site_id
 _symmetry_equiv_pos_as_xyz
  1  'x, y, z'
loop_
 _atom_site_type_symbol
 _atom_site_label
 _atom_site_symmetry_multiplicity
 _atom_site_fract_x
 _atom_site_fract_y
 _atom_site_fract_z
 _atom_site_occupancy
  Li  Li0  1  0.250000  0.997971  0.393640  1
  Li  Li1  1  0.750000  0.012560  0.610338  1
  Li  Li2  1  0.250000  0.487473  0.109941  1
  Li  Li3  1  0.750000  0.504384  0.894688  1
  Ca  Ca4  1  0.750000  0.364040  0.363681  1
  Yb  Yb5  1  0.250000  0.133583  0.863231  1
  Dy  Dy6  1  0.750000  0.866752  0.132507  1
  Dy  Dy7  1  0.250000  0.632724  0.633401  1
  Si  Si8  1  0.750000  0.255087  0.065778  1
  Si  Si9  1  0.250000  0.730183  0.932611  1
  Si  Si10  1  0.750000  0.770611  0.432856  1
  Si  Si11  1  0.250000  0.244628  0.568969  1
  Si  Si12  1  0.750000  0.835520  0.820249  1
  Si  Si13  1  0.250000  0.152105  0.177061  1
  Si  Si14  1  0.750000  0.346732  0.680506  1
  Si  Si15  1  0.250000  0.665648  0.320548  1
