# generated using pymatgen
data_ErFeCo3MoP3
_symmetry_space_group_name_H-M   'P 1'
_cell_length_a   3.69848300
_cell_length_b   10.36201600
_cell_length_c   11.87298000
_cell_angle_alpha   90.00000000
_cell_angle_beta   90.00000000
_cell_angle_gamma   90.00000000
_symmetry_Int_Tables_number   1
_chemical_formula_structural   ErFeCo3MoP3
_chemical_formula_sum   'Er4 Fe4 Co12 Mo4 P12'
_cell_volume   455.01699880
_cell_formula_units_Z   4
loop_
 _symmetry_equiv_pos_site_id
 _symmetry_equiv_pos_as_xyz
  1  'x, y, z'
loop_
 _atom_site_type_symbol
 _atom_site_label
 _atom_site_symmetry_multiplicity
 _atom_site_fract_x
 _atom_site_fract_y
 _atom_site_fract_z
 _atom_site_occupancy
  Er  Er0  1  0.250000  0.581718  0.706236  1
  Er  Er1  1  0.250000  0.918282  0.206236  1
  Er  Er2  1  0.750000  0.418282  0.293764  1
  Er  Er3  1  0.750000  0.081718  0.793764  1
  Fe  Fe4  1  0.250000  0.463644  0.932934  1
  Fe  Fe5  1  0.250000  0.036356  0.432934  1
  Fe  Fe6  1  0.750000  0.536356  0.067066  1
  Fe  Fe7  1  0.750000  0.963644  0.567066  1
  Co  Co8  1  0.250000  0.407030  0.487661  1
  Co  Co9  1  0.250000  0.092971  0.987661  1
  Co  Co10  1  0.750000  0.592970  0.512339  1
  Co  Co11  1  0.750000  0.907030  0.012339  1
  Co  Co12  1  0.250000  0.223093  0.175730  1
  Co  Co13  1  0.250000  0.276907  0.675730  1
  Co  Co14  1  0.750000  0.776907  0.824270  1
  Co  Co15  1  0.750000  0.723093  0.324270  1
  Co  Co16  1  0.250000  0.884702  0.702952  1
  Co  Co17  1  0.250000  0.615298  0.202952  1
  Co  Co18  1  0.750000  0.115298  0.297048  1
  Co  Co19  1  0.750000  0.384702  0.797048  1
  Mo  Mo20  1  0.250000  0.706486  0.990687  1
  Mo  Mo21  1  0.250000  0.793514  0.490687  1
  Mo  Mo22  1  0.750000  0.293514  0.009313  1
  Mo  Mo23  1  0.750000  0.206486  0.509313  1
  P  P24  1  0.250000  0.423898  0.114133  1
  P  P25  1  0.250000  0.076102  0.614133  1
  P  P26  1  0.750000  0.576102  0.885867  1
  P  P27  1  0.750000  0.923898  0.385867  1
  P  P28  1  0.250000  0.268702  0.862684  1
  P  P29  1  0.250000  0.231298  0.362684  1
  P  P30  1  0.750000  0.731298  0.137316  1
  P  P31  1  0.750000  0.768702  0.637316  1
  P  P32  1  0.250000  0.595705  0.391254  1
  P  P33  1  0.250000  0.904295  0.891254  1
  P  P34  1  0.750000  0.404295  0.608746  1
  P  P35  1  0.750000  0.095705  0.108746  1
