# generated using pymatgen
data_Ce4In2CuPdRh2
_symmetry_space_group_name_H-M   'P 1'
_cell_length_a   7.73990395
_cell_length_b   7.73990384
_cell_length_c   3.76834000
_cell_angle_alpha   90.00000000
_cell_angle_beta   90.00000000
_cell_angle_gamma   89.49293209
_symmetry_Int_Tables_number   1
_chemical_formula_structural   Ce4In2CuPdRh2
_chemical_formula_sum   'Ce4 In2 Cu1 Pd1 Rh2'
_cell_volume   225.73775876
_cell_formula_units_Z   1
loop_
 _symmetry_equiv_pos_site_id
 _symmetry_equiv_pos_as_xyz
  1  'x, y, z'
loop_
 _atom_site_type_symbol
 _atom_site_label
 _atom_site_symmetry_multiplicity
 _atom_site_fract_x
 _atom_site_fract_y
 _atom_site_fract_z
 _atom_site_occupancy
  Ce  Ce0  1  0.667074  0.167074  0.500000  1
  Ce  Ce1  1  0.334339  0.834339  0.500000  1
  Ce  Ce2  1  0.178039  0.319618  0.500000  1
  Ce  Ce3  1  0.819618  0.678039  0.500000  1
  In  In4  1  0.000841  0.997278  0.000000  1
  In  In5  1  0.497278  0.500841  0.000000  1
  Cu  Cu6  1  0.125734  0.625734  0.000000  1
  Pd  Pd7  1  0.877207  0.377207  0.000000  1
  Rh  Rh8  1  0.636297  0.863573  0.000000  1
  Rh  Rh9  1  0.363573  0.136297  0.000000  1
