# generated using pymatgen
data_La2Nd4CoI10
_symmetry_space_group_name_H-M   'P 1'
_cell_length_a   8.01438780
_cell_length_b   10.05838369
_cell_length_c   9.94047825
_cell_angle_alpha   106.85735050
_cell_angle_beta   96.26384354
_cell_angle_gamma   105.27899695
_symmetry_Int_Tables_number   1
_chemical_formula_structural   La2Nd4CoI10
_chemical_formula_sum   'La2 Nd4 Co1 I10'
_cell_volume   724.68882393
_cell_formula_units_Z   1
loop_
 _symmetry_equiv_pos_site_id
 _symmetry_equiv_pos_as_xyz
  1  'x, y, z'
loop_
 _atom_site_type_symbol
 _atom_site_label
 _atom_site_symmetry_multiplicity
 _atom_site_fract_x
 _atom_site_fract_y
 _atom_site_fract_z
 _atom_site_occupancy
  La  La0  1  0.887339  0.958494  0.229687  1
  La  La1  1  0.112661  0.041506  0.770313  1
  Nd  Nd2  1  0.031174  0.712677  0.913435  1
  Nd  Nd3  1  0.968826  0.287323  0.086565  1
  Nd  Nd4  1  0.650482  0.874864  0.833636  1
  Nd  Nd5  1  0.349518  0.125136  0.166364  1
  Co  Co6  1  0.000000  0.000000  0.000000  1
  I  I7  1  0.650111  0.551178  0.729173  1
  I  I8  1  0.349889  0.448822  0.270827  1
  I  I9  1  0.739091  0.912113  0.539473  1
  I  I10  1  0.260909  0.087887  0.460527  1
  I  I11  1  0.085068  0.373022  0.819642  1
  I  I12  1  0.914932  0.626978  0.180358  1
  I  I13  1  0.451427  0.816232  0.091965  1
  I  I14  1  0.548573  0.183768  0.908035  1
  I  I15  1  0.223087  0.742076  0.654839  1
  I  I16  1  0.776913  0.257924  0.345161  1
