# generated using pymatgen
data_TbHo3(TcB4)4
_symmetry_space_group_name_H-M   'P 1'
_cell_length_a   3.59842400
_cell_length_b   5.96688812
_cell_length_c   11.55698314
_cell_angle_alpha   89.95385989
_cell_angle_beta   89.99997119
_cell_angle_gamma   90.00006574
_symmetry_Int_Tables_number   1
_chemical_formula_structural   TbHo3(TcB4)4
_chemical_formula_sum   'Tb1 Ho3 Tc4 B16'
_cell_volume   248.14445104
_cell_formula_units_Z   1
loop_
 _symmetry_equiv_pos_site_id
 _symmetry_equiv_pos_as_xyz
  1  'x, y, z'
loop_
 _atom_site_type_symbol
 _atom_site_label
 _atom_site_symmetry_multiplicity
 _atom_site_fract_x
 _atom_site_fract_y
 _atom_site_fract_z
 _atom_site_occupancy
  Tb  Tb0  1  0.000000  0.627228  0.350195  1
  Ho  Ho1  1  0.999999  0.372759  0.649866  1
  Ho  Ho2  1  0.999999  0.127245  0.149810  1
  Ho  Ho3  1  0.000000  0.872859  0.850000  1
  Tc  Tc4  1  0.999999  0.633703  0.087065  1
  Tc  Tc5  1  0.000001  0.366339  0.912231  1
  Tc  Tc6  1  0.000002  0.133842  0.412430  1
  Tc  Tc7  1  0.000002  0.866180  0.588256  1
  B  B8  1  0.500000  0.787790  0.184675  1
  B  B9  1  0.500000  0.212331  0.814849  1
  B  B10  1  0.500001  0.286729  0.314754  1
  B  B11  1  0.500000  0.712343  0.685372  1
  B  B12  1  0.499999  0.864481  0.031134  1
  B  B13  1  0.499999  0.135697  0.968441  1
  B  B14  1  0.500000  0.363932  0.469001  1
  B  B15  1  0.500000  0.635917  0.531888  1
  B  B16  1  0.500001  0.887286  0.453279  1
  B  B17  1  0.499999  0.113598  0.547621  1
  B  B18  1  0.500000  0.386328  0.047003  1
  B  B19  1  0.500000  0.613603  0.952488  1
  B  B20  1  0.500000  0.976906  0.307601  1
  B  B21  1  0.500000  0.023454  0.692698  1
  B  B22  1  0.500000  0.475982  0.191914  1
  B  B23  1  0.499999  0.523468  0.807431  1
