# generated using pymatgen
data_Ho6Th2Mg2IrRu
_symmetry_space_group_name_H-M   'P 1'
_cell_length_a   9.75578523
_cell_length_b   9.75578389
_cell_length_c   9.76272200
_cell_angle_alpha   59.97647158
_cell_angle_beta   59.97647614
_cell_angle_gamma   59.91352316
_symmetry_Int_Tables_number   1
_chemical_formula_structural   Ho6Th2Mg2IrRu
_chemical_formula_sum   'Ho12 Th4 Mg4 Ir2 Ru2'
_cell_volume   656.35888154
_cell_formula_units_Z   2
loop_
 _symmetry_equiv_pos_site_id
 _symmetry_equiv_pos_as_xyz
  1  'x, y, z'
loop_
 _atom_site_type_symbol
 _atom_site_label
 _atom_site_symmetry_multiplicity
 _atom_site_fract_x
 _atom_site_fract_y
 _atom_site_fract_z
 _atom_site_occupancy
  Ho  Ho0  1  0.811561  0.186411  0.187426  1
  Ho  Ho1  1  0.186411  0.811561  0.814602  1
  Ho  Ho2  1  0.186411  0.811561  0.187426  1
  Ho  Ho3  1  0.811561  0.186411  0.814602  1
  Ho  Ho4  1  0.187777  0.187777  0.812223  1
  Ho  Ho5  1  0.813939  0.813939  0.186061  1
  Ho  Ho6  1  0.936029  0.565547  0.564321  1
  Ho  Ho7  1  0.565547  0.936029  0.934103  1
  Ho  Ho8  1  0.565547  0.936029  0.564321  1
  Ho  Ho9  1  0.936029  0.565547  0.934103  1
  Ho  Ho10  1  0.566382  0.566382  0.933618  1
  Ho  Ho11  1  0.935905  0.935905  0.564095  1
  Th  Th12  1  0.348086  0.348086  0.344129  1
  Th  Th13  1  0.348086  0.348086  0.959698  1
  Th  Th14  1  0.351380  0.955732  0.346444  1
  Th  Th15  1  0.955732  0.351380  0.346444  1
  Mg  Mg16  1  0.580277  0.580277  0.580544  1
  Mg  Mg17  1  0.580277  0.580277  0.258903  1
  Mg  Mg18  1  0.580157  0.259366  0.580239  1
  Mg  Mg19  1  0.259366  0.580157  0.580239  1
  Ir  Ir20  1  0.141806  0.141806  0.143759  1
  Ir  Ir21  1  0.141806  0.141806  0.572629  1
  Ru  Ru22  1  0.143057  0.566870  0.145036  1
  Ru  Ru23  1  0.566870  0.143057  0.145036  1
