# generated using pymatgen
data_Ac2BeSi9Ni16
_symmetry_space_group_name_H-M   'P 1'
_cell_length_a   8.02046737
_cell_length_b   7.98808290
_cell_length_c   7.87002254
_cell_angle_alpha   60.75882869
_cell_angle_beta   60.34819059
_cell_angle_gamma   58.89297078
_symmetry_Int_Tables_number   1
_chemical_formula_structural   Ac2BeSi9Ni16
_chemical_formula_sum   'Ac2 Be1 Si9 Ni16'
_cell_volume   356.32890981
_cell_formula_units_Z   1
loop_
 _symmetry_equiv_pos_site_id
 _symmetry_equiv_pos_as_xyz
  1  'x, y, z'
loop_
 _atom_site_type_symbol
 _atom_site_label
 _atom_site_symmetry_multiplicity
 _atom_site_fract_x
 _atom_site_fract_y
 _atom_site_fract_z
 _atom_site_occupancy
  Ac  Ac0  1  0.250000  0.250000  0.250000  1
  Ac  Ac1  1  0.750000  0.750000  0.750000  1
  Be  Be2  1  0.500000  0.500000  0.500000  1
  Si  Si3  1  0.696868  0.063714  0.936286  1
  Si  Si4  1  0.063714  0.696868  0.303132  1
  Si  Si5  1  0.208805  0.560767  0.791195  1
  Si  Si6  1  0.560767  0.208805  0.439233  1
  Si  Si7  1  0.303132  0.936286  0.063714  1
  Si  Si8  1  0.936286  0.303132  0.696868  1
  Si  Si9  1  0.791195  0.439233  0.208805  1
  Si  Si10  1  0.439233  0.791195  0.560767  1
  Si  Si11  1  0.000000  0.000000  0.000000  1
  Ni  Ni12  1  0.714852  0.285148  0.054900  1
  Ni  Ni13  1  0.285148  0.714852  0.945100  1
  Ni  Ni14  1  0.217350  0.782650  0.444089  1
  Ni  Ni15  1  0.782650  0.217350  0.555911  1
  Ni  Ni16  1  0.444089  0.555911  0.217350  1
  Ni  Ni17  1  0.555911  0.444089  0.782650  1
  Ni  Ni18  1  0.054900  0.945100  0.714852  1
  Ni  Ni19  1  0.945100  0.054900  0.285148  1
  Ni  Ni20  1  0.437104  0.198043  0.801957  1
  Ni  Ni21  1  0.198043  0.437104  0.562896  1
  Ni  Ni22  1  0.941327  0.691344  0.058673  1
  Ni  Ni23  1  0.691344  0.941327  0.308656  1
  Ni  Ni24  1  0.562896  0.801957  0.198043  1
  Ni  Ni25  1  0.801957  0.562896  0.437104  1
  Ni  Ni26  1  0.058673  0.308656  0.941327  1
  Ni  Ni27  1  0.308656  0.058673  0.691344  1
