# generated using pymatgen
data_Ho12CdCo4Ru
_symmetry_space_group_name_H-M   'P 1'
_cell_length_a   8.24972248
_cell_length_b   8.24972259
_cell_length_c   8.24972219
_cell_angle_alpha   111.29106571
_cell_angle_beta   110.60948191
_cell_angle_gamma   106.55272412
_symmetry_Int_Tables_number   1
_chemical_formula_structural   Ho12CdCo4Ru
_chemical_formula_sum   'Ho12 Cd1 Co4 Ru1'
_cell_volume   431.35953069
_cell_formula_units_Z   1
loop_
 _symmetry_equiv_pos_site_id
 _symmetry_equiv_pos_as_xyz
  1  'x, y, z'
loop_
 _atom_site_type_symbol
 _atom_site_label
 _atom_site_symmetry_multiplicity
 _atom_site_fract_x
 _atom_site_fract_y
 _atom_site_fract_z
 _atom_site_occupancy
  Ho  Ho0  1  0.411160  0.218520  0.192640  1
  Ho  Ho1  1  0.588840  0.781480  0.807360  1
  Ho  Ho2  1  0.025880  0.218520  0.807360  1
  Ho  Ho3  1  0.974120  0.781480  0.192640  1
  Ho  Ho4  1  0.182359  0.283579  0.465937  1
  Ho  Ho5  1  0.817641  0.716421  0.534063  1
  Ho  Ho6  1  0.182359  0.716421  0.898780  1
  Ho  Ho7  1  0.817641  0.283579  0.101220  1
  Ho  Ho8  1  0.315964  0.624047  0.308083  1
  Ho  Ho9  1  0.684036  0.375953  0.691917  1
  Ho  Ho10  1  0.315964  0.007881  0.691917  1
  Ho  Ho11  1  0.684036  0.992119  0.308083  1
  Cd  Cd12  1  0.500000  0.500000  0.000000  1
  Co  Co13  1  0.369101  0.000000  0.369101  1
  Co  Co14  1  0.630899  0.000000  0.630899  1
  Co  Co15  1  0.112115  0.612115  0.500000  1
  Co  Co16  1  0.887885  0.387885  0.500000  1
  Ru  Ru17  1  0.000000  0.000000  0.000000  1
