# generated using pymatgen
data_HfPa3(Ni4P3)2
_symmetry_space_group_name_H-M   'P 1'
_cell_length_a   3.79909500
_cell_length_b   10.87221200
_cell_length_c   12.41445600
_cell_angle_alpha   90.00000000
_cell_angle_beta   90.00000000
_cell_angle_gamma   90.00000000
_symmetry_Int_Tables_number   1
_chemical_formula_structural   HfPa3(Ni4P3)2
_chemical_formula_sum   'Hf2 Pa6 Ni16 P12'
_cell_volume   512.77372029
_cell_formula_units_Z   2
loop_
 _symmetry_equiv_pos_site_id
 _symmetry_equiv_pos_as_xyz
  1  'x, y, z'
loop_
 _atom_site_type_symbol
 _atom_site_label
 _atom_site_symmetry_multiplicity
 _atom_site_fract_x
 _atom_site_fract_y
 _atom_site_fract_z
 _atom_site_occupancy
  Hf  Hf0  1  0.251503  0.000000  0.847600  1
  Hf  Hf1  1  0.751503  0.500000  0.152400  1
  Pa  Pa2  1  0.751977  0.000000  0.474124  1
  Pa  Pa3  1  0.251977  0.500000  0.525876  1
  Pa  Pa4  1  0.251760  0.678697  0.793794  1
  Pa  Pa5  1  0.251760  0.321303  0.793794  1
  Pa  Pa6  1  0.751760  0.821303  0.206206  1
  Pa  Pa7  1  0.751760  0.178697  0.206206  1
  Ni  Ni8  1  0.751482  0.000000  0.016374  1
  Ni  Ni9  1  0.251482  0.500000  0.983626  1
  Ni  Ni10  1  0.252479  0.203786  0.569880  1
  Ni  Ni11  1  0.252479  0.796214  0.569880  1
  Ni  Ni12  1  0.752479  0.296214  0.430120  1
  Ni  Ni13  1  0.752479  0.703786  0.430120  1
  Ni  Ni14  1  0.251155  0.619293  0.295147  1
  Ni  Ni15  1  0.251155  0.380707  0.295147  1
  Ni  Ni16  1  0.751155  0.880707  0.704853  1
  Ni  Ni17  1  0.751155  0.119293  0.704853  1
  Ni  Ni18  1  0.252067  0.166465  0.009988  1
  Ni  Ni19  1  0.252067  0.833535  0.009988  1
  Ni  Ni20  1  0.752067  0.333535  0.990012  1
  Ni  Ni21  1  0.752067  0.666465  0.990012  1
  Ni  Ni22  1  0.252168  0.000000  0.302063  1
  Ni  Ni23  1  0.752168  0.500000  0.697937  1
  P  P24  1  0.252307  0.188020  0.385065  1
  P  P25  1  0.252307  0.811980  0.385065  1
  P  P26  1  0.752307  0.311980  0.614935  1
  P  P27  1  0.752307  0.688020  0.614935  1
  P  P28  1  0.251356  0.000000  0.120610  1
  P  P29  1  0.751356  0.500000  0.879390  1
  P  P30  1  0.251705  0.660583  0.107286  1
  P  P31  1  0.251705  0.339417  0.107286  1
  P  P32  1  0.751705  0.839417  0.892714  1
  P  P33  1  0.751705  0.160583  0.892714  1
  P  P34  1  0.251370  0.000000  0.643626  1
  P  P35  1  0.751370  0.500000  0.356374  1
