# generated using pymatgen
data_La2Si7Pd12
_symmetry_space_group_name_H-M   'P 1'
_cell_length_a   10.02544100
_cell_length_b   10.02544074
_cell_length_c   3.96956500
_cell_angle_alpha   90.00000000
_cell_angle_beta   90.00000000
_cell_angle_gamma   120.00000416
_symmetry_Int_Tables_number   1
_chemical_formula_structural   La2Si7Pd12
_chemical_formula_sum   'La2 Si7 Pd12'
_cell_volume   345.52580774
_cell_formula_units_Z   1
loop_
 _symmetry_equiv_pos_site_id
 _symmetry_equiv_pos_as_xyz
  1  'x, y, z'
loop_
 _atom_site_type_symbol
 _atom_site_label
 _atom_site_symmetry_multiplicity
 _atom_site_fract_x
 _atom_site_fract_y
 _atom_site_fract_z
 _atom_site_occupancy
  La  La0  1  0.666667  0.333333  0.246750  1
  La  La1  1  0.000000  0.000000  0.750628  1
  Si  Si2  1  0.333333  0.666667  0.471356  1
  Si  Si3  1  0.735870  0.780720  0.250300  1
  Si  Si4  1  0.044850  0.264130  0.250300  1
  Si  Si5  1  0.219280  0.955150  0.250300  1
  Si  Si6  1  0.930587  0.553513  0.747593  1
  Si  Si7  1  0.622925  0.069413  0.747593  1
  Si  Si8  1  0.446487  0.377075  0.747593  1
  Pd  Pd9  1  0.771755  0.046829  0.248946  1
  Pd  Pd10  1  0.275073  0.228245  0.248946  1
  Pd  Pd11  1  0.953171  0.724927  0.248946  1
  Pd  Pd12  1  0.896037  0.286123  0.749101  1
  Pd  Pd13  1  0.390084  0.103963  0.749101  1
  Pd  Pd14  1  0.713877  0.609916  0.749101  1
  Pd  Pd15  1  0.479774  0.555138  0.247010  1
  Pd  Pd16  1  0.075364  0.520226  0.247010  1
  Pd  Pd17  1  0.444862  0.924636  0.247010  1
  Pd  Pd18  1  0.189930  0.774365  0.751311  1
  Pd  Pd19  1  0.584435  0.810070  0.751311  1
  Pd  Pd20  1  0.225635  0.415565  0.751311  1
