# generated using pymatgen
data_Ho6Lu4CuPPb6
_symmetry_space_group_name_H-M   'P 1'
_cell_length_a   9.08649400
_cell_length_b   9.08649258
_cell_length_c   6.62664000
_cell_angle_alpha   90.00000000
_cell_angle_beta   90.00000000
_cell_angle_gamma   120.00000516
_symmetry_Int_Tables_number   1
_chemical_formula_structural   Ho6Lu4CuPPb6
_chemical_formula_sum   'Ho6 Lu4 Cu1 P1 Pb6'
_cell_volume   473.82351200
_cell_formula_units_Z   1
loop_
 _symmetry_equiv_pos_site_id
 _symmetry_equiv_pos_as_xyz
  1  'x, y, z'
loop_
 _atom_site_type_symbol
 _atom_site_label
 _atom_site_symmetry_multiplicity
 _atom_site_fract_x
 _atom_site_fract_y
 _atom_site_fract_z
 _atom_site_occupancy
  Ho  Ho0  1  0.247386  0.000000  0.738169  1
  Ho  Ho1  1  0.752614  0.000000  0.261831  1
  Ho  Ho2  1  0.000000  0.247386  0.738169  1
  Ho  Ho3  1  0.000000  0.752614  0.261831  1
  Ho  Ho4  1  0.752614  0.752614  0.738169  1
  Ho  Ho5  1  0.247386  0.247386  0.261831  1
  Lu  Lu6  1  0.333333  0.666667  0.500000  1
  Lu  Lu7  1  0.666667  0.333333  0.500000  1
  Lu  Lu8  1  0.666667  0.333333  0.000000  1
  Lu  Lu9  1  0.333333  0.666667  0.000000  1
  Cu  Cu10  1  0.000000  0.000000  0.000000  1
  P  P11  1  0.000000  0.000000  0.500000  1
  Pb  Pb12  1  0.604448  0.000000  0.750087  1
  Pb  Pb13  1  0.395552  0.000000  0.249913  1
  Pb  Pb14  1  0.000000  0.604448  0.750087  1
  Pb  Pb15  1  0.000000  0.395552  0.249913  1
  Pb  Pb16  1  0.395552  0.395552  0.750087  1
  Pb  Pb17  1  0.604448  0.604448  0.249913  1
