# generated using pymatgen
data_Ho4Er2NbCo17P12
_symmetry_space_group_name_H-M   'P 1'
_cell_length_a   3.69442900
_cell_length_b   10.55357800
_cell_length_c   12.24519700
_cell_angle_alpha   90.00000000
_cell_angle_beta   90.00000000
_cell_angle_gamma   90.00000000
_symmetry_Int_Tables_number   1
_chemical_formula_structural   Ho4Er2NbCo17P12
_chemical_formula_sum   'Ho4 Er2 Nb1 Co17 P12'
_cell_volume   477.43343026
_cell_formula_units_Z   1
loop_
 _symmetry_equiv_pos_site_id
 _symmetry_equiv_pos_as_xyz
  1  'x, y, z'
loop_
 _atom_site_type_symbol
 _atom_site_label
 _atom_site_symmetry_multiplicity
 _atom_site_fract_x
 _atom_site_fract_y
 _atom_site_fract_z
 _atom_site_occupancy
  Ho  Ho0  1  0.750000  0.250000  0.473107  1
  Ho  Ho1  1  0.250000  0.750000  0.522398  1
  Ho  Ho2  1  0.750000  0.067019  0.204183  1
  Ho  Ho3  1  0.750000  0.432981  0.204183  1
  Er  Er4  1  0.250000  0.930193  0.792831  1
  Er  Er5  1  0.250000  0.569807  0.792831  1
  Nb  Nb6  1  0.250000  0.250000  0.844975  1
  Co  Co7  1  0.750000  0.750000  0.161515  1
  Co  Co8  1  0.250000  0.250000  0.298255  1
  Co  Co9  1  0.750000  0.750000  0.703523  1
  Co  Co10  1  0.750000  0.250000  0.015659  1
  Co  Co11  1  0.250000  0.750000  0.985249  1
  Co  Co12  1  0.250000  0.420566  0.010556  1
  Co  Co13  1  0.250000  0.079434  0.010556  1
  Co  Co14  1  0.750000  0.586522  0.995780  1
  Co  Co15  1  0.750000  0.913478  0.995780  1
  Co  Co16  1  0.250000  0.454963  0.567171  1
  Co  Co17  1  0.250000  0.045037  0.567171  1
  Co  Co18  1  0.750000  0.547836  0.430425  1
  Co  Co19  1  0.750000  0.952164  0.430425  1
  Co  Co20  1  0.250000  0.870378  0.291884  1
  Co  Co21  1  0.250000  0.629622  0.291884  1
  Co  Co22  1  0.750000  0.126654  0.705482  1
  Co  Co23  1  0.750000  0.373346  0.705482  1
  P  P24  1  0.250000  0.250000  0.119397  1
  P  P25  1  0.750000  0.750000  0.882352  1
  P  P26  1  0.250000  0.250000  0.643716  1
  P  P27  1  0.750000  0.750000  0.344543  1
  P  P28  1  0.250000  0.440139  0.382787  1
  P  P29  1  0.250000  0.059861  0.382787  1
  P  P30  1  0.750000  0.562222  0.614668  1
  P  P31  1  0.750000  0.937778  0.614668  1
  P  P32  1  0.250000  0.898507  0.110038  1
  P  P33  1  0.250000  0.601493  0.110038  1
  P  P34  1  0.750000  0.088437  0.896850  1
  P  P35  1  0.750000  0.411563  0.896850  1
