# generated using pymatgen
data_DyY3(Ho2Rh)4
_symmetry_space_group_name_H-M   'P 1'
_cell_length_a   6.25563500
_cell_length_b   7.15477651
_cell_length_c   9.48588000
_cell_angle_alpha   90.00000000
_cell_angle_beta   90.00000000
_cell_angle_gamma   89.89121166
_symmetry_Int_Tables_number   1
_chemical_formula_structural   DyY3(Ho2Rh)4
_chemical_formula_sum   'Dy1 Y3 Ho8 Rh4'
_cell_volume   424.56512486
_cell_formula_units_Z   1
loop_
 _symmetry_equiv_pos_site_id
 _symmetry_equiv_pos_as_xyz
  1  'x, y, z'
loop_
 _atom_site_type_symbol
 _atom_site_label
 _atom_site_symmetry_multiplicity
 _atom_site_fract_x
 _atom_site_fract_y
 _atom_site_fract_z
 _atom_site_occupancy
  Dy  Dy0  1  0.366401  0.967505  0.750000  1
  Y  Y1  1  0.866869  0.532044  0.250000  1
  Y  Y2  1  0.633182  0.031967  0.250000  1
  Y  Y3  1  0.133283  0.468179  0.750000  1
  Ho  Ho4  1  0.330057  0.677418  0.063041  1
  Ho  Ho5  1  0.170249  0.177313  0.436989  1
  Ho  Ho6  1  0.669777  0.322412  0.563304  1
  Ho  Ho7  1  0.829760  0.822703  0.936857  1
  Ho  Ho8  1  0.669777  0.322412  0.936696  1
  Ho  Ho9  1  0.829760  0.822703  0.563143  1
  Ho  Ho10  1  0.330057  0.677418  0.436959  1
  Ho  Ho11  1  0.170249  0.177313  0.063011  1
  Rh  Rh12  1  0.062735  0.882801  0.250000  1
  Rh  Rh13  1  0.437117  0.382681  0.250000  1
  Rh  Rh14  1  0.938590  0.116738  0.750000  1
  Rh  Rh15  1  0.562134  0.618392  0.750000  1
