# generated using pymatgen
data_Zr5NiSnBi2
_symmetry_space_group_name_H-M   'P 1'
_cell_length_a   5.88486800
_cell_length_b   8.79758696
_cell_length_c   8.79758792
_cell_angle_alpha   120.18052275
_cell_angle_beta   90.00000000
_cell_angle_gamma   90.00000000
_symmetry_Int_Tables_number   1
_chemical_formula_structural   Zr5NiSnBi2
_chemical_formula_sum   'Zr10 Ni2 Sn2 Bi4'
_cell_volume   393.73285239
_cell_formula_units_Z   2
loop_
 _symmetry_equiv_pos_site_id
 _symmetry_equiv_pos_as_xyz
  1  'x, y, z'
loop_
 _atom_site_type_symbol
 _atom_site_label
 _atom_site_symmetry_multiplicity
 _atom_site_fract_x
 _atom_site_fract_y
 _atom_site_fract_z
 _atom_site_occupancy
  Zr  Zr0  1  0.750000  0.746470  0.746470  1
  Zr  Zr1  1  0.250000  0.253530  0.253530  1
  Zr  Zr2  1  0.750000  0.007024  0.253229  1
  Zr  Zr3  1  0.250000  0.992976  0.746771  1
  Zr  Zr4  1  0.750000  0.253229  0.007024  1
  Zr  Zr5  1  0.250000  0.746771  0.992976  1
  Zr  Zr6  1  0.000000  0.664163  0.335837  1
  Zr  Zr7  1  0.000000  0.335837  0.664163  1
  Zr  Zr8  1  0.500000  0.335837  0.664163  1
  Zr  Zr9  1  0.500000  0.664163  0.335837  1
  Ni  Ni10  1  0.000000  0.000000  0.000000  1
  Ni  Ni11  1  0.500000  0.000000  0.000000  1
  Sn  Sn12  1  0.750000  0.393634  0.393634  1
  Sn  Sn13  1  0.250000  0.606366  0.606366  1
  Bi  Bi14  1  0.750000  0.001826  0.612226  1
  Bi  Bi15  1  0.250000  0.998174  0.387774  1
  Bi  Bi16  1  0.750000  0.612226  0.001826  1
  Bi  Bi17  1  0.250000  0.387774  0.998174  1
