# generated using pymatgen
data_Tb20Ga7Si8Ru
_symmetry_space_group_name_H-M   'P 1'
_cell_length_a   7.42526446
_cell_length_b   7.91271254
_cell_length_c   14.88647224
_cell_angle_alpha   89.88882660
_cell_angle_beta   89.97975613
_cell_angle_gamma   90.26780176
_symmetry_Int_Tables_number   1
_chemical_formula_structural   Tb20Ga7Si8Ru
_chemical_formula_sum   'Tb20 Ga7 Si8 Ru1'
_cell_volume   874.62828241
_cell_formula_units_Z   1
loop_
 _symmetry_equiv_pos_site_id
 _symmetry_equiv_pos_as_xyz
  1  'x, y, z'
loop_
 _atom_site_type_symbol
 _atom_site_label
 _atom_site_symmetry_multiplicity
 _atom_site_fract_x
 _atom_site_fract_y
 _atom_site_fract_z
 _atom_site_occupancy
  Tb  Tb0  1  0.672025  0.178835  0.625917  1
  Tb  Tb1  1  0.192863  0.331711  0.870058  1
  Tb  Tb2  1  0.319167  0.824227  0.122736  1
  Tb  Tb3  1  0.820930  0.674075  0.379154  1
  Tb  Tb4  1  0.318093  0.822888  0.379967  1
  Tb  Tb5  1  0.820148  0.676369  0.118673  1
  Tb  Tb6  1  0.673474  0.180448  0.875149  1
  Tb  Tb7  1  0.193823  0.329774  0.628567  1
  Tb  Tb8  1  0.515501  0.678261  0.595778  1
  Tb  Tb9  1  0.021849  0.810813  0.901500  1
  Tb  Tb10  1  0.479223  0.312536  0.092654  1
  Tb  Tb11  1  0.980149  0.183644  0.408140  1
  Tb  Tb12  1  0.475422  0.314072  0.406880  1
  Tb  Tb13  1  0.976626  0.181888  0.092688  1
  Tb  Tb14  1  0.518237  0.676965  0.903264  1
  Tb  Tb15  1  0.023480  0.815525  0.598233  1
  Tb  Tb16  1  0.825530  0.514926  0.750700  1
  Tb  Tb17  1  0.353716  0.981336  0.748255  1
  Tb  Tb18  1  0.152871  0.476754  0.251676  1
  Tb  Tb19  1  0.652779  0.020823  0.248597  1
  Ga  Ga20  1  0.653903  0.970430  0.459129  1
  Ga  Ga21  1  0.157973  0.527319  0.040179  1
  Ga  Ga22  1  0.340765  0.028247  0.958576  1
  Ga  Ga23  1  0.851101  0.467482  0.542225  1
  Ga  Ga24  1  0.980734  0.101548  0.751821  1
  Ga  Ga25  1  0.526116  0.601991  0.248742  1
  Ga  Ga26  1  0.023418  0.898418  0.251419  1
  Si  Si27  1  0.343736  0.027350  0.540829  1
  Si  Si28  1  0.852723  0.469119  0.958626  1
  Si  Si29  1  0.649881  0.972330  0.041322  1
  Si  Si30  1  0.153989  0.526169  0.459947  1
  Si  Si31  1  0.738022  0.877748  0.750353  1
  Si  Si32  1  0.230779  0.635456  0.749644  1
  Si  Si33  1  0.264692  0.122475  0.250170  1
  Si  Si34  1  0.765294  0.375976  0.249976  1
  Ru  Ru35  1  0.480968  0.412073  0.748454  1
