# generated using pymatgen
data_Sr4YbNp3O12
_symmetry_space_group_name_H-M   'P 1'
_cell_length_a   5.98272615
_cell_length_b   6.11269643
_cell_length_c   8.52459595
_cell_angle_alpha   90.06842607
_cell_angle_beta   89.76408038
_cell_angle_gamma   90.05441581
_symmetry_Int_Tables_number   1
_chemical_formula_structural   Sr4YbNp3O12
_chemical_formula_sum   'Sr4 Yb1 Np3 O12'
_cell_volume   311.74648851
_cell_formula_units_Z   1
loop_
 _symmetry_equiv_pos_site_id
 _symmetry_equiv_pos_as_xyz
  1  'x, y, z'
loop_
 _atom_site_type_symbol
 _atom_site_label
 _atom_site_symmetry_multiplicity
 _atom_site_fract_x
 _atom_site_fract_y
 _atom_site_fract_z
 _atom_site_occupancy
  Sr  Sr0  1  0.988126  0.040549  0.259288  1
  Sr  Sr1  1  0.484427  0.451514  0.739676  1
  Sr  Sr2  1  0.515573  0.548486  0.260324  1
  Sr  Sr3  1  0.011874  0.959451  0.740712  1
  Yb  Yb4  1  0.500000  0.000000  0.500000  1
  Np  Np5  1  0.500000  0.000000  0.000000  1
  Np  Np6  1  0.000000  0.500000  0.000000  1
  Np  Np7  1  0.000000  0.500000  0.500000  1
  O  O8  1  0.194792  0.218985  0.552189  1
  O  O9  1  0.721374  0.304876  0.452397  1
  O  O10  1  0.291098  0.704012  0.940219  1
  O  O11  1  0.798337  0.789591  0.056883  1
  O  O12  1  0.805208  0.781015  0.447811  1
  O  O13  1  0.278626  0.695124  0.547603  1
  O  O14  1  0.708902  0.295988  0.059781  1
  O  O15  1  0.201663  0.210409  0.943117  1
  O  O16  1  0.102168  0.464392  0.246593  1
  O  O17  1  0.596294  0.035358  0.767710  1
  O  O18  1  0.403706  0.964642  0.232290  1
  O  O19  1  0.897832  0.535608  0.753407  1
