# generated using pymatgen
data_Sr10FeW3N14
_symmetry_space_group_name_H-M   'P 1'
_cell_length_a   6.48036871
_cell_length_b   9.26090919
_cell_length_c   9.33663393
_cell_angle_alpha   114.84420690
_cell_angle_beta   96.90203388
_cell_angle_gamma   89.27250631
_symmetry_Int_Tables_number   1
_chemical_formula_structural   Sr10FeW3N14
_chemical_formula_sum   'Sr10 Fe1 W3 N14'
_cell_volume   504.34395517
_cell_formula_units_Z   1
loop_
 _symmetry_equiv_pos_site_id
 _symmetry_equiv_pos_as_xyz
  1  'x, y, z'
loop_
 _atom_site_type_symbol
 _atom_site_label
 _atom_site_symmetry_multiplicity
 _atom_site_fract_x
 _atom_site_fract_y
 _atom_site_fract_z
 _atom_site_occupancy
  Sr  Sr0  1  0.846051  0.590062  0.327035  1
  Sr  Sr1  1  0.266228  0.985703  0.554817  1
  Sr  Sr2  1  0.699928  0.408868  0.842342  1
  Sr  Sr3  1  0.295260  0.583869  0.145667  1
  Sr  Sr4  1  0.400716  0.792512  0.926275  1
  Sr  Sr5  1  0.601480  0.210365  0.090234  1
  Sr  Sr6  1  0.151843  0.408540  0.670364  1
  Sr  Sr7  1  0.897571  0.848256  0.759490  1
  Sr  Sr8  1  0.109764  0.157100  0.243418  1
  Sr  Sr9  1  0.734775  0.023754  0.441772  1
  Fe  Fe10  1  0.575256  0.358172  0.473304  1
  W  W11  1  0.424776  0.635216  0.524978  1
  W  W12  1  0.122863  0.215788  0.915504  1
  W  W13  1  0.879867  0.782947  0.083955  1
  N  N14  1  0.525488  0.548917  0.673120  1
  N  N15  1  0.467332  0.447489  0.330943  1
  N  N16  1  0.152344  0.699123  0.550227  1
  N  N17  1  0.824368  0.295899  0.437791  1
  N  N18  1  0.422548  0.202706  0.475268  1
  N  N19  1  0.588676  0.805595  0.534106  1
  N  N20  1  0.955387  0.136411  0.715132  1
  N  N21  1  0.050613  0.866306  0.282574  1
  N  N22  1  0.234608  0.050827  0.964446  1
  N  N23  1  0.766227  0.947741  0.036568  1
  N  N24  1  0.354165  0.330470  0.903933  1
  N  N25  1  0.968391  0.347185  0.080355  1
  N  N26  1  0.035276  0.651614  0.919240  1
  N  N27  1  0.648199  0.668564  0.097144  1
