# generated using pymatgen
data_Ta2CoRu3Pt2
_symmetry_space_group_name_H-M   'P 1'
_cell_length_a   3.89581100
_cell_length_b   3.96574300
_cell_length_c   7.62291900
_cell_angle_alpha   90.00000000
_cell_angle_beta   90.00000000
_cell_angle_gamma   90.00000000
_symmetry_Int_Tables_number   1
_chemical_formula_structural   Ta2CoRu3Pt2
_chemical_formula_sum   'Ta2 Co1 Ru3 Pt2'
_cell_volume   117.77246117
_cell_formula_units_Z   1
loop_
 _symmetry_equiv_pos_site_id
 _symmetry_equiv_pos_as_xyz
  1  'x, y, z'
loop_
 _atom_site_type_symbol
 _atom_site_label
 _atom_site_symmetry_multiplicity
 _atom_site_fract_x
 _atom_site_fract_y
 _atom_site_fract_z
 _atom_site_occupancy
  Ta  Ta0  1  0.000000  0.000000  0.252756  1
  Ta  Ta1  1  0.000000  0.000000  0.747244  1
  Co  Co2  1  0.000000  0.500000  0.500000  1
  Ru  Ru3  1  0.000000  0.500000  0.000000  1
  Ru  Ru4  1  0.500000  0.000000  0.500000  1
  Ru  Ru5  1  0.500000  0.000000  0.000000  1
  Pt  Pt6  1  0.500000  0.500000  0.255830  1
  Pt  Pt7  1  0.500000  0.500000  0.744170  1
