# generated using pymatgen
data_Ho4Tm12CdIn3Ni4
_symmetry_space_group_name_H-M   'P 1'
_cell_length_a   9.44951947
_cell_length_b   9.45238721
_cell_length_c   9.45238700
_cell_angle_alpha   60.00000423
_cell_angle_beta   59.98996471
_cell_angle_gamma   59.98996288
_symmetry_Int_Tables_number   1
_chemical_formula_structural   Ho4Tm12CdIn3Ni4
_chemical_formula_sum   'Ho4 Tm12 Cd1 In3 Ni4'
_cell_volume   596.91410403
_cell_formula_units_Z   1
loop_
 _symmetry_equiv_pos_site_id
 _symmetry_equiv_pos_as_xyz
  1  'x, y, z'
loop_
 _atom_site_type_symbol
 _atom_site_label
 _atom_site_symmetry_multiplicity
 _atom_site_fract_x
 _atom_site_fract_y
 _atom_site_fract_z
 _atom_site_occupancy
  Ho  Ho0  1  0.348139  0.348397  0.348397  1
  Ho  Ho1  1  0.348139  0.348397  0.955067  1
  Ho  Ho2  1  0.348139  0.955067  0.348397  1
  Ho  Ho3  1  0.954346  0.348551  0.348551  1
  Tm  Tm4  1  0.811713  0.187978  0.187978  1
  Tm  Tm5  1  0.187438  0.812774  0.812774  1
  Tm  Tm6  1  0.187438  0.812774  0.187016  1
  Tm  Tm7  1  0.811713  0.187978  0.812331  1
  Tm  Tm8  1  0.187438  0.187016  0.812774  1
  Tm  Tm9  1  0.811713  0.812331  0.187978  1
  Tm  Tm10  1  0.938210  0.563520  0.563520  1
  Tm  Tm11  1  0.564525  0.936235  0.936235  1
  Tm  Tm12  1  0.564525  0.936235  0.563003  1
  Tm  Tm13  1  0.938210  0.563520  0.934750  1
  Tm  Tm14  1  0.564525  0.563003  0.936235  1
  Tm  Tm15  1  0.938210  0.934750  0.563520  1
  Cd  Cd16  1  0.251170  0.582944  0.582944  1
  In  In17  1  0.581589  0.583380  0.583380  1
  In  In18  1  0.581589  0.583380  0.251652  1
  In  In19  1  0.581589  0.251652  0.583380  1
  Ni  Ni20  1  0.141974  0.141727  0.141727  1
  Ni  Ni21  1  0.141974  0.141727  0.574571  1
  Ni  Ni22  1  0.141974  0.574571  0.141727  1
  Ni  Ni23  1  0.573716  0.142095  0.142095  1
