# generated using pymatgen
data_TbHo3TcB12Rh
_symmetry_space_group_name_H-M   'P 1'
_cell_length_a   3.67977500
_cell_length_b   9.13605764
_cell_length_c   11.53203983
_cell_angle_alpha   90.42799061
_cell_angle_beta   90.00000000
_cell_angle_gamma   90.00000000
_symmetry_Int_Tables_number   1
_chemical_formula_structural   TbHo3TcB12Rh
_chemical_formula_sum   'Tb2 Ho6 Tc2 B24 Rh2'
_cell_volume   387.68063888
_cell_formula_units_Z   2
loop_
 _symmetry_equiv_pos_site_id
 _symmetry_equiv_pos_as_xyz
  1  'x, y, z'
loop_
 _atom_site_type_symbol
 _atom_site_label
 _atom_site_symmetry_multiplicity
 _atom_site_fract_x
 _atom_site_fract_y
 _atom_site_fract_z
 _atom_site_occupancy
  Tb  Tb0  1  0.500000  0.319095  0.411097  1
  Tb  Tb1  1  0.500000  0.680905  0.588903  1
  Ho  Ho2  1  0.500000  0.173402  0.917326  1
  Ho  Ho3  1  0.500000  0.826598  0.082674  1
  Ho  Ho4  1  0.500000  0.441614  0.126573  1
  Ho  Ho5  1  0.500000  0.558386  0.873427  1
  Ho  Ho6  1  0.500000  0.054080  0.628821  1
  Ho  Ho7  1  0.500000  0.945920  0.371179  1
  Tc  Tc8  1  0.500000  0.138557  0.179683  1
  Tc  Tc9  1  0.500000  0.861443  0.820317  1
  B  B10  1  0.000000  0.106898  0.471298  1
  B  B11  1  0.000000  0.893102  0.528702  1
  B  B12  1  0.000000  0.392897  0.970260  1
  B  B13  1  0.000000  0.607103  0.029740  1
  B  B14  1  0.000000  0.131879  0.314464  1
  B  B15  1  0.000000  0.868121  0.685536  1
  B  B16  1  0.000000  0.367448  0.816803  1
  B  B17  1  0.000000  0.632552  0.183197  1
  B  B18  1  0.000000  0.053080  0.067333  1
  B  B19  1  0.000000  0.946920  0.932667  1
  B  B20  1  0.000000  0.445260  0.566578  1
  B  B21  1  0.000000  0.554740  0.433422  1
  B  B22  1  0.000000  0.483912  0.287204  1
  B  B23  1  0.000000  0.516088  0.712796  1
  B  B24  1  0.000000  0.016829  0.787326  1
  B  B25  1  0.000000  0.983171  0.212674  1
  B  B26  1  0.000000  0.247846  0.081079  1
  B  B27  1  0.000000  0.752154  0.918921  1
  B  B28  1  0.000000  0.250522  0.579446  1
  B  B29  1  0.000000  0.749478  0.420554  1
  B  B30  1  0.000000  0.292257  0.234142  1
  B  B31  1  0.000000  0.707743  0.765858  1
  B  B32  1  0.000000  0.208386  0.735240  1
  B  B33  1  0.000000  0.791614  0.264760  1
  Rh  Rh34  1  0.500000  0.361582  0.679204  1
  Rh  Rh35  1  0.500000  0.638418  0.320796  1
