# generated using pymatgen
data_TaTi11Al8Pt4C3N
_symmetry_space_group_name_H-M   'P 1'
_cell_length_a   8.21523653
_cell_length_b   8.21523600
_cell_length_c   8.21523600
_cell_angle_alpha   60.11314032
_cell_angle_beta   60.11314243
_cell_angle_gamma   60.11313808
_symmetry_Int_Tables_number   1
_chemical_formula_structural   TaTi11Al8Pt4C3N
_chemical_formula_sum   'Ta1 Ti11 Al8 Pt4 C3 N1'
_cell_volume   393.05830852
_cell_formula_units_Z   1
loop_
 _symmetry_equiv_pos_site_id
 _symmetry_equiv_pos_as_xyz
  1  'x, y, z'
loop_
 _atom_site_type_symbol
 _atom_site_label
 _atom_site_symmetry_multiplicity
 _atom_site_fract_x
 _atom_site_fract_y
 _atom_site_fract_z
 _atom_site_occupancy
  Ta  Ta0  1  0.815536  0.815536  0.184679  1
  Ti  Ti1  1  0.065442  0.433698  0.435706  1
  Ti  Ti2  1  0.430811  0.066806  0.066181  1
  Ti  Ti3  1  0.066566  0.066566  0.431814  1
  Ti  Ti4  1  0.066806  0.430811  0.066181  1
  Ti  Ti5  1  0.433698  0.065442  0.435706  1
  Ti  Ti6  1  0.182941  0.818947  0.184067  1
  Ti  Ti7  1  0.184172  0.816304  0.814623  1
  Ti  Ti8  1  0.818947  0.182941  0.184067  1
  Ti  Ti9  1  0.816304  0.184172  0.814623  1
  Ti  Ti10  1  0.435004  0.435004  0.064784  1
  Ti  Ti11  1  0.183556  0.183556  0.817978  1
  Al  Al12  1  0.413573  0.757069  0.414939  1
  Al  Al13  1  0.835889  0.835889  0.494802  1
  Al  Al14  1  0.492866  0.835406  0.835568  1
  Al  Al15  1  0.836493  0.836493  0.833361  1
  Al  Al16  1  0.757069  0.413573  0.414939  1
  Al  Al17  1  0.414078  0.414078  0.413971  1
  Al  Al18  1  0.414568  0.414568  0.756963  1
  Al  Al19  1  0.835406  0.492866  0.835568  1
  Pt  Pt20  1  0.624751  0.125121  0.625084  1
  Pt  Pt21  1  0.625145  0.625145  0.124963  1
  Pt  Pt22  1  0.125121  0.624751  0.625084  1
  Pt  Pt23  1  0.625051  0.625051  0.624812  1
  C  C24  1  0.127958  0.623062  0.124423  1
  C  C25  1  0.124549  0.124549  0.625723  1
  C  C26  1  0.623062  0.127958  0.124423  1
  N  N27  1  0.124637  0.124637  0.124966  1
