# generated using pymatgen
data_Er8Ti9Nb3Si15Sn
_symmetry_space_group_name_H-M   'P 1'
_cell_length_a   7.09094782
_cell_length_b   7.04860830
_cell_length_c   12.99096310
_cell_angle_alpha   89.95724327
_cell_angle_beta   89.88292643
_cell_angle_gamma   89.92215049
_symmetry_Int_Tables_number   1
_chemical_formula_structural   Er8Ti9Nb3Si15Sn
_chemical_formula_sum   'Er8 Ti9 Nb3 Si15 Sn1'
_cell_volume   649.30326685
_cell_formula_units_Z   1
loop_
 _symmetry_equiv_pos_site_id
 _symmetry_equiv_pos_as_xyz
  1  'x, y, z'
loop_
 _atom_site_type_symbol
 _atom_site_label
 _atom_site_symmetry_multiplicity
 _atom_site_fract_x
 _atom_site_fract_y
 _atom_site_fract_z
 _atom_site_occupancy
  Er  Er0  1  0.342837  0.998599  0.461231  1
  Er  Er1  1  0.505993  0.835300  0.718813  1
  Er  Er2  1  0.501253  0.159013  0.217072  1
  Er  Er3  1  0.841256  0.497562  0.281765  1
  Er  Er4  1  0.158604  0.508520  0.785809  1
  Er  Er5  1  0.661095  0.997444  0.968865  1
  Er  Er6  1  0.991685  0.348116  0.527655  1
  Er  Er7  1  0.000827  0.659177  0.034196  1
  Ti  Ti8  1  0.672326  0.673438  0.499637  1
  Ti  Ti9  1  0.153148  0.008399  0.882023  1
  Ti  Ti10  1  0.492160  0.650306  0.126197  1
  Ti  Ti11  1  0.514934  0.353427  0.626405  1
  Ti  Ti12  1  0.653983  0.492850  0.876326  1
  Ti  Ti13  1  0.346158  0.509313  0.372921  1
  Ti  Ti14  1  0.846868  0.992758  0.374438  1
  Ti  Ti15  1  0.010208  0.151465  0.124364  1
  Ti  Ti16  1  0.979309  0.836084  0.619876  1
  Nb  Nb17  1  0.326976  0.326731  0.001419  1
  Nb  Nb18  1  0.173842  0.826335  0.249675  1
  Nb  Nb19  1  0.817478  0.175418  0.751660  1
  Si  Si20  1  0.371643  0.703925  0.935329  1
  Si  Si21  1  0.627516  0.297821  0.432361  1
  Si  Si22  1  0.705173  0.369696  0.067464  1
  Si  Si23  1  0.296069  0.630940  0.565914  1
  Si  Si24  1  0.797078  0.869965  0.183787  1
  Si  Si25  1  0.129613  0.203312  0.315606  1
  Si  Si26  1  0.871215  0.799495  0.816563  1
  Si  Si27  1  0.295047  0.952439  0.065835  1
  Si  Si28  1  0.549727  0.790157  0.313704  1
  Si  Si29  1  0.458898  0.208110  0.819389  1
  Si  Si30  1  0.794634  0.545291  0.686690  1
  Si  Si31  1  0.207514  0.452566  0.186149  1
  Si  Si32  1  0.704071  0.047287  0.563502  1
  Si  Si33  1  0.953343  0.293346  0.936234  1
  Si  Si34  1  0.046058  0.708647  0.433678  1
  Sn  Sn35  1  0.201459  0.126751  0.677447  1
