# generated using pymatgen
data_Na4P3Pd4
_symmetry_space_group_name_H-M   'P 1'
_cell_length_a   10.33001965
_cell_length_b   10.33002007
_cell_length_c   7.54753500
_cell_angle_alpha   72.76457711
_cell_angle_beta   72.76457507
_cell_angle_gamma   31.97575376
_symmetry_Int_Tables_number   1
_chemical_formula_structural   Na4P3Pd4
_chemical_formula_sum   'Na8 P6 Pd8'
_cell_volume   405.73942628
_cell_formula_units_Z   2
loop_
 _symmetry_equiv_pos_site_id
 _symmetry_equiv_pos_as_xyz
  1  'x, y, z'
loop_
 _atom_site_type_symbol
 _atom_site_label
 _atom_site_symmetry_multiplicity
 _atom_site_fract_x
 _atom_site_fract_y
 _atom_site_fract_z
 _atom_site_occupancy
  Na  Na0  1  0.944640  0.189513  0.322660  1
  Na  Na1  1  0.055360  0.810487  0.677340  1
  Na  Na2  1  0.810487  0.055360  0.177340  1
  Na  Na3  1  0.472593  0.190858  0.913587  1
  Na  Na4  1  0.809142  0.527407  0.586413  1
  Na  Na5  1  0.190858  0.472593  0.413587  1
  Na  Na6  1  0.189513  0.944640  0.822660  1
  Na  Na7  1  0.527407  0.809142  0.086413  1
  P  P8  1  0.309702  0.031184  0.428567  1
  P  P9  1  0.413286  0.586714  0.250000  1
  P  P10  1  0.031184  0.309702  0.928567  1
  P  P11  1  0.690298  0.968816  0.571433  1
  P  P12  1  0.968816  0.690298  0.071433  1
  P  P13  1  0.586714  0.413286  0.750000  1
  Pd  Pd14  1  0.571815  0.304483  0.526871  1
  Pd  Pd15  1  0.695517  0.428185  0.973129  1
  Pd  Pd16  1  0.304483  0.571815  0.026871  1
  Pd  Pd17  1  0.428185  0.695517  0.473129  1
  Pd  Pd18  1  0.648968  0.903034  0.326204  1
  Pd  Pd19  1  0.903034  0.648968  0.826204  1
  Pd  Pd20  1  0.351032  0.096966  0.673796  1
  Pd  Pd21  1  0.096966  0.351032  0.173796  1
