# generated using pymatgen
data_Sr3Yb6PrPt8
_symmetry_space_group_name_H-M   'P 1'
_cell_length_a   7.62464400
_cell_length_b   7.78494888
_cell_length_c   14.80950230
_cell_angle_alpha   89.74191055
_cell_angle_beta   90.00000000
_cell_angle_gamma   90.00000000
_symmetry_Int_Tables_number   1
_chemical_formula_structural   Sr3Yb6PrPt8
_chemical_formula_sum   'Sr6 Yb12 Pr2 Pt16'
_cell_volume   879.04557830
_cell_formula_units_Z   2
loop_
 _symmetry_equiv_pos_site_id
 _symmetry_equiv_pos_as_xyz
  1  'x, y, z'
loop_
 _atom_site_type_symbol
 _atom_site_label
 _atom_site_symmetry_multiplicity
 _atom_site_fract_x
 _atom_site_fract_y
 _atom_site_fract_z
 _atom_site_occupancy
  Sr  Sr0  1  0.499027  0.675336  0.403549  1
  Sr  Sr1  1  0.999027  0.824664  0.096451  1
  Sr  Sr2  1  0.498948  0.675335  0.095974  1
  Sr  Sr3  1  0.998948  0.824665  0.404026  1
  Sr  Sr4  1  0.500982  0.325755  0.596871  1
  Sr  Sr5  1  0.000982  0.174245  0.903129  1
  Yb  Yb6  1  0.338873  0.832472  0.877105  1
  Yb  Yb7  1  0.838873  0.667528  0.622895  1
  Yb  Yb8  1  0.660666  0.165107  0.376851  1
  Yb  Yb9  1  0.160666  0.334893  0.123149  1
  Yb  Yb10  1  0.660702  0.167807  0.122743  1
  Yb  Yb11  1  0.160702  0.332193  0.377257  1
  Yb  Yb12  1  0.339141  0.831772  0.623344  1
  Yb  Yb13  1  0.839141  0.668228  0.876656  1
  Yb  Yb14  1  0.176678  0.500390  0.749683  1
  Yb  Yb15  1  0.676678  0.999610  0.750317  1
  Yb  Yb16  1  0.823103  0.500897  0.249879  1
  Yb  Yb17  1  0.323103  0.999103  0.250121  1
  Pr  Pr18  1  0.497288  0.321985  0.900671  1
  Pr  Pr19  1  0.997288  0.178015  0.599329  1
  Pt  Pt20  1  0.335565  0.048576  0.038960  1
  Pt  Pt21  1  0.835565  0.451424  0.461040  1
  Pt  Pt22  1  0.674806  0.970686  0.544611  1
  Pt  Pt23  1  0.174806  0.529314  0.955389  1
  Pt  Pt24  1  0.662533  0.971764  0.954076  1
  Pt  Pt25  1  0.162533  0.528236  0.545924  1
  Pt  Pt26  1  0.329744  0.041823  0.463093  1
  Pt  Pt27  1  0.829744  0.458177  0.036907  1
  Pt  Pt28  1  0.545567  0.622585  0.753709  1
  Pt  Pt29  1  0.045567  0.877415  0.746291  1
  Pt  Pt30  1  0.454568  0.370501  0.250451  1
  Pt  Pt31  1  0.954568  0.129499  0.249549  1
  Pt  Pt32  1  0.303756  0.132344  0.753469  1
  Pt  Pt33  1  0.803756  0.367656  0.746531  1
  Pt  Pt34  1  0.698051  0.872975  0.250175  1
  Pt  Pt35  1  0.198051  0.627025  0.249825  1
