# generated using pymatgen
data_Nd5Ge2Ir
_symmetry_space_group_name_H-M   'P 1'
_cell_length_a   12.38060500
_cell_length_b   8.92129800
_cell_length_c   7.99068900
_cell_angle_alpha   90.00000000
_cell_angle_beta   90.00000000
_cell_angle_gamma   90.00000000
_symmetry_Int_Tables_number   1
_chemical_formula_structural   Nd5Ge2Ir
_chemical_formula_sum   'Nd20 Ge8 Ir4'
_cell_volume   882.58012312
_cell_formula_units_Z   4
loop_
 _symmetry_equiv_pos_site_id
 _symmetry_equiv_pos_as_xyz
  1  'x, y, z'
loop_
 _atom_site_type_symbol
 _atom_site_label
 _atom_site_symmetry_multiplicity
 _atom_site_fract_x
 _atom_site_fract_y
 _atom_site_fract_z
 _atom_site_occupancy
  Nd  Nd0  1  0.001341  0.249999  0.039665  1
  Nd  Nd1  1  0.295212  0.750000  0.143479  1
  Nd  Nd2  1  0.282634  0.249999  0.168374  1
  Nd  Nd3  1  0.574414  0.535873  0.181616  1
  Nd  Nd4  1  0.574414  0.964126  0.181616  1
  Nd  Nd5  1  0.074414  0.535873  0.318383  1
  Nd  Nd6  1  0.074414  0.964126  0.318383  1
  Nd  Nd7  1  0.782635  0.249999  0.331626  1
  Nd  Nd8  1  0.795212  0.750000  0.356522  1
  Nd  Nd9  1  0.501342  0.249999  0.460337  1
  Nd  Nd10  1  0.498658  0.750000  0.539664  1
  Nd  Nd11  1  0.204788  0.249999  0.643478  1
  Nd  Nd12  1  0.217365  0.750000  0.668375  1
  Nd  Nd13  1  0.925587  0.035873  0.681618  1
  Nd  Nd14  1  0.925587  0.464127  0.681618  1
  Nd  Nd15  1  0.425586  0.035873  0.818384  1
  Nd  Nd16  1  0.425586  0.464127  0.818384  1
  Nd  Nd17  1  0.717365  0.750000  0.831627  1
  Nd  Nd18  1  0.704788  0.249999  0.856522  1
  Nd  Nd19  1  0.998658  0.750000  0.960337  1
  Ge  Ge20  1  0.829002  0.504720  0.062407  1
  Ge  Ge21  1  0.829002  0.995280  0.062407  1
  Ge  Ge22  1  0.329002  0.504720  0.437593  1
  Ge  Ge23  1  0.329002  0.995280  0.437593  1
  Ge  Ge24  1  0.670999  0.004719  0.562407  1
  Ge  Ge25  1  0.670999  0.495280  0.562407  1
  Ge  Ge26  1  0.170999  0.004719  0.937593  1
  Ge  Ge27  1  0.170999  0.495280  0.937593  1
  Ir  Ir28  1  0.513101  0.249999  0.073433  1
  Ir  Ir29  1  0.013101  0.249999  0.426567  1
  Ir  Ir30  1  0.986899  0.750000  0.573432  1
  Ir  Ir31  1  0.486899  0.750000  0.926568  1
