# generated using pymatgen
data_Dy3PaAl17GaIr6
_symmetry_space_group_name_H-M   'P 1'
_cell_length_a   7.56352926
_cell_length_b   7.55798806
_cell_length_c   9.43734900
_cell_angle_alpha   90.00000000
_cell_angle_beta   90.00000000
_cell_angle_gamma   119.46135048
_symmetry_Int_Tables_number   1
_chemical_formula_structural   Dy3PaAl17GaIr6
_chemical_formula_sum   'Dy3 Pa1 Al17 Ga1 Ir6'
_cell_volume   469.72438019
_cell_formula_units_Z   1
loop_
 _symmetry_equiv_pos_site_id
 _symmetry_equiv_pos_as_xyz
  1  'x, y, z'
loop_
 _atom_site_type_symbol
 _atom_site_label
 _atom_site_symmetry_multiplicity
 _atom_site_fract_x
 _atom_site_fract_y
 _atom_site_fract_z
 _atom_site_occupancy
  Dy  Dy0  1  0.005445  0.326053  0.250000  1
  Dy  Dy1  1  0.673056  0.994319  0.750000  1
  Dy  Dy2  1  0.326255  0.004972  0.250000  1
  Pa  Pa3  1  0.995825  0.673266  0.750000  1
  Al  Al4  1  0.133975  0.132905  0.750000  1
  Al  Al5  1  0.001295  0.333143  0.574747  1
  Al  Al6  1  0.998779  0.664032  0.421735  1
  Al  Al7  1  0.998779  0.664032  0.078265  1
  Al  Al8  1  0.339566  0.004426  0.925057  1
  Al  Al9  1  0.001295  0.333143  0.925253  1
  Al  Al10  1  0.664573  0.999671  0.075010  1
  Al  Al11  1  0.664573  0.999671  0.424990  1
  Al  Al12  1  0.339566  0.004426  0.574943  1
  Al  Al13  1  0.333118  0.333205  0.054663  1
  Al  Al14  1  0.663045  0.665630  0.946894  1
  Al  Al15  1  0.663045  0.665630  0.553106  1
  Al  Al16  1  0.333118  0.333205  0.445337  1
  Al  Al17  1  0.338881  0.547407  0.750000  1
  Al  Al18  1  0.660118  0.448647  0.250000  1
  Al  Al19  1  0.547414  0.341770  0.750000  1
  Al  Al20  1  0.449648  0.661819  0.250000  1
  Ga  Ga21  1  0.867530  0.869203  0.250000  1
  Ir  Ir22  1  0.674321  0.330823  0.501796  1
  Ir  Ir23  1  0.327009  0.672600  0.501827  1
  Ir  Ir24  1  0.327009  0.672600  0.998173  1
  Ir  Ir25  1  0.674321  0.330823  0.998204  1
  Ir  Ir26  1  0.999218  0.996289  0.505684  1
  Ir  Ir27  1  0.999218  0.996289  0.994316  1
