# generated using pymatgen
data_Ce2Sm2Zn4Co3Pd
_symmetry_space_group_name_H-M   'P 1'
_cell_length_a   4.17367600
_cell_length_b   6.91953642
_cell_length_c   7.83822345
_cell_angle_alpha   92.31472198
_cell_angle_beta   90.00000000
_cell_angle_gamma   90.00000000
_symmetry_Int_Tables_number   1
_chemical_formula_structural   Ce2Sm2Zn4Co3Pd
_chemical_formula_sum   'Ce2 Sm2 Zn4 Co3 Pd1'
_cell_volume   226.18242925
_cell_formula_units_Z   1
loop_
 _symmetry_equiv_pos_site_id
 _symmetry_equiv_pos_as_xyz
  1  'x, y, z'
loop_
 _atom_site_type_symbol
 _atom_site_label
 _atom_site_symmetry_multiplicity
 _atom_site_fract_x
 _atom_site_fract_y
 _atom_site_fract_z
 _atom_site_occupancy
  Ce  Ce0  1  0.250000  0.065224  0.322990  1
  Ce  Ce1  1  0.750000  0.946331  0.660098  1
  Sm  Sm2  1  0.250000  0.538750  0.191913  1
  Sm  Sm3  1  0.750000  0.444378  0.812096  1
  Zn  Zn4  1  0.250000  0.146619  0.932197  1
  Zn  Zn5  1  0.750000  0.866733  0.078307  1
  Zn  Zn6  1  0.250000  0.615780  0.563904  1
  Zn  Zn7  1  0.750000  0.379598  0.432786  1
  Co  Co8  1  0.750000  0.764686  0.419573  1
  Co  Co9  1  0.250000  0.234637  0.580740  1
  Co  Co10  1  0.750000  0.235663  0.119491  1
  Pd  Pd11  1  0.250000  0.761601  0.885904  1
