# generated using pymatgen
data_Cs4V3P(PtS4)4
_symmetry_space_group_name_H-M   'P 1'
_cell_length_a   8.32841604
_cell_length_b   8.32841604
_cell_length_c   13.00036600
_cell_angle_alpha   90.00000000
_cell_angle_beta   90.00000000
_cell_angle_gamma   91.96386454
_symmetry_Int_Tables_number   1
_chemical_formula_structural   Cs4V3P(PtS4)4
_chemical_formula_sum   'Cs4 V3 P1 Pt4 S16'
_cell_volume   901.20841861
_cell_formula_units_Z   1
loop_
 _symmetry_equiv_pos_site_id
 _symmetry_equiv_pos_as_xyz
  1  'x, y, z'
loop_
 _atom_site_type_symbol
 _atom_site_label
 _atom_site_symmetry_multiplicity
 _atom_site_fract_x
 _atom_site_fract_y
 _atom_site_fract_z
 _atom_site_occupancy
  Cs  Cs0  1  0.000710  0.499707  0.751366  1
  Cs  Cs1  1  0.500293  0.999290  0.751366  1
  Cs  Cs2  1  0.500293  0.999290  0.248634  1
  Cs  Cs3  1  0.000710  0.499707  0.248634  1
  V  V4  1  0.749820  0.749663  0.000000  1
  V  V5  1  0.250337  0.250180  0.000000  1
  V  V6  1  0.249737  0.750263  0.500000  1
  P  P7  1  0.749467  0.250533  0.500000  1
  Pt  Pt8  1  0.486108  0.513892  0.500000  1
  Pt  Pt9  1  0.999935  0.000065  0.000000  1
  Pt  Pt10  1  0.500062  0.499938  0.000000  1
  Pt  Pt11  1  0.013922  0.986078  0.500000  1
  S  S12  1  0.363242  0.362897  0.133588  1
  S  S13  1  0.637103  0.636758  0.133588  1
  S  S14  1  0.141288  0.858712  0.364835  1
  S  S15  1  0.864710  0.135290  0.381462  1
  S  S16  1  0.637103  0.636758  0.866412  1
  S  S17  1  0.363242  0.362897  0.866412  1
  S  S18  1  0.141288  0.858712  0.635165  1
  S  S19  1  0.864710  0.135290  0.618538  1
  S  S20  1  0.502235  0.231428  0.500000  1
  S  S21  1  0.508302  0.793147  0.500000  1
  S  S22  1  0.006768  0.718456  0.000000  1
  S  S23  1  0.993297  0.281651  0.000000  1
  S  S24  1  0.768572  0.497765  0.500000  1
  S  S25  1  0.206853  0.491698  0.500000  1
  S  S26  1  0.281544  0.993232  0.000000  1
  S  S27  1  0.718349  0.006703  0.000000  1
