# generated using pymatgen
data_Nd2ErCoSn6
_symmetry_space_group_name_H-M   'P 1'
_cell_length_a   8.50616127
_cell_length_b   8.50616051
_cell_length_c   13.37059100
_cell_angle_alpha   90.00000000
_cell_angle_beta   90.00000000
_cell_angle_gamma   148.53800685
_symmetry_Int_Tables_number   1
_chemical_formula_structural   Nd2ErCoSn6
_chemical_formula_sum   'Nd4 Er2 Co2 Sn12'
_cell_volume   504.93145537
_cell_formula_units_Z   2
loop_
 _symmetry_equiv_pos_site_id
 _symmetry_equiv_pos_as_xyz
  1  'x, y, z'
loop_
 _atom_site_type_symbol
 _atom_site_label
 _atom_site_symmetry_multiplicity
 _atom_site_fract_x
 _atom_site_fract_y
 _atom_site_fract_z
 _atom_site_occupancy
  Nd  Nd0  1  0.900660  0.099340  0.092549  1
  Nd  Nd1  1  0.099340  0.900660  0.592549  1
  Nd  Nd2  1  0.099340  0.900660  0.907451  1
  Nd  Nd3  1  0.900660  0.099340  0.407451  1
  Er  Er4  1  0.899226  0.100774  0.750000  1
  Er  Er5  1  0.100774  0.899226  0.250000  1
  Co  Co6  1  0.296530  0.703470  0.250000  1
  Co  Co7  1  0.703470  0.296530  0.750000  1
  Sn  Sn8  1  0.755238  0.244762  0.572106  1
  Sn  Sn9  1  0.426889  0.573111  0.579856  1
  Sn  Sn10  1  0.573111  0.426889  0.420144  1
  Sn  Sn11  1  0.732452  0.267548  0.250000  1
  Sn  Sn12  1  0.267548  0.732452  0.750000  1
  Sn  Sn13  1  0.244762  0.755238  0.072106  1
  Sn  Sn14  1  0.244762  0.755238  0.427894  1
  Sn  Sn15  1  0.573111  0.426889  0.079856  1
  Sn  Sn16  1  0.453458  0.546542  0.250000  1
  Sn  Sn17  1  0.546542  0.453458  0.750000  1
  Sn  Sn18  1  0.755238  0.244762  0.927894  1
  Sn  Sn19  1  0.426889  0.573111  0.920144  1
