# generated using pymatgen
data_Dy6Ho13ErPt16
_symmetry_space_group_name_H-M   'P 1'
_cell_length_a   7.47279704
_cell_length_b   7.55251714
_cell_length_c   14.73395200
_cell_angle_alpha   90.00503731
_cell_angle_beta   90.00571977
_cell_angle_gamma   90.00993757
_symmetry_Int_Tables_number   1
_chemical_formula_structural   Dy6Ho13ErPt16
_chemical_formula_sum   'Dy6 Ho13 Er1 Pt16'
_cell_volume   831.56106524
_cell_formula_units_Z   1
loop_
 _symmetry_equiv_pos_site_id
 _symmetry_equiv_pos_as_xyz
  1  'x, y, z'
loop_
 _atom_site_type_symbol
 _atom_site_label
 _atom_site_symmetry_multiplicity
 _atom_site_fract_x
 _atom_site_fract_y
 _atom_site_fract_z
 _atom_site_occupancy
  Dy  Dy0  1  0.497641  0.679853  0.093169  1
  Dy  Dy1  1  0.502284  0.320236  0.593071  1
  Dy  Dy2  1  0.002253  0.179648  0.907209  1
  Dy  Dy3  1  0.002193  0.179504  0.592944  1
  Dy  Dy4  1  0.502229  0.320239  0.907153  1
  Dy  Dy5  1  0.497837  0.679863  0.406674  1
  Ho  Ho6  1  0.681349  0.988466  0.249741  1
  Ho  Ho7  1  0.180629  0.511664  0.249823  1
  Ho  Ho8  1  0.819034  0.488551  0.750144  1
  Ho  Ho9  1  0.319094  0.011418  0.750177  1
  Ho  Ho10  1  0.656266  0.832242  0.622146  1
  Ho  Ho11  1  0.156062  0.667924  0.878165  1
  Ho  Ho12  1  0.843795  0.332083  0.377633  1
  Ho  Ho13  1  0.343288  0.167493  0.122185  1
  Ho  Ho14  1  0.343482  0.167702  0.377692  1
  Ho  Ho15  1  0.843877  0.332198  0.122191  1
  Ho  Ho16  1  0.156057  0.667924  0.622076  1
  Ho  Ho17  1  0.656444  0.832206  0.878124  1
  Ho  Ho18  1  0.997572  0.819959  0.406634  1
  Er  Er19  1  0.997797  0.820008  0.092986  1
  Pt  Pt20  1  0.817450  0.643420  0.249822  1
  Pt  Pt21  1  0.316403  0.857167  0.249749  1
  Pt  Pt22  1  0.683155  0.142754  0.750196  1
  Pt  Pt23  1  0.183002  0.357222  0.750211  1
  Pt  Pt24  1  0.547003  0.386585  0.249783  1
  Pt  Pt25  1  0.046723  0.113124  0.249752  1
  Pt  Pt26  1  0.953132  0.886321  0.750248  1
  Pt  Pt27  1  0.453091  0.613689  0.750219  1
  Pt  Pt28  1  0.816737  0.532707  0.541791  1
  Pt  Pt29  1  0.316458  0.967230  0.958423  1
  Pt  Pt30  1  0.684060  0.031899  0.457697  1
  Pt  Pt31  1  0.183062  0.468376  0.042192  1
  Pt  Pt32  1  0.183052  0.468269  0.457659  1
  Pt  Pt33  1  0.684095  0.031917  0.042190  1
  Pt  Pt34  1  0.316633  0.967444  0.541773  1
  Pt  Pt35  1  0.816763  0.532699  0.958352  1
