# generated using pymatgen
data_Hf8MnReBi4
_symmetry_space_group_name_H-M   'P 1'
_cell_length_a   8.28876685
_cell_length_b   8.28886057
_cell_length_c   8.28876845
_cell_angle_alpha   96.17489468
_cell_angle_beta   96.17351509
_cell_angle_gamma   141.71017813
_symmetry_Int_Tables_number   1
_chemical_formula_structural   Hf8MnReBi4
_chemical_formula_sum   'Hf8 Mn1 Re1 Bi4'
_cell_volume   333.35476983
_cell_formula_units_Z   1
loop_
 _symmetry_equiv_pos_site_id
 _symmetry_equiv_pos_as_xyz
  1  'x, y, z'
loop_
 _atom_site_type_symbol
 _atom_site_label
 _atom_site_symmetry_multiplicity
 _atom_site_fract_x
 _atom_site_fract_y
 _atom_site_fract_z
 _atom_site_occupancy
  Hf  Hf0  1  0.700364  0.586015  0.279689  1
  Hf  Hf1  1  0.306317  0.420665  0.720305  1
  Hf  Hf2  1  0.586011  0.306313  0.885640  1
  Hf  Hf3  1  0.079327  0.193687  0.279697  1
  Hf  Hf4  1  0.799640  0.079335  0.885652  1
  Hf  Hf5  1  0.420688  0.700387  0.114356  1
  Hf  Hf6  1  0.913969  0.799613  0.720302  1
  Hf  Hf7  1  0.193674  0.913985  0.114349  1
  Mn  Mn8  1  0.750003  0.750000  0.000003  1
  Re  Re9  1  0.250004  0.250000  0.000004  1
  Bi  Bi10  1  0.138139  0.638139  0.776285  1
  Bi  Bi11  1  0.361859  0.138141  0.500001  1
  Bi  Bi12  1  0.861861  0.361859  0.223717  1
  Bi  Bi13  1  0.638145  0.861861  0.500000  1
