# generated using pymatgen
data_Sm2Fe5Co4Ni3P7
_symmetry_space_group_name_H-M   'P 1'
_cell_length_a   9.05553117
_cell_length_b   9.06634515
_cell_length_c   3.67210500
_cell_angle_alpha   90.00000000
_cell_angle_beta   90.00000000
_cell_angle_gamma   119.98273862
_symmetry_Int_Tables_number   1
_chemical_formula_structural   Sm2Fe5Co4Ni3P7
_chemical_formula_sum   'Sm2 Fe5 Co4 Ni3 P7'
_cell_volume   261.13640089
_cell_formula_units_Z   1
loop_
 _symmetry_equiv_pos_site_id
 _symmetry_equiv_pos_as_xyz
  1  'x, y, z'
loop_
 _atom_site_type_symbol
 _atom_site_label
 _atom_site_symmetry_multiplicity
 _atom_site_fract_x
 _atom_site_fract_y
 _atom_site_fract_z
 _atom_site_occupancy
  Sm  Sm0  1  0.334012  0.666549  0.000000  1
  Sm  Sm1  1  0.667012  0.333593  0.500000  1
  Fe  Fe2  1  0.119159  0.273204  0.000000  1
  Fe  Fe3  1  0.727767  0.845854  0.000000  1
  Fe  Fe4  1  0.214882  0.120401  0.500000  1
  Fe  Fe5  1  0.879403  0.095300  0.500000  1
  Fe  Fe6  1  0.906466  0.785367  0.500000  1
  Co  Co7  1  0.153815  0.881124  0.000000  1
  Co  Co8  1  0.384257  0.951871  0.500000  1
  Co  Co9  1  0.047335  0.433828  0.500000  1
  Co  Co10  1  0.566438  0.613998  0.500000  1
  Ni  Ni11  1  0.431151  0.369240  0.000000  1
  Ni  Ni12  1  0.629944  0.061267  0.000000  1
  Ni  Ni13  1  0.939789  0.569827  0.000000  1
  P  P14  1  0.404491  0.106022  0.000000  1
  P  P15  1  0.894461  0.298266  0.000000  1
  P  P16  1  0.700647  0.595291  0.000000  1
  P  P17  1  0.113237  0.713448  0.500000  1
  P  P18  1  0.284140  0.398140  0.500000  1
  P  P19  1  0.602077  0.885907  0.500000  1
  P  P20  1  0.999517  0.001505  0.000000  1
