# generated using pymatgen
data_Hf4CoSi4Ni2Pt
_symmetry_space_group_name_H-M   'P 1'
_cell_length_a   3.81500500
_cell_length_b   6.46821243
_cell_length_c   7.32171157
_cell_angle_alpha   90.64903589
_cell_angle_beta   90.00000000
_cell_angle_gamma   90.00000000
_symmetry_Int_Tables_number   1
_chemical_formula_structural   Hf4CoSi4Ni2Pt
_chemical_formula_sum   'Hf4 Co1 Si4 Ni2 Pt1'
_cell_volume   180.66088662
_cell_formula_units_Z   1
loop_
 _symmetry_equiv_pos_site_id
 _symmetry_equiv_pos_as_xyz
  1  'x, y, z'
loop_
 _atom_site_type_symbol
 _atom_site_label
 _atom_site_symmetry_multiplicity
 _atom_site_fract_x
 _atom_site_fract_y
 _atom_site_fract_z
 _atom_site_occupancy
  Hf  Hf0  1  0.750000  0.485586  0.317989  1
  Hf  Hf1  1  0.250000  0.021616  0.814806  1
  Hf  Hf2  1  0.750000  0.978702  0.188883  1
  Hf  Hf3  1  0.250000  0.519392  0.675851  1
  Co  Co4  1  0.250000  0.138698  0.439844  1
  Si  Si5  1  0.250000  0.265951  0.133871  1
  Si  Si6  1  0.250000  0.776926  0.385056  1
  Si  Si7  1  0.750000  0.733901  0.882180  1
  Si  Si8  1  0.750000  0.221813  0.599720  1
  Ni  Ni9  1  0.250000  0.648164  0.063533  1
  Ni  Ni10  1  0.750000  0.855852  0.564521  1
  Pt  Pt11  1  0.750000  0.353397  0.933747  1
