# generated using pymatgen
data_Sc10GaSiSn6
_symmetry_space_group_name_H-M   'P 1'
_cell_length_a   8.68224000
_cell_length_b   8.68223965
_cell_length_c   6.09638400
_cell_angle_alpha   90.00000000
_cell_angle_beta   90.00000000
_cell_angle_gamma   120.00000133
_symmetry_Int_Tables_number   1
_chemical_formula_structural   Sc10GaSiSn6
_chemical_formula_sum   'Sc10 Ga1 Si1 Sn6'
_cell_volume   397.98480997
_cell_formula_units_Z   1
loop_
 _symmetry_equiv_pos_site_id
 _symmetry_equiv_pos_as_xyz
  1  'x, y, z'
loop_
 _atom_site_type_symbol
 _atom_site_label
 _atom_site_symmetry_multiplicity
 _atom_site_fract_x
 _atom_site_fract_y
 _atom_site_fract_z
 _atom_site_occupancy
  Sc  Sc0  1  0.666667  0.333333  0.000000  1
  Sc  Sc1  1  0.333333  0.666667  0.000000  1
  Sc  Sc2  1  0.333333  0.666667  0.500000  1
  Sc  Sc3  1  0.666667  0.333333  0.500000  1
  Sc  Sc4  1  0.742311  0.742311  0.740174  1
  Sc  Sc5  1  0.257689  0.000000  0.740174  1
  Sc  Sc6  1  0.000000  0.257689  0.740174  1
  Sc  Sc7  1  0.257689  0.257689  0.259826  1
  Sc  Sc8  1  0.742311  0.000000  0.259826  1
  Sc  Sc9  1  0.000000  0.742311  0.259826  1
  Ga  Ga10  1  0.000000  0.000000  0.000000  1
  Si  Si11  1  0.000000  0.000000  0.500000  1
  Sn  Sn12  1  0.389524  0.389524  0.750422  1
  Sn  Sn13  1  0.610476  0.000000  0.750422  1
  Sn  Sn14  1  0.000000  0.610476  0.750422  1
  Sn  Sn15  1  0.610476  0.610476  0.249578  1
  Sn  Sn16  1  0.389524  0.000000  0.249578  1
  Sn  Sn17  1  0.000000  0.389524  0.249578  1
