# generated using pymatgen
data_Lu3Mg2AlSi2Rh
_symmetry_space_group_name_H-M   'P 1'
_cell_length_a   7.04089303
_cell_length_b   6.96986375
_cell_length_c   4.16974300
_cell_angle_alpha   90.00000000
_cell_angle_beta   90.00000000
_cell_angle_gamma   119.66683893
_symmetry_Int_Tables_number   1
_chemical_formula_structural   Lu3Mg2AlSi2Rh
_chemical_formula_sum   'Lu3 Mg2 Al1 Si2 Rh1'
_cell_volume   177.80344852
_cell_formula_units_Z   1
loop_
 _symmetry_equiv_pos_site_id
 _symmetry_equiv_pos_as_xyz
  1  'x, y, z'
loop_
 _atom_site_type_symbol
 _atom_site_label
 _atom_site_symmetry_multiplicity
 _atom_site_fract_x
 _atom_site_fract_y
 _atom_site_fract_z
 _atom_site_occupancy
  Lu  Lu0  1  0.414022  0.999967  0.000000  1
  Lu  Lu1  1  0.000000  0.422468  0.000000  1
  Lu  Lu2  1  0.585978  0.585945  0.000000  1
  Mg  Mg3  1  0.759782  0.000823  0.500001  1
  Mg  Mg4  1  0.240217  0.241040  0.500001  1
  Al  Al5  1  0.000000  0.758836  0.500001  1
  Si  Si6  1  0.673941  0.345003  0.500001  1
  Si  Si7  1  0.326059  0.671063  0.500001  1
  Rh  Rh8  1  0.000000  0.974857  0.000000  1
