# generated using pymatgen
data_DyLu5Bi2W
_symmetry_space_group_name_H-M   'P 1'
_cell_length_a   8.14349215
_cell_length_b   8.14349303
_cell_length_c   4.36719100
_cell_angle_alpha   90.00000000
_cell_angle_beta   90.00000000
_cell_angle_gamma   119.93981253
_symmetry_Int_Tables_number   1
_chemical_formula_structural   DyLu5Bi2W
_chemical_formula_sum   'Dy1 Lu5 Bi2 W1'
_cell_volume   250.96739599
_cell_formula_units_Z   1
loop_
 _symmetry_equiv_pos_site_id
 _symmetry_equiv_pos_as_xyz
  1  'x, y, z'
loop_
 _atom_site_type_symbol
 _atom_site_label
 _atom_site_symmetry_multiplicity
 _atom_site_fract_x
 _atom_site_fract_y
 _atom_site_fract_z
 _atom_site_occupancy
  Dy  Dy0  1  0.386505  0.386505  0.000000  1
  Lu  Lu1  1  0.233135  0.998901  0.500000  1
  Lu  Lu2  1  0.998901  0.233135  0.500000  1
  Lu  Lu3  1  0.764482  0.764482  0.500000  1
  Lu  Lu4  1  0.618717  0.000440  0.000000  1
  Lu  Lu5  1  0.000440  0.618717  0.000000  1
  Bi  Bi6  1  0.332412  0.667978  0.500000  1
  Bi  Bi7  1  0.667978  0.332412  0.500000  1
  W  W8  1  0.997427  0.997427  0.000000  1
