# generated using pymatgen
data_Lu4Al15(Co2Si)3
_symmetry_space_group_name_H-M   'P 1'
_cell_length_a   7.31181343
_cell_length_b   7.24466837
_cell_length_c   9.15907924
_cell_angle_alpha   90.01661243
_cell_angle_beta   89.92035099
_cell_angle_gamma   119.65958879
_symmetry_Int_Tables_number   1
_chemical_formula_structural   Lu4Al15(Co2Si)3
_chemical_formula_sum   'Lu4 Al15 Co6 Si3'
_cell_volume   421.60438412
_cell_formula_units_Z   1
loop_
 _symmetry_equiv_pos_site_id
 _symmetry_equiv_pos_as_xyz
  1  'x, y, z'
loop_
 _atom_site_type_symbol
 _atom_site_label
 _atom_site_symmetry_multiplicity
 _atom_site_fract_x
 _atom_site_fract_y
 _atom_site_fract_z
 _atom_site_occupancy
  Lu  Lu0  1  0.992203  0.662887  0.247516  1
  Lu  Lu1  1  0.008648  0.344532  0.753793  1
  Lu  Lu2  1  0.677848  0.003546  0.247836  1
  Lu  Lu3  1  0.316943  0.988428  0.749465  1
  Al  Al4  1  0.122841  0.121031  0.249831  1
  Al  Al5  1  0.877367  0.877152  0.749201  1
  Al  Al6  1  0.337217  0.997854  0.426590  1
  Al  Al7  1  0.000090  0.331660  0.433728  1
  Al  Al8  1  0.666375  0.006047  0.572627  1
  Al  Al9  1  0.664594  0.003856  0.925588  1
  Al  Al10  1  0.336922  0.997738  0.073422  1
  Al  Al11  1  0.331445  0.328955  0.551533  1
  Al  Al12  1  0.666394  0.669820  0.450669  1
  Al  Al13  1  0.666119  0.669441  0.050689  1
  Al  Al14  1  0.332227  0.329481  0.949109  1
  Al  Al15  1  0.336981  0.556938  0.250119  1
  Al  Al16  1  0.662447  0.443466  0.750483  1
  Al  Al17  1  0.552240  0.342334  0.250287  1
  Al  Al18  1  0.451987  0.658921  0.749903  1
  Co  Co19  1  0.693098  0.340382  0.002466  1
  Co  Co20  1  0.306975  0.660149  0.996102  1
  Co  Co21  1  0.317084  0.669297  0.504539  1
  Co  Co22  1  0.681732  0.338714  0.499245  1
  Co  Co23  1  0.000164  0.999692  0.999146  1
  Co  Co24  1  0.001558  0.991505  0.500389  1
  Si  Si25  1  0.000581  0.330253  0.069222  1
  Si  Si26  1  0.998663  0.670358  0.936162  1
  Si  Si27  1  0.999259  0.665565  0.560340  1
