# generated using pymatgen
data_Mn4Co4PbO16
_symmetry_space_group_name_H-M   'P 1'
_cell_length_a   5.77633725
_cell_length_b   6.95817372
_cell_length_c   7.03098014
_cell_angle_alpha   89.51709035
_cell_angle_beta   78.18114118
_cell_angle_gamma   78.03943433
_symmetry_Int_Tables_number   1
_chemical_formula_structural   Mn4Co4PbO16
_chemical_formula_sum   'Mn4 Co4 Pb1 O16'
_cell_volume   270.42774070
_cell_formula_units_Z   1
loop_
 _symmetry_equiv_pos_site_id
 _symmetry_equiv_pos_as_xyz
  1  'x, y, z'
loop_
 _atom_site_type_symbol
 _atom_site_label
 _atom_site_symmetry_multiplicity
 _atom_site_fract_x
 _atom_site_fract_y
 _atom_site_fract_z
 _atom_site_occupancy
  Mn  Mn0  1  0.340912  0.179032  0.471389  1
  Mn  Mn1  1  0.838767  0.178809  0.477571  1
  Mn  Mn2  1  0.425477  0.488978  0.823695  1
  Mn  Mn3  1  0.922200  0.495605  0.823789  1
  Co  Co4  1  0.576529  0.520223  0.189797  1
  Co  Co5  1  0.075881  0.516200  0.190216  1
  Co  Co6  1  0.171405  0.815746  0.511819  1
  Co  Co7  1  0.670007  0.815001  0.519078  1
  Pb  Pb8  1  0.042472  0.984973  0.965786  1
  O  O9  1  0.828318  0.652117  0.063165  1
  O  O10  1  0.320953  0.651033  0.061505  1
  O  O11  1  0.981920  0.691226  0.389552  1
  O  O12  1  0.483908  0.692901  0.389692  1
  O  O13  1  0.858129  0.957575  0.645023  1
  O  O14  1  0.348292  0.959067  0.643024  1
  O  O15  1  0.341511  0.371956  0.279803  1
  O  O16  1  0.839781  0.369018  0.279323  1
  O  O17  1  0.162518  0.643867  0.726046  1
  O  O18  1  0.661436  0.636178  0.722605  1
  O  O19  1  0.155288  0.035546  0.342629  1
  O  O20  1  0.661033  0.033428  0.347858  1
  O  O21  1  0.026324  0.297271  0.617464  1
  O  O22  1  0.523122  0.299207  0.613816  1
  O  O23  1  0.172614  0.356344  0.952565  1
  O  O24  1  0.678299  0.358700  0.952788  1
