# generated using pymatgen
data_NaTaCo4As3
_symmetry_space_group_name_H-M   'P 1'
_cell_length_a   3.71816900
_cell_length_b   10.93048800
_cell_length_c   12.55141900
_cell_angle_alpha   90.00000000
_cell_angle_beta   90.00000000
_cell_angle_gamma   90.00000000
_symmetry_Int_Tables_number   1
_chemical_formula_structural   NaTaCo4As3
_chemical_formula_sum   'Na4 Ta4 Co16 As12'
_cell_volume   510.10726069
_cell_formula_units_Z   4
loop_
 _symmetry_equiv_pos_site_id
 _symmetry_equiv_pos_as_xyz
  1  'x, y, z'
loop_
 _atom_site_type_symbol
 _atom_site_label
 _atom_site_symmetry_multiplicity
 _atom_site_fract_x
 _atom_site_fract_y
 _atom_site_fract_z
 _atom_site_occupancy
  Na  Na0  1  0.250000  0.580775  0.705344  1
  Na  Na1  1  0.250000  0.919225  0.205344  1
  Na  Na2  1  0.750000  0.419225  0.294656  1
  Na  Na3  1  0.750000  0.080775  0.794656  1
  Ta  Ta4  1  0.250000  0.701350  0.989344  1
  Ta  Ta5  1  0.250000  0.798650  0.489344  1
  Ta  Ta6  1  0.750000  0.298650  0.010656  1
  Ta  Ta7  1  0.750000  0.201350  0.510656  1
  Co  Co8  1  0.250000  0.402127  0.488825  1
  Co  Co9  1  0.250000  0.097873  0.988825  1
  Co  Co10  1  0.750000  0.597873  0.511175  1
  Co  Co11  1  0.750000  0.902127  0.011175  1
  Co  Co12  1  0.250000  0.215540  0.170721  1
  Co  Co13  1  0.250000  0.284460  0.670721  1
  Co  Co14  1  0.750000  0.784460  0.829279  1
  Co  Co15  1  0.750000  0.715540  0.329279  1
  Co  Co16  1  0.250000  0.880973  0.697837  1
  Co  Co17  1  0.250000  0.619027  0.197837  1
  Co  Co18  1  0.750000  0.119027  0.302163  1
  Co  Co19  1  0.750000  0.380973  0.802163  1
  Co  Co20  1  0.250000  0.461847  0.937623  1
  Co  Co21  1  0.250000  0.038153  0.437623  1
  Co  Co22  1  0.750000  0.538153  0.062377  1
  Co  Co23  1  0.750000  0.961847  0.562377  1
  As  As24  1  0.250000  0.421881  0.123562  1
  As  As25  1  0.250000  0.078119  0.623562  1
  As  As26  1  0.750000  0.578119  0.876438  1
  As  As27  1  0.750000  0.921881  0.376438  1
  As  As28  1  0.250000  0.262754  0.857865  1
  As  As29  1  0.250000  0.237246  0.357865  1
  As  As30  1  0.750000  0.737246  0.142135  1
  As  As31  1  0.750000  0.762754  0.642135  1
  As  As32  1  0.250000  0.586082  0.386527  1
  As  As33  1  0.250000  0.913918  0.886527  1
  As  As34  1  0.750000  0.413918  0.613473  1
  As  As35  1  0.750000  0.086082  0.113473  1
