# generated using pymatgen
data_Sr8TaNb3O18
_symmetry_space_group_name_H-M   'P 1'
_cell_length_a   5.94610852
_cell_length_b   5.94800476
_cell_length_c   15.90305810
_cell_angle_alpha   89.98826635
_cell_angle_beta   89.98800137
_cell_angle_gamma   60.01416893
_symmetry_Int_Tables_number   1
_chemical_formula_structural   Sr8TaNb3O18
_chemical_formula_sum   'Sr8 Ta1 Nb3 O18'
_cell_volume   487.16647291
_cell_formula_units_Z   1
loop_
 _symmetry_equiv_pos_site_id
 _symmetry_equiv_pos_as_xyz
  1  'x, y, z'
loop_
 _atom_site_type_symbol
 _atom_site_label
 _atom_site_symmetry_multiplicity
 _atom_site_fract_x
 _atom_site_fract_y
 _atom_site_fract_z
 _atom_site_occupancy
  Sr  Sr0  1  0.999886  0.000199  0.247287  1
  Sr  Sr1  1  0.000002  0.000019  0.500247  1
  Sr  Sr2  1  0.000033  0.999831  0.000762  1
  Sr  Sr3  1  0.666545  0.667794  0.356079  1
  Sr  Sr4  1  0.667320  0.664392  0.134582  1
  Sr  Sr5  1  0.332710  0.335443  0.863043  1
  Sr  Sr6  1  0.333496  0.332187  0.642890  1
  Sr  Sr7  1  0.000183  0.999609  0.749342  1
  Ta  Ta8  1  0.334582  0.331257  0.154496  1
  Nb  Nb9  1  0.665342  0.668714  0.847777  1
  Nb  Nb10  1  0.667137  0.665857  0.655627  1
  Nb  Nb11  1  0.332907  0.334238  0.345513  1
  O  O12  1  0.592326  0.964096  0.751025  1
  O  O13  1  0.920968  0.728238  0.603631  1
  O  O14  1  0.920390  0.730949  0.898396  1
  O  O15  1  0.349489  0.919298  0.604118  1
  O  O16  1  0.350327  0.924193  0.899181  1
  O  O17  1  0.962792  0.443871  0.751655  1
  O  O18  1  0.443770  0.592675  0.751959  1
  O  O19  1  0.273576  0.642880  0.100089  1
  O  O20  1  0.271350  0.651639  0.395741  1
  O  O21  1  0.730047  0.348115  0.604468  1
  O  O22  1  0.724983  0.356358  0.901080  1
  O  O23  1  0.554794  0.406636  0.247566  1
  O  O24  1  0.039477  0.554390  0.247837  1
  O  O25  1  0.648675  0.077944  0.101844  1
  O  O26  1  0.650100  0.079630  0.396159  1
  O  O27  1  0.081822  0.267970  0.102457  1
  O  O28  1  0.077980  0.273350  0.396674  1
  O  O29  1  0.406992  0.038227  0.248476  1
