# generated using pymatgen
data_Ho5Co16(MoP4)3
_symmetry_space_group_name_H-M   'P 1'
_cell_length_a   12.06287000
_cell_length_b   12.06287062
_cell_length_c   3.70251200
_cell_angle_alpha   90.00000000
_cell_angle_beta   90.00000000
_cell_angle_gamma   120.00000379
_symmetry_Int_Tables_number   1
_chemical_formula_structural   Ho5Co16(MoP4)3
_chemical_formula_sum   'Ho5 Co16 Mo3 P12'
_cell_volume   466.58245855
_cell_formula_units_Z   1
loop_
 _symmetry_equiv_pos_site_id
 _symmetry_equiv_pos_as_xyz
  1  'x, y, z'
loop_
 _atom_site_type_symbol
 _atom_site_label
 _atom_site_symmetry_multiplicity
 _atom_site_fract_x
 _atom_site_fract_y
 _atom_site_fract_z
 _atom_site_occupancy
  Ho  Ho0  1  0.666667  0.333333  0.000000  1
  Ho  Ho1  1  0.333333  0.666667  0.000000  1
  Ho  Ho2  1  0.814733  0.814733  0.500000  1
  Ho  Ho3  1  0.185267  0.000000  0.500000  1
  Ho  Ho4  1  0.000000  0.185267  0.500000  1
  Co  Co5  1  0.872933  0.355399  0.500000  1
  Co  Co6  1  0.644601  0.517534  0.500000  1
  Co  Co7  1  0.482466  0.127067  0.500000  1
  Co  Co8  1  0.355399  0.872933  0.500000  1
  Co  Co9  1  0.517534  0.644601  0.500000  1
  Co  Co10  1  0.127067  0.482466  0.500000  1
  Co  Co11  1  0.802354  0.177447  0.000000  1
  Co  Co12  1  0.822553  0.624906  0.000000  1
  Co  Co13  1  0.375094  0.197646  0.000000  1
  Co  Co14  1  0.177447  0.802354  0.000000  1
  Co  Co15  1  0.624906  0.822553  0.000000  1
  Co  Co16  1  0.197646  0.375094  0.000000  1
  Co  Co17  1  0.280204  0.280204  0.500000  1
  Co  Co18  1  0.719796  0.000000  0.500000  1
  Co  Co19  1  0.000000  0.719796  0.500000  1
  Co  Co20  1  0.000000  0.000000  0.000000  1
  Mo  Mo21  1  0.446021  0.446021  0.000000  1
  Mo  Mo22  1  0.553979  0.000000  0.000000  1
  Mo  Mo23  1  0.000000  0.553979  0.000000  1
  P  P24  1  0.686340  0.165817  0.500000  1
  P  P25  1  0.834183  0.520523  0.500000  1
  P  P26  1  0.479477  0.313660  0.500000  1
  P  P27  1  0.165817  0.686340  0.500000  1
  P  P28  1  0.520523  0.834183  0.500000  1
  P  P29  1  0.313660  0.479477  0.500000  1
  P  P30  1  0.178203  0.178203  0.000000  1
  P  P31  1  0.821797  0.000000  0.000000  1
  P  P32  1  0.000000  0.821797  0.000000  1
  P  P33  1  0.639096  0.639096  0.000000  1
  P  P34  1  0.360904  0.000000  0.000000  1
  P  P35  1  0.000000  0.360904  0.000000  1
