# generated using pymatgen
data_Tm5Ag2B4Rh13
_symmetry_space_group_name_H-M   'P 1'
_cell_length_a   4.18746600
_cell_length_b   4.18746600
_cell_length_c   20.86711000
_cell_angle_alpha   90.00000000
_cell_angle_beta   90.00000000
_cell_angle_gamma   90.00000000
_symmetry_Int_Tables_number   1
_chemical_formula_structural   Tm5Ag2B4Rh13
_chemical_formula_sum   'Tm5 Ag2 B4 Rh13'
_cell_volume   365.90209245
_cell_formula_units_Z   1
loop_
 _symmetry_equiv_pos_site_id
 _symmetry_equiv_pos_as_xyz
  1  'x, y, z'
loop_
 _atom_site_type_symbol
 _atom_site_label
 _atom_site_symmetry_multiplicity
 _atom_site_fract_x
 _atom_site_fract_y
 _atom_site_fract_z
 _atom_site_occupancy
  Tm  Tm0  1  0.000000  0.000000  0.892179  1
  Tm  Tm1  1  0.000000  0.000000  0.107821  1
  Tm  Tm2  1  0.000000  0.000000  0.300901  1
  Tm  Tm3  1  0.000000  0.000000  0.500000  1
  Tm  Tm4  1  0.000000  0.000000  0.699099  1
  Ag  Ag5  1  0.500000  0.000000  0.000000  1
  Ag  Ag6  1  0.000000  0.500000  0.000000  1
  B  B7  1  0.500000  0.500000  0.193587  1
  B  B8  1  0.500000  0.500000  0.398794  1
  B  B9  1  0.500000  0.500000  0.601206  1
  B  B10  1  0.500000  0.500000  0.806413  1
  Rh  Rh11  1  0.500000  0.500000  0.903787  1
  Rh  Rh12  1  0.500000  0.500000  0.096213  1
  Rh  Rh13  1  0.500000  0.500000  0.298939  1
  Rh  Rh14  1  0.500000  0.500000  0.500000  1
  Rh  Rh15  1  0.500000  0.500000  0.701061  1
  Rh  Rh16  1  0.500000  0.000000  0.201759  1
  Rh  Rh17  1  0.500000  0.000000  0.400293  1
  Rh  Rh18  1  0.500000  0.000000  0.599707  1
  Rh  Rh19  1  0.500000  0.000000  0.798241  1
  Rh  Rh20  1  0.000000  0.500000  0.201759  1
  Rh  Rh21  1  0.000000  0.500000  0.400293  1
  Rh  Rh22  1  0.000000  0.500000  0.599707  1
  Rh  Rh23  1  0.000000  0.500000  0.798241  1
