# generated using pymatgen
data_Nb4Fe2Co2Si7
_symmetry_space_group_name_H-M   'P 1'
_cell_length_a   9.24348264
_cell_length_b   9.24338876
_cell_length_c   9.24348273
_cell_angle_alpha   94.20630988
_cell_angle_beta   94.29467758
_cell_angle_gamma   148.40531488
_symmetry_Int_Tables_number   1
_chemical_formula_structural   Nb4Fe2Co2Si7
_chemical_formula_sum   'Nb8 Fe4 Co4 Si14'
_cell_volume   398.13774783
_cell_formula_units_Z   2
loop_
 _symmetry_equiv_pos_site_id
 _symmetry_equiv_pos_as_xyz
  1  'x, y, z'
loop_
 _atom_site_type_symbol
 _atom_site_label
 _atom_site_symmetry_multiplicity
 _atom_site_fract_x
 _atom_site_fract_y
 _atom_site_fract_z
 _atom_site_occupancy
  Nb  Nb0  1  0.134905  0.135031  0.269978  1
  Nb  Nb1  1  0.865096  0.864969  0.729996  1
  Nb  Nb2  1  0.865052  0.135031  0.000126  1
  Nb  Nb3  1  0.134974  0.864969  0.999873  1
  Nb  Nb4  1  0.498941  0.690582  0.191641  1
  Nb  Nb5  1  0.498765  0.307088  0.808323  1
  Nb  Nb6  1  0.309417  0.501027  0.808327  1
  Nb  Nb7  1  0.692700  0.501027  0.191611  1
  Fe  Fe8  1  0.598887  0.400865  0.500121  1
  Fe  Fe9  1  0.900802  0.098733  0.499836  1
  Fe  Fe10  1  0.900743  0.400865  0.801977  1
  Fe  Fe11  1  0.598897  0.098733  0.197931  1
  Co  Co12  1  0.397575  0.897585  0.794870  1
  Co  Co13  1  0.102828  0.602894  0.205238  1
  Co  Co14  1  0.102714  0.897585  0.500010  1
  Co  Co15  1  0.397656  0.602894  0.500066  1
  Si  Si16  1  0.291330  0.291249  0.582223  1
  Si  Si17  1  0.708663  0.708690  0.417761  1
  Si  Si18  1  0.709026  0.291249  0.999919  1
  Si  Si19  1  0.290928  0.708690  0.000027  1
  Si  Si20  1  0.994314  0.291779  0.297466  1
  Si  Si21  1  0.993839  0.696310  0.702470  1
  Si  Si22  1  0.708677  0.006196  0.702568  1
  Si  Si23  1  0.303628  0.006196  0.297519  1
  Si  Si24  1  0.513268  0.919184  0.405916  1
  Si  Si25  1  0.513461  0.107623  0.594162  1
  Si  Si26  1  0.080530  0.486516  0.594094  1
  Si  Si27  1  0.892422  0.486516  0.405987  1
  Si  Si28  1  0.750745  0.750733  0.999988  1
  Si  Si29  1  0.249218  0.249194  0.999976  1
