# generated using pymatgen
data_Rb4Ag3AuO4
_symmetry_space_group_name_H-M   'P 1'
_cell_length_a   7.74897827
_cell_length_b   7.74897767
_cell_length_c   7.83702647
_cell_angle_alpha   98.34147753
_cell_angle_beta   98.34148128
_cell_angle_gamma   134.95554624
_symmetry_Int_Tables_number   1
_chemical_formula_structural   Rb4Ag3AuO4
_chemical_formula_sum   'Rb4 Ag3 Au1 O4'
_cell_volume   308.20530251
_cell_formula_units_Z   1
loop_
 _symmetry_equiv_pos_site_id
 _symmetry_equiv_pos_as_xyz
  1  'x, y, z'
loop_
 _atom_site_type_symbol
 _atom_site_label
 _atom_site_symmetry_multiplicity
 _atom_site_fract_x
 _atom_site_fract_y
 _atom_site_fract_z
 _atom_site_occupancy
  Rb  Rb0  1  0.188620  0.498436  0.687056  1
  Rb  Rb1  1  0.498436  0.188620  0.687056  1
  Rb  Rb2  1  0.502532  0.811936  0.314468  1
  Rb  Rb3  1  0.811936  0.502532  0.314468  1
  Ag  Ag4  1  0.855098  0.855098  0.710196  1
  Ag  Ag5  1  0.145333  0.852960  0.998294  1
  Ag  Ag6  1  0.852960  0.145333  0.998294  1
  Au  Au7  1  0.146329  0.146329  0.292657  1
  O  O8  1  0.709770  0.001587  0.711358  1
  O  O9  1  0.001587  0.709770  0.711358  1
  O  O10  1  0.000100  0.287297  0.287398  1
  O  O11  1  0.287297  0.000100  0.287398  1
