# generated using pymatgen
data_La3PtRh8
_symmetry_space_group_name_H-M   'P 1'
_cell_length_a   5.41136600
_cell_length_b   5.41136519
_cell_length_c   9.42084416
_cell_angle_alpha   106.69050813
_cell_angle_beta   90.00000000
_cell_angle_gamma   120.00000493
_symmetry_Int_Tables_number   1
_chemical_formula_structural   La3PtRh8
_chemical_formula_sum   'La3 Pt1 Rh8'
_cell_volume   225.38971590
_cell_formula_units_Z   1
loop_
 _symmetry_equiv_pos_site_id
 _symmetry_equiv_pos_as_xyz
  1  'x, y, z'
loop_
 _atom_site_type_symbol
 _atom_site_label
 _atom_site_symmetry_multiplicity
 _atom_site_fract_x
 _atom_site_fract_y
 _atom_site_fract_z
 _atom_site_occupancy
  La  La0  1  0.000000  0.000000  0.000000  1
  La  La1  1  0.137012  0.274025  0.411037  1
  La  La2  1  0.862989  0.725976  0.588964  1
  Pt  Pt3  1  0.499999  0.000000  0.499999  1
  Rh  Rh4  1  0.332224  0.664448  0.996672  1
  Rh  Rh5  1  0.667777  0.335553  0.003328  1
  Rh  Rh6  1  0.580909  0.161821  0.243057  1
  Rh  Rh7  1  0.580911  0.662146  0.243057  1
  Rh  Rh8  1  0.081235  0.662146  0.243057  1
  Rh  Rh9  1  0.918764  0.337853  0.756943  1
  Rh  Rh10  1  0.419090  0.337854  0.756943  1
  Rh  Rh11  1  0.419090  0.838178  0.756943  1
