# generated using pymatgen
data_Nd16MgCd3TcPt3
_symmetry_space_group_name_H-M   'P 1'
_cell_length_a   10.06038056
_cell_length_b   10.06037985
_cell_length_c   10.06037902
_cell_angle_alpha   59.43784850
_cell_angle_beta   59.43784217
_cell_angle_gamma   59.43785791
_symmetry_Int_Tables_number   1
_chemical_formula_structural   Nd16MgCd3TcPt3
_chemical_formula_sum   'Nd16 Mg1 Cd3 Tc1 Pt3'
_cell_volume   710.78433237
_cell_formula_units_Z   1
loop_
 _symmetry_equiv_pos_site_id
 _symmetry_equiv_pos_as_xyz
  1  'x, y, z'
loop_
 _atom_site_type_symbol
 _atom_site_label
 _atom_site_symmetry_multiplicity
 _atom_site_fract_x
 _atom_site_fract_y
 _atom_site_fract_z
 _atom_site_occupancy
  Nd  Nd0  1  0.352102  0.352102  0.352102  1
  Nd  Nd1  1  0.346658  0.346658  0.955324  1
  Nd  Nd2  1  0.346658  0.955324  0.346658  1
  Nd  Nd3  1  0.955324  0.346658  0.346658  1
  Nd  Nd4  1  0.815163  0.189608  0.189608  1
  Nd  Nd5  1  0.188230  0.808985  0.808985  1
  Nd  Nd6  1  0.189608  0.815163  0.189608  1
  Nd  Nd7  1  0.808985  0.188230  0.808985  1
  Nd  Nd8  1  0.189608  0.189608  0.815163  1
  Nd  Nd9  1  0.808985  0.808985  0.188230  1
  Nd  Nd10  1  0.936162  0.564002  0.564002  1
  Nd  Nd11  1  0.556342  0.938350  0.938350  1
  Nd  Nd12  1  0.564002  0.936162  0.564002  1
  Nd  Nd13  1  0.938350  0.556342  0.938350  1
  Nd  Nd14  1  0.564002  0.564002  0.936162  1
  Nd  Nd15  1  0.938350  0.938350  0.556342  1
  Mg  Mg16  1  0.574795  0.574795  0.574795  1
  Cd  Cd17  1  0.581175  0.581175  0.256149  1
  Cd  Cd18  1  0.581175  0.256149  0.581175  1
  Cd  Cd19  1  0.256149  0.581175  0.581175  1
  Tc  Tc20  1  0.142964  0.142964  0.142964  1
  Pt  Pt21  1  0.145774  0.145774  0.573663  1
  Pt  Pt22  1  0.145774  0.573663  0.145774  1
  Pt  Pt23  1  0.573663  0.145774  0.145774  1
