# generated using pymatgen
data_Tb5ReRuC7
_symmetry_space_group_name_H-M   'P 1'
_cell_length_a   8.30634768
_cell_length_b   8.30634686
_cell_length_c   3.49313500
_cell_angle_alpha   90.00000000
_cell_angle_beta   90.00000000
_cell_angle_gamma   122.71948935
_symmetry_Int_Tables_number   1
_chemical_formula_structural   Tb5ReRuC7
_chemical_formula_sum   'Tb5 Re1 Ru1 C7'
_cell_volume   202.76843488
_cell_formula_units_Z   1
loop_
 _symmetry_equiv_pos_site_id
 _symmetry_equiv_pos_as_xyz
  1  'x, y, z'
loop_
 _atom_site_type_symbol
 _atom_site_label
 _atom_site_symmetry_multiplicity
 _atom_site_fract_x
 _atom_site_fract_y
 _atom_site_fract_z
 _atom_site_occupancy
  Tb  Tb0  1  0.500807  0.499193  0.000000  1
  Tb  Tb1  1  0.073432  0.334383  0.500000  1
  Tb  Tb2  1  0.923423  0.662479  0.500000  1
  Tb  Tb3  1  0.665617  0.926568  0.500000  1
  Tb  Tb4  1  0.337521  0.076577  0.500000  1
  Re  Re5  1  0.286134  0.713866  0.000000  1
  Ru  Ru6  1  0.712381  0.287619  0.000000  1
  C  C7  1  0.630212  0.369788  0.500000  1
  C  C8  1  0.372574  0.627426  0.500000  1
  C  C9  1  0.999174  0.000826  0.000000  1
  C  C10  1  0.170105  0.170424  0.000000  1
  C  C11  1  0.829576  0.829895  0.000000  1
  C  C12  1  0.002210  0.503164  0.000000  1
  C  C13  1  0.496836  0.997790  0.000000  1
