# generated using pymatgen
data_Ta12Mn3Al7ZnGaC4
_symmetry_space_group_name_H-M   'P 1'
_cell_length_a   8.26416285
_cell_length_b   8.26416423
_cell_length_c   8.23260400
_cell_angle_alpha   59.87311121
_cell_angle_beta   59.87310566
_cell_angle_gamma   59.99999772
_symmetry_Int_Tables_number   1
_chemical_formula_structural   Ta12Mn3Al7ZnGaC4
_chemical_formula_sum   'Ta12 Mn3 Al7 Zn1 Ga1 C4'
_cell_volume   396.81163328
_cell_formula_units_Z   1
loop_
 _symmetry_equiv_pos_site_id
 _symmetry_equiv_pos_as_xyz
  1  'x, y, z'
loop_
 _atom_site_type_symbol
 _atom_site_label
 _atom_site_symmetry_multiplicity
 _atom_site_fract_x
 _atom_site_fract_y
 _atom_site_fract_z
 _atom_site_occupancy
  Ta  Ta0  1  0.566643  0.939588  0.554375  1
  Ta  Ta1  1  0.310837  0.683072  0.695598  1
  Ta  Ta2  1  0.692799  0.306827  0.306927  1
  Ta  Ta3  1  0.306827  0.692799  0.306927  1
  Ta  Ta4  1  0.692528  0.692528  0.307724  1
  Ta  Ta5  1  0.310367  0.310367  0.695631  1
  Ta  Ta6  1  0.557120  0.557120  0.942925  1
  Ta  Ta7  1  0.939588  0.566643  0.554375  1
  Ta  Ta8  1  0.556964  0.942960  0.942966  1
  Ta  Ta9  1  0.939693  0.939693  0.553813  1
  Ta  Ta10  1  0.683072  0.310837  0.695598  1
  Ta  Ta11  1  0.942960  0.556964  0.942966  1
  Mn  Mn12  1  0.124872  0.124872  0.124801  1
  Mn  Mn13  1  0.624664  0.124980  0.125991  1
  Mn  Mn14  1  0.124980  0.624664  0.125991  1
  Al  Al15  1  0.999710  0.337281  0.325768  1
  Al  Al16  1  0.337281  0.999710  0.325768  1
  Al  Al17  1  0.331131  0.331131  0.007218  1
  Al  Al18  1  0.912750  0.250752  0.924219  1
  Al  Al19  1  0.918966  0.918966  0.243078  1
  Al  Al20  1  0.250752  0.912750  0.924219  1
  Al  Al21  1  0.337392  0.337392  0.325566  1
  Zn  Zn22  1  0.125347  0.125347  0.624787  1
  Ga  Ga23  1  0.912019  0.912019  0.922208  1
  C  C24  1  0.625063  0.625063  0.624916  1
  C  C25  1  0.125035  0.625373  0.625268  1
  C  C26  1  0.625373  0.125035  0.625268  1
  C  C27  1  0.625267  0.625267  0.125113  1
