# generated using pymatgen
data_U4Ga3Tc7As3
_symmetry_space_group_name_H-M   'P 1'
_cell_length_a   7.22434986
_cell_length_b   7.22434801
_cell_length_c   7.22434930
_cell_angle_alpha   109.63640505
_cell_angle_beta   109.37894408
_cell_angle_gamma   109.39843147
_symmetry_Int_Tables_number   1
_chemical_formula_structural   U4Ga3Tc7As3
_chemical_formula_sum   'U4 Ga3 Tc7 As3'
_cell_volume   290.24957844
_cell_formula_units_Z   1
loop_
 _symmetry_equiv_pos_site_id
 _symmetry_equiv_pos_as_xyz
  1  'x, y, z'
loop_
 _atom_site_type_symbol
 _atom_site_label
 _atom_site_symmetry_multiplicity
 _atom_site_fract_x
 _atom_site_fract_y
 _atom_site_fract_z
 _atom_site_occupancy
  U  U0  1  0.001607  0.999926  0.504464  1
  U  U1  1  0.504538  0.000074  0.001681  1
  U  U2  1  0.001607  0.497143  0.001681  1
  U  U3  1  0.504538  0.502857  0.504464  1
  Ga  Ga4  1  0.300028  0.000000  0.300028  1
  Ga  Ga5  1  0.003064  0.309237  0.312302  1
  Ga  Ga6  1  0.003064  0.690763  0.693827  1
  Tc  Tc7  1  0.750263  0.500000  0.250263  1
  Tc  Tc8  1  0.499489  0.749541  0.249030  1
  Tc  Tc9  1  0.499489  0.250459  0.749948  1
  Tc  Tc10  1  0.748287  0.249027  0.499262  1
  Tc  Tc11  1  0.250235  0.750973  0.499262  1
  Tc  Tc12  1  0.253245  0.500000  0.753245  1
  Tc  Tc13  1  0.988616  0.000000  0.988616  1
  As  As14  1  0.307744  0.304700  0.003044  1
  As  As15  1  0.698343  0.695300  0.003044  1
  As  As16  1  0.685842  0.000000  0.685842  1
