# generated using pymatgen
data_Dy5InSb2
_symmetry_space_group_name_H-M   'P 1'
_cell_length_a   6.48942500
_cell_length_b   8.97038026
_cell_length_c   8.97115401
_cell_angle_alpha   120.00205886
_cell_angle_beta   90.00000639
_cell_angle_gamma   89.99997193
_symmetry_Int_Tables_number   1
_chemical_formula_structural   Dy5InSb2
_chemical_formula_sum   'Dy10 In2 Sb4'
_cell_volume   452.25877789
_cell_formula_units_Z   2
loop_
 _symmetry_equiv_pos_site_id
 _symmetry_equiv_pos_as_xyz
  1  'x, y, z'
loop_
 _atom_site_type_symbol
 _atom_site_label
 _atom_site_symmetry_multiplicity
 _atom_site_fract_x
 _atom_site_fract_y
 _atom_site_fract_z
 _atom_site_occupancy
  Dy  Dy0  1  0.498530  0.336129  0.667534  1
  Dy  Dy1  1  0.498529  0.663876  0.331405  1
  Dy  Dy2  1  0.001471  0.663875  0.331404  1
  Dy  Dy3  1  0.001470  0.336131  0.667533  1
  Dy  Dy4  1  0.749999  0.241941  0.004410  1
  Dy  Dy5  1  0.750000  0.758035  0.762483  1
  Dy  Dy6  1  0.750000  0.000000  0.239459  1
  Dy  Dy7  1  0.249999  0.759122  0.998003  1
  Dy  Dy8  1  0.250000  0.240865  0.238907  1
  Dy  Dy9  1  0.250001  0.000016  0.757744  1
  In  In10  1  0.750000  0.606123  0.000944  1
  In  In11  1  0.750000  0.393887  0.394847  1
  Sb  Sb12  1  0.750007  0.999994  0.609197  1
  Sb  Sb13  1  0.249999  0.391623  0.998474  1
  Sb  Sb14  1  0.250000  0.608384  0.606865  1
  Sb  Sb15  1  0.250001  0.999999  0.390793  1
