# generated using pymatgen
data_PrSm3(ZnPb)4
_symmetry_space_group_name_H-M   'P 1'
_cell_length_a   4.67240200
_cell_length_b   4.67240215
_cell_length_c   16.38053700
_cell_angle_alpha   90.00000000
_cell_angle_beta   90.00000000
_cell_angle_gamma   119.99999895
_symmetry_Int_Tables_number   1
_chemical_formula_structural   PrSm3(ZnPb)4
_chemical_formula_sum   'Pr1 Sm3 Zn4 Pb4'
_cell_volume   309.69856101
_cell_formula_units_Z   1
loop_
 _symmetry_equiv_pos_site_id
 _symmetry_equiv_pos_as_xyz
  1  'x, y, z'
loop_
 _atom_site_type_symbol
 _atom_site_label
 _atom_site_symmetry_multiplicity
 _atom_site_fract_x
 _atom_site_fract_y
 _atom_site_fract_z
 _atom_site_occupancy
  Pr  Pr0  1  0.000000  0.000000  0.000000  1
  Sm  Sm1  1  0.000000  0.000000  0.252260  1
  Sm  Sm2  1  0.000000  0.000000  0.500000  1
  Sm  Sm3  1  0.000000  0.000000  0.747740  1
  Zn  Zn4  1  0.333333  0.666667  0.166142  1
  Zn  Zn5  1  0.333333  0.666667  0.336753  1
  Zn  Zn6  1  0.666667  0.333332  0.663247  1
  Zn  Zn7  1  0.666667  0.333332  0.833858  1
  Pb  Pb8  1  0.666667  0.333332  0.115279  1
  Pb  Pb9  1  0.666667  0.333332  0.389248  1
  Pb  Pb10  1  0.333333  0.666667  0.610752  1
  Pb  Pb11  1  0.333333  0.666667  0.884721  1
