# generated using pymatgen
data_YbY7(HfIr3)2
_symmetry_space_group_name_H-M   'P 1'
_cell_length_a   10.89621130
_cell_length_b   10.85437700
_cell_length_c   6.28544399
_cell_angle_alpha   90.00000000
_cell_angle_beta   90.20426505
_cell_angle_gamma   90.00000000
_symmetry_Int_Tables_number   1
_chemical_formula_structural   YbY7(HfIr3)2
_chemical_formula_sum   'Yb2 Y14 Hf4 Ir12'
_cell_volume   743.38470123
_cell_formula_units_Z   2
loop_
 _symmetry_equiv_pos_site_id
 _symmetry_equiv_pos_as_xyz
  1  'x, y, z'
loop_
 _atom_site_type_symbol
 _atom_site_label
 _atom_site_symmetry_multiplicity
 _atom_site_fract_x
 _atom_site_fract_y
 _atom_site_fract_z
 _atom_site_occupancy
  Yb  Yb0  1  0.287522  0.085685  0.371694  1
  Yb  Yb1  1  0.287522  0.914315  0.871694  1
  Y  Y2  1  0.711078  0.083740  0.876424  1
  Y  Y3  1  0.711078  0.916260  0.376424  1
  Y  Y4  1  0.583331  0.790306  0.873886  1
  Y  Y5  1  0.583331  0.209694  0.373886  1
  Y  Y6  1  0.414525  0.790993  0.373352  1
  Y  Y7  1  0.414525  0.209007  0.873352  1
  Y  Y8  1  0.211497  0.415712  0.628184  1
  Y  Y9  1  0.211497  0.584288  0.128184  1
  Y  Y10  1  0.788937  0.414608  0.125427  1
  Y  Y11  1  0.788937  0.585392  0.625427  1
  Y  Y12  1  0.915343  0.711966  0.126512  1
  Y  Y13  1  0.915343  0.288034  0.626512  1
  Y  Y14  1  0.085608  0.711432  0.626005  1
  Y  Y15  1  0.085608  0.288568  0.126005  1
  Hf  Hf16  1  0.001085  0.999912  0.498188  1
  Hf  Hf17  1  0.001085  0.000088  0.998188  1
  Hf  Hf18  1  0.499939  0.499972  0.999896  1
  Hf  Hf19  1  0.499939  0.500028  0.499896  1
  Ir  Ir20  1  0.860022  0.141801  0.249118  1
  Ir  Ir21  1  0.860022  0.858199  0.749118  1
  Ir  Ir22  1  0.138125  0.146139  0.750775  1
  Ir  Ir23  1  0.138125  0.853861  0.250775  1
  Ir  Ir24  1  0.640296  0.357816  0.750630  1
  Ir  Ir25  1  0.640296  0.642184  0.250630  1
  Ir  Ir26  1  0.358665  0.360496  0.247025  1
  Ir  Ir27  1  0.358665  0.639504  0.747025  1
  Ir  Ir28  1  0.503759  0.000045  0.123090  1
  Ir  Ir29  1  0.503759  0.999955  0.623090  1
  Ir  Ir30  1  0.000268  0.500295  0.879794  1
  Ir  Ir31  1  0.000268  0.499705  0.379794  1
