# generated using pymatgen
data_Tm3Sc5Au4
_symmetry_space_group_name_H-M   'P 1'
_cell_length_a   4.72537500
_cell_length_b   6.83854808
_cell_length_c   8.50994966
_cell_angle_alpha   90.08998842
_cell_angle_beta   90.00000000
_cell_angle_gamma   90.00000000
_symmetry_Int_Tables_number   1
_chemical_formula_structural   Tm3Sc5Au4
_chemical_formula_sum   'Tm3 Sc5 Au4'
_cell_volume   274.99616627
_cell_formula_units_Z   1
loop_
 _symmetry_equiv_pos_site_id
 _symmetry_equiv_pos_as_xyz
  1  'x, y, z'
loop_
 _atom_site_type_symbol
 _atom_site_label
 _atom_site_symmetry_multiplicity
 _atom_site_fract_x
 _atom_site_fract_y
 _atom_site_fract_z
 _atom_site_occupancy
  Tm  Tm0  1  0.250000  0.981928  0.317407  1
  Tm  Tm1  1  0.750000  0.517989  0.820059  1
  Tm  Tm2  1  0.750000  0.018501  0.681250  1
  Sc  Sc3  1  0.250000  0.850504  0.925521  1
  Sc  Sc4  1  0.250000  0.352663  0.574506  1
  Sc  Sc5  1  0.750000  0.151232  0.077136  1
  Sc  Sc6  1  0.750000  0.645394  0.420415  1
  Sc  Sc7  1  0.250000  0.481913  0.179776  1
  Au  Au8  1  0.250000  0.253156  0.899542  1
  Au  Au9  1  0.250000  0.751045  0.603683  1
  Au  Au10  1  0.750000  0.747131  0.104389  1
  Au  Au11  1  0.750000  0.248545  0.396316  1
