# generated using pymatgen
data_Y8V5Si16Mo7
_symmetry_space_group_name_H-M   'P 1'
_cell_length_a   6.71878653
_cell_length_b   6.91575525
_cell_length_c   12.97620310
_cell_angle_alpha   89.99552128
_cell_angle_beta   89.97055580
_cell_angle_gamma   90.05272948
_symmetry_Int_Tables_number   1
_chemical_formula_structural   Y8V5Si16Mo7
_chemical_formula_sum   'Y8 V5 Si16 Mo7'
_cell_volume   602.94521007
_cell_formula_units_Z   1
loop_
 _symmetry_equiv_pos_site_id
 _symmetry_equiv_pos_as_xyz
  1  'x, y, z'
loop_
 _atom_site_type_symbol
 _atom_site_label
 _atom_site_symmetry_multiplicity
 _atom_site_fract_x
 _atom_site_fract_y
 _atom_site_fract_z
 _atom_site_occupancy
  Y  Y0  1  0.499653  0.330189  0.095122  1
  Y  Y1  1  0.999991  0.168963  0.405932  1
  Y  Y2  1  0.501349  0.669589  0.593832  1
  Y  Y3  1  0.000438  0.830615  0.905651  1
  Y  Y4  1  0.502720  0.665962  0.905313  1
  Y  Y5  1  0.002922  0.833987  0.593805  1
  Y  Y6  1  0.498067  0.332540  0.405624  1
  Y  Y7  1  0.998579  0.167125  0.095415  1
  V  V8  1  0.835807  0.332883  0.626694  1
  V  V9  1  0.334547  0.166068  0.873668  1
  V  V10  1  0.164988  0.668238  0.125975  1
  V  V11  1  0.666895  0.832712  0.373452  1
  V  V12  1  0.164939  0.667523  0.374296  1
  Si  Si13  1  0.662186  0.046048  0.543940  1
  Si  Si14  1  0.163090  0.454419  0.956027  1
  Si  Si15  1  0.337075  0.953849  0.043262  1
  Si  Si16  1  0.839333  0.547091  0.456000  1
  Si  Si17  1  0.341498  0.951129  0.453910  1
  Si  Si18  1  0.842981  0.544769  0.045270  1
  Si  Si19  1  0.656857  0.044493  0.954569  1
  Si  Si20  1  0.158045  0.457868  0.543780  1
  Si  Si21  1  0.536331  0.365747  0.748872  1
  Si  Si22  1  0.036604  0.133884  0.750542  1
  Si  Si23  1  0.460748  0.633948  0.251117  1
  Si  Si24  1  0.964124  0.865375  0.251651  1
  Si  Si25  1  0.802526  0.623501  0.748038  1
  Si  Si26  1  0.302602  0.876507  0.751326  1
  Si  Si27  1  0.197652  0.380486  0.250083  1
  Si  Si28  1  0.697293  0.122217  0.251904  1
  Mo  Mo29  1  0.667319  0.833087  0.124738  1
  Mo  Mo30  1  0.831834  0.334536  0.876221  1
  Mo  Mo31  1  0.330816  0.165153  0.623494  1
  Mo  Mo32  1  0.664607  0.007544  0.749778  1
  Mo  Mo33  1  0.164472  0.492746  0.749561  1
  Mo  Mo34  1  0.334626  0.990176  0.250141  1
  Mo  Mo35  1  0.836487  0.509027  0.250996  1
