# generated using pymatgen
data_Tm3Sc2Tl3S
_symmetry_space_group_name_H-M   'P 1'
_cell_length_a   8.88453500
_cell_length_b   8.88453524
_cell_length_c   6.44662400
_cell_angle_alpha   90.00000000
_cell_angle_beta   90.00000000
_cell_angle_gamma   120.00000283
_symmetry_Int_Tables_number   1
_chemical_formula_structural   Tm3Sc2Tl3S
_chemical_formula_sum   'Tm6 Sc4 Tl6 S2'
_cell_volume   440.68916911
_cell_formula_units_Z   2
loop_
 _symmetry_equiv_pos_site_id
 _symmetry_equiv_pos_as_xyz
  1  'x, y, z'
loop_
 _atom_site_type_symbol
 _atom_site_label
 _atom_site_symmetry_multiplicity
 _atom_site_fract_x
 _atom_site_fract_y
 _atom_site_fract_z
 _atom_site_occupancy
  Tm  Tm0  1  0.755220  0.755220  0.750000  1
  Tm  Tm1  1  0.244780  0.000000  0.750000  1
  Tm  Tm2  1  0.000000  0.244780  0.750000  1
  Tm  Tm3  1  0.244780  0.244780  0.250000  1
  Tm  Tm4  1  0.755220  0.000000  0.250000  1
  Tm  Tm5  1  0.000000  0.755220  0.250000  1
  Sc  Sc6  1  0.666667  0.333333  0.000000  1
  Sc  Sc7  1  0.333333  0.666667  0.000000  1
  Sc  Sc8  1  0.333333  0.666667  0.500000  1
  Sc  Sc9  1  0.666667  0.333333  0.500000  1
  Tl  Tl10  1  0.402991  0.402991  0.750000  1
  Tl  Tl11  1  0.597009  0.000000  0.750000  1
  Tl  Tl12  1  0.000000  0.597009  0.750000  1
  Tl  Tl13  1  0.597009  0.597009  0.250000  1
  Tl  Tl14  1  0.402991  0.000000  0.250000  1
  Tl  Tl15  1  0.000000  0.402991  0.250000  1
  S  S16  1  0.000000  0.000000  0.000000  1
  S  S17  1  0.000000  0.000000  0.500000  1
