# generated using pymatgen
data_La3(WC3)2
_symmetry_space_group_name_H-M   'P 1'
_cell_length_a   8.65277100
_cell_length_b   8.65277068
_cell_length_c   5.37635300
_cell_angle_alpha   90.00000000
_cell_angle_beta   90.00000000
_cell_angle_gamma   119.99998974
_symmetry_Int_Tables_number   1
_chemical_formula_structural   La3(WC3)2
_chemical_formula_sum   'La6 W4 C12'
_cell_volume   348.60118305
_cell_formula_units_Z   2
loop_
 _symmetry_equiv_pos_site_id
 _symmetry_equiv_pos_as_xyz
  1  'x, y, z'
loop_
 _atom_site_type_symbol
 _atom_site_label
 _atom_site_symmetry_multiplicity
 _atom_site_fract_x
 _atom_site_fract_y
 _atom_site_fract_z
 _atom_site_occupancy
  La  La0  1  0.615378  0.693307  0.750000  1
  La  La1  1  0.922071  0.615378  0.250000  1
  La  La2  1  0.693307  0.077929  0.250000  1
  La  La3  1  0.306693  0.922071  0.750000  1
  La  La4  1  0.077929  0.384622  0.750000  1
  La  La5  1  0.384622  0.306693  0.250000  1
  W  W6  1  0.000000  0.000000  0.500000  1
  W  W7  1  0.000000  0.000000  0.000000  1
  W  W8  1  0.666667  0.333333  0.750000  1
  W  W9  1  0.333333  0.666667  0.250000  1
  C  C10  1  0.952678  0.773048  0.750000  1
  C  C11  1  0.179629  0.952678  0.250000  1
  C  C12  1  0.773048  0.820371  0.250000  1
  C  C13  1  0.226952  0.179629  0.750000  1
  C  C14  1  0.820371  0.047322  0.750000  1
  C  C15  1  0.047322  0.226952  0.250000  1
  C  C16  1  0.858996  0.587546  0.750000  1
  C  C17  1  0.271449  0.858996  0.250000  1
  C  C18  1  0.587546  0.728551  0.250000  1
  C  C19  1  0.412454  0.271449  0.750000  1
  C  C20  1  0.141004  0.412454  0.250000  1
  C  C21  1  0.728551  0.141004  0.750000  1
