# generated using pymatgen
data_Lu4Cu(GeIr)6
_symmetry_space_group_name_H-M   'P 1'
_cell_length_a   7.20250389
_cell_length_b   7.20250541
_cell_length_c   7.20250368
_cell_angle_alpha   109.48528078
_cell_angle_beta   109.48528219
_cell_angle_gamma   109.44310614
_symmetry_Int_Tables_number   1
_chemical_formula_structural   Lu4Cu(GeIr)6
_chemical_formula_sum   'Lu4 Cu1 Ge6 Ir6'
_cell_volume   287.62630050
_cell_formula_units_Z   1
loop_
 _symmetry_equiv_pos_site_id
 _symmetry_equiv_pos_as_xyz
  1  'x, y, z'
loop_
 _atom_site_type_symbol
 _atom_site_label
 _atom_site_symmetry_multiplicity
 _atom_site_fract_x
 _atom_site_fract_y
 _atom_site_fract_z
 _atom_site_occupancy
  Lu  Lu0  1  0.002085  0.997915  0.500000  1
  Lu  Lu1  1  0.002085  0.502085  0.004171  1
  Lu  Lu2  1  0.497915  0.997915  0.995829  1
  Lu  Lu3  1  0.497915  0.502085  0.500000  1
  Cu  Cu4  1  0.750000  0.250000  0.500000  1
  Ge  Ge5  1  0.683932  0.683932  0.000000  1
  Ge  Ge6  1  0.313314  0.998062  0.315252  1
  Ge  Ge7  1  0.001938  0.317189  0.315252  1
  Ge  Ge8  1  0.316068  0.316068  0.000000  1
  Ge  Ge9  1  0.682811  0.998062  0.684748  1
  Ge  Ge10  1  0.001938  0.686686  0.684748  1
  Ir  Ir11  1  0.747145  0.494606  0.252539  1
  Ir  Ir12  1  0.505394  0.252855  0.747461  1
  Ir  Ir13  1  0.242067  0.494606  0.747461  1
  Ir  Ir14  1  0.250000  0.750000  0.500000  1
  Ir  Ir15  1  0.505394  0.757933  0.252539  1
  Ir  Ir16  1  0.000000  0.000000  0.000000  1
