# generated using pymatgen
data_Pr6ErScO12
_symmetry_space_group_name_H-M   'P 1'
_cell_length_a   6.93940628
_cell_length_b   6.93940607
_cell_length_c   6.93940565
_cell_angle_alpha   92.77362423
_cell_angle_beta   92.77362480
_cell_angle_gamma   92.77362078
_symmetry_Int_Tables_number   1
_chemical_formula_structural   Pr6ErScO12
_chemical_formula_sum   'Pr6 Er1 Sc1 O12'
_cell_volume   332.95576386
_cell_formula_units_Z   1
loop_
 _symmetry_equiv_pos_site_id
 _symmetry_equiv_pos_as_xyz
  1  'x, y, z'
loop_
 _atom_site_type_symbol
 _atom_site_label
 _atom_site_symmetry_multiplicity
 _atom_site_fract_x
 _atom_site_fract_y
 _atom_site_fract_z
 _atom_site_occupancy
  Pr  Pr0  1  0.742528  0.930366  0.439221  1
  Pr  Pr1  1  0.439221  0.742528  0.930366  1
  Pr  Pr2  1  0.069634  0.560779  0.257472  1
  Pr  Pr3  1  0.930366  0.439221  0.742528  1
  Pr  Pr4  1  0.560779  0.257472  0.069634  1
  Pr  Pr5  1  0.257472  0.069634  0.560779  1
  Er  Er6  1  0.000000  0.000000  0.000000  1
  Sc  Sc7  1  0.500000  0.500000  0.500000  1
  O  O8  1  0.065010  0.912457  0.307953  1
  O  O9  1  0.692047  0.934990  0.087543  1
  O  O10  1  0.462154  0.796814  0.588556  1
  O  O11  1  0.087543  0.692047  0.934990  1
  O  O12  1  0.796814  0.588556  0.462154  1
  O  O13  1  0.411444  0.537846  0.203186  1
  O  O14  1  0.588556  0.462154  0.796814  1
  O  O15  1  0.203186  0.411444  0.537846  1
  O  O16  1  0.912457  0.307953  0.065010  1
  O  O17  1  0.537846  0.203186  0.411444  1
  O  O18  1  0.307953  0.065010  0.912457  1
  O  O19  1  0.934990  0.087543  0.692047  1
