# generated using pymatgen
data_TbHo2Tm5(CdIr)2
_symmetry_space_group_name_H-M   'P 1'
_cell_length_a   9.56057599
_cell_length_b   9.56057674
_cell_length_c   9.55730500
_cell_angle_alpha   60.01131616
_cell_angle_beta   60.01131357
_cell_angle_gamma   59.97736572
_symmetry_Int_Tables_number   1
_chemical_formula_structural   TbHo2Tm5(CdIr)2
_chemical_formula_sum   'Tb2 Ho4 Tm10 Cd4 Ir4'
_cell_volume   617.71547404
_cell_formula_units_Z   2
loop_
 _symmetry_equiv_pos_site_id
 _symmetry_equiv_pos_as_xyz
  1  'x, y, z'
loop_
 _atom_site_type_symbol
 _atom_site_label
 _atom_site_symmetry_multiplicity
 _atom_site_fract_x
 _atom_site_fract_y
 _atom_site_fract_z
 _atom_site_occupancy
  Tb  Tb0  1  0.811398  0.811398  0.188602  1
  Tb  Tb1  1  0.188602  0.188602  0.811398  1
  Ho  Ho2  1  0.189045  0.810955  0.810955  1
  Ho  Ho3  1  0.810955  0.189045  0.189045  1
  Ho  Ho4  1  0.810955  0.189045  0.810955  1
  Ho  Ho5  1  0.189045  0.810955  0.189045  1
  Tm  Tm6  1  0.598577  0.598577  0.598835  1
  Tm  Tm7  1  0.598577  0.598577  0.204012  1
  Tm  Tm8  1  0.598835  0.204012  0.598577  1
  Tm  Tm9  1  0.204012  0.598835  0.598577  1
  Tm  Tm10  1  0.061327  0.438673  0.438673  1
  Tm  Tm11  1  0.438673  0.061327  0.061327  1
  Tm  Tm12  1  0.438673  0.061327  0.438673  1
  Tm  Tm13  1  0.061327  0.438673  0.061327  1
  Tm  Tm14  1  0.438728  0.438728  0.061272  1
  Tm  Tm15  1  0.061272  0.061272  0.438728  1
  Cd  Cd16  1  0.830814  0.830814  0.830407  1
  Cd  Cd17  1  0.830814  0.830814  0.507965  1
  Cd  Cd18  1  0.830407  0.507965  0.830814  1
  Cd  Cd19  1  0.507965  0.830407  0.830814  1
  Ir  Ir20  1  0.391819  0.391819  0.391442  1
  Ir  Ir21  1  0.391819  0.391819  0.824920  1
  Ir  Ir22  1  0.391442  0.824920  0.391819  1
  Ir  Ir23  1  0.824920  0.391442  0.391819  1
