# generated using pymatgen
data_TbHoEr6(B6Os)4
_symmetry_space_group_name_H-M   'P 1'
_cell_length_a   3.63799900
_cell_length_b   9.11821601
_cell_length_c   11.49582701
_cell_angle_alpha   90.00023444
_cell_angle_beta   90.00000000
_cell_angle_gamma   90.00000000
_symmetry_Int_Tables_number   1
_chemical_formula_structural   TbHoEr6(B6Os)4
_chemical_formula_sum   'Tb1 Ho1 Er6 B24 Os4'
_cell_volume   381.34027167
_cell_formula_units_Z   1
loop_
 _symmetry_equiv_pos_site_id
 _symmetry_equiv_pos_as_xyz
  1  'x, y, z'
loop_
 _atom_site_type_symbol
 _atom_site_label
 _atom_site_symmetry_multiplicity
 _atom_site_fract_x
 _atom_site_fract_y
 _atom_site_fract_z
 _atom_site_occupancy
  Tb  Tb0  1  0.000000  0.678268  0.586181  1
  Ho  Ho1  1  0.000000  0.321543  0.413894  1
  Er  Er2  1  0.000000  0.821586  0.085820  1
  Er  Er3  1  0.000000  0.178411  0.914205  1
  Er  Er4  1  0.000000  0.943977  0.372560  1
  Er  Er5  1  0.000000  0.056273  0.627346  1
  Er  Er6  1  0.000000  0.443762  0.126682  1
  Er  Er7  1  0.000000  0.556171  0.873368  1
  B  B8  1  0.500000  0.553857  0.432568  1
  B  B9  1  0.500000  0.445677  0.567181  1
  B  B10  1  0.500000  0.053623  0.066481  1
  B  B11  1  0.500000  0.946419  0.933555  1
  B  B12  1  0.500000  0.748673  0.419111  1
  B  B13  1  0.500000  0.251344  0.580465  1
  B  B14  1  0.500000  0.248061  0.079671  1
  B  B15  1  0.500000  0.751935  0.920393  1
  B  B16  1  0.500000  0.791379  0.265639  1
  B  B17  1  0.500000  0.208602  0.734286  1
  B  B18  1  0.500000  0.290875  0.233228  1
  B  B19  1  0.500000  0.709286  0.767081  1
  B  B20  1  0.500000  0.631458  0.184516  1
  B  B21  1  0.500000  0.368465  0.815500  1
  B  B22  1  0.500000  0.131017  0.314638  1
  B  B23  1  0.500000  0.869328  0.685564  1
  B  B24  1  0.500000  0.982373  0.212597  1
  B  B25  1  0.500000  0.017729  0.787434  1
  B  B26  1  0.500000  0.482713  0.286365  1
  B  B27  1  0.500000  0.516823  0.713754  1
  B  B28  1  0.500000  0.607681  0.029734  1
  B  B29  1  0.500000  0.392294  0.970292  1
  B  B30  1  0.500000  0.106249  0.470586  1
  B  B31  1  0.500000  0.894346  0.529253  1
  Os  Os32  1  0.000000  0.637620  0.320502  1
  Os  Os33  1  0.000000  0.362002  0.679382  1
  Os  Os34  1  0.000000  0.137051  0.178351  1
  Os  Os35  1  0.000000  0.863129  0.821816  1
