# generated using pymatgen
data_SrMn2(FeSb6)2
_symmetry_space_group_name_H-M   'P 1'
_cell_length_a   8.09446204
_cell_length_b   8.04095338
_cell_length_c   8.04095380
_cell_angle_alpha   109.34663281
_cell_angle_beta   109.38817265
_cell_angle_gamma   109.41029203
_symmetry_Int_Tables_number   1
_chemical_formula_structural   SrMn2(FeSb6)2
_chemical_formula_sum   'Sr1 Mn2 Fe2 Sb12'
_cell_volume   404.21483425
_cell_formula_units_Z   1
loop_
 _symmetry_equiv_pos_site_id
 _symmetry_equiv_pos_as_xyz
  1  'x, y, z'
loop_
 _atom_site_type_symbol
 _atom_site_label
 _atom_site_symmetry_multiplicity
 _atom_site_fract_x
 _atom_site_fract_y
 _atom_site_fract_z
 _atom_site_occupancy
  Sr  Sr0  1  0.000000  0.000000  0.000000  1
  Mn  Mn1  1  0.000000  0.000000  0.500000  1
  Mn  Mn2  1  0.000000  0.500000  0.000000  1
  Fe  Fe3  1  0.500000  0.000000  0.000000  1
  Fe  Fe4  1  0.500000  0.500000  0.500000  1
  Sb  Sb5  1  0.343864  0.177265  0.845762  1
  Sb  Sb6  1  0.656136  0.822735  0.154238  1
  Sb  Sb7  1  0.656136  0.501899  0.833401  1
  Sb  Sb8  1  0.343864  0.498101  0.166599  1
  Sb  Sb9  1  0.184574  0.842517  0.342057  1
  Sb  Sb10  1  0.815426  0.157483  0.657943  1
  Sb  Sb11  1  0.503281  0.836439  0.666842  1
  Sb  Sb12  1  0.496719  0.163561  0.333158  1
  Sb  Sb13  1  0.833624  0.331095  0.176128  1
  Sb  Sb14  1  0.166376  0.668905  0.823872  1
  Sb  Sb15  1  0.833624  0.657496  0.502530  1
  Sb  Sb16  1  0.166376  0.342504  0.497470  1
