# generated using pymatgen
data_Ta3TiW12
_symmetry_space_group_name_H-M   'P 1'
_cell_length_a   6.41427100
_cell_length_b   6.41427100
_cell_length_c   6.41427100
_cell_angle_alpha   90.00000000
_cell_angle_beta   90.00000000
_cell_angle_gamma   90.00000000
_symmetry_Int_Tables_number   1
_chemical_formula_structural   Ta3TiW12
_chemical_formula_sum   'Ta3 Ti1 W12'
_cell_volume   263.90153369
_cell_formula_units_Z   1
loop_
 _symmetry_equiv_pos_site_id
 _symmetry_equiv_pos_as_xyz
  1  'x, y, z'
loop_
 _atom_site_type_symbol
 _atom_site_label
 _atom_site_symmetry_multiplicity
 _atom_site_fract_x
 _atom_site_fract_y
 _atom_site_fract_z
 _atom_site_occupancy
  Ta  Ta0  1  0.499999  0.499999  0.000000  1
  Ta  Ta1  1  0.499999  0.000000  0.499999  1
  Ta  Ta2  1  0.000000  0.499999  0.499999  1
  Ti  Ti3  1  0.000000  0.000000  0.000000  1
  W  W4  1  0.499999  0.000000  0.000000  1
  W  W5  1  0.000000  0.499999  0.000000  1
  W  W6  1  0.249137  0.249137  0.249137  1
  W  W7  1  0.750863  0.249137  0.249137  1
  W  W8  1  0.249137  0.750863  0.249137  1
  W  W9  1  0.750863  0.750863  0.249137  1
  W  W10  1  0.000000  0.000000  0.499999  1
  W  W11  1  0.499999  0.499999  0.499999  1
  W  W12  1  0.249137  0.249137  0.750863  1
  W  W13  1  0.750863  0.249137  0.750863  1
  W  W14  1  0.249137  0.750863  0.750863  1
  W  W15  1  0.750863  0.750863  0.750863  1
