# generated using pymatgen
data_YTmLu14(In3Rh)2
_symmetry_space_group_name_H-M   'P 1'
_cell_length_a   10.22198100
_cell_length_b   10.22198242
_cell_length_c   6.91551800
_cell_angle_alpha   90.00000000
_cell_angle_beta   90.00000000
_cell_angle_gamma   120.00000510
_symmetry_Int_Tables_number   1
_chemical_formula_structural   YTmLu14(In3Rh)2
_chemical_formula_sum   'Y1 Tm1 Lu14 In6 Rh2'
_cell_volume   625.78554134
_cell_formula_units_Z   1
loop_
 _symmetry_equiv_pos_site_id
 _symmetry_equiv_pos_as_xyz
  1  'x, y, z'
loop_
 _atom_site_type_symbol
 _atom_site_label
 _atom_site_symmetry_multiplicity
 _atom_site_fract_x
 _atom_site_fract_y
 _atom_site_fract_z
 _atom_site_occupancy
  Y  Y0  1  0.000000  0.000000  0.995434  1
  Tm  Tm1  1  0.000000  0.000000  0.495765  1
  Lu  Lu2  1  0.467190  0.532810  0.479238  1
  Lu  Lu3  1  0.065620  0.532810  0.479238  1
  Lu  Lu4  1  0.467190  0.934380  0.479238  1
  Lu  Lu5  1  0.532890  0.467110  0.979136  1
  Lu  Lu6  1  0.934219  0.467110  0.979136  1
  Lu  Lu7  1  0.532890  0.065781  0.979136  1
  Lu  Lu8  1  0.822232  0.177768  0.276552  1
  Lu  Lu9  1  0.355535  0.177768  0.276552  1
  Lu  Lu10  1  0.822232  0.644465  0.276552  1
  Lu  Lu11  1  0.177770  0.822230  0.775479  1
  Lu  Lu12  1  0.644460  0.822230  0.775479  1
  Lu  Lu13  1  0.177770  0.355540  0.775479  1
  Lu  Lu14  1  0.333333  0.666667  0.101095  1
  Lu  Lu15  1  0.666667  0.333333  0.600235  1
  In  In16  1  0.162662  0.837338  0.235683  1
  In  In17  1  0.674674  0.837338  0.235683  1
  In  In18  1  0.162662  0.325326  0.235683  1
  In  In19  1  0.837205  0.162795  0.733746  1
  In  In20  1  0.325590  0.162795  0.733746  1
  In  In21  1  0.837205  0.674410  0.733746  1
  Rh  Rh22  1  0.333333  0.666667  0.706754  1
  Rh  Rh23  1  0.666667  0.333333  0.205768  1
