# generated using pymatgen
data_Y3Cd3GaSnAu
_symmetry_space_group_name_H-M   'P 1'
_cell_length_a   7.41438300
_cell_length_b   7.41438322
_cell_length_c   4.48747000
_cell_angle_alpha   90.00000000
_cell_angle_beta   90.00000000
_cell_angle_gamma   120.00000347
_symmetry_Int_Tables_number   1
_chemical_formula_structural   Y3Cd3GaSnAu
_chemical_formula_sum   'Y3 Cd3 Ga1 Sn1 Au1'
_cell_volume   213.63982841
_cell_formula_units_Z   1
loop_
 _symmetry_equiv_pos_site_id
 _symmetry_equiv_pos_as_xyz
  1  'x, y, z'
loop_
 _atom_site_type_symbol
 _atom_site_label
 _atom_site_symmetry_multiplicity
 _atom_site_fract_x
 _atom_site_fract_y
 _atom_site_fract_z
 _atom_site_occupancy
  Y  Y0  1  0.593795  0.012171  0.000000  1
  Y  Y1  1  0.987829  0.581624  0.000000  1
  Y  Y2  1  0.418376  0.406205  0.000000  1
  Cd  Cd3  1  0.252308  0.011624  0.500000  1
  Cd  Cd4  1  0.988376  0.240684  0.500000  1
  Cd  Cd5  1  0.759316  0.747692  0.500000  1
  Ga  Ga6  1  0.666667  0.333333  0.500000  1
  Sn  Sn7  1  0.333333  0.666667  0.500000  1
  Au  Au8  1  0.000000  0.000000  0.000000  1
