# generated using pymatgen
data_Tb4B20PtRh
_symmetry_space_group_name_H-M   'P 1'
_cell_length_a   4.17120600
_cell_length_b   5.69070908
_cell_length_c   11.36202108
_cell_angle_alpha   90.20456588
_cell_angle_beta   90.00000000
_cell_angle_gamma   90.00000000
_symmetry_Int_Tables_number   1
_chemical_formula_structural   Tb4B20PtRh
_chemical_formula_sum   'Tb4 B20 Pt1 Rh1'
_cell_volume   269.69993722
_cell_formula_units_Z   1
loop_
 _symmetry_equiv_pos_site_id
 _symmetry_equiv_pos_as_xyz
  1  'x, y, z'
loop_
 _atom_site_type_symbol
 _atom_site_label
 _atom_site_symmetry_multiplicity
 _atom_site_fract_x
 _atom_site_fract_y
 _atom_site_fract_z
 _atom_site_occupancy
  Tb  Tb0  1  0.500000  0.198901  0.365428  1
  Tb  Tb1  1  0.500000  0.801099  0.634572  1
  Tb  Tb2  1  0.500000  0.309913  0.857903  1
  Tb  Tb3  1  0.500000  0.690087  0.142097  1
  B  B4  1  0.000000  0.383825  0.043703  1
  B  B5  1  0.000000  0.616175  0.956297  1
  B  B6  1  0.000000  0.118434  0.542811  1
  B  B7  1  0.000000  0.881566  0.457189  1
  B  B8  1  0.000000  0.363432  0.198005  1
  B  B9  1  0.000000  0.636568  0.801995  1
  B  B10  1  0.000000  0.137897  0.697301  1
  B  B11  1  0.000000  0.862103  0.302699  1
  B  B12  1  0.000000  0.055372  0.194291  1
  B  B13  1  0.000000  0.944628  0.805709  1
  B  B14  1  0.000000  0.445114  0.692239  1
  B  B15  1  0.000000  0.554886  0.307761  1
  B  B16  1  0.302576  0.221330  0.121370  1
  B  B17  1  0.697424  0.778670  0.878630  1
  B  B18  1  0.302576  0.778670  0.878630  1
  B  B19  1  0.698404  0.280546  0.618392  1
  B  B20  1  0.697424  0.221330  0.121370  1
  B  B21  1  0.301596  0.719454  0.381608  1
  B  B22  1  0.698404  0.719454  0.381608  1
  B  B23  1  0.301596  0.280546  0.618392  1
  Pt  Pt24  1  0.000000  0.000000  0.000000  1
  Rh  Rh25  1  0.000000  0.500000  0.500000  1
