# generated using pymatgen
data_Ca2La18(Ir3Ru)3
_symmetry_space_group_name_H-M   'P 1'
_cell_length_a   11.38251706
_cell_length_b   11.38022806
_cell_length_c   6.66192500
_cell_angle_alpha   90.00000000
_cell_angle_beta   90.00000000
_cell_angle_gamma   89.98859257
_symmetry_Int_Tables_number   1
_chemical_formula_structural   Ca2La18(Ir3Ru)3
_chemical_formula_sum   'Ca2 La18 Ir9 Ru3'
_cell_volume   862.95670112
_cell_formula_units_Z   1
loop_
 _symmetry_equiv_pos_site_id
 _symmetry_equiv_pos_as_xyz
  1  'x, y, z'
loop_
 _atom_site_type_symbol
 _atom_site_label
 _atom_site_symmetry_multiplicity
 _atom_site_fract_x
 _atom_site_fract_y
 _atom_site_fract_z
 _atom_site_occupancy
  Ca  Ca0  1  0.000000  0.000000  0.499921  1
  Ca  Ca1  1  0.000000  0.000000  0.999667  1
  La  La2  1  0.290456  0.088666  0.389983  1
  La  La3  1  0.290398  0.911390  0.890444  1
  La  La4  1  0.709602  0.088610  0.890444  1
  La  La5  1  0.709544  0.911334  0.389983  1
  La  La6  1  0.588929  0.795619  0.887779  1
  La  La7  1  0.589322  0.204498  0.387178  1
  La  La8  1  0.410678  0.795502  0.387178  1
  La  La9  1  0.411071  0.204381  0.887779  1
  La  La10  1  0.206454  0.409741  0.614001  1
  La  La11  1  0.206163  0.590143  0.111366  1
  La  La12  1  0.793837  0.409857  0.111366  1
  La  La13  1  0.793546  0.590259  0.614001  1
  La  La14  1  0.910754  0.711086  0.108526  1
  La  La15  1  0.910426  0.288505  0.611323  1
  La  La16  1  0.089574  0.711495  0.611323  1
  La  La17  1  0.089246  0.288914  0.108526  1
  La  La18  1  0.500000  0.500000  0.000624  1
  La  La19  1  0.500000  0.500000  0.499027  1
  Ir  Ir20  1  0.842131  0.158793  0.250283  1
  Ir  Ir21  1  0.841968  0.841145  0.749831  1
  Ir  Ir22  1  0.158032  0.158855  0.749831  1
  Ir  Ir23  1  0.157869  0.841207  0.250283  1
  Ir  Ir24  1  0.653484  0.347160  0.749890  1
  Ir  Ir25  1  0.653648  0.652829  0.250252  1
  Ir  Ir26  1  0.346352  0.347171  0.250252  1
  Ir  Ir27  1  0.346516  0.652840  0.749890  1
  Ir  Ir28  1  0.000000  0.500000  0.382823  1
  Ru  Ru29  1  0.500000  0.000000  0.115251  1
  Ru  Ru30  1  0.500000  0.000000  0.614999  1
  Ru  Ru31  1  0.000000  0.500000  0.885978  1
