# generated using pymatgen
data_Nd10RuRh5
_symmetry_space_group_name_H-M   'P 1'
_cell_length_a   11.26044800
_cell_length_b   11.26044800
_cell_length_c   6.58212500
_cell_angle_alpha   90.00000000
_cell_angle_beta   90.00000000
_cell_angle_gamma   90.00000000
_symmetry_Int_Tables_number   1
_chemical_formula_structural   Nd10RuRh5
_chemical_formula_sum   'Nd20 Ru2 Rh10'
_cell_volume   834.59823977
_cell_formula_units_Z   2
loop_
 _symmetry_equiv_pos_site_id
 _symmetry_equiv_pos_as_xyz
  1  'x, y, z'
loop_
 _atom_site_type_symbol
 _atom_site_label
 _atom_site_symmetry_multiplicity
 _atom_site_fract_x
 _atom_site_fract_y
 _atom_site_fract_z
 _atom_site_occupancy
  Nd  Nd0  1  0.089309  0.292924  0.118956  1
  Nd  Nd1  1  0.792924  0.410691  0.118956  1
  Nd  Nd2  1  0.207076  0.589309  0.118956  1
  Nd  Nd3  1  0.910691  0.707076  0.118956  1
  Nd  Nd4  1  0.410691  0.792924  0.381044  1
  Nd  Nd5  1  0.589309  0.207076  0.381044  1
  Nd  Nd6  1  0.292924  0.089309  0.381044  1
  Nd  Nd7  1  0.707076  0.910691  0.381044  1
  Nd  Nd8  1  0.410356  0.207254  0.885766  1
  Nd  Nd9  1  0.707254  0.089644  0.885766  1
  Nd  Nd10  1  0.292746  0.910356  0.885766  1
  Nd  Nd11  1  0.589644  0.792746  0.885766  1
  Nd  Nd12  1  0.089644  0.707254  0.614234  1
  Nd  Nd13  1  0.910356  0.292746  0.614234  1
  Nd  Nd14  1  0.207254  0.410356  0.614234  1
  Nd  Nd15  1  0.792746  0.589644  0.614234  1
  Nd  Nd16  1  0.000000  0.000000  0.999449  1
  Nd  Nd17  1  0.500000  0.500000  0.999449  1
  Nd  Nd18  1  0.500000  0.500000  0.500551  1
  Nd  Nd19  1  0.000000  0.000000  0.500551  1
  Ru  Ru20  1  0.000000  0.500000  0.377881  1
  Ru  Ru21  1  0.500000  0.000000  0.122119  1
  Rh  Rh22  1  0.153940  0.846060  0.250000  1
  Rh  Rh23  1  0.346060  0.346060  0.250000  1
  Rh  Rh24  1  0.653940  0.653940  0.250000  1
  Rh  Rh25  1  0.846060  0.153940  0.250000  1
  Rh  Rh26  1  0.346657  0.653343  0.750000  1
  Rh  Rh27  1  0.153343  0.153343  0.750000  1
  Rh  Rh28  1  0.846657  0.846657  0.750000  1
  Rh  Rh29  1  0.653343  0.346657  0.750000  1
  Rh  Rh30  1  0.500000  0.000000  0.622371  1
  Rh  Rh31  1  0.000000  0.500000  0.877629  1
