# generated using pymatgen
data_Tb2NdAuO7
_symmetry_space_group_name_H-M   'P 1'
_cell_length_a   6.52867525
_cell_length_b   6.52867628
_cell_length_c   7.54716400
_cell_angle_alpha   90.00000000
_cell_angle_beta   90.00000000
_cell_angle_gamma   109.21307741
_symmetry_Int_Tables_number   1
_chemical_formula_structural   Tb2NdAuO7
_chemical_formula_sum   'Tb4 Nd2 Au2 O14'
_cell_volume   303.76978141
_cell_formula_units_Z   2
loop_
 _symmetry_equiv_pos_site_id
 _symmetry_equiv_pos_as_xyz
  1  'x, y, z'
loop_
 _atom_site_type_symbol
 _atom_site_label
 _atom_site_symmetry_multiplicity
 _atom_site_fract_x
 _atom_site_fract_y
 _atom_site_fract_z
 _atom_site_occupancy
  Tb  Tb0  1  0.486754  0.942362  0.750000  1
  Tb  Tb1  1  0.513246  0.057638  0.250000  1
  Tb  Tb2  1  0.942362  0.486754  0.750000  1
  Tb  Tb3  1  0.057638  0.513246  0.250000  1
  Nd  Nd4  1  0.000000  0.000000  0.000000  1
  Nd  Nd5  1  0.000000  0.000000  0.500000  1
  Au  Au6  1  0.500000  0.500000  0.000000  1
  Au  Au7  1  0.500000  0.500000  0.500000  1
  O  O8  1  0.603756  0.603756  0.750000  1
  O  O9  1  0.396244  0.396244  0.250000  1
  O  O10  1  0.841917  0.122374  0.750000  1
  O  O11  1  0.158083  0.877626  0.250000  1
  O  O12  1  0.122374  0.841917  0.750000  1
  O  O13  1  0.877626  0.158083  0.250000  1
  O  O14  1  0.433060  0.173788  0.969337  1
  O  O15  1  0.566940  0.826212  0.469337  1
  O  O16  1  0.173788  0.433060  0.969337  1
  O  O17  1  0.826212  0.566940  0.469337  1
  O  O18  1  0.433060  0.173788  0.530663  1
  O  O19  1  0.566940  0.826212  0.030663  1
  O  O20  1  0.826212  0.566940  0.030663  1
  O  O21  1  0.173788  0.433060  0.530663  1
