# generated using pymatgen
data_Nd8Ga(Si4Pt)3
_symmetry_space_group_name_H-M   'P 1'
_cell_length_a   8.22841400
_cell_length_b   8.22841438
_cell_length_c   8.58467300
_cell_angle_alpha   90.00000000
_cell_angle_beta   90.00000000
_cell_angle_gamma   119.99999846
_symmetry_Int_Tables_number   1
_chemical_formula_structural   Nd8Ga(Si4Pt)3
_chemical_formula_sum   'Nd8 Ga1 Si12 Pt3'
_cell_volume   503.36925338
_cell_formula_units_Z   1
loop_
 _symmetry_equiv_pos_site_id
 _symmetry_equiv_pos_as_xyz
  1  'x, y, z'
loop_
 _atom_site_type_symbol
 _atom_site_label
 _atom_site_symmetry_multiplicity
 _atom_site_fract_x
 _atom_site_fract_y
 _atom_site_fract_z
 _atom_site_occupancy
  Nd  Nd0  1  0.000000  0.000000  0.749806  1
  Nd  Nd1  1  0.000000  0.000000  0.250255  1
  Nd  Nd2  1  0.499742  0.500258  0.749645  1
  Nd  Nd3  1  0.499742  0.999484  0.749645  1
  Nd  Nd4  1  0.000516  0.500258  0.749645  1
  Nd  Nd5  1  0.500528  0.499472  0.250340  1
  Nd  Nd6  1  0.998944  0.499472  0.250340  1
  Nd  Nd7  1  0.500528  0.001056  0.250340  1
  Ga  Ga8  1  0.333333  0.666667  0.001474  1
  Si  Si9  1  0.832008  0.167992  0.999530  1
  Si  Si10  1  0.832008  0.664017  0.999530  1
  Si  Si11  1  0.335983  0.167992  0.999530  1
  Si  Si12  1  0.833576  0.166424  0.500585  1
  Si  Si13  1  0.833576  0.667152  0.500585  1
  Si  Si14  1  0.332848  0.166424  0.500585  1
  Si  Si15  1  0.166209  0.833791  0.499446  1
  Si  Si16  1  0.667582  0.833791  0.499446  1
  Si  Si17  1  0.166209  0.332418  0.499446  1
  Si  Si18  1  0.162816  0.837184  0.000379  1
  Si  Si19  1  0.674369  0.837184  0.000379  1
  Si  Si20  1  0.162816  0.325631  0.000379  1
  Pt  Pt21  1  0.666667  0.333333  0.998874  1
  Pt  Pt22  1  0.666667  0.333333  0.500828  1
  Pt  Pt23  1  0.333333  0.666667  0.498987  1
