# generated using pymatgen
data_LiHo8Al(SiB4)4
_symmetry_space_group_name_H-M   'P 1'
_cell_length_a   7.12960700
_cell_length_b   7.12960700
_cell_length_c   7.75753100
_cell_angle_alpha   90.00000000
_cell_angle_beta   90.00000000
_cell_angle_gamma   90.00000000
_symmetry_Int_Tables_number   1
_chemical_formula_structural   LiHo8Al(SiB4)4
_chemical_formula_sum   'Li1 Ho8 Al1 Si4 B16'
_cell_volume   394.32535429
_cell_formula_units_Z   1
loop_
 _symmetry_equiv_pos_site_id
 _symmetry_equiv_pos_as_xyz
  1  'x, y, z'
loop_
 _atom_site_type_symbol
 _atom_site_label
 _atom_site_symmetry_multiplicity
 _atom_site_fract_x
 _atom_site_fract_y
 _atom_site_fract_z
 _atom_site_occupancy
  Li  Li0  1  0.500000  0.500000  0.500000  1
  Ho  Ho1  1  0.681919  0.183245  0.234407  1
  Ho  Ho2  1  0.318081  0.816755  0.765593  1
  Ho  Ho3  1  0.318081  0.816755  0.234407  1
  Ho  Ho4  1  0.816755  0.681919  0.234407  1
  Ho  Ho5  1  0.816755  0.681919  0.765593  1
  Ho  Ho6  1  0.681919  0.183245  0.765593  1
  Ho  Ho7  1  0.183245  0.318081  0.765593  1
  Ho  Ho8  1  0.183245  0.318081  0.234407  1
  Al  Al9  1  0.000000  0.000000  0.500000  1
  Si  Si10  1  0.114293  0.618892  0.500000  1
  Si  Si11  1  0.885707  0.381108  0.500000  1
  Si  Si12  1  0.381108  0.114293  0.500000  1
  Si  Si13  1  0.618892  0.885707  0.500000  1
  B  B14  1  0.173874  0.040502  0.000000  1
  B  B15  1  0.826126  0.959498  0.000000  1
  B  B16  1  0.959498  0.173874  0.000000  1
  B  B17  1  0.326059  0.539722  0.000000  1
  B  B18  1  0.040502  0.826126  0.000000  1
  B  B19  1  0.673941  0.460278  0.000000  1
  B  B20  1  0.539722  0.673941  0.000000  1
  B  B21  1  0.460278  0.326059  0.000000  1
  B  B22  1  0.089162  0.588628  0.000000  1
  B  B23  1  0.910838  0.411372  0.000000  1
  B  B24  1  0.411372  0.089162  0.000000  1
  B  B25  1  0.588628  0.910838  0.000000  1
  B  B26  1  0.000000  0.000000  0.165911  1
  B  B27  1  0.000000  0.000000  0.834089  1
  B  B28  1  0.500000  0.500000  0.837166  1
  B  B29  1  0.500000  0.500000  0.162834  1
