# generated using pymatgen
data_Y2ErIn3Rh2Au
_symmetry_space_group_name_H-M   'P 1'
_cell_length_a   7.77366524
_cell_length_b   7.75746649
_cell_length_c   3.81751600
_cell_angle_alpha   90.00000000
_cell_angle_beta   90.00000000
_cell_angle_gamma   120.09758134
_symmetry_Int_Tables_number   1
_chemical_formula_structural   Y2ErIn3Rh2Au
_chemical_formula_sum   'Y2 Er1 In3 Rh2 Au1'
_cell_volume   199.17249364
_cell_formula_units_Z   1
loop_
 _symmetry_equiv_pos_site_id
 _symmetry_equiv_pos_as_xyz
  1  'x, y, z'
loop_
 _atom_site_type_symbol
 _atom_site_label
 _atom_site_symmetry_multiplicity
 _atom_site_fract_x
 _atom_site_fract_y
 _atom_site_fract_z
 _atom_site_occupancy
  Y  Y0  1  0.018773  0.607358  0.500000  1
  Y  Y1  1  0.392827  0.411536  0.500000  1
  Er  Er2  1  0.588248  0.979752  0.500000  1
  In  In3  1  0.257090  0.997731  0.000000  1
  In  In4  1  0.740399  0.743149  0.000000  1
  In  In5  1  0.002100  0.259344  0.000000  1
  Rh  Rh6  1  0.336535  0.670621  0.000000  1
  Rh  Rh7  1  0.998032  0.999935  0.500000  1
  Au  Au8  1  0.665997  0.330575  0.000000  1
