# generated using pymatgen
data_V5TcGe2
_symmetry_space_group_name_H-M   'P 1'
_cell_length_a   4.75243800
_cell_length_b   4.75243800
_cell_length_c   4.80676200
_cell_angle_alpha   90.00000000
_cell_angle_beta   90.00000000
_cell_angle_gamma   90.00000000
_symmetry_Int_Tables_number   1
_chemical_formula_structural   V5TcGe2
_chemical_formula_sum   'V5 Tc1 Ge2'
_cell_volume   108.56392561
_cell_formula_units_Z   1
loop_
 _symmetry_equiv_pos_site_id
 _symmetry_equiv_pos_as_xyz
  1  'x, y, z'
loop_
 _atom_site_type_symbol
 _atom_site_label
 _atom_site_symmetry_multiplicity
 _atom_site_fract_x
 _atom_site_fract_y
 _atom_site_fract_z
 _atom_site_occupancy
  V  V0  1  0.500000  0.248503  0.999338  1
  V  V1  1  0.748503  0.000000  0.500662  1
  V  V2  1  0.000000  0.500000  0.250000  1
  V  V3  1  0.500000  0.751497  0.999338  1
  V  V4  1  0.251497  0.000000  0.500662  1
  Tc  Tc5  1  0.000000  0.500000  0.750000  1
  Ge  Ge6  1  0.500000  0.500000  0.492751  1
  Ge  Ge7  1  0.000000  0.000000  0.007249  1
