# generated using pymatgen
data_DyTm5(Fe7B2)2
_symmetry_space_group_name_H-M   'P 1'
_cell_length_a   5.09136200
_cell_length_b   5.09136128
_cell_length_c   14.42793400
_cell_angle_alpha   90.00000000
_cell_angle_beta   90.00000000
_cell_angle_gamma   120.00000468
_symmetry_Int_Tables_number   1
_chemical_formula_structural   DyTm5(Fe7B2)2
_chemical_formula_sum   'Dy1 Tm5 Fe14 B4'
_cell_volume   323.89381164
_cell_formula_units_Z   1
loop_
 _symmetry_equiv_pos_site_id
 _symmetry_equiv_pos_as_xyz
  1  'x, y, z'
loop_
 _atom_site_type_symbol
 _atom_site_label
 _atom_site_symmetry_multiplicity
 _atom_site_fract_x
 _atom_site_fract_y
 _atom_site_fract_z
 _atom_site_occupancy
  Dy  Dy0  1  0.333333  0.666667  0.250000  1
  Tm  Tm1  1  0.333333  0.666667  0.465710  1
  Tm  Tm2  1  0.666667  0.333333  0.964919  1
  Tm  Tm3  1  0.666667  0.333333  0.535081  1
  Tm  Tm4  1  0.333333  0.666667  0.034290  1
  Tm  Tm5  1  0.666667  0.333333  0.750000  1
  Fe  Fe6  1  0.833777  0.667556  0.354749  1
  Fe  Fe7  1  0.332444  0.166223  0.354749  1
  Fe  Fe8  1  0.000000  0.000000  0.999709  1
  Fe  Fe9  1  0.000000  0.000000  0.500291  1
  Fe  Fe10  1  0.833777  0.166223  0.145251  1
  Fe  Fe11  1  0.667620  0.833810  0.646043  1
  Fe  Fe12  1  0.166190  0.332380  0.646043  1
  Fe  Fe13  1  0.833777  0.667556  0.145251  1
  Fe  Fe14  1  0.332444  0.166223  0.145251  1
  Fe  Fe15  1  0.667620  0.833810  0.853957  1
  Fe  Fe16  1  0.166190  0.332380  0.853957  1
  Fe  Fe17  1  0.166190  0.833810  0.646043  1
  Fe  Fe18  1  0.166190  0.833810  0.853957  1
  Fe  Fe19  1  0.833777  0.166223  0.354749  1
  B  B20  1  0.666667  0.333333  0.250000  1
  B  B21  1  0.333333  0.666667  0.750000  1
  B  B22  1  0.000000  0.000000  0.750000  1
  B  B23  1  0.000000  0.000000  0.250000  1
