# generated using pymatgen
data_Er4Zr3Sn23Os6
_symmetry_space_group_name_H-M   'P 1'
_cell_length_a   9.78644089
_cell_length_b   9.80063503
_cell_length_c   9.97733092
_cell_angle_alpha   90.04486577
_cell_angle_beta   89.96018293
_cell_angle_gamma   120.16111322
_symmetry_Int_Tables_number   1
_chemical_formula_structural   Er4Zr3Sn23Os6
_chemical_formula_sum   'Er4 Zr3 Sn23 Os6'
_cell_volume   827.40183831
_cell_formula_units_Z   1
loop_
 _symmetry_equiv_pos_site_id
 _symmetry_equiv_pos_as_xyz
  1  'x, y, z'
loop_
 _atom_site_type_symbol
 _atom_site_label
 _atom_site_symmetry_multiplicity
 _atom_site_fract_x
 _atom_site_fract_y
 _atom_site_fract_z
 _atom_site_occupancy
  Er  Er0  1  0.514490  0.028723  0.696717  1
  Er  Er1  1  0.029047  0.514825  0.304283  1
  Er  Er2  1  0.971323  0.485338  0.695331  1
  Er  Er3  1  0.998995  0.998027  0.000021  1
  Zr  Zr4  1  0.489302  0.511853  0.302015  1
  Zr  Zr5  1  0.511198  0.488517  0.698635  1
  Zr  Zr6  1  0.487824  0.976738  0.303370  1
  Sn  Sn7  1  0.119373  0.881690  0.279616  1
  Sn  Sn8  1  0.882626  0.116667  0.720384  1
  Sn  Sn9  1  0.119124  0.237038  0.279675  1
  Sn  Sn10  1  0.880539  0.762162  0.719602  1
  Sn  Sn11  1  0.759249  0.880008  0.281752  1
  Sn  Sn12  1  0.237912  0.119250  0.718831  1
  Sn  Sn13  1  0.776205  0.218528  0.462616  1
  Sn  Sn14  1  0.223596  0.779799  0.534588  1
  Sn  Sn15  1  0.774589  0.556037  0.465060  1
  Sn  Sn16  1  0.225639  0.443650  0.535344  1
  Sn  Sn17  1  0.444839  0.224361  0.464269  1
  Sn  Sn18  1  0.553797  0.774361  0.533391  1
  Sn  Sn19  1  0.351323  0.001094  0.000256  1
  Sn  Sn20  1  0.648968  0.999123  0.999095  1
  Sn  Sn21  1  0.999998  0.349390  0.999873  1
  Sn  Sn22  1  0.998519  0.649025  0.000513  1
  Sn  Sn23  1  0.648842  0.648748  0.999765  1
  Sn  Sn24  1  0.350878  0.349686  0.000387  1
  Sn  Sn25  1  0.342314  0.671256  0.137684  1
  Sn  Sn26  1  0.662274  0.338132  0.865984  1
  Sn  Sn27  1  0.332071  0.666660  0.831963  1
  Sn  Sn28  1  0.667518  0.333260  0.168388  1
  Sn  Sn29  1  0.999542  0.998947  0.499125  1
  Os  Os30  1  0.826720  0.168590  0.202257  1
  Os  Os31  1  0.170610  0.830014  0.798038  1
  Os  Os32  1  0.825565  0.657566  0.203650  1
  Os  Os33  1  0.174457  0.343135  0.797443  1
  Os  Os34  1  0.344889  0.172647  0.203920  1
  Os  Os35  1  0.655844  0.825153  0.796159  1
