# generated using pymatgen
data_Sc10In8Ir3Ru
_symmetry_space_group_name_H-M   'P 1'
_cell_length_a   3.35683400
_cell_length_b   7.71168166
_cell_length_c   17.76208144
_cell_angle_alpha   89.99172516
_cell_angle_beta   90.00000000
_cell_angle_gamma   90.00000000
_symmetry_Int_Tables_number   1
_chemical_formula_structural   Sc10In8Ir3Ru
_chemical_formula_sum   'Sc10 In8 Ir3 Ru1'
_cell_volume   459.80407029
_cell_formula_units_Z   1
loop_
 _symmetry_equiv_pos_site_id
 _symmetry_equiv_pos_as_xyz
  1  'x, y, z'
loop_
 _atom_site_type_symbol
 _atom_site_label
 _atom_site_symmetry_multiplicity
 _atom_site_fract_x
 _atom_site_fract_y
 _atom_site_fract_z
 _atom_site_occupancy
  Sc  Sc0  1  0.500000  0.500462  0.501029  1
  Sc  Sc1  1  0.500000  0.001184  0.998884  1
  Sc  Sc2  1  0.500000  0.874878  0.412123  1
  Sc  Sc3  1  0.500000  0.125952  0.586927  1
  Sc  Sc4  1  0.500000  0.625459  0.913303  1
  Sc  Sc5  1  0.500000  0.375598  0.086655  1
  Sc  Sc6  1  0.500000  0.238425  0.279167  1
  Sc  Sc7  1  0.500000  0.757039  0.721593  1
  Sc  Sc8  1  0.500000  0.256624  0.779133  1
  Sc  Sc9  1  0.500000  0.746496  0.220959  1
  In  In10  1  0.000000  0.201535  0.433799  1
  In  In11  1  0.000000  0.796218  0.566954  1
  In  In12  1  0.000000  0.297503  0.934042  1
  In  In13  1  0.000000  0.702952  0.064693  1
  In  In14  1  0.000000  0.565751  0.351303  1
  In  In15  1  0.000000  0.434507  0.648451  1
  In  In16  1  0.000000  0.934232  0.851790  1
  In  In17  1  0.000000  0.064134  0.148567  1
  Ir  Ir18  1  0.000000  0.038357  0.695817  1
  Ir  Ir19  1  0.000000  0.538124  0.804401  1
  Ir  Ir20  1  0.000000  0.463124  0.195298  1
  Ru  Ru21  1  0.000000  0.961446  0.305110  1
