# generated using pymatgen
data_Tm4VOs6W
_symmetry_space_group_name_H-M   'P 1'
_cell_length_a   5.49489006
_cell_length_b   5.20104714
_cell_length_c   8.88208700
_cell_angle_alpha   90.00000000
_cell_angle_beta   90.00000000
_cell_angle_gamma   121.90142544
_symmetry_Int_Tables_number   1
_chemical_formula_structural   Tm4VOs6W
_chemical_formula_sum   'Tm4 V1 Os6 W1'
_cell_volume   215.50199841
_cell_formula_units_Z   1
loop_
 _symmetry_equiv_pos_site_id
 _symmetry_equiv_pos_as_xyz
  1  'x, y, z'
loop_
 _atom_site_type_symbol
 _atom_site_label
 _atom_site_symmetry_multiplicity
 _atom_site_fract_x
 _atom_site_fract_y
 _atom_site_fract_z
 _atom_site_occupancy
  Tm  Tm0  1  0.669169  0.338702  0.565851  1
  Tm  Tm1  1  0.328882  0.657801  0.436217  1
  Tm  Tm2  1  0.328882  0.657801  0.063783  1
  Tm  Tm3  1  0.669169  0.338702  0.934149  1
  V  V4  1  0.160771  0.322328  0.750000  1
  Os  Os5  1  0.999710  0.998795  0.503539  1
  Os  Os6  1  0.999710  0.998795  0.996461  1
  Os  Os7  1  0.176010  0.823321  0.750000  1
  Os  Os8  1  0.648023  0.823985  0.750000  1
  Os  Os9  1  0.825904  0.178391  0.250000  1
  Os  Os10  1  0.352562  0.178365  0.250000  1
  W  W11  1  0.841208  0.683012  0.250000  1
