# generated using pymatgen
data_Y3HoAl18OsPd5
_symmetry_space_group_name_H-M   'P 1'
_cell_length_a   7.63005421
_cell_length_b   7.63011679
_cell_length_c   9.48773718
_cell_angle_alpha   90.05702318
_cell_angle_beta   90.05560748
_cell_angle_gamma   119.69719231
_symmetry_Int_Tables_number   1
_chemical_formula_structural   Y3HoAl18OsPd5
_chemical_formula_sum   'Y3 Ho1 Al18 Os1 Pd5'
_cell_volume   479.80894885
_cell_formula_units_Z   1
loop_
 _symmetry_equiv_pos_site_id
 _symmetry_equiv_pos_as_xyz
  1  'x, y, z'
loop_
 _atom_site_type_symbol
 _atom_site_label
 _atom_site_symmetry_multiplicity
 _atom_site_fract_x
 _atom_site_fract_y
 _atom_site_fract_z
 _atom_site_occupancy
  Y  Y0  1  0.995312  0.669606  0.248987  1
  Y  Y1  1  0.006059  0.330313  0.751105  1
  Y  Y2  1  0.669561  0.993932  0.248868  1
  Ho  Ho3  1  0.330540  0.004844  0.751173  1
  Al  Al4  1  0.128880  0.130551  0.249220  1
  Al  Al5  1  0.869963  0.871518  0.750780  1
  Al  Al6  1  0.995870  0.333792  0.074802  1
  Al  Al7  1  0.995994  0.660538  0.925096  1
  Al  Al8  1  0.999471  0.666391  0.578167  1
  Al  Al9  1  0.334025  0.000993  0.422722  1
  Al  Al10  1  0.001045  0.334550  0.423402  1
  Al  Al11  1  0.665011  0.998928  0.577192  1
  Al  Al12  1  0.665822  0.003992  0.924611  1
  Al  Al13  1  0.339758  0.004330  0.074127  1
  Al  Al14  1  0.334230  0.334331  0.560966  1
  Al  Al15  1  0.665268  0.665754  0.439609  1
  Al  Al16  1  0.667378  0.662020  0.053790  1
  Al  Al17  1  0.337871  0.332310  0.945694  1
  Al  Al18  1  0.336730  0.546137  0.249173  1
  Al  Al19  1  0.660489  0.452608  0.753584  1
  Al  Al20  1  0.546875  0.339037  0.246258  1
  Al  Al21  1  0.453654  0.663732  0.750806  1
  Os  Os22  1  0.671861  0.327946  0.999859  1
  Pd  Pd23  1  0.328192  0.671860  0.999979  1
  Pd  Pd24  1  0.327787  0.672255  0.500012  1
  Pd  Pd25  1  0.671719  0.328221  0.500031  1
  Pd  Pd26  1  0.000638  0.999448  0.999969  1
  Pd  Pd27  1  0.999998  0.000065  0.500019  1
