# generated using pymatgen
data_Er2Al20Os3Rh
_symmetry_space_group_name_H-M   'P 1'
_cell_length_a   6.86085452
_cell_length_b   6.85004649
_cell_length_c   9.14226930
_cell_angle_alpha   90.15944578
_cell_angle_beta   90.26808962
_cell_angle_gamma   96.60510743
_symmetry_Int_Tables_number   1
_chemical_formula_structural   Er2Al20Os3Rh
_chemical_formula_sum   'Er2 Al20 Os3 Rh1'
_cell_volume   426.80188266
_cell_formula_units_Z   1
loop_
 _symmetry_equiv_pos_site_id
 _symmetry_equiv_pos_as_xyz
  1  'x, y, z'
loop_
 _atom_site_type_symbol
 _atom_site_label
 _atom_site_symmetry_multiplicity
 _atom_site_fract_x
 _atom_site_fract_y
 _atom_site_fract_z
 _atom_site_occupancy
  Er  Er0  1  0.870570  0.132499  0.749065  1
  Er  Er1  1  0.129430  0.867501  0.250935  1
  Al  Al2  1  0.517828  0.780633  0.748005  1
  Al  Al3  1  0.782736  0.517708  0.249377  1
  Al  Al4  1  0.482172  0.219367  0.251995  1
  Al  Al5  1  0.217264  0.482292  0.750623  1
  Al  Al6  1  0.624256  0.378418  0.952039  1
  Al  Al7  1  0.375744  0.621582  0.047961  1
  Al  Al8  1  0.623827  0.376784  0.546143  1
  Al  Al9  1  0.376173  0.623216  0.453857  1
  Al  Al10  1  0.416992  0.148587  0.749922  1
  Al  Al11  1  0.147449  0.415587  0.250380  1
  Al  Al12  1  0.583008  0.851413  0.250078  1
  Al  Al13  1  0.852551  0.584413  0.749620  1
  Al  Al14  1  0.845091  0.154175  0.398725  1
  Al  Al15  1  0.154909  0.845825  0.601275  1
  Al  Al16  1  0.845962  0.155551  0.102894  1
  Al  Al17  1  0.154038  0.844449  0.897106  1
  Al  Al18  1  0.775589  0.775521  0.000432  1
  Al  Al19  1  0.777265  0.776952  0.499406  1
  Al  Al20  1  0.224411  0.224479  0.999568  1
  Al  Al21  1  0.222735  0.223048  0.500594  1
  Os  Os22  1  0.000000  0.500000  0.000000  1
  Os  Os23  1  0.500000  0.000000  0.500000  1
  Os  Os24  1  0.000000  0.500000  0.500000  1
  Rh  Rh25  1  0.500000  0.000000  0.000000  1
