# generated using pymatgen
data_Zr4In2Cu2IrPd
_symmetry_space_group_name_H-M   'P 1'
_cell_length_a   7.41815921
_cell_length_b   7.44137635
_cell_length_c   6.86783299
_cell_angle_alpha   90.17117645
_cell_angle_beta   89.87630893
_cell_angle_gamma   89.65110139
_symmetry_Int_Tables_number   1
_chemical_formula_structural   Zr4In2Cu2IrPd
_chemical_formula_sum   'Zr8 In4 Cu4 Ir2 Pd2'
_cell_volume   379.10378979
_cell_formula_units_Z   2
loop_
 _symmetry_equiv_pos_site_id
 _symmetry_equiv_pos_as_xyz
  1  'x, y, z'
loop_
 _atom_site_type_symbol
 _atom_site_label
 _atom_site_symmetry_multiplicity
 _atom_site_fract_x
 _atom_site_fract_y
 _atom_site_fract_z
 _atom_site_occupancy
  Zr  Zr0  1  0.653487  0.650534  0.499289  1
  Zr  Zr1  1  0.807737  0.191503  0.496402  1
  Zr  Zr2  1  0.683169  0.681853  0.999944  1
  Zr  Zr3  1  0.843106  0.156073  0.008015  1
  Zr  Zr4  1  0.192263  0.808497  0.503598  1
  Zr  Zr5  1  0.316831  0.318147  0.000056  1
  Zr  Zr6  1  0.156894  0.843927  0.991985  1
  Zr  Zr7  1  0.346513  0.349466  0.500711  1
  In  In8  1  0.003538  0.500280  0.248603  1
  In  In9  1  0.504830  0.001524  0.752063  1
  In  In10  1  0.495170  0.998476  0.247937  1
  In  In11  1  0.996462  0.499720  0.751397  1
  Cu  Cu12  1  0.871484  0.874395  0.710643  1
  Cu  Cu13  1  0.631029  0.369283  0.794113  1
  Cu  Cu14  1  0.368971  0.630717  0.205887  1
  Cu  Cu15  1  0.128516  0.125605  0.289357  1
  Ir  Ir16  1  0.621006  0.378602  0.227068  1
  Ir  Ir17  1  0.378994  0.621398  0.772932  1
  Pd  Pd18  1  0.878150  0.876438  0.284749  1
  Pd  Pd19  1  0.121850  0.123562  0.715251  1
