# generated using pymatgen
data_Pr2Bi2P6N13
_symmetry_space_group_name_H-M   'P 1'
_cell_length_a   7.42937564
_cell_length_b   7.47740541
_cell_length_c   7.42937600
_cell_angle_alpha   109.25729174
_cell_angle_beta   109.64030078
_cell_angle_gamma   109.25729746
_symmetry_Int_Tables_number   1
_chemical_formula_structural   Pr2Bi2P6N13
_chemical_formula_sum   'Pr2 Bi2 P6 N13'
_cell_volume   318.71909161
_cell_formula_units_Z   1
loop_
 _symmetry_equiv_pos_site_id
 _symmetry_equiv_pos_as_xyz
  1  'x, y, z'
loop_
 _atom_site_type_symbol
 _atom_site_label
 _atom_site_symmetry_multiplicity
 _atom_site_fract_x
 _atom_site_fract_y
 _atom_site_fract_z
 _atom_site_occupancy
  Pr  Pr0  1  0.653543  0.000000  0.996216  1
  Pr  Pr1  1  0.996216  0.000000  0.653543  1
  Bi  Bi2  1  0.031376  0.765029  0.031376  1
  Bi  Bi3  1  0.266348  0.234971  0.266348  1
  P  P4  1  0.255362  0.743959  0.498899  1
  P  P5  1  0.754940  0.256041  0.511404  1
  P  P6  1  0.755626  0.500000  0.255626  1
  P  P7  1  0.255626  0.500000  0.755626  1
  P  P8  1  0.498899  0.743959  0.255362  1
  P  P9  1  0.511404  0.256041  0.754940  1
  N  N10  1  0.932358  0.000000  0.932358  1
  N  N11  1  0.715862  0.302340  0.308737  1
  N  N12  1  0.291791  0.688816  0.291791  1
  N  N13  1  0.320825  0.613843  0.620110  1
  N  N14  1  0.620110  0.613843  0.320825  1
  N  N15  1  0.413521  0.697660  0.006396  1
  N  N16  1  0.006396  0.697660  0.413521  1
  N  N17  1  0.602975  0.311184  0.602975  1
  N  N18  1  0.693367  0.000000  0.401469  1
  N  N19  1  0.401469  0.000000  0.693367  1
  N  N20  1  0.706983  0.386157  0.006267  1
  N  N21  1  0.308737  0.302340  0.715862  1
  N  N22  1  0.006267  0.386157  0.706983  1
