# generated using pymatgen
data_CaPa3(TcB4)4
_symmetry_space_group_name_H-M   'P 1'
_cell_length_a   3.65019100
_cell_length_b   5.96940619
_cell_length_c   11.56270437
_cell_angle_alpha   90.02886009
_cell_angle_beta   90.00000000
_cell_angle_gamma   90.00000000
_symmetry_Int_Tables_number   1
_chemical_formula_structural   CaPa3(TcB4)4
_chemical_formula_sum   'Ca1 Pa3 Tc4 B16'
_cell_volume   251.94519973
_cell_formula_units_Z   1
loop_
 _symmetry_equiv_pos_site_id
 _symmetry_equiv_pos_as_xyz
  1  'x, y, z'
loop_
 _atom_site_type_symbol
 _atom_site_label
 _atom_site_symmetry_multiplicity
 _atom_site_fract_x
 _atom_site_fract_y
 _atom_site_fract_z
 _atom_site_occupancy
  Ca  Ca0  1  0.000000  0.628720  0.350801  1
  Pa  Pa1  1  0.000000  0.373078  0.647666  1
  Pa  Pa2  1  0.000000  0.127427  0.153096  1
  Pa  Pa3  1  0.000000  0.872698  0.850030  1
  Tc  Tc4  1  0.000000  0.638732  0.090473  1
  Tc  Tc5  1  0.000000  0.361288  0.905510  1
  Tc  Tc6  1  0.000000  0.138785  0.410588  1
  Tc  Tc7  1  0.000000  0.862995  0.594497  1
  B  B8  1  0.500000  0.787326  0.185091  1
  B  B9  1  0.500000  0.210998  0.812919  1
  B  B10  1  0.500000  0.284046  0.313371  1
  B  B11  1  0.500000  0.711275  0.686321  1
  B  B12  1  0.500000  0.865883  0.031408  1
  B  B13  1  0.500000  0.135931  0.968149  1
  B  B14  1  0.500000  0.361941  0.469012  1
  B  B15  1  0.500000  0.636412  0.533052  1
  B  B16  1  0.500000  0.885982  0.453166  1
  B  B17  1  0.500000  0.111529  0.545455  1
  B  B18  1  0.500000  0.388253  0.046424  1
  B  B19  1  0.500000  0.612773  0.954184  1
  B  B20  1  0.500000  0.977736  0.308626  1
  B  B21  1  0.500000  0.026736  0.691371  1
  B  B22  1  0.500000  0.472530  0.190537  1
  B  B23  1  0.500000  0.526927  0.808254  1
