# generated using pymatgen
data_Pr16InAg3Rh4
_symmetry_space_group_name_H-M   'P 1'
_cell_length_a   9.98827065
_cell_length_b   9.98827107
_cell_length_c   9.96107039
_cell_angle_alpha   59.90963298
_cell_angle_beta   59.90963357
_cell_angle_gamma   60.00000358
_symmetry_Int_Tables_number   1
_chemical_formula_structural   Pr16InAg3Rh4
_chemical_formula_sum   'Pr16 In1 Ag3 Rh4'
_cell_volume   701.74139017
_cell_formula_units_Z   1
loop_
 _symmetry_equiv_pos_site_id
 _symmetry_equiv_pos_as_xyz
  1  'x, y, z'
loop_
 _atom_site_type_symbol
 _atom_site_label
 _atom_site_symmetry_multiplicity
 _atom_site_fract_x
 _atom_site_fract_y
 _atom_site_fract_z
 _atom_site_occupancy
  Pr  Pr0  1  0.063927  0.063927  0.436614  1
  Pr  Pr1  1  0.435533  0.063927  0.436614  1
  Pr  Pr2  1  0.060759  0.436577  0.066087  1
  Pr  Pr3  1  0.050670  0.649967  0.649397  1
  Pr  Pr4  1  0.436577  0.436577  0.066087  1
  Pr  Pr5  1  0.649967  0.050670  0.649397  1
  Pr  Pr6  1  0.189008  0.811611  0.187770  1
  Pr  Pr7  1  0.190399  0.190399  0.810905  1
  Pr  Pr8  1  0.811611  0.811611  0.187770  1
  Pr  Pr9  1  0.436577  0.060759  0.066087  1
  Pr  Pr10  1  0.811611  0.189008  0.187770  1
  Pr  Pr11  1  0.063927  0.435533  0.436614  1
  Pr  Pr12  1  0.808297  0.190399  0.810905  1
  Pr  Pr13  1  0.190399  0.808297  0.810905  1
  Pr  Pr14  1  0.648207  0.648207  0.055380  1
  Pr  Pr15  1  0.649967  0.649967  0.649397  1
  In  In16  1  0.421873  0.421873  0.734380  1
  Ag  Ag17  1  0.418074  0.418074  0.418672  1
  Ag  Ag18  1  0.745178  0.418074  0.418672  1
  Ag  Ag19  1  0.418074  0.745178  0.418672  1
  Rh  Rh20  1  0.857766  0.857766  0.426704  1
  Rh  Rh21  1  0.856953  0.856953  0.858401  1
  Rh  Rh22  1  0.427694  0.856953  0.858401  1
  Rh  Rh23  1  0.856953  0.427694  0.858401  1
