# generated using pymatgen
data_CaScB6Os
_symmetry_space_group_name_H-M   'P 1'
_cell_length_a   3.54892300
_cell_length_b   9.01892900
_cell_length_c   11.40854500
_cell_angle_alpha   90.00000000
_cell_angle_beta   90.00000000
_cell_angle_gamma   90.00000000
_symmetry_Int_Tables_number   1
_chemical_formula_structural   CaScB6Os
_chemical_formula_sum   'Ca4 Sc4 B24 Os4'
_cell_volume   365.15882798
_cell_formula_units_Z   4
loop_
 _symmetry_equiv_pos_site_id
 _symmetry_equiv_pos_as_xyz
  1  'x, y, z'
loop_
 _atom_site_type_symbol
 _atom_site_label
 _atom_site_symmetry_multiplicity
 _atom_site_fract_x
 _atom_site_fract_y
 _atom_site_fract_z
 _atom_site_occupancy
  Ca  Ca0  1  0.000000  0.323283  0.415348  1
  Ca  Ca1  1  0.000000  0.676717  0.584652  1
  Ca  Ca2  1  0.000000  0.823283  0.084652  1
  Ca  Ca3  1  0.000000  0.176717  0.915348  1
  Sc  Sc4  1  0.000000  0.944515  0.368338  1
  Sc  Sc5  1  0.000000  0.055485  0.631662  1
  Sc  Sc6  1  0.000000  0.444515  0.131662  1
  Sc  Sc7  1  0.000000  0.555485  0.868338  1
  B  B8  1  0.500000  0.555489  0.432113  1
  B  B9  1  0.500000  0.444511  0.567887  1
  B  B10  1  0.500000  0.055489  0.067887  1
  B  B11  1  0.500000  0.944511  0.932113  1
  B  B12  1  0.500000  0.754266  0.416789  1
  B  B13  1  0.500000  0.245734  0.583211  1
  B  B14  1  0.500000  0.254266  0.083211  1
  B  B15  1  0.500000  0.745734  0.916789  1
  B  B16  1  0.500000  0.796049  0.263918  1
  B  B17  1  0.500000  0.203951  0.736082  1
  B  B18  1  0.500000  0.296049  0.236082  1
  B  B19  1  0.500000  0.703951  0.763918  1
  B  B20  1  0.500000  0.630657  0.182998  1
  B  B21  1  0.500000  0.369343  0.817002  1
  B  B22  1  0.500000  0.130657  0.317002  1
  B  B23  1  0.500000  0.869343  0.682998  1
  B  B24  1  0.500000  0.983574  0.212959  1
  B  B25  1  0.500000  0.016426  0.787041  1
  B  B26  1  0.500000  0.483574  0.287041  1
  B  B27  1  0.500000  0.516426  0.712959  1
  B  B28  1  0.500000  0.593928  0.025025  1
  B  B29  1  0.500000  0.406072  0.974975  1
  B  B30  1  0.500000  0.093928  0.474975  1
  B  B31  1  0.500000  0.906072  0.525025  1
  Os  Os32  1  0.000000  0.642648  0.317022  1
  Os  Os33  1  0.000000  0.357352  0.682978  1
  Os  Os34  1  0.000000  0.142648  0.182978  1
  Os  Os35  1  0.000000  0.857352  0.817022  1
