# generated using pymatgen
data_Ho8Ga12Ir3Au
_symmetry_space_group_name_H-M   'P 1'
_cell_length_a   7.09151700
_cell_length_b   8.86645451
_cell_length_c   8.86645500
_cell_angle_alpha   119.99999808
_cell_angle_beta   90.00000000
_cell_angle_gamma   90.00000000
_symmetry_Int_Tables_number   1
_chemical_formula_structural   Ho8Ga12Ir3Au
_chemical_formula_sum   'Ho8 Ga12 Ir3 Au1'
_cell_volume   482.80281448
_cell_formula_units_Z   1
loop_
 _symmetry_equiv_pos_site_id
 _symmetry_equiv_pos_as_xyz
  1  'x, y, z'
loop_
 _atom_site_type_symbol
 _atom_site_label
 _atom_site_symmetry_multiplicity
 _atom_site_fract_x
 _atom_site_fract_y
 _atom_site_fract_z
 _atom_site_occupancy
  Ho  Ho0  1  0.757685  0.000000  0.000000  1
  Ho  Ho1  1  0.251153  0.000000  0.000000  1
  Ho  Ho2  1  0.748237  0.471454  0.528546  1
  Ho  Ho3  1  0.244160  0.518284  0.481716  1
  Ho  Ho4  1  0.748237  0.057093  0.528546  1
  Ho  Ho5  1  0.244160  0.963431  0.481716  1
  Ho  Ho6  1  0.748237  0.471454  0.942907  1
  Ho  Ho7  1  0.244160  0.518284  0.036569  1
  Ga  Ga8  1  0.948091  0.829550  0.170450  1
  Ga  Ga9  1  0.047019  0.168635  0.831365  1
  Ga  Ga10  1  0.948091  0.340902  0.170450  1
  Ga  Ga11  1  0.451915  0.168508  0.831492  1
  Ga  Ga12  1  0.047019  0.662729  0.831365  1
  Ga  Ga13  1  0.548532  0.836269  0.163731  1
  Ga  Ga14  1  0.948091  0.829550  0.659098  1
  Ga  Ga15  1  0.451915  0.662985  0.831492  1
  Ga  Ga16  1  0.047019  0.168635  0.337271  1
  Ga  Ga17  1  0.548532  0.327462  0.163731  1
  Ga  Ga18  1  0.451915  0.168508  0.337015  1
  Ga  Ga19  1  0.548532  0.836269  0.672538  1
  Ir  Ir20  1  0.981230  0.666667  0.333333  1
  Ir  Ir21  1  0.032470  0.333333  0.666667  1
  Ir  Ir22  1  0.467231  0.333333  0.666667  1
  Au  Au23  1  0.546366  0.666667  0.333333  1
