# generated using pymatgen
data_Y5Tm5Si6
_symmetry_space_group_name_H-M   'P 1'
_cell_length_a   8.40178575
_cell_length_b   8.40178708
_cell_length_c   6.26986200
_cell_angle_alpha   90.00000000
_cell_angle_beta   90.00000000
_cell_angle_gamma   119.90479513
_symmetry_Int_Tables_number   1
_chemical_formula_structural   Y5Tm5Si6
_chemical_formula_sum   'Y5 Tm5 Si6'
_cell_volume   383.66106474
_cell_formula_units_Z   1
loop_
 _symmetry_equiv_pos_site_id
 _symmetry_equiv_pos_as_xyz
  1  'x, y, z'
loop_
 _atom_site_type_symbol
 _atom_site_label
 _atom_site_symmetry_multiplicity
 _atom_site_fract_x
 _atom_site_fract_y
 _atom_site_fract_z
 _atom_site_occupancy
  Y  Y0  1  0.243849  0.000302  0.500000  1
  Y  Y1  1  0.000302  0.243849  0.500000  1
  Y  Y2  1  0.245468  0.245468  0.000000  1
  Y  Y3  1  0.756298  0.999161  0.000000  1
  Y  Y4  1  0.999161  0.756298  0.000000  1
  Tm  Tm5  1  0.666749  0.333156  0.250106  1
  Tm  Tm6  1  0.333156  0.666749  0.250106  1
  Tm  Tm7  1  0.333156  0.666749  0.749894  1
  Tm  Tm8  1  0.666749  0.333156  0.749894  1
  Tm  Tm9  1  0.755158  0.755158  0.500000  1
  Si  Si10  1  0.396446  0.396446  0.500000  1
  Si  Si11  1  0.605556  0.998386  0.500000  1
  Si  Si12  1  0.998386  0.605556  0.500000  1
  Si  Si13  1  0.604553  0.604553  0.000000  1
  Si  Si14  1  0.395243  0.999819  0.000000  1
  Si  Si15  1  0.999819  0.395243  0.000000  1
