# generated using pymatgen
data_TbY8Th3Ru4
_symmetry_space_group_name_H-M   'P 1'
_cell_length_a   6.38995745
_cell_length_b   7.25507645
_cell_length_c   9.58394600
_cell_angle_alpha   90.00000000
_cell_angle_beta   90.00000000
_cell_angle_gamma   89.49852058
_symmetry_Int_Tables_number   1
_chemical_formula_structural   TbY8Th3Ru4
_chemical_formula_sum   'Tb1 Y8 Th3 Ru4'
_cell_volume   444.29117103
_cell_formula_units_Z   1
loop_
 _symmetry_equiv_pos_site_id
 _symmetry_equiv_pos_as_xyz
  1  'x, y, z'
loop_
 _atom_site_type_symbol
 _atom_site_label
 _atom_site_symmetry_multiplicity
 _atom_site_fract_x
 _atom_site_fract_y
 _atom_site_fract_z
 _atom_site_occupancy
  Tb  Tb0  1  0.859433  0.539168  0.250000  1
  Y  Y1  1  0.170411  0.175124  0.067417  1
  Y  Y2  1  0.832049  0.824184  0.935698  1
  Y  Y3  1  0.666858  0.324921  0.934567  1
  Y  Y4  1  0.832049  0.824184  0.564302  1
  Y  Y5  1  0.328770  0.675554  0.068759  1
  Y  Y6  1  0.170411  0.175124  0.432583  1
  Y  Y7  1  0.328770  0.675554  0.431241  1
  Y  Y8  1  0.666858  0.324921  0.565433  1
  Th  Th9  1  0.653525  0.049154  0.250000  1
  Th  Th10  1  0.346312  0.950423  0.750000  1
  Th  Th11  1  0.150391  0.452614  0.750000  1
  Ru  Ru12  1  0.467683  0.366730  0.250000  1
  Ru  Ru13  1  0.526863  0.629136  0.750000  1
  Ru  Ru14  1  0.973202  0.131199  0.750000  1
  Ru  Ru15  1  0.026417  0.882006  0.250000  1
