# generated using pymatgen
data_Dy5Ir2Rh
_symmetry_space_group_name_H-M   'P 1'
_cell_length_a   10.86523700
_cell_length_b   10.86523700
_cell_length_c   6.37848300
_cell_angle_alpha   90.00000000
_cell_angle_beta   90.00000000
_cell_angle_gamma   90.00000000
_symmetry_Int_Tables_number   1
_chemical_formula_structural   Dy5Ir2Rh
_chemical_formula_sum   'Dy20 Ir8 Rh4'
_cell_volume   753.00144595
_cell_formula_units_Z   4
loop_
 _symmetry_equiv_pos_site_id
 _symmetry_equiv_pos_as_xyz
  1  'x, y, z'
loop_
 _atom_site_type_symbol
 _atom_site_label
 _atom_site_symmetry_multiplicity
 _atom_site_fract_x
 _atom_site_fract_y
 _atom_site_fract_z
 _atom_site_occupancy
  Dy  Dy0  1  0.290624  0.089014  0.379009  1
  Dy  Dy1  1  0.290624  0.910986  0.879009  1
  Dy  Dy2  1  0.709376  0.089014  0.879009  1
  Dy  Dy3  1  0.709376  0.910986  0.379009  1
  Dy  Dy4  1  0.589014  0.790624  0.879009  1
  Dy  Dy5  1  0.589014  0.209376  0.379009  1
  Dy  Dy6  1  0.410986  0.790624  0.379009  1
  Dy  Dy7  1  0.410986  0.209376  0.879009  1
  Dy  Dy8  1  0.209376  0.410986  0.620991  1
  Dy  Dy9  1  0.209376  0.589014  0.120991  1
  Dy  Dy10  1  0.790624  0.410986  0.120991  1
  Dy  Dy11  1  0.790624  0.589014  0.620991  1
  Dy  Dy12  1  0.910986  0.709376  0.120991  1
  Dy  Dy13  1  0.910986  0.290624  0.620991  1
  Dy  Dy14  1  0.089014  0.709376  0.620991  1
  Dy  Dy15  1  0.089014  0.290624  0.120991  1
  Dy  Dy16  1  0.000000  0.000000  0.500000  1
  Dy  Dy17  1  0.000000  0.000000  0.000000  1
  Dy  Dy18  1  0.500000  0.500000  0.000000  1
  Dy  Dy19  1  0.500000  0.500000  0.500000  1
  Ir  Ir20  1  0.846125  0.153875  0.250000  1
  Ir  Ir21  1  0.846125  0.846125  0.750000  1
  Ir  Ir22  1  0.153875  0.153875  0.750000  1
  Ir  Ir23  1  0.153875  0.846125  0.250000  1
  Ir  Ir24  1  0.653875  0.346125  0.750000  1
  Ir  Ir25  1  0.653875  0.653875  0.250000  1
  Ir  Ir26  1  0.346125  0.346125  0.250000  1
  Ir  Ir27  1  0.346125  0.653875  0.750000  1
  Rh  Rh28  1  0.500000  0.000000  0.123847  1
  Rh  Rh29  1  0.500000  0.000000  0.623847  1
  Rh  Rh30  1  0.000000  0.500000  0.876153  1
  Rh  Rh31  1  0.000000  0.500000  0.376153  1
