# generated using pymatgen
data_Dy5Tm3Sc12(SiGe)8
_symmetry_space_group_name_H-M   'P 1'
_cell_length_a   7.14956611
_cell_length_b   7.40363902
_cell_length_c   14.05219428
_cell_angle_alpha   89.99174664
_cell_angle_beta   90.12375006
_cell_angle_gamma   89.94048645
_symmetry_Int_Tables_number   1
_chemical_formula_structural   Dy5Tm3Sc12(SiGe)8
_chemical_formula_sum   'Dy5 Tm3 Sc12 Si8 Ge8'
_cell_volume   743.81993803
_cell_formula_units_Z   1
loop_
 _symmetry_equiv_pos_site_id
 _symmetry_equiv_pos_as_xyz
  1  'x, y, z'
loop_
 _atom_site_type_symbol
 _atom_site_label
 _atom_site_symmetry_multiplicity
 _atom_site_fract_x
 _atom_site_fract_y
 _atom_site_fract_z
 _atom_site_occupancy
  Dy  Dy0  1  0.993195  0.823123  0.599012  1
  Dy  Dy1  1  0.506330  0.322721  0.097743  1
  Dy  Dy2  1  0.006659  0.176787  0.401291  1
  Dy  Dy3  1  0.506505  0.323131  0.400594  1
  Dy  Dy4  1  0.493410  0.676774  0.598998  1
  Tm  Tm5  1  0.005830  0.177127  0.098398  1
  Tm  Tm6  1  0.994616  0.822365  0.901445  1
  Tm  Tm7  1  0.493742  0.678009  0.901430  1
  Sc  Sc8  1  0.167185  0.501675  0.751060  1
  Sc  Sc9  1  0.833191  0.499019  0.249231  1
  Sc  Sc10  1  0.332870  0.001308  0.249069  1
  Sc  Sc11  1  0.667249  0.998178  0.751029  1
  Sc  Sc12  1  0.336797  0.172728  0.627098  1
  Sc  Sc13  1  0.663115  0.827354  0.373044  1
  Sc  Sc14  1  0.162906  0.672673  0.372984  1
  Sc  Sc15  1  0.662160  0.827705  0.125726  1
  Sc  Sc16  1  0.836631  0.327454  0.627203  1
  Sc  Sc17  1  0.337596  0.171978  0.874288  1
  Sc  Sc18  1  0.837936  0.327231  0.874066  1
  Sc  Sc19  1  0.161786  0.673048  0.126206  1
  Si  Si20  1  0.038680  0.116067  0.750654  1
  Si  Si21  1  0.961427  0.883580  0.249454  1
  Si  Si22  1  0.461572  0.617637  0.249366  1
  Si  Si23  1  0.538408  0.383677  0.750860  1
  Si  Si24  1  0.290978  0.870756  0.751378  1
  Si  Si25  1  0.709525  0.128600  0.249012  1
  Si  Si26  1  0.207922  0.370920  0.249069  1
  Si  Si27  1  0.790785  0.629201  0.751465  1
  Ge  Ge28  1  0.170396  0.460797  0.540680  1
  Ge  Ge29  1  0.829233  0.539174  0.459155  1
  Ge  Ge30  1  0.329710  0.960673  0.459138  1
  Ge  Ge31  1  0.828354  0.539351  0.040562  1
  Ge  Ge32  1  0.670446  0.039401  0.540597  1
  Ge  Ge33  1  0.173029  0.461993  0.959225  1
  Ge  Ge34  1  0.675141  0.037434  0.959019  1
  Ge  Ge35  1  0.324681  0.960356  0.040450  1
