# generated using pymatgen
data_YbMo2Se2O11
_symmetry_space_group_name_H-M   'P 1'
_cell_length_a   8.09108484
_cell_length_b   7.99796849
_cell_length_c   8.65424296
_cell_angle_alpha   84.91830450
_cell_angle_beta   113.03944496
_cell_angle_gamma   111.25694029
_symmetry_Int_Tables_number   1
_chemical_formula_structural   YbMo2Se2O11
_chemical_formula_sum   'Yb2 Mo4 Se4 O22'
_cell_volume   479.37229390
_cell_formula_units_Z   2
loop_
 _symmetry_equiv_pos_site_id
 _symmetry_equiv_pos_as_xyz
  1  'x, y, z'
loop_
 _atom_site_type_symbol
 _atom_site_label
 _atom_site_symmetry_multiplicity
 _atom_site_fract_x
 _atom_site_fract_y
 _atom_site_fract_z
 _atom_site_occupancy
  Yb  Yb0  1  0.558186  0.768891  0.518923  1
  Yb  Yb1  1  0.441814  0.231109  0.481077  1
  Mo  Mo2  1  0.718733  0.621538  0.203637  1
  Mo  Mo3  1  0.281267  0.378462  0.796363  1
  Mo  Mo4  1  0.713859  0.026741  0.940571  1
  Mo  Mo5  1  0.286141  0.973259  0.059429  1
  Se  Se6  1  0.749485  0.451908  0.842677  1
  Se  Se7  1  0.250515  0.548092  0.157323  1
  Se  Se8  1  0.754050  0.216347  0.326811  1
  Se  Se9  1  0.245950  0.783653  0.673189  1
  O  O10  1  0.936535  0.601637  0.234052  1
  O  O11  1  0.063465  0.398363  0.765948  1
  O  O12  1  0.753258  0.727876  0.388542  1
  O  O13  1  0.246742  0.272124  0.611458  1
  O  O14  1  0.729684  0.827882  0.077483  1
  O  O15  1  0.270316  0.172118  0.922517  1
  O  O16  1  0.637114  0.370356  0.305060  1
  O  O17  1  0.362886  0.629644  0.694940  1
  O  O18  1  0.597659  0.475687  0.935585  1
  O  O19  1  0.402341  0.524313  0.064415  1
  O  O20  1  0.933035  0.191044  0.055471  1
  O  O21  1  0.066965  0.808956  0.944529  1
  O  O22  1  0.740099  0.939780  0.776847  1
  O  O23  1  0.259901  0.060220  0.223153  1
  O  O24  1  0.625041  0.218583  0.786439  1
  O  O25  1  0.374959  0.781417  0.213561  1
  O  O26  1  0.601502  0.095183  0.129227  1
  O  O27  1  0.398498  0.904817  0.870773  1
  O  O28  1  0.658550  0.518703  0.647728  1
  O  O29  1  0.341450  0.481297  0.352272  1
  O  O30  1  0.662991  0.087140  0.459141  1
  O  O31  1  0.337009  0.912860  0.540859  1
