# generated using pymatgen
data_Ba2NdFeO5
_symmetry_space_group_name_H-M   'P 1'
_cell_length_a   6.28315500
_cell_length_b   8.01202393
_cell_length_c   12.99040761
_cell_angle_alpha   91.42997788
_cell_angle_beta   90.00000000
_cell_angle_gamma   90.00000000
_symmetry_Int_Tables_number   1
_chemical_formula_structural   Ba2NdFeO5
_chemical_formula_sum   'Ba8 Nd4 Fe4 O20'
_cell_volume   653.74369934
_cell_formula_units_Z   4
loop_
 _symmetry_equiv_pos_site_id
 _symmetry_equiv_pos_as_xyz
  1  'x, y, z'
loop_
 _atom_site_type_symbol
 _atom_site_label
 _atom_site_symmetry_multiplicity
 _atom_site_fract_x
 _atom_site_fract_y
 _atom_site_fract_z
 _atom_site_occupancy
  Ba  Ba0  1  0.771019  0.477889  0.340569  1
  Ba  Ba1  1  0.728981  0.977889  0.840569  1
  Ba  Ba2  1  0.228981  0.522111  0.659431  1
  Ba  Ba3  1  0.271019  0.022111  0.159431  1
  Ba  Ba4  1  0.765201  0.992026  0.377781  1
  Ba  Ba5  1  0.734799  0.492026  0.877781  1
  Ba  Ba6  1  0.234799  0.007974  0.622219  1
  Ba  Ba7  1  0.265201  0.507974  0.122219  1
  Nd  Nd8  1  0.747914  0.271708  0.624835  1
  Nd  Nd9  1  0.752086  0.771708  0.124835  1
  Nd  Nd10  1  0.252086  0.728292  0.375165  1
  Nd  Nd11  1  0.247914  0.228292  0.875165  1
  Fe  Fe12  1  0.729150  0.743316  0.583099  1
  Fe  Fe13  1  0.770850  0.243316  0.083099  1
  Fe  Fe14  1  0.270850  0.256684  0.416901  1
  Fe  Fe15  1  0.229150  0.756684  0.916901  1
  O  O16  1  0.774051  0.970242  0.629483  1
  O  O17  1  0.725949  0.470242  0.129483  1
  O  O18  1  0.225949  0.029758  0.370517  1
  O  O19  1  0.274051  0.529758  0.870517  1
  O  O20  1  0.723021  0.069946  0.178108  1
  O  O21  1  0.776979  0.569946  0.678108  1
  O  O22  1  0.276979  0.930054  0.821892  1
  O  O23  1  0.223021  0.430054  0.321892  1
  O  O24  1  0.559226  0.743989  0.279235  1
  O  O25  1  0.940774  0.243989  0.779235  1
  O  O26  1  0.440774  0.256011  0.720765  1
  O  O27  1  0.059226  0.756011  0.220765  1
  O  O28  1  0.574166  0.216571  0.971448  1
  O  O29  1  0.925834  0.716571  0.471448  1
  O  O30  1  0.425834  0.783429  0.028552  1
  O  O31  1  0.074166  0.283429  0.528552  1
  O  O32  1  0.060355  0.234651  0.035728  1
  O  O33  1  0.439645  0.734651  0.535728  1
  O  O34  1  0.939645  0.765349  0.964272  1
  O  O35  1  0.560355  0.265349  0.464272  1
