# generated using pymatgen
data_SmY3(As3Rh5)4
_symmetry_space_group_name_H-M   'P 1'
_cell_length_a   4.02484700
_cell_length_b   12.91860300
_cell_length_c   11.34942500
_cell_angle_alpha   89.99839441
_cell_angle_beta   90.00000000
_cell_angle_gamma   90.00000000
_symmetry_Int_Tables_number   1
_chemical_formula_structural   SmY3(As3Rh5)4
_chemical_formula_sum   'Sm1 Y3 As12 Rh20'
_cell_volume   590.11789853
_cell_formula_units_Z   1
loop_
 _symmetry_equiv_pos_site_id
 _symmetry_equiv_pos_as_xyz
  1  'x, y, z'
loop_
 _atom_site_type_symbol
 _atom_site_label
 _atom_site_symmetry_multiplicity
 _atom_site_fract_x
 _atom_site_fract_y
 _atom_site_fract_z
 _atom_site_occupancy
  Sm  Sm0  1  0.750000  0.701663  0.081201  1
  Y  Y1  1  0.250000  0.299084  0.919773  1
  Y  Y2  1  0.250000  0.798500  0.580522  1
  Y  Y3  1  0.750000  0.201692  0.418678  1
  As  As4  1  0.750000  0.614230  0.583062  1
  As  As5  1  0.250000  0.385686  0.417288  1
  As  As6  1  0.250000  0.886934  0.082782  1
  As  As7  1  0.750000  0.114899  0.917055  1
  As  As8  1  0.750000  0.889607  0.399753  1
  As  As9  1  0.250000  0.110513  0.599988  1
  As  As10  1  0.250000  0.610203  0.898848  1
  As  As11  1  0.750000  0.389688  0.100326  1
  As  As12  1  0.750000  0.869197  0.766689  1
  As  As13  1  0.250000  0.130722  0.233342  1
  As  As14  1  0.250000  0.630245  0.267970  1
  As  As15  1  0.750000  0.368677  0.732924  1
  Rh  Rh16  1  0.750000  0.701126  0.385031  1
  Rh  Rh17  1  0.250000  0.298466  0.614989  1
  Rh  Rh18  1  0.250000  0.799583  0.883710  1
  Rh  Rh19  1  0.750000  0.201445  0.115090  1
  Rh  Rh20  1  0.750000  0.995940  0.222425  1
  Rh  Rh21  1  0.250000  0.004254  0.777119  1
  Rh  Rh22  1  0.250000  0.503191  0.722685  1
  Rh  Rh23  1  0.750000  0.495135  0.278129  1
  Rh  Rh24  1  0.750000  0.676091  0.780295  1
  Rh  Rh25  1  0.250000  0.323393  0.220206  1
  Rh  Rh26  1  0.250000  0.824407  0.280991  1
  Rh  Rh27  1  0.750000  0.175808  0.719418  1
  Rh  Rh28  1  0.750000  0.929939  0.967461  1
  Rh  Rh29  1  0.250000  0.071915  0.031930  1
  Rh  Rh30  1  0.250000  0.571081  0.468857  1
  Rh  Rh31  1  0.750000  0.428651  0.531875  1
  Rh  Rh32  1  0.750000  0.979263  0.590221  1
  Rh  Rh33  1  0.250000  0.020801  0.409806  1
  Rh  Rh34  1  0.250000  0.519059  0.090144  1
  Rh  Rh35  1  0.750000  0.478910  0.909415  1
