# generated using pymatgen
data_Tb2Dy2Co17(Si4Ni)3
_symmetry_space_group_name_H-M   'P 1'
_cell_length_a   3.73339900
_cell_length_b   6.78273637
_cell_length_c   18.39146300
_cell_angle_alpha   89.87727148
_cell_angle_beta   90.00000000
_cell_angle_gamma   90.00000000
_symmetry_Int_Tables_number   1
_chemical_formula_structural   Tb2Dy2Co17(Si4Ni)3
_chemical_formula_sum   'Tb2 Dy2 Co17 Si12 Ni3'
_cell_volume   465.71971757
_cell_formula_units_Z   1
loop_
 _symmetry_equiv_pos_site_id
 _symmetry_equiv_pos_as_xyz
  1  'x, y, z'
loop_
 _atom_site_type_symbol
 _atom_site_label
 _atom_site_symmetry_multiplicity
 _atom_site_fract_x
 _atom_site_fract_y
 _atom_site_fract_z
 _atom_site_occupancy
  Tb  Tb0  1  0.250000  0.873016  0.356960  1
  Tb  Tb1  1  0.750000  0.126899  0.643322  1
  Dy  Dy2  1  0.750000  0.373413  0.142264  1
  Dy  Dy3  1  0.250000  0.625310  0.857317  1
  Co  Co4  1  0.250000  0.056726  0.203494  1
  Co  Co5  1  0.750000  0.942910  0.795893  1
  Co  Co6  1  0.750000  0.557204  0.295004  1
  Co  Co7  1  0.250000  0.442468  0.705054  1
  Co  Co8  1  0.250000  0.625055  0.488630  1
  Co  Co9  1  0.750000  0.374491  0.511414  1
  Co  Co10  1  0.750000  0.121373  0.009623  1
  Co  Co11  1  0.250000  0.873914  0.990184  1
  Co  Co12  1  0.250000  0.679156  0.201961  1
  Co  Co13  1  0.750000  0.321517  0.799068  1
  Co  Co14  1  0.750000  0.178711  0.297107  1
  Co  Co15  1  0.250000  0.820924  0.702699  1
  Co  Co16  1  0.250000  0.358247  0.386487  1
  Co  Co17  1  0.750000  0.641931  0.613207  1
  Co  Co18  1  0.750000  0.864333  0.111162  1
  Co  Co19  1  0.250000  0.136429  0.889346  1
  Co  Co20  1  0.250000  0.374893  0.005120  1
  Si  Si21  1  0.250000  0.092975  0.080542  1
  Si  Si22  1  0.750000  0.911192  0.917990  1
  Si  Si23  1  0.750000  0.583963  0.417936  1
  Si  Si24  1  0.250000  0.415529  0.582081  1
  Si  Si25  1  0.250000  0.649808  0.077154  1
  Si  Si26  1  0.750000  0.349331  0.924677  1
  Si  Si27  1  0.750000  0.156002  0.422343  1
  Si  Si28  1  0.250000  0.844135  0.577386  1
  Si  Si29  1  0.250000  0.367308  0.262920  1
  Si  Si30  1  0.750000  0.631959  0.736734  1
  Si  Si31  1  0.750000  0.868109  0.235716  1
  Si  Si32  1  0.250000  0.132103  0.764429  1
  Ni  Ni33  1  0.750000  0.628727  0.995090  1
  Ni  Ni34  1  0.750000  0.874007  0.494424  1
  Ni  Ni35  1  0.250000  0.125929  0.505264  1
