# generated using pymatgen
data_Nd5Ho3(Si3Au)4
_symmetry_space_group_name_H-M   'P 1'
_cell_length_a   8.25557400
_cell_length_b   8.25557330
_cell_length_c   8.50398300
_cell_angle_alpha   90.00000000
_cell_angle_beta   90.00000000
_cell_angle_gamma   120.00000280
_symmetry_Int_Tables_number   1
_chemical_formula_structural   Nd5Ho3(Si3Au)4
_chemical_formula_sum   'Nd5 Ho3 Si12 Au4'
_cell_volume   501.93504056
_cell_formula_units_Z   1
loop_
 _symmetry_equiv_pos_site_id
 _symmetry_equiv_pos_as_xyz
  1  'x, y, z'
loop_
 _atom_site_type_symbol
 _atom_site_label
 _atom_site_symmetry_multiplicity
 _atom_site_fract_x
 _atom_site_fract_y
 _atom_site_fract_z
 _atom_site_occupancy
  Nd  Nd0  1  0.000000  0.000000  0.250000  1
  Nd  Nd1  1  0.000000  0.000000  0.750000  1
  Nd  Nd2  1  0.500897  0.499103  0.250000  1
  Nd  Nd3  1  0.500897  0.001795  0.250000  1
  Nd  Nd4  1  0.998205  0.499103  0.250000  1
  Ho  Ho5  1  0.497426  0.502574  0.750000  1
  Ho  Ho6  1  0.497426  0.994851  0.750000  1
  Ho  Ho7  1  0.005149  0.502574  0.750000  1
  Si  Si8  1  0.164242  0.835758  0.503889  1
  Si  Si9  1  0.164242  0.328484  0.503889  1
  Si  Si10  1  0.671516  0.835758  0.503889  1
  Si  Si11  1  0.835387  0.164613  0.500175  1
  Si  Si12  1  0.835387  0.670775  0.500175  1
  Si  Si13  1  0.329225  0.164613  0.500175  1
  Si  Si14  1  0.835387  0.164613  0.999825  1
  Si  Si15  1  0.835387  0.670775  0.999825  1
  Si  Si16  1  0.329225  0.164613  0.999825  1
  Si  Si17  1  0.164242  0.835758  0.996111  1
  Si  Si18  1  0.164242  0.328484  0.996111  1
  Si  Si19  1  0.671516  0.835758  0.996111  1
  Au  Au20  1  0.333333  0.666667  0.511204  1
  Au  Au21  1  0.666667  0.333333  0.525299  1
  Au  Au22  1  0.666667  0.333333  0.974701  1
  Au  Au23  1  0.333333  0.666667  0.988796  1
