# generated using pymatgen
data_Nd5Tm(MoO7)2
_symmetry_space_group_name_H-M   'P 1'
_cell_length_a   6.66844328
_cell_length_b   6.56823240
_cell_length_c   7.68692000
_cell_angle_alpha   90.00000000
_cell_angle_beta   90.00000000
_cell_angle_gamma   108.72507667
_symmetry_Int_Tables_number   1
_chemical_formula_structural   Nd5Tm(MoO7)2
_chemical_formula_sum   'Nd5 Tm1 Mo2 O14'
_cell_volume   318.86536627
_cell_formula_units_Z   1
loop_
 _symmetry_equiv_pos_site_id
 _symmetry_equiv_pos_as_xyz
  1  'x, y, z'
loop_
 _atom_site_type_symbol
 _atom_site_label
 _atom_site_symmetry_multiplicity
 _atom_site_fract_x
 _atom_site_fract_y
 _atom_site_fract_z
 _atom_site_occupancy
  Nd  Nd0  1  0.529331  0.522842  0.498307  1
  Nd  Nd1  1  0.529331  0.522842  0.001693  1
  Nd  Nd2  1  0.006942  0.459117  0.750000  1
  Nd  Nd3  1  0.531999  0.004331  0.750000  1
  Nd  Nd4  1  0.462801  0.002960  0.250000  1
  Tm  Tm5  1  0.003954  0.533409  0.250000  1
  Mo  Mo6  1  0.000012  0.999296  0.497092  1
  Mo  Mo7  1  0.000012  0.999296  0.002908  1
  O  O8  1  0.933585  0.062198  0.750000  1
  O  O9  1  0.066049  0.925543  0.250000  1
  O  O10  1  0.348700  0.628039  0.250000  1
  O  O11  1  0.644731  0.374358  0.750000  1
  O  O12  1  0.369585  0.629728  0.750000  1
  O  O13  1  0.652279  0.380594  0.250000  1
  O  O14  1  0.312750  0.081141  0.972138  1
  O  O15  1  0.675899  0.914426  0.473023  1
  O  O16  1  0.312750  0.081141  0.527862  1
  O  O17  1  0.675899  0.914426  0.026977  1
  O  O18  1  0.038268  0.300212  0.457024  1
  O  O19  1  0.933429  0.681945  0.978007  1
  O  O20  1  0.933429  0.681945  0.521993  1
  O  O21  1  0.038268  0.300212  0.042976  1
