# generated using pymatgen
data_Er6Sc4SnBi5
_symmetry_space_group_name_H-M   'P 1'
_cell_length_a   8.89159200
_cell_length_b   8.91221347
_cell_length_c   6.18913500
_cell_angle_alpha   90.00000000
_cell_angle_beta   90.00000000
_cell_angle_gamma   119.92348813
_symmetry_Int_Tables_number   1
_chemical_formula_structural   Er6Sc4SnBi5
_chemical_formula_sum   'Er6 Sc4 Sn1 Bi5'
_cell_volume   425.06956696
_cell_formula_units_Z   1
loop_
 _symmetry_equiv_pos_site_id
 _symmetry_equiv_pos_as_xyz
  1  'x, y, z'
loop_
 _atom_site_type_symbol
 _atom_site_label
 _atom_site_symmetry_multiplicity
 _atom_site_fract_x
 _atom_site_fract_y
 _atom_site_fract_z
 _atom_site_occupancy
  Er  Er0  1  0.001532  0.760041  0.750000  1
  Er  Er1  1  0.993991  0.236894  0.250000  1
  Er  Er2  1  0.757097  0.763106  0.250000  1
  Er  Er3  1  0.758895  0.000000  0.750000  1
  Er  Er4  1  0.241491  0.239959  0.750000  1
  Er  Er5  1  0.244258  0.000000  0.250000  1
  Sc  Sc6  1  0.336151  0.670451  0.498059  1
  Sc  Sc7  1  0.665701  0.329549  0.001941  1
  Sc  Sc8  1  0.665701  0.329549  0.498059  1
  Sc  Sc9  1  0.336151  0.670451  0.001941  1
  Sn  Sn10  1  0.602379  0.000000  0.250000  1
  Bi  Bi11  1  0.397580  0.000000  0.750000  1
  Bi  Bi12  1  0.393612  0.394757  0.250000  1
  Bi  Bi13  1  0.998855  0.605243  0.250000  1
  Bi  Bi14  1  0.001308  0.396009  0.750000  1
  Bi  Bi15  1  0.605299  0.603991  0.750000  1
