# generated using pymatgen
data_Tb9TmCo3Ru
_symmetry_space_group_name_H-M   'P 1'
_cell_length_a   6.32637362
_cell_length_b   7.00893239
_cell_length_c   8.57277826
_cell_angle_alpha   96.12936323
_cell_angle_beta   111.24276245
_cell_angle_gamma   90.11945190
_symmetry_Int_Tables_number   1
_chemical_formula_structural   Tb9TmCo3Ru
_chemical_formula_sum   'Tb9 Tm1 Co3 Ru1'
_cell_volume   351.93192996
_cell_formula_units_Z   1
loop_
 _symmetry_equiv_pos_site_id
 _symmetry_equiv_pos_as_xyz
  1  'x, y, z'
loop_
 _atom_site_type_symbol
 _atom_site_label
 _atom_site_symmetry_multiplicity
 _atom_site_fract_x
 _atom_site_fract_y
 _atom_site_fract_z
 _atom_site_occupancy
  Tb  Tb0  1  0.786281  0.086205  0.811262  1
  Tb  Tb1  1  0.984651  0.413985  0.188982  1
  Tb  Tb2  1  0.199359  0.910046  0.182992  1
  Tb  Tb3  1  0.011224  0.581248  0.811294  1
  Tb  Tb4  1  0.217146  0.189516  0.565736  1
  Tb  Tb5  1  0.648163  0.315627  0.429910  1
  Tb  Tb6  1  0.786893  0.814891  0.430854  1
  Tb  Tb7  1  0.356236  0.682711  0.569437  1
  Tb  Tb8  1  0.430331  0.255543  0.002662  1
  Tm  Tm9  1  0.572388  0.746819  0.001774  1
  Co  Co10  1  0.600837  0.427501  0.778116  1
  Co  Co11  1  0.822920  0.071871  0.220027  1
  Co  Co12  1  0.401597  0.573498  0.224018  1
  Ru  Ru13  1  0.181975  0.930542  0.782938  1
