# generated using pymatgen
data_SmDy16Ho3Pb16
_symmetry_space_group_name_H-M   'P 1'
_cell_length_a   8.21929246
_cell_length_b   8.28896169
_cell_length_c   15.66366371
_cell_angle_alpha   90.01543976
_cell_angle_beta   89.73581830
_cell_angle_gamma   89.92600852
_symmetry_Int_Tables_number   1
_chemical_formula_structural   SmDy16Ho3Pb16
_chemical_formula_sum   'Sm1 Dy16 Ho3 Pb16'
_cell_volume   1067.14374133
_cell_formula_units_Z   1
loop_
 _symmetry_equiv_pos_site_id
 _symmetry_equiv_pos_as_xyz
  1  'x, y, z'
loop_
 _atom_site_type_symbol
 _atom_site_label
 _atom_site_symmetry_multiplicity
 _atom_site_fract_x
 _atom_site_fract_y
 _atom_site_fract_z
 _atom_site_occupancy
  Sm  Sm0  1  0.967565  0.823124  0.598141  1
  Dy  Dy1  1  0.623822  0.158591  0.621332  1
  Dy  Dy2  1  0.122036  0.341380  0.880015  1
  Dy  Dy3  1  0.378425  0.842309  0.121205  1
  Dy  Dy4  1  0.875562  0.658014  0.378069  1
  Dy  Dy5  1  0.375687  0.841519  0.378547  1
  Dy  Dy6  1  0.878018  0.658215  0.121199  1
  Dy  Dy7  1  0.621476  0.158294  0.879345  1
  Dy  Dy8  1  0.123310  0.341384  0.621189  1
  Dy  Dy9  1  0.464500  0.675110  0.599518  1
  Dy  Dy10  1  0.962882  0.824208  0.899439  1
  Dy  Dy11  1  0.536598  0.324586  0.100525  1
  Dy  Dy12  1  0.035121  0.176360  0.400138  1
  Dy  Dy13  1  0.534911  0.323897  0.400260  1
  Dy  Dy14  1  0.036983  0.175523  0.100343  1
  Dy  Dy15  1  0.463481  0.675488  0.900452  1
  Dy  Dy16  1  0.790252  0.495862  0.750581  1
  Ho  Ho17  1  0.290510  0.004681  0.750780  1
  Ho  Ho18  1  0.209367  0.504177  0.249855  1
  Ho  Ho19  1  0.709412  0.995644  0.249282  1
  Pb  Pb20  1  0.716070  0.967248  0.455648  1
  Pb  Pb21  1  0.219343  0.534060  0.043235  1
  Pb  Pb22  1  0.280294  0.032563  0.957460  1
  Pb  Pb23  1  0.781241  0.464348  0.542156  1
  Pb  Pb24  1  0.285866  0.037116  0.542254  1
  Pb  Pb25  1  0.780387  0.466323  0.957807  1
  Pb  Pb26  1  0.719772  0.966398  0.042601  1
  Pb  Pb27  1  0.217112  0.534209  0.457049  1
  Pb  Pb28  1  0.426609  0.374287  0.750306  1
  Pb  Pb29  1  0.927208  0.126120  0.750306  1
  Pb  Pb30  1  0.572499  0.625360  0.249843  1
  Pb  Pb31  1  0.072651  0.874507  0.249898  1
  Pb  Pb32  1  0.650759  0.846095  0.749989  1
  Pb  Pb33  1  0.153479  0.653032  0.750860  1
  Pb  Pb34  1  0.348356  0.154641  0.250289  1
  Pb  Pb35  1  0.848434  0.345326  0.250083  1
