# generated using pymatgen
data_Tb5UAl18
_symmetry_space_group_name_H-M   'P 1'
_cell_length_a   14.42280830
_cell_length_b   14.42280814
_cell_length_c   14.42280900
_cell_angle_alpha   24.93724122
_cell_angle_beta   24.93724261
_cell_angle_gamma   24.93723887
_symmetry_Int_Tables_number   1
_chemical_formula_structural   Tb5UAl18
_chemical_formula_sum   'Tb5 U1 Al18'
_cell_volume   469.17085181
_cell_formula_units_Z   1
loop_
 _symmetry_equiv_pos_site_id
 _symmetry_equiv_pos_as_xyz
  1  'x, y, z'
loop_
 _atom_site_type_symbol
 _atom_site_label
 _atom_site_symmetry_multiplicity
 _atom_site_fract_x
 _atom_site_fract_y
 _atom_site_fract_z
 _atom_site_occupancy
  Tb  Tb0  1  0.000055  0.000055  0.000055  1
  Tb  Tb1  1  0.499734  0.499734  0.499734  1
  Tb  Tb2  1  0.108816  0.108816  0.108816  1
  Tb  Tb3  1  0.891556  0.891556  0.891556  1
  Tb  Tb4  1  0.390975  0.390975  0.390975  1
  U  U5  1  0.608284  0.608284  0.608284  1
  Al  Al6  1  0.923423  0.370789  0.370789  1
  Al  Al7  1  0.427705  0.868973  0.868973  1
  Al  Al8  1  0.370789  0.370789  0.923423  1
  Al  Al9  1  0.868973  0.868973  0.427705  1
  Al  Al10  1  0.370789  0.923423  0.370789  1
  Al  Al11  1  0.868973  0.427705  0.868973  1
  Al  Al12  1  0.574466  0.130489  0.130489  1
  Al  Al13  1  0.072697  0.631175  0.631175  1
  Al  Al14  1  0.130489  0.130489  0.574466  1
  Al  Al15  1  0.631175  0.631175  0.072697  1
  Al  Al16  1  0.130489  0.574466  0.130489  1
  Al  Al17  1  0.631175  0.072697  0.631175  1
  Al  Al18  1  0.503320  0.503320  0.992739  1
  Al  Al19  1  0.000180  0.000180  0.499700  1
  Al  Al20  1  0.503320  0.992739  0.503320  1
  Al  Al21  1  0.000180  0.499700  0.000180  1
  Al  Al22  1  0.992739  0.503320  0.503320  1
  Al  Al23  1  0.499700  0.000180  0.000180  1
