# generated using pymatgen
data_La2Mg3(CdSn)3
_symmetry_space_group_name_H-M   'P 1'
_cell_length_a   8.55797900
_cell_length_b   8.55797856
_cell_length_c   4.55529000
_cell_angle_alpha   90.00000000
_cell_angle_beta   90.00000000
_cell_angle_gamma   119.99999783
_symmetry_Int_Tables_number   1
_chemical_formula_structural   La2Mg3(CdSn)3
_chemical_formula_sum   'La2 Mg3 Cd3 Sn3'
_cell_volume   288.92763461
_cell_formula_units_Z   1
loop_
 _symmetry_equiv_pos_site_id
 _symmetry_equiv_pos_as_xyz
  1  'x, y, z'
loop_
 _atom_site_type_symbol
 _atom_site_label
 _atom_site_symmetry_multiplicity
 _atom_site_fract_x
 _atom_site_fract_y
 _atom_site_fract_z
 _atom_site_occupancy
  La  La0  1  0.666667  0.333333  0.000000  1
  La  La1  1  0.333333  0.666667  0.000000  1
  Mg  Mg2  1  0.275211  0.000000  0.500000  1
  Mg  Mg3  1  0.000000  0.275211  0.500000  1
  Mg  Mg4  1  0.724790  0.724790  0.500000  1
  Cd  Cd5  1  0.804384  0.000000  0.000000  1
  Cd  Cd6  1  0.195616  0.195617  0.000000  1
  Cd  Cd7  1  0.000000  0.804384  0.000000  1
  Sn  Sn8  1  0.602300  0.000000  0.500000  1
  Sn  Sn9  1  0.397701  0.397701  0.500000  1
  Sn  Sn10  1  0.000000  0.602300  0.500000  1
