# generated using pymatgen
data_Er2Fe2P6Ir7W
_symmetry_space_group_name_H-M   'P 1'
_cell_length_a   3.92040900
_cell_length_b   10.65987500
_cell_length_c   12.42521100
_cell_angle_alpha   90.00000000
_cell_angle_beta   90.00000000
_cell_angle_gamma   90.00000000
_symmetry_Int_Tables_number   1
_chemical_formula_structural   Er2Fe2P6Ir7W
_chemical_formula_sum   'Er4 Fe4 P12 Ir14 W2'
_cell_volume   519.26286129
_cell_formula_units_Z   2
loop_
 _symmetry_equiv_pos_site_id
 _symmetry_equiv_pos_as_xyz
  1  'x, y, z'
loop_
 _atom_site_type_symbol
 _atom_site_label
 _atom_site_symmetry_multiplicity
 _atom_site_fract_x
 _atom_site_fract_y
 _atom_site_fract_z
 _atom_site_occupancy
  Er  Er0  1  0.250000  0.584747  0.710735  1
  Er  Er1  1  0.250000  0.915253  0.210735  1
  Er  Er2  1  0.750000  0.421747  0.290119  1
  Er  Er3  1  0.750000  0.078253  0.790119  1
  Fe  Fe4  1  0.250000  0.457823  0.935645  1
  Fe  Fe5  1  0.250000  0.042177  0.435645  1
  Fe  Fe6  1  0.750000  0.537170  0.063664  1
  Fe  Fe7  1  0.750000  0.962830  0.563664  1
  P  P8  1  0.250000  0.430931  0.107727  1
  P  P9  1  0.250000  0.069069  0.607727  1
  P  P10  1  0.750000  0.570791  0.894388  1
  P  P11  1  0.750000  0.929209  0.394388  1
  P  P12  1  0.250000  0.266735  0.866717  1
  P  P13  1  0.250000  0.233265  0.366717  1
  P  P14  1  0.750000  0.729241  0.130130  1
  P  P15  1  0.750000  0.770759  0.630130  1
  P  P16  1  0.250000  0.598911  0.388588  1
  P  P17  1  0.250000  0.901089  0.888588  1
  P  P18  1  0.750000  0.405321  0.613003  1
  P  P19  1  0.750000  0.094679  0.113003  1
  Ir  Ir20  1  0.750000  0.282666  0.016521  1
  Ir  Ir21  1  0.750000  0.217334  0.516521  1
  Ir  Ir22  1  0.250000  0.405948  0.480085  1
  Ir  Ir23  1  0.250000  0.094053  0.980085  1
  Ir  Ir24  1  0.750000  0.594873  0.520539  1
  Ir  Ir25  1  0.750000  0.905127  0.020539  1
  Ir  Ir26  1  0.250000  0.234588  0.177352  1
  Ir  Ir27  1  0.250000  0.265412  0.677352  1
  Ir  Ir28  1  0.750000  0.763969  0.821341  1
  Ir  Ir29  1  0.750000  0.736031  0.321341  1
  Ir  Ir30  1  0.250000  0.883858  0.700448  1
  Ir  Ir31  1  0.250000  0.616142  0.200448  1
  Ir  Ir32  1  0.750000  0.115588  0.299322  1
  Ir  Ir33  1  0.750000  0.384412  0.799322  1
  W  W34  1  0.250000  0.708529  0.983678  1
  W  W35  1  0.250000  0.791471  0.483678  1
