# generated using pymatgen
data_LiTm2Se3
_symmetry_space_group_name_H-M   'P 1'
_cell_length_a   6.96082861
_cell_length_b   6.96082872
_cell_length_c   6.93114800
_cell_angle_alpha   80.37897624
_cell_angle_beta   80.37897607
_cell_angle_gamma   119.51112644
_symmetry_Int_Tables_number   1
_chemical_formula_structural   LiTm2Se3
_chemical_formula_sum   'Li2 Tm4 Se6'
_cell_volume   275.70641521
_cell_formula_units_Z   2
loop_
 _symmetry_equiv_pos_site_id
 _symmetry_equiv_pos_as_xyz
  1  'x, y, z'
loop_
 _atom_site_type_symbol
 _atom_site_label
 _atom_site_symmetry_multiplicity
 _atom_site_fract_x
 _atom_site_fract_y
 _atom_site_fract_z
 _atom_site_occupancy
  Li  Li0  1  0.415656  0.584344  0.750000  1
  Li  Li1  1  0.584344  0.415656  0.250000  1
  Tm  Tm2  1  0.750937  0.249063  0.750000  1
  Tm  Tm3  1  0.082976  0.917024  0.750000  1
  Tm  Tm4  1  0.917024  0.082976  0.250000  1
  Tm  Tm5  1  0.249063  0.750937  0.250000  1
  Se  Se6  1  0.173678  0.337103  0.502544  1
  Se  Se7  1  0.826322  0.662897  0.497456  1
  Se  Se8  1  0.662897  0.826322  0.997456  1
  Se  Se9  1  0.500000  0.000000  0.500000  1
  Se  Se10  1  0.337103  0.173678  0.002544  1
  Se  Se11  1  0.000000  0.500000  0.000000  1
