# generated using pymatgen
data_Pr5Ho(Lu2Pb3)2
_symmetry_space_group_name_H-M   'P 1'
_cell_length_a   9.19857426
_cell_length_b   9.19857479
_cell_length_c   6.70633200
_cell_angle_alpha   90.00000000
_cell_angle_beta   90.00000000
_cell_angle_gamma   119.61006377
_symmetry_Int_Tables_number   1
_chemical_formula_structural   Pr5Ho(Lu2Pb3)2
_chemical_formula_sum   'Pr5 Ho1 Lu4 Pb6'
_cell_volume   493.34396795
_cell_formula_units_Z   1
loop_
 _symmetry_equiv_pos_site_id
 _symmetry_equiv_pos_as_xyz
  1  'x, y, z'
loop_
 _atom_site_type_symbol
 _atom_site_label
 _atom_site_symmetry_multiplicity
 _atom_site_fract_x
 _atom_site_fract_y
 _atom_site_fract_z
 _atom_site_occupancy
  Pr  Pr0  1  0.239292  0.999988  0.750000  1
  Pr  Pr1  1  0.999988  0.239292  0.750000  1
  Pr  Pr2  1  0.243716  0.243716  0.250000  1
  Pr  Pr3  1  0.761247  0.998994  0.250000  1
  Pr  Pr4  1  0.998994  0.761247  0.250000  1
  Ho  Ho5  1  0.757809  0.757809  0.750000  1
  Lu  Lu6  1  0.666991  0.332904  0.999539  1
  Lu  Lu7  1  0.332904  0.666991  0.999539  1
  Lu  Lu8  1  0.332904  0.666991  0.500461  1
  Lu  Lu9  1  0.666991  0.332904  0.500461  1
  Pb  Pb10  1  0.403172  0.403172  0.750000  1
  Pb  Pb11  1  0.602087  0.995551  0.750000  1
  Pb  Pb12  1  0.995551  0.602087  0.750000  1
  Pb  Pb13  1  0.599629  0.599629  0.250000  1
  Pb  Pb14  1  0.399388  0.999338  0.250000  1
  Pb  Pb15  1  0.999338  0.399388  0.250000  1
