# generated using pymatgen
data_Tb3Er9InCo4Ir
_symmetry_space_group_name_H-M   'P 1'
_cell_length_a   8.24322359
_cell_length_b   8.24322273
_cell_length_c   8.24218502
_cell_angle_alpha   111.02241578
_cell_angle_beta   110.88381000
_cell_angle_gamma   106.55184292
_symmetry_Int_Tables_number   1
_chemical_formula_structural   Tb3Er9InCo4Ir
_chemical_formula_sum   'Tb3 Er9 In1 Co4 Ir1'
_cell_volume   430.27143740
_cell_formula_units_Z   1
loop_
 _symmetry_equiv_pos_site_id
 _symmetry_equiv_pos_as_xyz
  1  'x, y, z'
loop_
 _atom_site_type_symbol
 _atom_site_label
 _atom_site_symmetry_multiplicity
 _atom_site_fract_x
 _atom_site_fract_y
 _atom_site_fract_z
 _atom_site_occupancy
  Tb  Tb0  1  0.183976  0.285155  0.469131  1
  Tb  Tb1  1  0.815265  0.714411  0.529676  1
  Tb  Tb2  1  0.185005  0.714930  0.899935  1
  Er  Er3  1  0.815715  0.284325  0.100040  1
  Er  Er4  1  0.314733  0.621278  0.305948  1
  Er  Er5  1  0.684817  0.378301  0.694464  1
  Er  Er6  1  0.316163  0.009645  0.694464  1
  Er  Er7  1  0.684670  0.991216  0.305948  1
  Er  Er8  1  0.412385  0.217721  0.193933  1
  Er  Er9  1  0.588618  0.783253  0.806396  1
  Er  Er10  1  0.023142  0.217778  0.806396  1
  Er  Er11  1  0.976212  0.781547  0.193933  1
  In  In12  1  0.500356  0.499944  0.000300  1
  Co  Co13  1  0.111677  0.611685  0.498786  1
  Co  Co14  1  0.887102  0.387110  0.498786  1
  Co  Co15  1  0.377738  0.999812  0.377550  1
  Co  Co16  1  0.622604  0.000740  0.623344  1
  Ir  Ir17  1  0.999823  0.001148  0.000971  1
