# generated using pymatgen
data_Pu3MoF24
_symmetry_space_group_name_H-M   'P 1'
_cell_length_a   5.41695224
_cell_length_b   9.39795800
_cell_length_c   10.47611253
_cell_angle_alpha   90.00000000
_cell_angle_beta   90.21065683
_cell_angle_gamma   90.00000000
_symmetry_Int_Tables_number   1
_chemical_formula_structural   Pu3MoF24
_chemical_formula_sum   'Pu3 Mo1 F24'
_cell_volume   533.31736655
_cell_formula_units_Z   1
loop_
 _symmetry_equiv_pos_site_id
 _symmetry_equiv_pos_as_xyz
  1  'x, y, z'
loop_
 _atom_site_type_symbol
 _atom_site_label
 _atom_site_symmetry_multiplicity
 _atom_site_fract_x
 _atom_site_fract_y
 _atom_site_fract_z
 _atom_site_occupancy
  Pu  Pu0  1  0.068266  0.250000  0.866013  1
  Pu  Pu1  1  0.568123  0.750000  0.633865  1
  Pu  Pu2  1  0.931877  0.750000  0.133928  1
  Mo  Mo3  1  0.432030  0.250000  0.366176  1
  F  F4  1  0.207476  0.750000  0.007548  1
  F  F5  1  0.393824  0.901525  0.734553  1
  F  F6  1  0.104725  0.598967  0.233858  1
  F  F7  1  0.292407  0.750000  0.507458  1
  F  F8  1  0.656932  0.750000  0.261151  1
  F  F9  1  0.895073  0.401926  0.766109  1
  F  F10  1  0.174667  0.250000  0.246466  1
  F  F11  1  0.393824  0.598475  0.734553  1
  F  F12  1  0.842799  0.750000  0.761129  1
  F  F13  1  0.269338  0.109691  0.460099  1
  F  F14  1  0.593621  0.390848  0.272460  1
  F  F15  1  0.743061  0.901047  0.532833  1
  F  F16  1  0.344834  0.250000  0.738047  1
  F  F17  1  0.104725  0.901033  0.233858  1
  F  F18  1  0.269338  0.390309  0.460099  1
  F  F19  1  0.241608  0.098561  0.966476  1
  F  F20  1  0.690396  0.250000  0.484786  1
  F  F21  1  0.790902  0.250000  0.993292  1
  F  F22  1  0.895073  0.098074  0.766109  1
  F  F23  1  0.241608  0.401439  0.966476  1
  F  F24  1  0.758395  0.599370  0.033682  1
  F  F25  1  0.758395  0.900630  0.033682  1
  F  F26  1  0.743061  0.598953  0.532833  1
  F  F27  1  0.593621  0.109152  0.272460  1
