# generated using pymatgen
data_Y3Si11Pt23
_symmetry_space_group_name_H-M   'P 1'
_cell_length_a   12.02869660
_cell_length_b   12.02869685
_cell_length_c   12.02869700
_cell_angle_alpha   60.00000234
_cell_angle_beta   60.00000164
_cell_angle_gamma   60.00000020
_symmetry_Int_Tables_number   1
_chemical_formula_structural   Y3Si11Pt23
_chemical_formula_sum   'Y6 Si22 Pt46'
_cell_volume   1230.66755672
_cell_formula_units_Z   2
loop_
 _symmetry_equiv_pos_site_id
 _symmetry_equiv_pos_as_xyz
  1  'x, y, z'
loop_
 _atom_site_type_symbol
 _atom_site_label
 _atom_site_symmetry_multiplicity
 _atom_site_fract_x
 _atom_site_fract_y
 _atom_site_fract_z
 _atom_site_occupancy
  Y  Y0  1  0.000000  0.000000  0.500000  1
  Y  Y1  1  0.500000  0.000000  0.500000  1
  Y  Y2  1  0.000000  0.500000  0.500000  1
  Y  Y3  1  0.500000  0.500000  0.000000  1
  Y  Y4  1  0.000000  0.500000  0.000000  1
  Y  Y5  1  0.500000  0.000000  0.000000  1
  Si  Si6  1  0.828701  0.828701  0.171299  1
  Si  Si7  1  0.171299  0.828701  0.171299  1
  Si  Si8  1  0.828701  0.171299  0.171299  1
  Si  Si9  1  0.171299  0.171299  0.828701  1
  Si  Si10  1  0.828701  0.171299  0.828701  1
  Si  Si11  1  0.171299  0.828701  0.828701  1
  Si  Si12  1  0.834551  0.834551  0.496345  1
  Si  Si13  1  0.834551  0.496345  0.834551  1
  Si  Si14  1  0.496345  0.834551  0.834551  1
  Si  Si15  1  0.834551  0.834551  0.834551  1
  Si  Si16  1  0.165449  0.165449  0.503655  1
  Si  Si17  1  0.165449  0.503655  0.165449  1
  Si  Si18  1  0.503655  0.165449  0.165449  1
  Si  Si19  1  0.165449  0.165449  0.165449  1
  Si  Si20  1  0.606499  0.606499  0.180503  1
  Si  Si21  1  0.606499  0.180503  0.606499  1
  Si  Si22  1  0.180503  0.606499  0.606499  1
  Si  Si23  1  0.606499  0.606499  0.606499  1
  Si  Si24  1  0.393501  0.393501  0.819497  1
  Si  Si25  1  0.393501  0.819497  0.393501  1
  Si  Si26  1  0.819497  0.393501  0.393501  1
  Si  Si27  1  0.393501  0.393501  0.393501  1
  Pt  Pt28  1  0.917073  0.917073  0.248782  1
  Pt  Pt29  1  0.917073  0.248782  0.917073  1
  Pt  Pt30  1  0.248782  0.917073  0.917073  1
  Pt  Pt31  1  0.917073  0.917073  0.917073  1
  Pt  Pt32  1  0.082927  0.082927  0.751218  1
  Pt  Pt33  1  0.082927  0.751218  0.082927  1
  Pt  Pt34  1  0.751218  0.082927  0.082927  1
  Pt  Pt35  1  0.082927  0.082927  0.082927  1
  Pt  Pt36  1  0.691717  0.691717  0.924849  1
  Pt  Pt37  1  0.691717  0.924849  0.691717  1
  Pt  Pt38  1  0.924849  0.691717  0.691717  1
  Pt  Pt39  1  0.691717  0.691717  0.691717  1
  Pt  Pt40  1  0.308283  0.308283  0.075151  1
  Pt  Pt41  1  0.308283  0.075151  0.308283  1
  Pt  Pt42  1  0.075151  0.308283  0.308283  1
  Pt  Pt43  1  0.308283  0.308283  0.308283  1
  Pt  Pt44  1  0.625227  0.625227  0.374773  1
  Pt  Pt45  1  0.374773  0.625227  0.374773  1
  Pt  Pt46  1  0.625227  0.374773  0.374773  1
  Pt  Pt47  1  0.374773  0.374773  0.625227  1
  Pt  Pt48  1  0.625227  0.374773  0.625227  1
  Pt  Pt49  1  0.374773  0.625227  0.625227  1
  Pt  Pt50  1  0.748056  0.082536  0.421352  1
  Pt  Pt51  1  0.748056  0.748056  0.421352  1
  Pt  Pt52  1  0.082536  0.748056  0.421352  1
  Pt  Pt53  1  0.748056  0.421352  0.082536  1
  Pt  Pt54  1  0.082536  0.421352  0.748056  1
  Pt  Pt55  1  0.748056  0.421352  0.748056  1
  Pt  Pt56  1  0.421352  0.748056  0.748056  1
  Pt  Pt57  1  0.421352  0.082536  0.748056  1
  Pt  Pt58  1  0.421352  0.748056  0.082536  1
  Pt  Pt59  1  0.082536  0.748056  0.748056  1
  Pt  Pt60  1  0.748056  0.748056  0.082536  1
  Pt  Pt61  1  0.748056  0.082536  0.748056  1
  Pt  Pt62  1  0.251944  0.917464  0.578648  1
  Pt  Pt63  1  0.251944  0.251944  0.578648  1
  Pt  Pt64  1  0.917464  0.251944  0.578648  1
  Pt  Pt65  1  0.251944  0.578648  0.917464  1
  Pt  Pt66  1  0.917464  0.578648  0.251944  1
  Pt  Pt67  1  0.251944  0.578648  0.251944  1
  Pt  Pt68  1  0.578648  0.251944  0.251944  1
  Pt  Pt69  1  0.578648  0.917464  0.251944  1
  Pt  Pt70  1  0.578648  0.251944  0.917464  1
  Pt  Pt71  1  0.917464  0.251944  0.251944  1
  Pt  Pt72  1  0.251944  0.251944  0.917464  1
  Pt  Pt73  1  0.251944  0.917464  0.251944  1
