# generated using pymatgen
data_Pr3Dy(SiAu2)8
_symmetry_space_group_name_H-M   'P 1'
_cell_length_a   4.42930400
_cell_length_b   4.42930400
_cell_length_c   27.42662000
_cell_angle_alpha   90.00000000
_cell_angle_beta   90.00000000
_cell_angle_gamma   90.00000000
_symmetry_Int_Tables_number   1
_chemical_formula_structural   Pr3Dy(SiAu2)8
_chemical_formula_sum   'Pr3 Dy1 Si8 Au16'
_cell_volume   538.07556023
_cell_formula_units_Z   1
loop_
 _symmetry_equiv_pos_site_id
 _symmetry_equiv_pos_as_xyz
  1  'x, y, z'
loop_
 _atom_site_type_symbol
 _atom_site_label
 _atom_site_symmetry_multiplicity
 _atom_site_fract_x
 _atom_site_fract_y
 _atom_site_fract_z
 _atom_site_occupancy
  Pr  Pr0  1  0.000000  0.500000  0.749488  1
  Pr  Pr1  1  0.500000  0.000000  0.250512  1
  Pr  Pr2  1  0.500000  0.500000  0.000000  1
  Dy  Dy3  1  0.500000  0.500000  0.500000  1
  Si  Si4  1  0.000000  0.000000  0.956338  1
  Si  Si5  1  0.000000  0.000000  0.457332  1
  Si  Si6  1  0.500000  0.000000  0.793035  1
  Si  Si7  1  0.500000  0.000000  0.705571  1
  Si  Si8  1  0.000000  0.500000  0.206965  1
  Si  Si9  1  0.000000  0.500000  0.294429  1
  Si  Si10  1  0.000000  0.000000  0.043662  1
  Si  Si11  1  0.000000  0.000000  0.542668  1
  Au  Au12  1  0.500000  0.000000  0.087359  1
  Au  Au13  1  0.500000  0.500000  0.661791  1
  Au  Au14  1  0.500000  0.500000  0.836866  1
  Au  Au15  1  0.000000  0.500000  0.087099  1
  Au  Au16  1  0.500000  0.000000  0.912901  1
  Au  Au17  1  0.000000  0.000000  0.662116  1
  Au  Au18  1  0.000000  0.500000  0.415604  1
  Au  Au19  1  0.500000  0.500000  0.338209  1
  Au  Au20  1  0.500000  0.000000  0.415479  1
  Au  Au21  1  0.000000  0.000000  0.337884  1
  Au  Au22  1  0.000000  0.000000  0.163499  1
  Au  Au23  1  0.500000  0.000000  0.584396  1
  Au  Au24  1  0.000000  0.000000  0.836501  1
  Au  Au25  1  0.500000  0.500000  0.163134  1
  Au  Au26  1  0.000000  0.500000  0.584521  1
  Au  Au27  1  0.000000  0.500000  0.912641  1
