# generated using pymatgen
data_Ta12Re5B12Ru7
_symmetry_space_group_name_H-M   'P 1'
_cell_length_a   3.15646400
_cell_length_b   9.08155002
_cell_length_c   15.63340800
_cell_angle_alpha   90.07573384
_cell_angle_beta   90.00000000
_cell_angle_gamma   90.00000000
_symmetry_Int_Tables_number   1
_chemical_formula_structural   Ta12Re5B12Ru7
_chemical_formula_sum   'Ta12 Re5 B12 Ru7'
_cell_volume   448.14040554
_cell_formula_units_Z   1
loop_
 _symmetry_equiv_pos_site_id
 _symmetry_equiv_pos_as_xyz
  1  'x, y, z'
loop_
 _atom_site_type_symbol
 _atom_site_label
 _atom_site_symmetry_multiplicity
 _atom_site_fract_x
 _atom_site_fract_y
 _atom_site_fract_z
 _atom_site_occupancy
  Ta  Ta0  1  0.000000  0.800796  0.495176  1
  Ta  Ta1  1  0.000000  0.199186  0.505025  1
  Ta  Ta2  1  0.000000  0.302641  0.006065  1
  Ta  Ta3  1  0.000000  0.699493  0.994444  1
  Ta  Ta4  1  0.000000  0.514788  0.594404  1
  Ta  Ta5  1  0.000000  0.485196  0.405688  1
  Ta  Ta6  1  0.000000  0.015915  0.905788  1
  Ta  Ta7  1  0.000000  0.984450  0.094432  1
  Ta  Ta8  1  0.000000  0.682012  0.204722  1
  Ta  Ta9  1  0.000000  0.316088  0.794201  1
  Ta  Ta10  1  0.000000  0.184031  0.294043  1
  Ta  Ta11  1  0.000000  0.815734  0.705859  1
  Re  Re12  1  0.500000  0.719359  0.358043  1
  Re  Re13  1  0.500000  0.280346  0.642563  1
  Re  Re14  1  0.500000  0.217310  0.143525  1
  Re  Re15  1  0.500000  0.781192  0.856391  1
  Re  Re16  1  0.500000  0.520152  0.095147  1
  B  B17  1  0.500000  0.606207  0.496219  1
  B  B18  1  0.500000  0.393813  0.504100  1
  B  B19  1  0.500000  0.106397  0.004397  1
  B  B20  1  0.500000  0.895264  0.995416  1
  B  B21  1  0.000000  0.612309  0.832860  1
  B  B22  1  0.000000  0.389574  0.165705  1
  B  B23  1  0.000000  0.111805  0.667190  1
  B  B24  1  0.000000  0.887668  0.332905  1
  B  B25  1  0.500000  0.714161  0.600417  1
  B  B26  1  0.500000  0.285661  0.399687  1
  B  B27  1  0.500000  0.214771  0.899631  1
  B  B28  1  0.500000  0.785378  0.100402  1
  Ru  Ru29  1  0.500000  0.480299  0.903508  1
  Ru  Ru30  1  0.500000  0.019362  0.404748  1
  Ru  Ru31  1  0.500000  0.980775  0.595736  1
  Ru  Ru32  1  0.500000  0.565573  0.732747  1
  Ru  Ru33  1  0.500000  0.432975  0.268504  1
  Ru  Ru34  1  0.500000  0.066129  0.766823  1
  Ru  Ru35  1  0.500000  0.933192  0.233491  1
