# generated using pymatgen
data_Ti6Ga5Fe12As
_symmetry_space_group_name_H-M   'P 1'
_cell_length_a   4.11869100
_cell_length_b   5.81517900
_cell_length_c   12.34781600
_cell_angle_alpha   90.00000000
_cell_angle_beta   90.00022265
_cell_angle_gamma   90.00000000
_symmetry_Int_Tables_number   1
_chemical_formula_structural   Ti6Ga5Fe12As
_chemical_formula_sum   'Ti6 Ga5 Fe12 As1'
_cell_volume   295.74162000
_cell_formula_units_Z   1
loop_
 _symmetry_equiv_pos_site_id
 _symmetry_equiv_pos_as_xyz
  1  'x, y, z'
loop_
 _atom_site_type_symbol
 _atom_site_label
 _atom_site_symmetry_multiplicity
 _atom_site_fract_x
 _atom_site_fract_y
 _atom_site_fract_z
 _atom_site_occupancy
  Ti  Ti0  1  0.000000  0.000000  0.000000  1
  Ti  Ti1  1  0.500044  0.499999  0.168616  1
  Ti  Ti2  1  0.000029  0.000000  0.332321  1
  Ti  Ti3  1  0.499999  0.499999  0.500000  1
  Ti  Ti4  1  0.999971  0.000000  0.667679  1
  Ti  Ti5  1  0.499956  0.499999  0.831384  1
  Ga  Ga6  1  0.500054  0.000000  0.166316  1
  Ga  Ga7  1  0.000032  0.499999  0.332653  1
  Ga  Ga8  1  0.499999  0.000000  0.500000  1
  Ga  Ga9  1  0.999968  0.499999  0.667347  1
  Ga  Ga10  1  0.499946  0.000000  0.833683  1
  Fe  Fe11  1  0.499999  0.254408  0.000000  1
  Fe  Fe12  1  0.499999  0.745592  0.000000  1
  Fe  Fe13  1  0.000060  0.252335  0.164374  1
  Fe  Fe14  1  0.000060  0.747665  0.164374  1
  Fe  Fe15  1  0.500045  0.249835  0.333323  1
  Fe  Fe16  1  0.500045  0.750164  0.333323  1
  Fe  Fe17  1  0.000000  0.250637  0.500000  1
  Fe  Fe18  1  0.000000  0.749364  0.500000  1
  Fe  Fe19  1  0.499955  0.249835  0.666677  1
  Fe  Fe20  1  0.499955  0.750164  0.666677  1
  Fe  Fe21  1  0.999940  0.252335  0.835626  1
  Fe  Fe22  1  0.999940  0.747665  0.835626  1
  As  As23  1  0.000000  0.499999  0.000000  1
