# generated using pymatgen
data_Ce8Si13Ru3
_symmetry_space_group_name_H-M   'P 1'
_cell_length_a   8.20559400
_cell_length_b   8.20559499
_cell_length_c   8.22136900
_cell_angle_alpha   90.00000000
_cell_angle_beta   90.00000000
_cell_angle_gamma   119.99999601
_symmetry_Int_Tables_number   1
_chemical_formula_structural   Ce8Si13Ru3
_chemical_formula_sum   'Ce8 Si13 Ru3'
_cell_volume   479.39653703
_cell_formula_units_Z   1
loop_
 _symmetry_equiv_pos_site_id
 _symmetry_equiv_pos_as_xyz
  1  'x, y, z'
loop_
 _atom_site_type_symbol
 _atom_site_label
 _atom_site_symmetry_multiplicity
 _atom_site_fract_x
 _atom_site_fract_y
 _atom_site_fract_z
 _atom_site_occupancy
  Ce  Ce0  1  0.000000  0.000000  0.252041  1
  Ce  Ce1  1  0.000000  0.000000  0.748192  1
  Ce  Ce2  1  0.501026  0.498974  0.249190  1
  Ce  Ce3  1  0.501026  0.002052  0.249190  1
  Ce  Ce4  1  0.997948  0.498974  0.249190  1
  Ce  Ce5  1  0.500974  0.499026  0.750352  1
  Ce  Ce6  1  0.500974  0.001947  0.750352  1
  Ce  Ce7  1  0.998053  0.499026  0.750352  1
  Si  Si8  1  0.165718  0.834282  0.500211  1
  Si  Si9  1  0.165718  0.331438  0.500211  1
  Si  Si10  1  0.668562  0.834282  0.500211  1
  Si  Si11  1  0.833771  0.166229  0.499253  1
  Si  Si12  1  0.833771  0.667543  0.499253  1
  Si  Si13  1  0.332457  0.166229  0.499253  1
  Si  Si14  1  0.834618  0.165382  0.000977  1
  Si  Si15  1  0.834618  0.669237  0.000977  1
  Si  Si16  1  0.330763  0.165382  0.000977  1
  Si  Si17  1  0.166010  0.833990  0.999203  1
  Si  Si18  1  0.166010  0.332023  0.999203  1
  Si  Si19  1  0.667977  0.833990  0.999203  1
  Si  Si20  1  0.333333  0.666667  0.499563  1
  Ru  Ru21  1  0.666667  0.333333  0.503132  1
  Ru  Ru22  1  0.666667  0.333333  0.997144  1
  Ru  Ru23  1  0.333333  0.666667  0.002367  1
