# generated using pymatgen
data_Y2HoZn6Pt5
_symmetry_space_group_name_H-M   'P 1'
_cell_length_a   8.22450522
_cell_length_b   8.22450504
_cell_length_c   8.22450463
_cell_angle_alpha   151.33244930
_cell_angle_beta   104.34823776
_cell_angle_gamma   82.80580855
_symmetry_Int_Tables_number   1
_chemical_formula_structural   Y2HoZn6Pt5
_chemical_formula_sum   'Y2 Ho1 Zn6 Pt5'
_cell_volume   253.42019892
_cell_formula_units_Z   1
loop_
 _symmetry_equiv_pos_site_id
 _symmetry_equiv_pos_as_xyz
  1  'x, y, z'
loop_
 _atom_site_type_symbol
 _atom_site_label
 _atom_site_symmetry_multiplicity
 _atom_site_fract_x
 _atom_site_fract_y
 _atom_site_fract_z
 _atom_site_occupancy
  Y  Y0  1  0.292279  0.292279  0.000000  1
  Y  Y1  1  0.707721  0.707721  0.000000  1
  Ho  Ho2  1  0.000000  0.000000  0.000000  1
  Zn  Zn3  1  0.677170  0.500000  0.177170  1
  Zn  Zn4  1  0.322830  0.500000  0.822830  1
  Zn  Zn5  1  0.436190  0.144195  0.291995  1
  Zn  Zn6  1  0.563810  0.855805  0.708005  1
  Zn  Zn7  1  0.852200  0.144195  0.708005  1
  Zn  Zn8  1  0.147800  0.855805  0.291995  1
  Pt  Pt9  1  0.718149  0.352480  0.365668  1
  Pt  Pt10  1  0.281851  0.647520  0.634332  1
  Pt  Pt11  1  0.986813  0.352480  0.634332  1
  Pt  Pt12  1  0.013187  0.647520  0.365668  1
  Pt  Pt13  1  0.500000  0.000000  0.500000  1
