# generated using pymatgen
data_Tm12Co5Hg
_symmetry_space_group_name_H-M   'P 1'
_cell_length_a   8.13168170
_cell_length_b   8.13168096
_cell_length_c   8.13168065
_cell_angle_alpha   110.91883121
_cell_angle_beta   110.68932776
_cell_angle_gamma   106.83726769
_symmetry_Int_Tables_number   1
_chemical_formula_structural   Tm12Co5Hg
_chemical_formula_sum   'Tm12 Co5 Hg1'
_cell_volume   413.26856058
_cell_formula_units_Z   1
loop_
 _symmetry_equiv_pos_site_id
 _symmetry_equiv_pos_as_xyz
  1  'x, y, z'
loop_
 _atom_site_type_symbol
 _atom_site_label
 _atom_site_symmetry_multiplicity
 _atom_site_fract_x
 _atom_site_fract_y
 _atom_site_fract_z
 _atom_site_occupancy
  Tm  Tm0  1  0.286150  0.184263  0.470413  1
  Tm  Tm1  1  0.713850  0.815737  0.529587  1
  Tm  Tm2  1  0.286150  0.815737  0.101886  1
  Tm  Tm3  1  0.713850  0.184263  0.898114  1
  Tm  Tm4  1  0.618839  0.315097  0.303742  1
  Tm  Tm5  1  0.381161  0.684903  0.696258  1
  Tm  Tm6  1  0.011355  0.315097  0.696258  1
  Tm  Tm7  1  0.988645  0.684903  0.303742  1
  Tm  Tm8  1  0.215856  0.408473  0.192617  1
  Tm  Tm9  1  0.784144  0.591527  0.807383  1
  Tm  Tm10  1  0.215856  0.023239  0.807383  1
  Tm  Tm11  1  0.784144  0.976761  0.192617  1
  Co  Co12  1  0.000000  0.375644  0.375644  1
  Co  Co13  1  0.000000  0.624356  0.624356  1
  Co  Co14  1  0.385720  0.885720  0.500000  1
  Co  Co15  1  0.614280  0.114280  0.500000  1
  Co  Co16  1  0.000000  0.000000  0.000000  1
  Hg  Hg17  1  0.500000  0.500000  0.000000  1
