# generated using pymatgen
data_HoLu9(CoRu)2
_symmetry_space_group_name_H-M   'P 1'
_cell_length_a   6.17371007
_cell_length_b   7.07155075
_cell_length_c   8.30702218
_cell_angle_alpha   96.78580647
_cell_angle_beta   112.33644858
_cell_angle_gamma   89.59971937
_symmetry_Int_Tables_number   1
_chemical_formula_structural   HoLu9(CoRu)2
_chemical_formula_sum   'Ho1 Lu9 Co2 Ru2'
_cell_volume   332.82013762
_cell_formula_units_Z   1
loop_
 _symmetry_equiv_pos_site_id
 _symmetry_equiv_pos_as_xyz
  1  'x, y, z'
loop_
 _atom_site_type_symbol
 _atom_site_label
 _atom_site_symmetry_multiplicity
 _atom_site_fract_x
 _atom_site_fract_y
 _atom_site_fract_z
 _atom_site_occupancy
  Ho  Ho0  1  0.526180  0.088669  0.815309  1
  Lu  Lu1  1  0.474278  0.911182  0.184723  1
  Lu  Lu2  1  0.699891  0.417942  0.188811  1
  Lu  Lu3  1  0.300054  0.582291  0.811720  1
  Lu  Lu4  1  0.289131  0.320616  0.432871  1
  Lu  Lu5  1  0.710632  0.679392  0.566672  1
  Lu  Lu6  1  0.856225  0.186648  0.563830  1
  Lu  Lu7  1  0.143296  0.813156  0.435098  1
  Lu  Lu8  1  0.079068  0.259237  0.000636  1
  Lu  Lu9  1  0.921702  0.740786  0.999929  1
  Co  Co10  1  0.326385  0.577508  0.226502  1
  Co  Co11  1  0.673938  0.423172  0.773308  1
  Ru  Ru12  1  0.103587  0.924541  0.784081  1
  Ru  Ru13  1  0.895632  0.074860  0.216510  1
