# generated using pymatgen
data_Er6Al24FeCu3Ru4
_symmetry_space_group_name_H-M   'P 1'
_cell_length_a   8.78080029
_cell_length_b   8.75097006
_cell_length_c   9.40599813
_cell_angle_alpha   90.13886709
_cell_angle_beta   89.98484121
_cell_angle_gamma   119.42679824
_symmetry_Int_Tables_number   1
_chemical_formula_structural   Er6Al24FeCu3Ru4
_chemical_formula_sum   'Er6 Al24 Fe1 Cu3 Ru4'
_cell_volume   629.51183162
_cell_formula_units_Z   1
loop_
 _symmetry_equiv_pos_site_id
 _symmetry_equiv_pos_as_xyz
  1  'x, y, z'
loop_
 _atom_site_type_symbol
 _atom_site_label
 _atom_site_symmetry_multiplicity
 _atom_site_fract_x
 _atom_site_fract_y
 _atom_site_fract_z
 _atom_site_occupancy
  Er  Er0  1  0.190154  0.386727  0.252224  1
  Er  Er1  1  0.809846  0.613273  0.747776  1
  Er  Er2  1  0.615895  0.809327  0.247817  1
  Er  Er3  1  0.384105  0.190673  0.752183  1
  Er  Er4  1  0.191883  0.803894  0.248738  1
  Er  Er5  1  0.808117  0.196106  0.751262  1
  Al  Al6  1  0.330669  0.664410  0.025075  1
  Al  Al7  1  0.669331  0.335590  0.974925  1
  Al  Al8  1  0.667327  0.331047  0.523901  1
  Al  Al9  1  0.332673  0.668953  0.476099  1
  Al  Al10  1  0.155069  0.318882  0.576004  1
  Al  Al11  1  0.844931  0.681118  0.423996  1
  Al  Al12  1  0.682012  0.847070  0.574059  1
  Al  Al13  1  0.841775  0.675874  0.079040  1
  Al  Al14  1  0.317988  0.152930  0.425941  1
  Al  Al15  1  0.158225  0.324126  0.920960  1
  Al  Al16  1  0.162148  0.839320  0.575451  1
  Al  Al17  1  0.321593  0.161959  0.081138  1
  Al  Al18  1  0.837852  0.160680  0.424549  1
  Al  Al19  1  0.678407  0.838041  0.918862  1
  Al  Al20  1  0.842490  0.168173  0.081353  1
  Al  Al21  1  0.157510  0.831827  0.918647  1
  Al  Al22  1  0.560867  0.123990  0.252154  1
  Al  Al23  1  0.439133  0.876010  0.747846  1
  Al  Al24  1  0.876284  0.438802  0.250545  1
  Al  Al25  1  0.123716  0.561198  0.749455  1
  Al  Al26  1  0.560151  0.438381  0.250889  1
  Al  Al27  1  0.439849  0.561619  0.749111  1
  Al  Al28  1  0.997668  0.000690  0.256539  1
  Al  Al29  1  0.002332  0.999310  0.743461  1
  Fe  Fe30  1  0.000000  0.000000  0.500000  1
  Cu  Cu31  1  0.500000  0.000000  0.000000  1
  Cu  Cu32  1  0.500000  0.500000  0.000000  1
  Cu  Cu33  1  0.500000  0.500000  0.500000  1
  Ru  Ru34  1  0.000000  0.500000  0.000000  1
  Ru  Ru35  1  0.500000  0.000000  0.500000  1
  Ru  Ru36  1  0.000000  0.500000  0.500000  1
  Ru  Ru37  1  0.000000  0.000000  0.000000  1
