# generated using pymatgen
data_YbYLu6(B6Ru)4
_symmetry_space_group_name_H-M   'P 1'
_cell_length_a   3.60600700
_cell_length_b   9.05002250
_cell_length_c   11.43178017
_cell_angle_alpha   89.95264125
_cell_angle_beta   90.00000000
_cell_angle_gamma   90.00000000
_symmetry_Int_Tables_number   1
_chemical_formula_structural   YbYLu6(B6Ru)4
_chemical_formula_sum   'Yb1 Y1 Lu6 B24 Ru4'
_cell_volume   373.06966758
_cell_formula_units_Z   1
loop_
 _symmetry_equiv_pos_site_id
 _symmetry_equiv_pos_as_xyz
  1  'x, y, z'
loop_
 _atom_site_type_symbol
 _atom_site_label
 _atom_site_symmetry_multiplicity
 _atom_site_fract_x
 _atom_site_fract_y
 _atom_site_fract_z
 _atom_site_occupancy
  Yb  Yb0  1  0.000000  0.322776  0.413577  1
  Y  Y1  1  0.000000  0.676752  0.585200  1
  Lu  Lu2  1  0.000000  0.821684  0.086243  1
  Lu  Lu3  1  0.000000  0.178945  0.914761  1
  Lu  Lu4  1  0.000000  0.944314  0.371224  1
  Lu  Lu5  1  0.000000  0.057816  0.627944  1
  Lu  Lu6  1  0.000000  0.443156  0.128747  1
  Lu  Lu7  1  0.000000  0.555955  0.872816  1
  B  B8  1  0.500000  0.553995  0.432183  1
  B  B9  1  0.500000  0.445202  0.567462  1
  B  B10  1  0.500000  0.053025  0.065794  1
  B  B11  1  0.500000  0.946217  0.933460  1
  B  B12  1  0.500000  0.749681  0.418727  1
  B  B13  1  0.500000  0.250684  0.581074  1
  B  B14  1  0.500000  0.248522  0.079722  1
  B  B15  1  0.500000  0.750854  0.920459  1
  B  B16  1  0.500000  0.792625  0.265051  1
  B  B17  1  0.500000  0.208349  0.735183  1
  B  B18  1  0.500000  0.290680  0.233505  1
  B  B19  1  0.500000  0.708639  0.766681  1
  B  B20  1  0.500000  0.631612  0.184591  1
  B  B21  1  0.500000  0.368752  0.816366  1
  B  B22  1  0.500000  0.130379  0.314420  1
  B  B23  1  0.500000  0.869768  0.685022  1
  B  B24  1  0.500000  0.981876  0.211783  1
  B  B25  1  0.500000  0.018197  0.787444  1
  B  B26  1  0.500000  0.482958  0.286845  1
  B  B27  1  0.500000  0.516851  0.713662  1
  B  B28  1  0.500000  0.606292  0.029461  1
  B  B29  1  0.500000  0.393913  0.971085  1
  B  B30  1  0.500000  0.102117  0.471759  1
  B  B31  1  0.500000  0.897163  0.528373  1
  Ru  Ru32  1  0.000000  0.640177  0.319167  1
  Ru  Ru33  1  0.000000  0.360943  0.681331  1
  Ru  Ru34  1  0.000000  0.136604  0.177482  1
  Ru  Ru35  1  0.000000  0.862526  0.821388  1
