# generated using pymatgen
data_Tb2LuPaPt4
_symmetry_space_group_name_H-M   'P 1'
_cell_length_a   4.54121100
_cell_length_b   5.59672357
_cell_length_c   6.98300290
_cell_angle_alpha   89.38785167
_cell_angle_beta   90.00000000
_cell_angle_gamma   90.00000000
_symmetry_Int_Tables_number   1
_chemical_formula_structural   Tb2LuPaPt4
_chemical_formula_sum   'Tb2 Lu1 Pa1 Pt4'
_cell_volume   177.46919249
_cell_formula_units_Z   1
loop_
 _symmetry_equiv_pos_site_id
 _symmetry_equiv_pos_as_xyz
  1  'x, y, z'
loop_
 _atom_site_type_symbol
 _atom_site_label
 _atom_site_symmetry_multiplicity
 _atom_site_fract_x
 _atom_site_fract_y
 _atom_site_fract_z
 _atom_site_occupancy
  Tb  Tb0  1  0.750000  0.354129  0.815217  1
  Tb  Tb1  1  0.250000  0.858428  0.682785  1
  Lu  Lu2  1  0.750000  0.145003  0.320178  1
  Pa  Pa3  1  0.250000  0.644829  0.183343  1
  Pt  Pt4  1  0.250000  0.161041  0.056865  1
  Pt  Pt5  1  0.750000  0.833434  0.965726  1
  Pt  Pt6  1  0.750000  0.658827  0.443515  1
  Pt  Pt7  1  0.250000  0.344308  0.532371  1
