# generated using pymatgen
data_Y3Fe2P6Rh7
_symmetry_space_group_name_H-M   'P 1'
_cell_length_a   3.87691500
_cell_length_b   11.16529100
_cell_length_c   12.65246900
_cell_angle_alpha   90.00000000
_cell_angle_beta   90.00000000
_cell_angle_gamma   90.00000000
_symmetry_Int_Tables_number   1
_chemical_formula_structural   Y3Fe2P6Rh7
_chemical_formula_sum   'Y6 Fe4 P12 Rh14'
_cell_volume   547.68595991
_cell_formula_units_Z   2
loop_
 _symmetry_equiv_pos_site_id
 _symmetry_equiv_pos_as_xyz
  1  'x, y, z'
loop_
 _atom_site_type_symbol
 _atom_site_label
 _atom_site_symmetry_multiplicity
 _atom_site_fract_x
 _atom_site_fract_y
 _atom_site_fract_z
 _atom_site_occupancy
  Y  Y0  1  0.000000  0.500000  0.517317  1
  Y  Y1  1  0.500000  0.000000  0.482683  1
  Y  Y2  1  0.500000  0.818598  0.200844  1
  Y  Y3  1  0.500000  0.181402  0.200844  1
  Y  Y4  1  0.000000  0.681402  0.799156  1
  Y  Y5  1  0.000000  0.318598  0.799156  1
  Fe  Fe6  1  0.500000  0.500000  0.158936  1
  Fe  Fe7  1  0.000000  0.000000  0.841064  1
  Fe  Fe8  1  0.000000  0.500000  0.988288  1
  Fe  Fe9  1  0.500000  0.000000  0.011712  1
  P  P10  1  0.500000  0.500000  0.885517  1
  P  P11  1  0.000000  0.000000  0.114483  1
  P  P12  1  0.500000  0.500000  0.340087  1
  P  P13  1  0.000000  0.000000  0.659913  1
  P  P14  1  0.500000  0.313523  0.620176  1
  P  P15  1  0.500000  0.686477  0.620176  1
  P  P16  1  0.000000  0.186477  0.379824  1
  P  P17  1  0.000000  0.813523  0.379824  1
  P  P18  1  0.500000  0.852374  0.895686  1
  P  P19  1  0.500000  0.147626  0.895686  1
  P  P20  1  0.000000  0.647626  0.104314  1
  P  P21  1  0.000000  0.352374  0.104314  1
  Rh  Rh22  1  0.500000  0.500000  0.701968  1
  Rh  Rh23  1  0.000000  0.000000  0.298032  1
  Rh  Rh24  1  0.500000  0.334711  0.995038  1
  Rh  Rh25  1  0.500000  0.665289  0.995038  1
  Rh  Rh26  1  0.000000  0.165289  0.004962  1
  Rh  Rh27  1  0.000000  0.834711  0.004962  1
  Rh  Rh28  1  0.500000  0.294494  0.430267  1
  Rh  Rh29  1  0.500000  0.705506  0.430267  1
  Rh  Rh30  1  0.000000  0.205506  0.569733  1
  Rh  Rh31  1  0.000000  0.794494  0.569733  1
  Rh  Rh32  1  0.500000  0.875377  0.713569  1
  Rh  Rh33  1  0.500000  0.124623  0.713569  1
  Rh  Rh34  1  0.000000  0.624623  0.286431  1
  Rh  Rh35  1  0.000000  0.375377  0.286431  1
