# generated using pymatgen
data_Na3ZrH7
_symmetry_space_group_name_H-M   'P 1'
_cell_length_a   5.76649875
_cell_length_b   3.22322278
_cell_length_c   7.35587300
_cell_angle_alpha   115.88829821
_cell_angle_beta   90.13903206
_cell_angle_gamma   89.78282343
_symmetry_Int_Tables_number   1
_chemical_formula_structural   Na3ZrH7
_chemical_formula_sum   'Na3 Zr1 H7'
_cell_volume   123.00013557
_cell_formula_units_Z   1
loop_
 _symmetry_equiv_pos_site_id
 _symmetry_equiv_pos_as_xyz
  1  'x, y, z'
loop_
 _atom_site_type_symbol
 _atom_site_label
 _atom_site_symmetry_multiplicity
 _atom_site_fract_x
 _atom_site_fract_y
 _atom_site_fract_z
 _atom_site_occupancy
  Na  Na0  1  0.156987  0.371459  0.036302  1
  Na  Na1  1  0.158519  0.860068  0.527845  1
  Na  Na2  1  0.627846  0.125151  0.784116  1
  Zr  Zr3  1  0.657747  0.116452  0.283216  1
  H  H4  1  0.879682  0.613592  0.281989  1
  H  H5  1  0.314940  0.119426  0.284282  1
  H  H6  1  0.823913  0.853664  0.020407  1
  H  H7  1  0.548430  0.781672  0.448189  1
  H  H8  1  0.827269  0.375463  0.544390  1
  H  H9  1  0.545266  0.454491  0.119776  1
  H  H10  1  0.292549  0.621695  0.783091  1
