# generated using pymatgen
data_Ho16Mg2In2Pd3Rh
_symmetry_space_group_name_H-M   'P 1'
_cell_length_a   9.66166011
_cell_length_b   9.66165992
_cell_length_c   9.67891877
_cell_angle_alpha   60.21453571
_cell_angle_beta   60.21453234
_cell_angle_gamma   59.96929373
_symmetry_Int_Tables_number   1
_chemical_formula_structural   Ho16Mg2In2Pd3Rh
_chemical_formula_sum   'Ho16 Mg2 In2 Pd3 Rh1'
_cell_volume   640.78820666
_cell_formula_units_Z   1
loop_
 _symmetry_equiv_pos_site_id
 _symmetry_equiv_pos_as_xyz
  1  'x, y, z'
loop_
 _atom_site_type_symbol
 _atom_site_label
 _atom_site_symmetry_multiplicity
 _atom_site_fract_x
 _atom_site_fract_y
 _atom_site_fract_z
 _atom_site_occupancy
  Ho  Ho0  1  0.185398  0.185398  0.816719  1
  Ho  Ho1  1  0.606908  0.606908  0.185292  1
  Ho  Ho2  1  0.439806  0.060442  0.440171  1
  Ho  Ho3  1  0.442460  0.442460  0.053461  1
  Ho  Ho4  1  0.814037  0.183859  0.818261  1
  Ho  Ho5  1  0.185976  0.813538  0.187511  1
  Ho  Ho6  1  0.439766  0.065611  0.057920  1
  Ho  Ho7  1  0.183859  0.814037  0.818261  1
  Ho  Ho8  1  0.065611  0.439766  0.057920  1
  Ho  Ho9  1  0.817688  0.817688  0.184274  1
  Ho  Ho10  1  0.196742  0.598129  0.607210  1
  Ho  Ho11  1  0.060442  0.439806  0.440171  1
  Ho  Ho12  1  0.062277  0.062277  0.438552  1
  Ho  Ho13  1  0.813538  0.185976  0.187511  1
  Ho  Ho14  1  0.598129  0.196742  0.607210  1
  Ho  Ho15  1  0.596577  0.596577  0.601740  1
  Mg  Mg16  1  0.828771  0.828771  0.829580  1
  Mg  Mg17  1  0.825923  0.825923  0.515839  1
  In  In18  1  0.502607  0.833906  0.829847  1
  In  In19  1  0.833906  0.502607  0.829847  1
  Pd  Pd20  1  0.392924  0.819141  0.389303  1
  Pd  Pd21  1  0.395739  0.395739  0.392254  1
  Pd  Pd22  1  0.819141  0.392924  0.389303  1
  Rh  Rh23  1  0.391777  0.391777  0.821841  1
