# generated using pymatgen
data_Pr8YHo11Si16
_symmetry_space_group_name_H-M   'P 1'
_cell_length_a   7.52461201
_cell_length_b   7.80387601
_cell_length_c   14.82091700
_cell_angle_alpha   90.00000000
_cell_angle_beta   90.00000000
_cell_angle_gamma   89.99463990
_symmetry_Int_Tables_number   1
_chemical_formula_structural   Pr8YHo11Si16
_chemical_formula_sum   'Pr8 Y1 Ho11 Si16'
_cell_volume   870.30112530
_cell_formula_units_Z   1
loop_
 _symmetry_equiv_pos_site_id
 _symmetry_equiv_pos_as_xyz
  1  'x, y, z'
loop_
 _atom_site_type_symbol
 _atom_site_label
 _atom_site_symmetry_multiplicity
 _atom_site_fract_x
 _atom_site_fract_y
 _atom_site_fract_z
 _atom_site_occupancy
  Pr  Pr0  1  0.975930  0.820793  0.097859  1
  Pr  Pr1  1  0.475681  0.678935  0.402149  1
  Pr  Pr2  1  0.524253  0.320898  0.902006  1
  Pr  Pr3  1  0.024250  0.179114  0.597983  1
  Pr  Pr4  1  0.024250  0.179114  0.902017  1
  Pr  Pr5  1  0.524253  0.320898  0.597994  1
  Pr  Pr6  1  0.475681  0.678935  0.097851  1
  Pr  Pr7  1  0.975930  0.820793  0.402141  1
  Y  Y8  1  0.649670  0.989855  0.250000  1
  Ho  Ho9  1  0.149796  0.510144  0.250000  1
  Ho  Ho10  1  0.850190  0.489811  0.750000  1
  Ho  Ho11  1  0.350202  0.010206  0.750000  1
  Ho  Ho12  1  0.680907  0.821789  0.876765  1
  Ho  Ho13  1  0.180900  0.678196  0.623233  1
  Ho  Ho14  1  0.819252  0.322020  0.123122  1
  Ho  Ho15  1  0.318872  0.178304  0.376894  1
  Ho  Ho16  1  0.318872  0.178304  0.123106  1
  Ho  Ho17  1  0.819252  0.322020  0.376878  1
  Ho  Ho18  1  0.180900  0.678196  0.876767  1
  Ho  Ho19  1  0.680907  0.821789  0.623235  1
  Si  Si20  1  0.769013  0.619804  0.250000  1
  Si  Si21  1  0.268361  0.879520  0.250000  1
  Si  Si22  1  0.731100  0.120387  0.750000  1
  Si  Si23  1  0.231094  0.379635  0.750000  1
  Si  Si24  1  0.024750  0.112796  0.250000  1
  Si  Si25  1  0.524199  0.387550  0.250000  1
  Si  Si26  1  0.475791  0.612666  0.750000  1
  Si  Si27  1  0.975795  0.887342  0.750000  1
  Si  Si28  1  0.856262  0.531085  0.959965  1
  Si  Si29  1  0.356272  0.968916  0.540047  1
  Si  Si30  1  0.643707  0.031164  0.039828  1
  Si  Si31  1  0.143733  0.468927  0.459978  1
  Si  Si32  1  0.143733  0.468927  0.040022  1
  Si  Si33  1  0.643707  0.031164  0.460172  1
  Si  Si34  1  0.356272  0.968916  0.959953  1
  Si  Si35  1  0.856262  0.531085  0.540035  1
