# generated using pymatgen
data_AgHgPt2O7
_symmetry_space_group_name_H-M   'P 1'
_cell_length_a   7.27598315
_cell_length_b   7.26696602
_cell_length_c   7.26696687
_cell_angle_alpha   59.73890834
_cell_angle_beta   59.95894054
_cell_angle_gamma   59.95894373
_symmetry_Int_Tables_number   1
_chemical_formula_structural   AgHgPt2O7
_chemical_formula_sum   'Ag2 Hg2 Pt4 O14'
_cell_volume   270.98794778
_cell_formula_units_Z   2
loop_
 _symmetry_equiv_pos_site_id
 _symmetry_equiv_pos_as_xyz
  1  'x, y, z'
loop_
 _atom_site_type_symbol
 _atom_site_label
 _atom_site_symmetry_multiplicity
 _atom_site_fract_x
 _atom_site_fract_y
 _atom_site_fract_z
 _atom_site_occupancy
  Ag  Ag0  1  0.125000  0.625000  0.125000  1
  Ag  Ag1  1  0.125000  0.125000  0.625000  1
  Hg  Hg2  1  0.125000  0.125000  0.125000  1
  Hg  Hg3  1  0.625000  0.125000  0.125000  1
  Pt  Pt4  1  0.625000  0.625000  0.125000  1
  Pt  Pt5  1  0.625000  0.625000  0.625000  1
  Pt  Pt6  1  0.625000  0.125000  0.625000  1
  Pt  Pt7  1  0.125000  0.625000  0.625000  1
  O  O8  1  0.706526  0.293474  0.293474  1
  O  O9  1  0.707259  0.294024  0.704090  1
  O  O10  1  0.015572  0.984428  0.984428  1
  O  O11  1  0.294628  0.704090  0.294024  1
  O  O12  1  0.707259  0.704090  0.294024  1
  O  O13  1  0.954105  0.545895  0.545895  1
  O  O14  1  0.295895  0.704105  0.704105  1
  O  O15  1  0.234428  0.265572  0.265572  1
  O  O16  1  0.955372  0.545910  0.955976  1
  O  O17  1  0.542741  0.955976  0.545910  1
  O  O18  1  0.542741  0.545910  0.955976  1
  O  O19  1  0.955372  0.955976  0.545910  1
  O  O20  1  0.543474  0.956526  0.956526  1
  O  O21  1  0.294628  0.294024  0.704090  1
