# generated using pymatgen
data_Nd2Y4CoI10
_symmetry_space_group_name_H-M   'P 1'
_cell_length_a   7.77020001
_cell_length_b   9.80179267
_cell_length_c   9.73771337
_cell_angle_alpha   106.91845905
_cell_angle_beta   96.45157647
_cell_angle_gamma   105.24260158
_symmetry_Int_Tables_number   1
_chemical_formula_structural   Nd2Y4CoI10
_chemical_formula_sum   'Nd2 Y4 Co1 I10'
_cell_volume   670.09945507
_cell_formula_units_Z   1
loop_
 _symmetry_equiv_pos_site_id
 _symmetry_equiv_pos_as_xyz
  1  'x, y, z'
loop_
 _atom_site_type_symbol
 _atom_site_label
 _atom_site_symmetry_multiplicity
 _atom_site_fract_x
 _atom_site_fract_y
 _atom_site_fract_z
 _atom_site_occupancy
  Nd  Nd0  1  0.887705  0.958807  0.231376  1
  Nd  Nd1  1  0.112295  0.041193  0.768624  1
  Y  Y2  1  0.029780  0.717574  0.915231  1
  Y  Y3  1  0.970220  0.282426  0.084769  1
  Y  Y4  1  0.655043  0.876221  0.836120  1
  Y  Y5  1  0.344957  0.123779  0.163880  1
  Co  Co6  1  0.000000  0.000000  0.000000  1
  I  I7  1  0.649094  0.550581  0.728779  1
  I  I8  1  0.350906  0.449419  0.271221  1
  I  I9  1  0.733356  0.909670  0.539562  1
  I  I10  1  0.266644  0.090330  0.460438  1
  I  I11  1  0.084597  0.376286  0.821870  1
  I  I12  1  0.915403  0.623714  0.178130  1
  I  I13  1  0.449218  0.815339  0.090534  1
  I  I14  1  0.550782  0.184661  0.909466  1
  I  I15  1  0.222315  0.738328  0.654767  1
  I  I16  1  0.777685  0.261672  0.345233  1
