# generated using pymatgen
data_Yb3Ga9Ag2
_symmetry_space_group_name_H-M   'P 1'
_cell_length_a   8.31364928
_cell_length_b   8.31364882
_cell_length_c   8.31364870
_cell_angle_alpha   148.85331369
_cell_angle_beta   110.59727297
_cell_angle_gamma   78.01574169
_symmetry_Int_Tables_number   1
_chemical_formula_structural   Yb3Ga9Ag2
_chemical_formula_sum   'Yb3 Ga9 Ag2'
_cell_volume   272.97839799
_cell_formula_units_Z   1
loop_
 _symmetry_equiv_pos_site_id
 _symmetry_equiv_pos_as_xyz
  1  'x, y, z'
loop_
 _atom_site_type_symbol
 _atom_site_label
 _atom_site_symmetry_multiplicity
 _atom_site_fract_x
 _atom_site_fract_y
 _atom_site_fract_z
 _atom_site_occupancy
  Yb  Yb0  1  0.500000  0.500000  0.000000  1
  Yb  Yb1  1  0.203729  0.203729  0.000000  1
  Yb  Yb2  1  0.796271  0.796271  0.000000  1
  Ga  Ga3  1  0.071560  0.352350  0.719210  1
  Ga  Ga4  1  0.928440  0.647650  0.280790  1
  Ga  Ga5  1  0.633140  0.352350  0.280790  1
  Ga  Ga6  1  0.366860  0.647650  0.719210  1
  Ga  Ga7  1  0.792613  0.159124  0.633489  1
  Ga  Ga8  1  0.207387  0.840876  0.366511  1
  Ga  Ga9  1  0.525635  0.159124  0.366511  1
  Ga  Ga10  1  0.474365  0.840876  0.633489  1
  Ga  Ga11  1  0.000000  0.500000  0.500000  1
  Ag  Ag12  1  0.818957  0.000000  0.818957  1
  Ag  Ag13  1  0.181043  0.000000  0.181043  1
