# generated using pymatgen
data_Sr4La(BiO4)3
_symmetry_space_group_name_H-M   'P 1'
_cell_length_a   6.23250322
_cell_length_b   6.03778733
_cell_length_c   10.54083879
_cell_angle_alpha   55.20218303
_cell_angle_beta   89.68918748
_cell_angle_gamma   89.95553829
_symmetry_Int_Tables_number   1
_chemical_formula_structural   Sr4La(BiO4)3
_chemical_formula_sum   'Sr4 La1 Bi3 O12'
_cell_volume   325.71739314
_cell_formula_units_Z   1
loop_
 _symmetry_equiv_pos_site_id
 _symmetry_equiv_pos_as_xyz
  1  'x, y, z'
loop_
 _atom_site_type_symbol
 _atom_site_label
 _atom_site_symmetry_multiplicity
 _atom_site_fract_x
 _atom_site_fract_y
 _atom_site_fract_z
 _atom_site_occupancy
  Sr  Sr0  1  0.549600  0.266595  0.748497  1
  Sr  Sr1  1  0.051064  0.740586  0.746338  1
  Sr  Sr2  1  0.450400  0.733405  0.251503  1
  Sr  Sr3  1  0.948936  0.259414  0.253662  1
  La  La4  1  0.000000  0.000000  0.000000  1
  Bi  Bi5  1  0.500000  0.000000  0.500000  1
  Bi  Bi6  1  0.000000  0.500000  0.500000  1
  Bi  Bi7  1  0.500000  0.500000  0.000000  1
  O  O8  1  0.784944  0.374777  0.940312  1
  O  O9  1  0.286664  0.628422  0.560387  1
  O  O10  1  0.215056  0.625223  0.059688  1
  O  O11  1  0.713336  0.371578  0.439613  1
  O  O12  1  0.310381  0.266791  0.946585  1
  O  O13  1  0.806306  0.736061  0.553676  1
  O  O14  1  0.689619  0.733209  0.053415  1
  O  O15  1  0.193694  0.263939  0.446324  1
  O  O16  1  0.455043  0.846126  0.760996  1
  O  O17  1  0.955292  0.158708  0.735207  1
  O  O18  1  0.544957  0.153874  0.239004  1
  O  O19  1  0.044708  0.841292  0.264793  1
