# generated using pymatgen
data_NaNp4(SeN)4
_symmetry_space_group_name_H-M   'P 1'
_cell_length_a   3.83750700
_cell_length_b   6.61760867
_cell_length_c   10.72605846
_cell_angle_alpha   78.08577273
_cell_angle_beta   90.00000000
_cell_angle_gamma   90.00000000
_symmetry_Int_Tables_number   1
_chemical_formula_structural   NaNp4(SeN)4
_chemical_formula_sum   'Na1 Np4 Se4 N4'
_cell_volume   266.52165423
_cell_formula_units_Z   1
loop_
 _symmetry_equiv_pos_site_id
 _symmetry_equiv_pos_as_xyz
  1  'x, y, z'
loop_
 _atom_site_type_symbol
 _atom_site_label
 _atom_site_symmetry_multiplicity
 _atom_site_fract_x
 _atom_site_fract_y
 _atom_site_fract_z
 _atom_site_occupancy
  Na  Na0  1  0.000000  0.000000  0.000000  1
  Np  Np1  1  0.500000  0.710829  0.365299  1
  Np  Np2  1  0.000000  0.211509  0.367338  1
  Np  Np3  1  0.500000  0.289171  0.634701  1
  Np  Np4  1  0.000000  0.788491  0.632662  1
  Se  Se5  1  0.000000  0.402479  0.805408  1
  Se  Se6  1  0.500000  0.892437  0.807294  1
  Se  Se7  1  0.000000  0.597521  0.194592  1
  Se  Se8  1  0.500000  0.107563  0.192706  1
  N  N9  1  0.500000  0.641974  0.576192  1
  N  N10  1  0.000000  0.139636  0.578384  1
  N  N11  1  0.500000  0.358026  0.423808  1
  N  N12  1  0.000000  0.860364  0.421616  1
