# generated using pymatgen
data_La2Tc6P7Rh6
_symmetry_space_group_name_H-M   'P 1'
_cell_length_a   9.59150800
_cell_length_b   9.59150749
_cell_length_c   3.99234800
_cell_angle_alpha   90.00000000
_cell_angle_beta   90.00000000
_cell_angle_gamma   120.00000176
_symmetry_Int_Tables_number   1
_chemical_formula_structural   La2Tc6P7Rh6
_chemical_formula_sum   'La2 Tc6 P7 Rh6'
_cell_volume   318.07737451
_cell_formula_units_Z   1
loop_
 _symmetry_equiv_pos_site_id
 _symmetry_equiv_pos_as_xyz
  1  'x, y, z'
loop_
 _atom_site_type_symbol
 _atom_site_label
 _atom_site_symmetry_multiplicity
 _atom_site_fract_x
 _atom_site_fract_y
 _atom_site_fract_z
 _atom_site_occupancy
  La  La0  1  0.000000  0.000000  0.739791  1
  La  La1  1  0.333333  0.666667  0.240453  1
  Tc  Tc2  1  0.823805  0.603467  0.739760  1
  Tc  Tc3  1  0.396533  0.220338  0.739760  1
  Tc  Tc4  1  0.779662  0.176195  0.739760  1
  Tc  Tc5  1  0.546069  0.117771  0.239936  1
  Tc  Tc6  1  0.882229  0.428298  0.239936  1
  Tc  Tc7  1  0.571702  0.453931  0.239936  1
  P  P8  1  0.666667  0.333333  0.741070  1
  P  P9  1  0.074888  0.629118  0.740353  1
  P  P10  1  0.370882  0.445770  0.740353  1
  P  P11  1  0.554230  0.925112  0.740353  1
  P  P12  1  0.273292  0.050839  0.239773  1
  P  P13  1  0.949161  0.222452  0.239773  1
  P  P14  1  0.777548  0.726708  0.239773  1
  Rh  Rh15  1  0.098354  0.398266  0.739831  1
  Rh  Rh16  1  0.601734  0.700088  0.739831  1
  Rh  Rh17  1  0.299912  0.901646  0.739831  1
  Rh  Rh18  1  0.226856  0.283178  0.239889  1
  Rh  Rh19  1  0.716822  0.943679  0.239889  1
  Rh  Rh20  1  0.056321  0.773144  0.239889  1
