# generated using pymatgen
data_Dy2Er6Si12Ir3Rh
_symmetry_space_group_name_H-M   'P 1'
_cell_length_a   8.15783000
_cell_length_b   8.15782998
_cell_length_c   7.86160700
_cell_angle_alpha   90.00000000
_cell_angle_beta   90.00000000
_cell_angle_gamma   120.00000007
_symmetry_Int_Tables_number   1
_chemical_formula_structural   Dy2Er6Si12Ir3Rh
_chemical_formula_sum   'Dy2 Er6 Si12 Ir3 Rh1'
_cell_volume   453.09707853
_cell_formula_units_Z   1
loop_
 _symmetry_equiv_pos_site_id
 _symmetry_equiv_pos_as_xyz
  1  'x, y, z'
loop_
 _atom_site_type_symbol
 _atom_site_label
 _atom_site_symmetry_multiplicity
 _atom_site_fract_x
 _atom_site_fract_y
 _atom_site_fract_z
 _atom_site_occupancy
  Dy  Dy0  1  0.000000  0.000000  0.250449  1
  Dy  Dy1  1  0.000000  0.000000  0.748425  1
  Er  Er2  1  0.490770  0.509230  0.249844  1
  Er  Er3  1  0.490770  0.981540  0.249844  1
  Er  Er4  1  0.018460  0.509230  0.249844  1
  Er  Er5  1  0.510332  0.489668  0.750248  1
  Er  Er6  1  0.979334  0.489668  0.750248  1
  Er  Er7  1  0.510332  0.020666  0.750248  1
  Si  Si8  1  0.833323  0.166677  0.499572  1
  Si  Si9  1  0.833323  0.666646  0.499572  1
  Si  Si10  1  0.333354  0.166677  0.499572  1
  Si  Si11  1  0.833287  0.166713  0.000903  1
  Si  Si12  1  0.833287  0.666576  0.000903  1
  Si  Si13  1  0.333424  0.166713  0.000903  1
  Si  Si14  1  0.166998  0.833002  0.998618  1
  Si  Si15  1  0.666005  0.833002  0.998618  1
  Si  Si16  1  0.166998  0.333995  0.998618  1
  Si  Si17  1  0.167662  0.832338  0.499581  1
  Si  Si18  1  0.664676  0.832338  0.499581  1
  Si  Si19  1  0.167662  0.335324  0.499581  1
  Ir  Ir20  1  0.666667  0.333333  0.464668  1
  Ir  Ir21  1  0.666667  0.333333  0.032761  1
  Ir  Ir22  1  0.333333  0.666667  0.967749  1
  Rh  Rh23  1  0.333333  0.666667  0.539652  1
