# generated using pymatgen
data_Pr8MgSc11Si15P
_symmetry_space_group_name_H-M   'P 1'
_cell_length_a   7.22967629
_cell_length_b   7.55081220
_cell_length_c   14.23428100
_cell_angle_alpha   90.00000000
_cell_angle_beta   90.00000000
_cell_angle_gamma   90.08336548
_symmetry_Int_Tables_number   1
_chemical_formula_structural   Pr8MgSc11Si15P
_chemical_formula_sum   'Pr8 Mg1 Sc11 Si15 P1'
_cell_volume   777.04755211
_cell_formula_units_Z   1
loop_
 _symmetry_equiv_pos_site_id
 _symmetry_equiv_pos_as_xyz
  1  'x, y, z'
loop_
 _atom_site_type_symbol
 _atom_site_label
 _atom_site_symmetry_multiplicity
 _atom_site_fract_x
 _atom_site_fract_y
 _atom_site_fract_z
 _atom_site_occupancy
  Pr  Pr0  1  0.010143  0.175353  0.401230  1
  Pr  Pr1  1  0.516196  0.328336  0.401248  1
  Pr  Pr2  1  0.488994  0.672941  0.901206  1
  Pr  Pr3  1  0.488994  0.672941  0.598794  1
  Pr  Pr4  1  0.993373  0.830415  0.601147  1
  Pr  Pr5  1  0.993373  0.830415  0.898853  1
  Pr  Pr6  1  0.516196  0.328336  0.098752  1
  Pr  Pr7  1  0.010143  0.175353  0.098770  1
  Mg  Mg8  1  0.842563  0.501906  0.250000  1
  Sc  Sc9  1  0.326405  0.170628  0.627417  1
  Sc  Sc10  1  0.672526  0.820352  0.375623  1
  Sc  Sc11  1  0.657890  0.000705  0.750000  1
  Sc  Sc12  1  0.166196  0.675576  0.375514  1
  Sc  Sc13  1  0.827172  0.324496  0.875007  1
  Sc  Sc14  1  0.827172  0.324496  0.624993  1
  Sc  Sc15  1  0.341580  0.997375  0.250000  1
  Sc  Sc16  1  0.326405  0.170628  0.872583  1
  Sc  Sc17  1  0.166196  0.675576  0.124486  1
  Sc  Sc18  1  0.672526  0.820352  0.124377  1
  Sc  Sc19  1  0.157840  0.495876  0.750000  1
  Si  Si20  1  0.457304  0.626836  0.250000  1
  Si  Si21  1  0.022723  0.136717  0.750000  1
  Si  Si22  1  0.530939  0.371281  0.750000  1
  Si  Si23  1  0.152738  0.462343  0.539705  1
  Si  Si24  1  0.966522  0.883933  0.250000  1
  Si  Si25  1  0.708484  0.102950  0.250000  1
  Si  Si26  1  0.848202  0.541331  0.033929  1
  Si  Si27  1  0.347692  0.964832  0.040005  1
  Si  Si28  1  0.152738  0.462343  0.960295  1
  Si  Si29  1  0.651127  0.035571  0.540537  1
  Si  Si30  1  0.347692  0.964832  0.459995  1
  Si  Si31  1  0.848202  0.541331  0.466071  1
  Si  Si32  1  0.790855  0.618467  0.750000  1
  Si  Si33  1  0.221488  0.383525  0.250000  1
  Si  Si34  1  0.651127  0.035571  0.959463  1
  P  P35  1  0.300282  0.876086  0.750000  1
