# generated using pymatgen
data_CeSm3Tm4(B6Ru)4
_symmetry_space_group_name_H-M   'P 1'
_cell_length_a   3.67524200
_cell_length_b   9.13901033
_cell_length_c   11.52971041
_cell_angle_alpha   90.03061035
_cell_angle_beta   90.00000000
_cell_angle_gamma   90.00000000
_symmetry_Int_Tables_number   1
_chemical_formula_structural   CeSm3Tm4(B6Ru)4
_chemical_formula_sum   'Ce1 Sm3 Tm4 B24 Ru4'
_cell_volume   387.26071802
_cell_formula_units_Z   1
loop_
 _symmetry_equiv_pos_site_id
 _symmetry_equiv_pos_as_xyz
  1  'x, y, z'
loop_
 _atom_site_type_symbol
 _atom_site_label
 _atom_site_symmetry_multiplicity
 _atom_site_fract_x
 _atom_site_fract_y
 _atom_site_fract_z
 _atom_site_occupancy
  Ce  Ce0  1  0.000000  0.322814  0.414290  1
  Sm  Sm1  1  0.000000  0.678707  0.586119  1
  Sm  Sm2  1  0.000000  0.821837  0.085315  1
  Sm  Sm3  1  0.000000  0.177846  0.914136  1
  Tm  Tm4  1  0.000000  0.943914  0.372654  1
  Tm  Tm5  1  0.000000  0.055122  0.627524  1
  Tm  Tm6  1  0.000000  0.444203  0.127168  1
  Tm  Tm7  1  0.000000  0.556254  0.872784  1
  B  B8  1  0.500000  0.555145  0.431111  1
  B  B9  1  0.500000  0.444240  0.568429  1
  B  B10  1  0.500000  0.055686  0.068863  1
  B  B11  1  0.500000  0.944319  0.931361  1
  B  B12  1  0.500000  0.750451  0.418121  1
  B  B13  1  0.500000  0.249960  0.581506  1
  B  B14  1  0.500000  0.250260  0.081680  1
  B  B15  1  0.500000  0.749800  0.918198  1
  B  B16  1  0.500000  0.791291  0.266161  1
  B  B17  1  0.500000  0.208625  0.734138  1
  B  B18  1  0.500000  0.291558  0.234057  1
  B  B19  1  0.500000  0.708710  0.766256  1
  B  B20  1  0.500000  0.630763  0.184322  1
  B  B21  1  0.500000  0.369187  0.815576  1
  B  B22  1  0.500000  0.131130  0.315605  1
  B  B23  1  0.500000  0.869232  0.684547  1
  B  B24  1  0.500000  0.984411  0.213800  1
  B  B25  1  0.500000  0.015399  0.785984  1
  B  B26  1  0.500000  0.484514  0.286183  1
  B  B27  1  0.500000  0.515183  0.714206  1
  B  B28  1  0.500000  0.603695  0.028269  1
  B  B29  1  0.500000  0.396199  0.971689  1
  B  B30  1  0.500000  0.103908  0.471684  1
  B  B31  1  0.500000  0.895822  0.528220  1
  Ru  Ru32  1  0.000000  0.638584  0.319994  1
  Ru  Ru33  1  0.000000  0.360488  0.679052  1
  Ru  Ru34  1  0.000000  0.139989  0.181497  1
  Ru  Ru35  1  0.000000  0.860756  0.819498  1
