# generated using pymatgen
data_Er3In3PdPtAu
_symmetry_space_group_name_H-M   'P 1'
_cell_length_a   7.75152100
_cell_length_b   7.75152116
_cell_length_c   3.80054300
_cell_angle_alpha   90.00000000
_cell_angle_beta   90.00000000
_cell_angle_gamma   120.00000358
_symmetry_Int_Tables_number   1
_chemical_formula_structural   Er3In3PdPtAu
_chemical_formula_sum   'Er3 In3 Pd1 Pt1 Au1'
_cell_volume   197.76531776
_cell_formula_units_Z   1
loop_
 _symmetry_equiv_pos_site_id
 _symmetry_equiv_pos_as_xyz
  1  'x, y, z'
loop_
 _atom_site_type_symbol
 _atom_site_label
 _atom_site_symmetry_multiplicity
 _atom_site_fract_x
 _atom_site_fract_y
 _atom_site_fract_z
 _atom_site_occupancy
  Er  Er0  1  0.601208  0.015118  0.500000  1
  Er  Er1  1  0.413910  0.398792  0.500000  1
  Er  Er2  1  0.984882  0.586090  0.500000  1
  In  In3  1  0.738719  0.740869  0.000000  1
  In  In4  1  0.002151  0.261281  0.000000  1
  In  In5  1  0.259131  0.997849  0.000000  1
  Pd  Pd6  1  0.000000  0.000000  0.500000  1
  Pt  Pt7  1  0.666667  0.333333  0.000000  1
  Au  Au8  1  0.333333  0.666667  0.000000  1
