# generated using pymatgen
data_La3Tb11Au20
_symmetry_space_group_name_H-M   'P 1'
_cell_length_a   8.81213758
_cell_length_b   8.81213659
_cell_length_c   10.47249500
_cell_angle_alpha   89.92487033
_cell_angle_beta   89.92487034
_cell_angle_gamma   107.13479949
_symmetry_Int_Tables_number   1
_chemical_formula_structural   La3Tb11Au20
_chemical_formula_sum   'La3 Tb11 Au20'
_cell_volume   777.13095575
_cell_formula_units_Z   1
loop_
 _symmetry_equiv_pos_site_id
 _symmetry_equiv_pos_as_xyz
  1  'x, y, z'
loop_
 _atom_site_type_symbol
 _atom_site_label
 _atom_site_symmetry_multiplicity
 _atom_site_fract_x
 _atom_site_fract_y
 _atom_site_fract_z
 _atom_site_occupancy
  La  La0  1  0.690706  0.690706  0.808152  1
  La  La1  1  0.189695  0.189695  0.690703  1
  La  La2  1  0.810626  0.810626  0.308453  1
  Tb  Tb3  1  0.694593  0.304945  0.000127  1
  Tb  Tb4  1  0.304945  0.694593  0.000127  1
  Tb  Tb5  1  0.804740  0.195129  0.499965  1
  Tb  Tb6  1  0.195129  0.804740  0.499965  1
  Tb  Tb7  1  0.001690  0.001690  0.000984  1
  Tb  Tb8  1  0.498659  0.498659  0.498287  1
  Tb  Tb9  1  0.003882  0.502012  0.250071  1
  Tb  Tb10  1  0.997008  0.496388  0.750464  1
  Tb  Tb11  1  0.496388  0.997008  0.750464  1
  Tb  Tb12  1  0.502012  0.003882  0.250071  1
  Tb  Tb13  1  0.313443  0.313443  0.188832  1
  Au  Au14  1  0.860343  0.155383  0.208688  1
  Au  Au15  1  0.139153  0.844900  0.792533  1
  Au  Au16  1  0.637620  0.344934  0.708589  1
  Au  Au17  1  0.650305  0.360197  0.289964  1
  Au  Au18  1  0.360197  0.650305  0.289964  1
  Au  Au19  1  0.344934  0.637620  0.708589  1
  Au  Au20  1  0.844900  0.139153  0.792533  1
  Au  Au21  1  0.155383  0.860343  0.208688  1
  Au  Au22  1  0.939790  0.643857  0.006592  1
  Au  Au23  1  0.063293  0.355455  0.997105  1
  Au  Au24  1  0.559010  0.855338  0.505382  1
  Au  Au25  1  0.143597  0.439939  0.494265  1
  Au  Au26  1  0.439939  0.143597  0.494265  1
  Au  Au27  1  0.855338  0.559010  0.505382  1
  Au  Au28  1  0.355455  0.063293  0.997105  1
  Au  Au29  1  0.643857  0.939790  0.006592  1
  Au  Au30  1  0.107360  0.107360  0.395161  1
  Au  Au31  1  0.899948  0.899948  0.597313  1
  Au  Au32  1  0.396915  0.396915  0.904235  1
  Au  Au33  1  0.599147  0.599147  0.100390  1
