# generated using pymatgen
data_La4DyTa3(Co4P3)4
_symmetry_space_group_name_H-M   'P 1'
_cell_length_a   12.33244410
_cell_length_b   12.35368285
_cell_length_c   3.75548100
_cell_angle_alpha   90.00000000
_cell_angle_beta   90.00000000
_cell_angle_gamma   120.05697482
_symmetry_Int_Tables_number   1
_chemical_formula_structural   La4DyTa3(Co4P3)4
_chemical_formula_sum   'La4 Dy1 Ta3 Co16 P12'
_cell_volume   495.21316560
_cell_formula_units_Z   1
loop_
 _symmetry_equiv_pos_site_id
 _symmetry_equiv_pos_as_xyz
  1  'x, y, z'
loop_
 _atom_site_type_symbol
 _atom_site_label
 _atom_site_symmetry_multiplicity
 _atom_site_fract_x
 _atom_site_fract_y
 _atom_site_fract_z
 _atom_site_occupancy
  La  La0  1  0.665643  0.333047  0.000000  1
  La  La1  1  0.334357  0.667404  0.000000  1
  La  La2  1  0.184033  0.183073  0.500000  1
  La  La3  1  0.815967  0.999040  0.500000  1
  Dy  Dy4  1  0.000000  0.812767  0.500000  1
  Ta  Ta5  1  0.561225  0.560315  0.000000  1
  Ta  Ta6  1  0.438775  0.999090  0.000000  1
  Ta  Ta7  1  0.000000  0.442812  0.000000  1
  Co  Co8  1  0.823532  0.199852  0.000000  1
  Co  Co9  1  0.804796  0.626631  0.000000  1
  Co  Co10  1  0.373318  0.174524  0.000000  1
  Co  Co11  1  0.195204  0.821836  0.000000  1
  Co  Co12  1  0.626682  0.801207  0.000000  1
  Co  Co13  1  0.176468  0.376321  0.000000  1
  Co  Co14  1  0.642620  0.124352  0.500000  1
  Co  Co15  1  0.876397  0.521217  0.500000  1
  Co  Co16  1  0.480330  0.356228  0.500000  1
  Co  Co17  1  0.123603  0.644821  0.500000  1
  Co  Co18  1  0.519670  0.875898  0.500000  1
  Co  Co19  1  0.357380  0.481733  0.500000  1
  Co  Co20  1  0.722911  0.719243  0.500000  1
  Co  Co21  1  0.277089  0.996332  0.500000  1
  Co  Co22  1  0.000000  0.282773  0.500000  1
  Co  Co23  1  0.000000  0.998565  0.000000  1
  P  P24  1  0.362797  0.363238  0.000000  1
  P  P25  1  0.637203  0.000441  0.000000  1
  P  P26  1  0.000000  0.641981  0.000000  1
  P  P27  1  0.834788  0.310928  0.500000  1
  P  P28  1  0.690700  0.524899  0.500000  1
  P  P29  1  0.472460  0.163436  0.500000  1
  P  P30  1  0.309300  0.834198  0.500000  1
  P  P31  1  0.527540  0.690976  0.500000  1
  P  P32  1  0.165212  0.476140  0.500000  1
  P  P33  1  0.823636  0.817613  0.000000  1
  P  P34  1  0.176364  0.993977  0.000000  1
  P  P35  1  0.000000  0.183095  0.000000  1
