# generated using pymatgen
data_DyY3(B6Os)2
_symmetry_space_group_name_H-M   'P 1'
_cell_length_a   9.17851900
_cell_length_b   11.55903500
_cell_length_c   3.65961900
_cell_angle_alpha   90.00000000
_cell_angle_beta   90.00000000
_cell_angle_gamma   89.99878976
_symmetry_Int_Tables_number   1
_chemical_formula_structural   DyY3(B6Os)2
_chemical_formula_sum   'Dy2 Y6 B24 Os4'
_cell_volume   388.26662770
_cell_formula_units_Z   2
loop_
 _symmetry_equiv_pos_site_id
 _symmetry_equiv_pos_as_xyz
  1  'x, y, z'
loop_
 _atom_site_type_symbol
 _atom_site_label
 _atom_site_symmetry_multiplicity
 _atom_site_fract_x
 _atom_site_fract_y
 _atom_site_fract_z
 _atom_site_occupancy
  Dy  Dy0  1  0.556138  0.872925  0.000000  1
  Dy  Dy1  1  0.177404  0.913678  0.000000  1
  Y  Y2  1  0.822441  0.086315  0.000000  1
  Y  Y3  1  0.443948  0.126737  0.000000  1
  Y  Y4  1  0.943939  0.373175  0.000000  1
  Y  Y5  1  0.322479  0.413642  0.000000  1
  Y  Y6  1  0.677522  0.586364  0.000000  1
  Y  Y7  1  0.056053  0.626847  0.000000  1
  B  B8  1  0.609744  0.030454  0.499999  1
  B  B9  1  0.053848  0.066969  0.499999  1
  B  B10  1  0.247082  0.079870  0.499999  1
  B  B11  1  0.631956  0.185797  0.499999  1
  B  B12  1  0.983346  0.213064  0.499999  1
  B  B13  1  0.290707  0.233100  0.499999  1
  B  B14  1  0.790716  0.266872  0.499999  1
  B  B15  1  0.483332  0.286914  0.499999  1
  B  B16  1  0.131953  0.314158  0.499999  1
  B  B17  1  0.747118  0.419972  0.499999  1
  B  B18  1  0.553744  0.432928  0.499999  1
  B  B19  1  0.109803  0.469503  0.499999  1
  B  B20  1  0.890203  0.530497  0.499999  1
  B  B21  1  0.446244  0.567106  0.499999  1
  B  B22  1  0.252901  0.580071  0.499999  1
  B  B23  1  0.868043  0.685874  0.499999  1
  B  B24  1  0.516609  0.713196  0.499999  1
  B  B25  1  0.209279  0.733235  0.499999  1
  B  B26  1  0.709251  0.767003  0.499999  1
  B  B27  1  0.016770  0.787029  0.499999  1
  B  B28  1  0.368040  0.814242  0.499999  1
  B  B29  1  0.752800  0.919884  0.499999  1
  B  B30  1  0.946418  0.932886  0.499999  1
  B  B31  1  0.390180  0.969470  0.499999  1
  Os  Os32  1  0.137159  0.178351  0.000000  1
  Os  Os33  1  0.637155  0.321566  0.000000  1
  Os  Os34  1  0.362871  0.678699  0.000000  1
  Os  Os35  1  0.862807  0.821610  0.000000  1
