# generated using pymatgen
data_Sr6Sc2MnNiO12
_symmetry_space_group_name_H-M   'P 1'
_cell_length_a   6.74298632
_cell_length_b   6.74298662
_cell_length_c   6.74298561
_cell_angle_alpha   93.09548534
_cell_angle_beta   93.09548864
_cell_angle_gamma   93.09550476
_symmetry_Int_Tables_number   1
_chemical_formula_structural   Sr6Sc2MnNiO12
_chemical_formula_sum   'Sr6 Sc2 Mn1 Ni1 O12'
_cell_volume   305.19669606
_cell_formula_units_Z   1
loop_
 _symmetry_equiv_pos_site_id
 _symmetry_equiv_pos_as_xyz
  1  'x, y, z'
loop_
 _atom_site_type_symbol
 _atom_site_label
 _atom_site_symmetry_multiplicity
 _atom_site_fract_x
 _atom_site_fract_y
 _atom_site_fract_z
 _atom_site_occupancy
  Sr  Sr0  1  0.387399  0.748444  0.123095  1
  Sr  Sr1  1  0.876906  0.612601  0.251556  1
  Sr  Sr2  1  0.748444  0.123095  0.387399  1
  Sr  Sr3  1  0.251556  0.876905  0.612601  1
  Sr  Sr4  1  0.123094  0.387399  0.748444  1
  Sr  Sr5  1  0.612600  0.251556  0.876906  1
  Sc  Sc6  1  0.257611  0.257611  0.257611  1
  Sc  Sc7  1  0.742389  0.742389  0.742389  1
  Mn  Mn8  1  0.000000  0.000000  0.000000  1
  Ni  Ni9  1  0.500000  0.500000  0.500000  1
  O  O10  1  0.722456  0.912603  0.035213  1
  O  O11  1  0.964787  0.277544  0.087397  1
  O  O12  1  0.533431  0.396246  0.203092  1
  O  O13  1  0.087397  0.964787  0.277544  1
  O  O14  1  0.203092  0.533431  0.396247  1
  O  O15  1  0.603753  0.796908  0.466569  1
  O  O16  1  0.396247  0.203092  0.533431  1
  O  O17  1  0.796908  0.466569  0.603753  1
  O  O18  1  0.912603  0.035213  0.722456  1
  O  O19  1  0.466569  0.603753  0.796908  1
  O  O20  1  0.035213  0.722456  0.912603  1
  O  O21  1  0.277543  0.087396  0.964788  1
