# generated using pymatgen
data_Mg2GaPd4Au
_symmetry_space_group_name_H-M   'P 1'
_cell_length_a   5.57261771
_cell_length_b   5.57261786
_cell_length_c   4.09543100
_cell_angle_alpha   90.00000000
_cell_angle_beta   90.00000000
_cell_angle_gamma   96.05487069
_symmetry_Int_Tables_number   1
_chemical_formula_structural   Mg2GaPd4Au
_chemical_formula_sum   'Mg2 Ga1 Pd4 Au1'
_cell_volume   126.47030312
_cell_formula_units_Z   1
loop_
 _symmetry_equiv_pos_site_id
 _symmetry_equiv_pos_as_xyz
  1  'x, y, z'
loop_
 _atom_site_type_symbol
 _atom_site_label
 _atom_site_symmetry_multiplicity
 _atom_site_fract_x
 _atom_site_fract_y
 _atom_site_fract_z
 _atom_site_occupancy
  Mg  Mg0  1  0.725889  0.274111  0.500000  1
  Mg  Mg1  1  0.274111  0.725889  0.500000  1
  Ga  Ga2  1  0.000000  0.000000  0.000000  1
  Pd  Pd3  1  0.000000  0.500000  0.000000  1
  Pd  Pd4  1  0.500000  0.000000  0.000000  1
  Pd  Pd5  1  0.214647  0.214647  0.500000  1
  Pd  Pd6  1  0.785353  0.785353  0.500000  1
  Au  Au7  1  0.500000  0.500000  0.000000  1
