# generated using pymatgen
data_Ti7Nb5Al8(CoC)4
_symmetry_space_group_name_H-M   'P 1'
_cell_length_a   8.16017757
_cell_length_b   8.16438316
_cell_length_c   8.13680528
_cell_angle_alpha   60.04902247
_cell_angle_beta   60.06047164
_cell_angle_gamma   59.96705619
_symmetry_Int_Tables_number   1
_chemical_formula_structural   Ti7Nb5Al8(CoC)4
_chemical_formula_sum   'Ti7 Nb5 Al8 Co4 C4'
_cell_volume   383.54150327
_cell_formula_units_Z   1
loop_
 _symmetry_equiv_pos_site_id
 _symmetry_equiv_pos_as_xyz
  1  'x, y, z'
loop_
 _atom_site_type_symbol
 _atom_site_label
 _atom_site_symmetry_multiplicity
 _atom_site_fract_x
 _atom_site_fract_y
 _atom_site_fract_z
 _atom_site_occupancy
  Ti  Ti0  1  0.689936  0.309697  0.691785  1
  Ti  Ti1  1  0.939578  0.559711  0.557935  1
  Ti  Ti2  1  0.559434  0.940753  0.941623  1
  Ti  Ti3  1  0.940275  0.559473  0.942747  1
  Ti  Ti4  1  0.559025  0.559388  0.940327  1
  Ti  Ti5  1  0.940912  0.941943  0.558366  1
  Ti  Ti6  1  0.690655  0.690383  0.308890  1
  Nb  Nb7  1  0.308329  0.690819  0.693199  1
  Nb  Nb8  1  0.691022  0.309293  0.306985  1
  Nb  Nb9  1  0.307523  0.308149  0.692155  1
  Nb  Nb10  1  0.558974  0.940861  0.557152  1
  Nb  Nb11  1  0.309157  0.690320  0.308086  1
  Al  Al12  1  0.331044  0.332850  0.331058  1
  Al  Al13  1  0.247246  0.916529  0.919586  1
  Al  Al14  1  0.916342  0.248208  0.916611  1
  Al  Al15  1  0.919434  0.915935  0.246712  1
  Al  Al16  1  0.333713  0.002913  0.330825  1
  Al  Al17  1  0.334122  0.331090  0.003668  1
  Al  Al18  1  0.001952  0.333938  0.333261  1
  Al  Al19  1  0.915988  0.918326  0.917994  1
  Co  Co20  1  0.124638  0.126108  0.124802  1
  Co  Co21  1  0.626018  0.124517  0.127005  1
  Co  Co22  1  0.125964  0.625135  0.123495  1
  Co  Co23  1  0.126666  0.123876  0.625329  1
  C  C24  1  0.629982  0.618572  0.624080  1
  C  C25  1  0.113924  0.628671  0.628759  1
  C  C26  1  0.629349  0.123131  0.629285  1
  C  C27  1  0.628797  0.629412  0.118281  1
