# generated using pymatgen
data_Dy4Hf3MnF28
_symmetry_space_group_name_H-M   'P 1'
_cell_length_a   5.64723259
_cell_length_b   8.97082570
_cell_length_c   12.04368128
_cell_angle_alpha   62.43455337
_cell_angle_beta   89.95870371
_cell_angle_gamma   90.02351419
_symmetry_Int_Tables_number   1
_chemical_formula_structural   Dy4Hf3MnF28
_chemical_formula_sum   'Dy4 Hf3 Mn1 F28'
_cell_volume   540.87561803
_cell_formula_units_Z   1
loop_
 _symmetry_equiv_pos_site_id
 _symmetry_equiv_pos_as_xyz
  1  'x, y, z'
loop_
 _atom_site_type_symbol
 _atom_site_label
 _atom_site_symmetry_multiplicity
 _atom_site_fract_x
 _atom_site_fract_y
 _atom_site_fract_z
 _atom_site_occupancy
  Dy  Dy0  1  0.758029  0.817559  0.764132  1
  Dy  Dy1  1  0.259795  0.187225  0.728246  1
  Dy  Dy2  1  0.242204  0.186499  0.241226  1
  Dy  Dy3  1  0.743091  0.812012  0.267764  1
  Hf  Hf4  1  0.757121  0.273268  0.956266  1
  Hf  Hf5  1  0.255638  0.726238  0.543282  1
  Hf  Hf6  1  0.244618  0.726230  0.044667  1
  Mn  Mn7  1  0.740851  0.273315  0.455001  1
  F  F8  1  0.460041  0.708538  0.919531  1
  F  F9  1  0.933326  0.290712  0.572207  1
  F  F10  1  0.539054  0.289461  0.081507  1
  F  F11  1  0.041151  0.709216  0.418244  1
  F  F12  1  0.466735  0.279465  0.540055  1
  F  F13  1  0.949431  0.723067  0.951262  1
  F  F14  1  0.552543  0.717068  0.453923  1
  F  F15  1  0.049318  0.276666  0.051503  1
  F  F16  1  0.774626  0.524270  0.859185  1
  F  F17  1  0.266011  0.474798  0.636832  1
  F  F18  1  0.224184  0.475308  0.144626  1
  F  F19  1  0.729442  0.505039  0.364076  1
  F  F20  1  0.757960  0.022526  0.057739  1
  F  F21  1  0.260952  0.976774  0.446082  1
  F  F22  1  0.242156  0.976095  0.940951  1
  F  F23  1  0.741824  0.041980  0.545860  1
  F  F24  1  0.977251  0.734205  0.643514  1
  F  F25  1  0.484152  0.269104  0.850757  1
  F  F26  1  0.003838  0.269490  0.364643  1
  F  F27  1  0.520117  0.728921  0.148501  1
  F  F28  1  0.039258  0.746336  0.173897  1
  F  F29  1  0.550111  0.257311  0.333971  1
  F  F30  1  0.966035  0.253381  0.826669  1
  F  F31  1  0.463249  0.746439  0.672016  1
  F  F32  1  0.422523  0.972095  0.237078  1
  F  F33  1  0.923208  0.027516  0.269536  1
  F  F34  1  0.578665  0.029998  0.766224  1
  F  F35  1  0.081490  0.971877  0.729025  1
