# generated using pymatgen
data_Pr5NdBAsBr6
_symmetry_space_group_name_H-M   'P 1'
_cell_length_a   10.46172839
_cell_length_b   10.46172825
_cell_length_c   10.25892262
_cell_angle_alpha   109.45097880
_cell_angle_beta   109.44612608
_cell_angle_gamma   110.30323397
_symmetry_Int_Tables_number   1
_chemical_formula_structural   Pr5NdBAsBr6
_chemical_formula_sum   'Pr10 Nd2 B2 As2 Br12'
_cell_volume   855.80222799
_cell_formula_units_Z   2
loop_
 _symmetry_equiv_pos_site_id
 _symmetry_equiv_pos_as_xyz
  1  'x, y, z'
loop_
 _atom_site_type_symbol
 _atom_site_label
 _atom_site_symmetry_multiplicity
 _atom_site_fract_x
 _atom_site_fract_y
 _atom_site_fract_z
 _atom_site_occupancy
  Pr  Pr0  1  0.769782  0.026206  0.497794  1
  Pr  Pr1  1  0.227897  0.471705  0.497802  1
  Pr  Pr2  1  0.255484  0.726269  0.221782  1
  Pr  Pr3  1  0.028411  0.271988  0.002206  1
  Pr  Pr4  1  0.004487  0.033701  0.278218  1
  Pr  Pr5  1  0.473902  0.730095  0.002198  1
  Pr  Pr6  1  0.491823  0.241856  0.483442  1
  Pr  Pr7  1  0.019901  0.480161  0.750034  1
  Pr  Pr8  1  0.258415  0.008383  0.016558  1
  Pr  Pr9  1  0.230126  0.269867  0.749966  1
  Nd  Nd10  1  0.465159  0.495226  0.220665  1
  Nd  Nd11  1  0.774562  0.244494  0.279335  1
  B  B12  1  0.998803  0.249484  0.498256  1
  B  B13  1  0.251228  0.500547  0.001744  1
  As  As14  1  0.250807  0.250946  0.250052  1
  As  As15  1  0.500894  0.000754  0.249948  1
  Br  Br16  1  0.248051  0.755674  0.741775  1
  Br  Br17  1  0.513899  0.506277  0.758225  1
  Br  Br18  1  0.991955  0.745097  0.995278  1
  Br  Br19  1  0.744344  0.251958  0.758210  1
  Br  Br20  1  0.993747  0.986133  0.741790  1
  Br  Br21  1  0.249820  0.996677  0.504722  1
  Br  Br22  1  0.754410  0.506945  0.503007  1
  Br  Br23  1  0.503938  0.251403  0.996993  1
  Br  Br24  1  0.755066  0.743016  0.250024  1
  Br  Br25  1  0.745461  0.996721  0.992088  1
  Br  Br26  1  0.992992  0.505043  0.249976  1
  Br  Br27  1  0.504634  0.753374  0.507912  1
