# generated using pymatgen
data_TmBi5(PtO6)3
_symmetry_space_group_name_H-M   'P 1'
_cell_length_a   9.25343655
_cell_length_b   9.25097776
_cell_length_c   5.16032900
_cell_angle_alpha   89.99998142
_cell_angle_beta   90.19492563
_cell_angle_gamma   119.99117078
_symmetry_Int_Tables_number   1
_chemical_formula_structural   TmBi5(PtO6)3
_chemical_formula_sum   'Tm1 Bi5 Pt3 O18'
_cell_volume   382.59033354
_cell_formula_units_Z   1
loop_
 _symmetry_equiv_pos_site_id
 _symmetry_equiv_pos_as_xyz
  1  'x, y, z'
loop_
 _atom_site_type_symbol
 _atom_site_label
 _atom_site_symmetry_multiplicity
 _atom_site_fract_x
 _atom_site_fract_y
 _atom_site_fract_z
 _atom_site_occupancy
  Tm  Tm0  1  0.000002  0.372618  0.499990  1
  Bi  Bi1  1  0.291281  0.294613  0.000819  1
  Bi  Bi2  1  0.999999  0.702376  0.000001  1
  Bi  Bi3  1  0.626408  0.627776  0.498516  1
  Bi  Bi4  1  0.373587  0.001360  0.501473  1
  Bi  Bi5  1  0.708721  0.003333  0.999178  1
  Pt  Pt6  1  0.999998  0.001121  0.500000  1
  Pt  Pt7  1  0.331443  0.665002  0.999498  1
  Pt  Pt8  1  0.668560  0.333565  0.000498  1
  O  O9  1  0.089164  0.210481  0.713277  1
  O  O10  1  0.218514  0.455490  0.218044  1
  O  O11  1  0.124521  0.582830  0.779716  1
  O  O12  1  0.406470  0.535646  0.785601  1
  O  O13  1  0.232572  0.775526  0.213495  1
  O  O14  1  0.117647  0.912936  0.719332  1
  O  O15  1  0.542434  0.767601  0.212719  1
  O  O16  1  0.204277  0.088226  0.279504  1
  O  O17  1  0.462744  0.869562  0.784140  1
  O  O18  1  0.795728  0.883941  0.720514  1
  O  O19  1  0.457562  0.225160  0.787267  1
  O  O20  1  0.593521  0.129167  0.214389  1
  O  O21  1  0.537252  0.406816  0.215860  1
  O  O22  1  0.781501  0.236980  0.781954  1
  O  O23  1  0.910828  0.121314  0.286737  1
  O  O24  1  0.767424  0.542964  0.786509  1
  O  O25  1  0.875485  0.458311  0.220288  1
  O  O26  1  0.882360  0.795285  0.280683  1
