# generated using pymatgen
data_Nd2HoGaSi
_symmetry_space_group_name_H-M   'P 1'
_cell_length_a   7.72936700
_cell_length_b   7.70397200
_cell_length_c   4.44358500
_cell_angle_alpha   90.00000000
_cell_angle_beta   90.00000000
_cell_angle_gamma   90.00000000
_symmetry_Int_Tables_number   1
_chemical_formula_structural   Nd2HoGaSi
_chemical_formula_sum   'Nd4 Ho2 Ga2 Si2'
_cell_volume   264.60138701
_cell_formula_units_Z   2
loop_
 _symmetry_equiv_pos_site_id
 _symmetry_equiv_pos_as_xyz
  1  'x, y, z'
loop_
 _atom_site_type_symbol
 _atom_site_label
 _atom_site_symmetry_multiplicity
 _atom_site_fract_x
 _atom_site_fract_y
 _atom_site_fract_z
 _atom_site_occupancy
  Nd  Nd0  1  0.673771  0.176100  0.500000  1
  Nd  Nd1  1  0.826229  0.676100  0.500000  1
  Nd  Nd2  1  0.178503  0.324577  0.500000  1
  Nd  Nd3  1  0.321497  0.824577  0.500000  1
  Ho  Ho4  1  0.494793  0.495369  0.000000  1
  Ho  Ho5  1  0.005207  0.995369  0.000000  1
  Ga  Ga6  1  0.616883  0.883807  0.000000  1
  Ga  Ga7  1  0.883117  0.383807  0.000000  1
  Si  Si8  1  0.119943  0.620146  0.000000  1
  Si  Si9  1  0.380057  0.120146  0.000000  1
