# generated using pymatgen
data_Tb2Sm2PCl6
_symmetry_space_group_name_H-M   'P 1'
_cell_length_a   3.90304000
_cell_length_b   12.84661100
_cell_length_c   13.48280000
_cell_angle_alpha   90.00000000
_cell_angle_beta   90.00000000
_cell_angle_gamma   90.00000000
_symmetry_Int_Tables_number   1
_chemical_formula_structural   Tb2Sm2PCl6
_chemical_formula_sum   'Tb4 Sm4 P2 Cl12'
_cell_volume   676.03887168
_cell_formula_units_Z   2
loop_
 _symmetry_equiv_pos_site_id
 _symmetry_equiv_pos_as_xyz
  1  'x, y, z'
loop_
 _atom_site_type_symbol
 _atom_site_label
 _atom_site_symmetry_multiplicity
 _atom_site_fract_x
 _atom_site_fract_y
 _atom_site_fract_z
 _atom_site_occupancy
  Tb  Tb0  1  0.500000  0.119543  0.339145  1
  Tb  Tb1  1  0.500000  0.880457  0.660855  1
  Tb  Tb2  1  0.500000  0.619543  0.160855  1
  Tb  Tb3  1  0.500000  0.380457  0.839145  1
  Sm  Sm4  1  0.000000  0.121724  0.581551  1
  Sm  Sm5  1  0.000000  0.878276  0.418449  1
  Sm  Sm6  1  0.000000  0.621724  0.918449  1
  Sm  Sm7  1  0.000000  0.378276  0.081551  1
  P  P8  1  0.500000  0.000000  0.500000  1
  P  P9  1  0.500000  0.500000  0.000000  1
  Cl  Cl10  1  0.500000  0.238646  0.167299  1
  Cl  Cl11  1  0.500000  0.761354  0.832701  1
  Cl  Cl12  1  0.500000  0.738646  0.332701  1
  Cl  Cl13  1  0.500000  0.261354  0.667299  1
  Cl  Cl14  1  0.000000  0.251458  0.407690  1
  Cl  Cl15  1  0.000000  0.748542  0.592310  1
  Cl  Cl16  1  0.000000  0.751458  0.092310  1
  Cl  Cl17  1  0.000000  0.248542  0.907690  1
  Cl  Cl18  1  0.000000  0.006571  0.244604  1
  Cl  Cl19  1  0.000000  0.993429  0.755396  1
  Cl  Cl20  1  0.000000  0.506571  0.255396  1
  Cl  Cl21  1  0.000000  0.493429  0.744604  1
