# generated using pymatgen
data_Tb4Hf3VF28
_symmetry_space_group_name_H-M   'P 1'
_cell_length_a   5.67102899
_cell_length_b   9.03916877
_cell_length_c   12.09756282
_cell_angle_alpha   62.54642719
_cell_angle_beta   90.05742155
_cell_angle_gamma   90.00459779
_symmetry_Int_Tables_number   1
_chemical_formula_structural   Tb4Hf3VF28
_chemical_formula_sum   'Tb4 Hf3 V1 F28'
_cell_volume   550.30052499
_cell_formula_units_Z   1
loop_
 _symmetry_equiv_pos_site_id
 _symmetry_equiv_pos_as_xyz
  1  'x, y, z'
loop_
 _atom_site_type_symbol
 _atom_site_label
 _atom_site_symmetry_multiplicity
 _atom_site_fract_x
 _atom_site_fract_y
 _atom_site_fract_z
 _atom_site_occupancy
  Tb  Tb0  1  0.256591  0.811495  0.260913  1
  Tb  Tb1  1  0.742502  0.185861  0.733514  1
  Tb  Tb2  1  0.756958  0.183931  0.234384  1
  Tb  Tb3  1  0.241975  0.812491  0.771282  1
  Hf  Hf4  1  0.246109  0.273723  0.957242  1
  Hf  Hf5  1  0.255370  0.273792  0.455440  1
  Hf  Hf6  1  0.743023  0.726631  0.543971  1
  V  V7  1  0.755736  0.724786  0.044906  1
  F  F8  1  0.955761  0.709032  0.418592  1
  F  F9  1  0.042226  0.293707  0.579596  1
  F  F10  1  0.460747  0.291062  0.081811  1
  F  F11  1  0.545043  0.712984  0.926540  1
  F  F12  1  0.495616  0.732990  0.140816  1
  F  F13  1  0.525571  0.261439  0.860235  1
  F  F14  1  0.979846  0.272577  0.351453  1
  F  F15  1  0.018789  0.731471  0.646528  1
  F  F16  1  0.961625  0.742441  0.164332  1
  F  F17  1  0.038155  0.250649  0.830361  1
  F  F18  1  0.461050  0.254822  0.326568  1
  F  F19  1  0.538493  0.748117  0.672727  1
  F  F20  1  0.765572  0.496133  0.133798  1
  F  F21  1  0.236317  0.522081  0.859552  1
  F  F22  1  0.275788  0.522571  0.358122  1
  F  F23  1  0.723423  0.477267  0.641608  1
  F  F24  1  0.953412  0.283728  0.048505  1
  F  F25  1  0.026347  0.717926  0.951671  1
  F  F26  1  0.449543  0.723409  0.450588  1
  F  F27  1  0.551172  0.278777  0.546927  1
  F  F28  1  0.742009  0.975748  0.443334  1
  F  F29  1  0.258342  0.026250  0.557624  1
  F  F30  1  0.238701  0.025380  0.055763  1
  F  F31  1  0.759765  0.953765  0.952932  1
  F  F32  1  0.577059  0.971459  0.231953  1
  F  F33  1  0.420572  0.030749  0.768874  1
  F  F34  1  0.077454  0.026491  0.265743  1
  F  F35  1  0.923342  0.974266  0.731792  1
