# generated using pymatgen
data_Dy3LuC2Cl3
_symmetry_space_group_name_H-M   'P 1'
_cell_length_a   3.62770300
_cell_length_b   10.42154800
_cell_length_c   19.58708100
_cell_angle_alpha   90.00000000
_cell_angle_beta   90.00000000
_cell_angle_gamma   90.00000000
_symmetry_Int_Tables_number   1
_chemical_formula_structural   Dy3LuC2Cl3
_chemical_formula_sum   'Dy12 Lu4 C8 Cl12'
_cell_volume   740.51468716
_cell_formula_units_Z   4
loop_
 _symmetry_equiv_pos_site_id
 _symmetry_equiv_pos_as_xyz
  1  'x, y, z'
loop_
 _atom_site_type_symbol
 _atom_site_label
 _atom_site_symmetry_multiplicity
 _atom_site_fract_x
 _atom_site_fract_y
 _atom_site_fract_z
 _atom_site_occupancy
  Dy  Dy0  1  0.250000  0.139301  0.573133  1
  Dy  Dy1  1  0.250000  0.639301  0.926867  1
  Dy  Dy2  1  0.750000  0.860699  0.426867  1
  Dy  Dy3  1  0.750000  0.360699  0.073133  1
  Dy  Dy4  1  0.250000  0.637233  0.755529  1
  Dy  Dy5  1  0.250000  0.137233  0.744471  1
  Dy  Dy6  1  0.750000  0.362767  0.244471  1
  Dy  Dy7  1  0.750000  0.862767  0.255529  1
  Dy  Dy8  1  0.250000  0.101533  0.331474  1
  Dy  Dy9  1  0.250000  0.601533  0.168526  1
  Dy  Dy10  1  0.750000  0.898467  0.668526  1
  Dy  Dy11  1  0.750000  0.398467  0.831474  1
  Lu  Lu12  1  0.250000  0.126912  0.165671  1
  Lu  Lu13  1  0.250000  0.626912  0.334329  1
  Lu  Lu14  1  0.750000  0.873088  0.834329  1
  Lu  Lu15  1  0.750000  0.373088  0.665671  1
  C  C16  1  0.250000  0.862367  0.347665  1
  C  C17  1  0.250000  0.362367  0.152335  1
  C  C18  1  0.750000  0.137633  0.652335  1
  C  C19  1  0.750000  0.637633  0.847665  1
  C  C20  1  0.250000  0.387203  0.748308  1
  C  C21  1  0.250000  0.887203  0.751692  1
  C  C22  1  0.750000  0.612797  0.251692  1
  C  C23  1  0.750000  0.112797  0.248308  1
  Cl  Cl24  1  0.250000  0.376269  0.952411  1
  Cl  Cl25  1  0.250000  0.876269  0.547589  1
  Cl  Cl26  1  0.750000  0.623731  0.047589  1
  Cl  Cl27  1  0.750000  0.123731  0.452411  1
  Cl  Cl28  1  0.250000  0.890005  0.942120  1
  Cl  Cl29  1  0.250000  0.390005  0.557880  1
  Cl  Cl30  1  0.750000  0.109995  0.057880  1
  Cl  Cl31  1  0.750000  0.609995  0.442120  1
  Cl  Cl32  1  0.250000  0.364554  0.355013  1
  Cl  Cl33  1  0.250000  0.864554  0.144987  1
  Cl  Cl34  1  0.750000  0.635446  0.644987  1
  Cl  Cl35  1  0.750000  0.135446  0.855013  1
