# generated using pymatgen
data_Pr9Zn(Co2Au)2
_symmetry_space_group_name_H-M   'P 1'
_cell_length_a   8.87284880
_cell_length_b   8.87290196
_cell_length_c   8.87181400
_cell_angle_alpha   129.03719192
_cell_angle_beta   129.02296461
_cell_angle_gamma   74.97290309
_symmetry_Int_Tables_number   1
_chemical_formula_structural   Pr9Zn(Co2Au)2
_chemical_formula_sum   'Pr9 Zn1 Co4 Au2'
_cell_volume   410.42814960
_cell_formula_units_Z   1
loop_
 _symmetry_equiv_pos_site_id
 _symmetry_equiv_pos_as_xyz
  1  'x, y, z'
loop_
 _atom_site_type_symbol
 _atom_site_label
 _atom_site_symmetry_multiplicity
 _atom_site_fract_x
 _atom_site_fract_y
 _atom_site_fract_z
 _atom_site_occupancy
  Pr  Pr0  1  0.680360  0.524714  0.463824  1
  Pr  Pr1  1  0.475420  0.939175  0.156172  1
  Pr  Pr2  1  0.783010  0.319250  0.843839  1
  Pr  Pr3  1  0.524580  0.060825  0.843828  1
  Pr  Pr4  1  0.000000  0.000000  0.000000  1
  Pr  Pr5  1  0.060865  0.216529  0.536147  1
  Pr  Pr6  1  0.319640  0.475286  0.536176  1
  Pr  Pr7  1  0.216990  0.680750  0.156161  1
  Pr  Pr8  1  0.939135  0.783471  0.463853  1
  Zn  Zn9  1  0.500000  0.500000  0.000000  1
  Co  Co10  1  0.126050  0.623801  0.749838  1
  Co  Co11  1  0.873950  0.376199  0.250162  1
  Co  Co12  1  0.623508  0.874051  0.497560  1
  Co  Co13  1  0.376492  0.125949  0.502440  1
  Au  Au14  1  0.238662  0.238668  0.999986  1
  Au  Au15  1  0.761338  0.761332  0.000014  1
