# generated using pymatgen
data_Pr12Co2IrAuBr12
_symmetry_space_group_name_H-M   'P 1'
_cell_length_a   10.55284058
_cell_length_b   10.60960482
_cell_length_c   10.60960486
_cell_angle_alpha   109.91332216
_cell_angle_beta   109.99645914
_cell_angle_gamma   109.99645988
_symmetry_Int_Tables_number   1
_chemical_formula_structural   Pr12Co2IrAuBr12
_chemical_formula_sum   'Pr12 Co2 Ir1 Au1 Br12'
_cell_volume   897.18087179
_cell_formula_units_Z   1
loop_
 _symmetry_equiv_pos_site_id
 _symmetry_equiv_pos_as_xyz
  1  'x, y, z'
loop_
 _atom_site_type_symbol
 _atom_site_label
 _atom_site_symmetry_multiplicity
 _atom_site_fract_x
 _atom_site_fract_y
 _atom_site_fract_z
 _atom_site_occupancy
  Pr  Pr0  1  0.474123  0.495271  0.231557  1
  Pr  Pr1  1  0.750000  0.230633  0.269367  1
  Pr  Pr2  1  0.750000  0.016741  0.483259  1
  Pr  Pr3  1  0.224046  0.467525  0.494766  1
  Pr  Pr4  1  0.271413  0.757049  0.236282  1
  Pr  Pr5  1  0.025877  0.268443  0.004729  1
  Pr  Pr6  1  0.004265  0.030601  0.273923  1
  Pr  Pr7  1  0.488502  0.755705  0.017374  1
  Pr  Pr8  1  0.495735  0.226077  0.469399  1
  Pr  Pr9  1  0.011498  0.482626  0.744295  1
  Pr  Pr10  1  0.275954  0.005234  0.032475  1
  Pr  Pr11  1  0.228587  0.263718  0.742951  1
  Co  Co12  1  0.502772  0.998773  0.250545  1
  Co  Co13  1  0.997228  0.249455  0.501227  1
  Ir  Ir14  1  0.250000  0.501922  0.998078  1
  Au  Au15  1  0.250000  0.249742  0.250258  1
  Br  Br16  1  0.250000  0.756960  0.743040  1
  Br  Br17  1  0.507982  0.502487  0.752262  1
  Br  Br18  1  0.992018  0.747738  0.997513  1
  Br  Br19  1  0.741662  0.249346  0.755783  1
  Br  Br20  1  0.996385  0.991710  0.746444  1
  Br  Br21  1  0.250000  0.996963  0.503037  1
  Br  Br22  1  0.754243  0.509349  0.503540  1
  Br  Br23  1  0.503450  0.249842  0.998144  1
  Br  Br24  1  0.758338  0.744217  0.250654  1
  Br  Br25  1  0.745757  0.996460  0.990651  1
  Br  Br26  1  0.996550  0.501856  0.250158  1
  Br  Br27  1  0.503615  0.753556  0.508290  1
