# generated using pymatgen
data_DyY19(Cd3Ni)2
_symmetry_space_group_name_H-M   'P 1'
_cell_length_a   9.64370600
_cell_length_b   9.64370603
_cell_length_c   9.83062800
_cell_angle_alpha   90.00000000
_cell_angle_beta   90.00000000
_cell_angle_gamma   119.99999302
_symmetry_Int_Tables_number   1
_chemical_formula_structural   DyY19(Cd3Ni)2
_chemical_formula_sum   'Dy1 Y19 Cd6 Ni2'
_cell_volume   791.77147225
_cell_formula_units_Z   1
loop_
 _symmetry_equiv_pos_site_id
 _symmetry_equiv_pos_as_xyz
  1  'x, y, z'
loop_
 _atom_site_type_symbol
 _atom_site_label
 _atom_site_symmetry_multiplicity
 _atom_site_fract_x
 _atom_site_fract_y
 _atom_site_fract_z
 _atom_site_occupancy
  Dy  Dy0  1  0.000000  0.000000  0.500000  1
  Y  Y1  1  0.000000  0.000000  0.000000  1
  Y  Y2  1  0.543707  0.456293  0.250169  1
  Y  Y3  1  0.543707  0.087413  0.250169  1
  Y  Y4  1  0.912587  0.456293  0.250169  1
  Y  Y5  1  0.456293  0.543707  0.749831  1
  Y  Y6  1  0.456293  0.912587  0.749831  1
  Y  Y7  1  0.087413  0.543707  0.749831  1
  Y  Y8  1  0.210363  0.789637  0.437624  1
  Y  Y9  1  0.210363  0.420727  0.437624  1
  Y  Y10  1  0.579273  0.789637  0.437624  1
  Y  Y11  1  0.789637  0.210363  0.562376  1
  Y  Y12  1  0.789637  0.579273  0.562376  1
  Y  Y13  1  0.420727  0.210363  0.562376  1
  Y  Y14  1  0.789339  0.210661  0.937676  1
  Y  Y15  1  0.789339  0.578679  0.937676  1
  Y  Y16  1  0.421321  0.210661  0.937676  1
  Y  Y17  1  0.210661  0.789339  0.062324  1
  Y  Y18  1  0.210661  0.421321  0.062324  1
  Y  Y19  1  0.578679  0.789339  0.062324  1
  Cd  Cd20  1  0.884441  0.115559  0.250163  1
  Cd  Cd21  1  0.884441  0.768883  0.250163  1
  Cd  Cd22  1  0.231117  0.115559  0.250163  1
  Cd  Cd23  1  0.115559  0.884441  0.749837  1
  Cd  Cd24  1  0.115559  0.231117  0.749837  1
  Cd  Cd25  1  0.768883  0.884441  0.749837  1
  Ni  Ni26  1  0.333333  0.666667  0.249152  1
  Ni  Ni27  1  0.666667  0.333333  0.750848  1
