# generated using pymatgen
data_Tb8AlCo2Au
_symmetry_space_group_name_H-M   'P 1'
_cell_length_a   9.38074434
_cell_length_b   9.38074384
_cell_length_c   9.40732500
_cell_angle_alpha   59.90622486
_cell_angle_beta   59.90622661
_cell_angle_gamma   60.23971689
_symmetry_Int_Tables_number   1
_chemical_formula_structural   Tb8AlCo2Au
_chemical_formula_sum   'Tb16 Al2 Co4 Au2'
_cell_volume   585.58113167
_cell_formula_units_Z   2
loop_
 _symmetry_equiv_pos_site_id
 _symmetry_equiv_pos_as_xyz
  1  'x, y, z'
loop_
 _atom_site_type_symbol
 _atom_site_label
 _atom_site_symmetry_multiplicity
 _atom_site_fract_x
 _atom_site_fract_y
 _atom_site_fract_z
 _atom_site_occupancy
  Tb  Tb0  1  0.808396  0.190787  0.192525  1
  Tb  Tb1  1  0.190787  0.808396  0.808292  1
  Tb  Tb2  1  0.190787  0.808396  0.192525  1
  Tb  Tb3  1  0.808396  0.190787  0.808292  1
  Tb  Tb4  1  0.193744  0.193744  0.806256  1
  Tb  Tb5  1  0.808420  0.808420  0.191580  1
  Tb  Tb6  1  0.935415  0.561038  0.562221  1
  Tb  Tb7  1  0.561038  0.935415  0.941326  1
  Tb  Tb8  1  0.561039  0.935415  0.562221  1
  Tb  Tb9  1  0.935415  0.561038  0.941326  1
  Tb  Tb10  1  0.558945  0.558944  0.941056  1
  Tb  Tb11  1  0.936354  0.936354  0.563646  1
  Tb  Tb12  1  0.348416  0.348416  0.350603  1
  Tb  Tb13  1  0.348416  0.348416  0.952564  1
  Tb  Tb14  1  0.348907  0.951057  0.350017  1
  Tb  Tb15  1  0.951057  0.348907  0.350017  1
  Al  Al16  1  0.578443  0.276968  0.572295  1
  Al  Al17  1  0.276968  0.578443  0.572295  1
  Co  Co18  1  0.141419  0.141419  0.139477  1
  Co  Co19  1  0.141419  0.141419  0.577686  1
  Co  Co20  1  0.140830  0.576278  0.141446  1
  Co  Co21  1  0.576278  0.140830  0.141446  1
  Au  Au22  1  0.579555  0.579555  0.589190  1
  Au  Au23  1  0.579555  0.579555  0.251701  1
