# generated using pymatgen
data_Y12Ni3Os2Pb
_symmetry_space_group_name_H-M   'P 1'
_cell_length_a   8.43726653
_cell_length_b   8.43726610
_cell_length_c   8.43726600
_cell_angle_alpha   111.22161443
_cell_angle_beta   111.99404069
_cell_angle_gamma   105.27863259
_symmetry_Int_Tables_number   1
_chemical_formula_structural   Y12Ni3Os2Pb
_chemical_formula_sum   'Y12 Ni3 Os2 Pb1'
_cell_volume   460.50171781
_cell_formula_units_Z   1
loop_
 _symmetry_equiv_pos_site_id
 _symmetry_equiv_pos_as_xyz
  1  'x, y, z'
loop_
 _atom_site_type_symbol
 _atom_site_label
 _atom_site_symmetry_multiplicity
 _atom_site_fract_x
 _atom_site_fract_y
 _atom_site_fract_z
 _atom_site_occupancy
  Y  Y0  1  0.272428  0.183253  0.455692  1
  Y  Y1  1  0.722087  0.824377  0.546477  1
  Y  Y2  1  0.277900  0.824377  0.102289  1
  Y  Y3  1  0.727559  0.183253  0.910826  1
  Y  Y4  1  0.633081  0.319347  0.307592  1
  Y  Y5  1  0.366805  0.674589  0.686195  1
  Y  Y6  1  0.011755  0.319347  0.686265  1
  Y  Y7  1  0.988394  0.674589  0.307784  1
  Y  Y8  1  0.224846  0.411213  0.186369  1
  Y  Y9  1  0.780430  0.588923  0.808492  1
  Y  Y10  1  0.219407  0.027867  0.808460  1
  Y  Y11  1  0.775083  0.961502  0.186418  1
  Ni  Ni12  1  0.999922  0.648152  0.648230  1
  Ni  Ni13  1  0.386166  0.890106  0.503939  1
  Ni  Ni14  1  0.614148  0.118154  0.504005  1
  Os  Os15  1  0.999978  0.353265  0.353287  1
  Os  Os16  1  0.000000  0.999265  0.999265  1
  Pb  Pb17  1  0.500010  0.498426  0.998415  1
