# generated using pymatgen
data_Tb5Ho(Lu2Pb3)2
_symmetry_space_group_name_H-M   'P 1'
_cell_length_a   6.54044900
_cell_length_b   9.02602240
_cell_length_c   9.03078444
_cell_angle_alpha   120.01373596
_cell_angle_beta   90.00057639
_cell_angle_gamma   89.99906935
_symmetry_Int_Tables_number   1
_chemical_formula_structural   Tb5Ho(Lu2Pb3)2
_chemical_formula_sum   'Tb5 Ho1 Lu4 Pb6'
_cell_volume   461.63629816
_cell_formula_units_Z   1
loop_
 _symmetry_equiv_pos_site_id
 _symmetry_equiv_pos_as_xyz
  1  'x, y, z'
loop_
 _atom_site_type_symbol
 _atom_site_label
 _atom_site_symmetry_multiplicity
 _atom_site_fract_x
 _atom_site_fract_y
 _atom_site_fract_z
 _atom_site_occupancy
  Tb  Tb0  1  0.750004  0.237503  0.999727  1
  Tb  Tb1  1  0.749994  0.762432  0.762018  1
  Tb  Tb2  1  0.750010  0.000092  0.238573  1
  Tb  Tb3  1  0.250006  0.762224  0.999841  1
  Tb  Tb4  1  0.250007  0.237913  0.237827  1
  Ho  Ho5  1  0.249993  0.999941  0.762183  1
  Lu  Lu6  1  0.499879  0.333358  0.666792  1
  Lu  Lu7  1  0.499876  0.666584  0.333151  1
  Lu  Lu8  1  0.000111  0.666617  0.333160  1
  Lu  Lu9  1  0.000123  0.333367  0.666775  1
  Pb  Pb10  1  0.749993  0.603326  0.999959  1
  Pb  Pb11  1  0.750010  0.396597  0.396516  1
  Pb  Pb12  1  0.750006  0.999949  0.603062  1
  Pb  Pb13  1  0.249983  0.395110  0.998961  1
  Pb  Pb14  1  0.250007  0.604998  0.603906  1
  Pb  Pb15  1  0.249997  0.999988  0.397548  1
