# generated using pymatgen
data_Y15ErIn4RuRh3
_symmetry_space_group_name_H-M   'P 1'
_cell_length_a   9.70014198
_cell_length_b   9.70750364
_cell_length_c   9.70014078
_cell_angle_alpha   59.94774923
_cell_angle_beta   59.79353452
_cell_angle_gamma   59.94775059
_symmetry_Int_Tables_number   1
_chemical_formula_structural   Y15ErIn4RuRh3
_chemical_formula_sum   'Y15 Er1 In4 Ru1 Rh3'
_cell_volume   644.35333183
_cell_formula_units_Z   1
loop_
 _symmetry_equiv_pos_site_id
 _symmetry_equiv_pos_as_xyz
  1  'x, y, z'
loop_
 _atom_site_type_symbol
 _atom_site_label
 _atom_site_symmetry_multiplicity
 _atom_site_fract_x
 _atom_site_fract_y
 _atom_site_fract_z
 _atom_site_occupancy
  Y  Y0  1  0.188103  0.192337  0.811669  1
  Y  Y1  1  0.437978  0.060295  0.061766  1
  Y  Y2  1  0.437796  0.061743  0.437796  1
  Y  Y3  1  0.059571  0.437870  0.059571  1
  Y  Y4  1  0.649048  0.049611  0.649048  1
  Y  Y5  1  0.191240  0.809527  0.810290  1
  Y  Y6  1  0.061766  0.060295  0.437978  1
  Y  Y7  1  0.811669  0.192337  0.188103  1
  Y  Y8  1  0.810290  0.809527  0.191240  1
  Y  Y9  1  0.648789  0.648602  0.049814  1
  Y  Y10  1  0.651648  0.650580  0.651648  1
  Y  Y11  1  0.061209  0.437626  0.440737  1
  Y  Y12  1  0.049814  0.648602  0.648789  1
  Y  Y13  1  0.809736  0.193372  0.809736  1
  Y  Y14  1  0.440737  0.437626  0.061209  1
  Er  Er15  1  0.190121  0.811308  0.190121  1
  In  In16  1  0.417567  0.748215  0.417567  1
  In  In17  1  0.417181  0.416832  0.749162  1
  In  In18  1  0.749162  0.416832  0.417181  1
  In  In19  1  0.417194  0.416620  0.417194  1
  Ru  Ru20  1  0.857523  0.425897  0.857523  1
  Rh  Rh21  1  0.860898  0.857776  0.423347  1
  Rh  Rh22  1  0.423347  0.857776  0.860898  1
  Rh  Rh23  1  0.857619  0.858791  0.857619  1
