# generated using pymatgen
data_DyEr3Cr2(SbO7)2
_symmetry_space_group_name_H-M   'P 1'
_cell_length_a   7.25663730
_cell_length_b   7.22609701
_cell_length_c   7.31863773
_cell_angle_alpha   90.00027159
_cell_angle_beta   59.67534377
_cell_angle_gamma   119.86144804
_symmetry_Int_Tables_number   1
_chemical_formula_structural   DyEr3Cr2(SbO7)2
_chemical_formula_sum   'Dy1 Er3 Cr2 Sb2 O14'
_cell_volume   270.59648263
_cell_formula_units_Z   1
loop_
 _symmetry_equiv_pos_site_id
 _symmetry_equiv_pos_as_xyz
  1  'x, y, z'
loop_
 _atom_site_type_symbol
 _atom_site_label
 _atom_site_symmetry_multiplicity
 _atom_site_fract_x
 _atom_site_fract_y
 _atom_site_fract_z
 _atom_site_occupancy
  Dy  Dy0  1  0.999778  0.999816  0.000247  1
  Er  Er1  1  0.500024  0.500014  0.999913  1
  Er  Er2  1  0.500012  0.000024  0.999993  1
  Er  Er3  1  0.000187  0.000011  0.500019  1
  Cr  Cr4  1  0.499851  0.999944  0.500071  1
  Cr  Cr5  1  0.500001  0.500009  0.499996  1
  Sb  Sb6  1  0.000030  0.500025  0.999953  1
  Sb  Sb7  1  0.000032  0.499985  0.499919  1
  O  O8  1  0.257125  0.128584  0.123023  1
  O  O9  1  0.742882  0.871457  0.876989  1
  O  O10  1  0.683178  0.841575  0.409160  1
  O  O11  1  0.835383  0.417725  0.832315  1
  O  O12  1  0.253031  0.832418  0.837860  1
  O  O13  1  0.252558  0.419900  0.409358  1
  O  O14  1  0.253067  0.420691  0.837785  1
  O  O15  1  0.252540  0.832611  0.409432  1
  O  O16  1  0.316690  0.158327  0.590888  1
  O  O17  1  0.164738  0.582387  0.167554  1
  O  O18  1  0.746941  0.167691  0.162243  1
  O  O19  1  0.747511  0.580095  0.590497  1
  O  O20  1  0.746951  0.579321  0.162203  1
  O  O21  1  0.747491  0.167386  0.590581  1
