# generated using pymatgen
data_GaCl13
_symmetry_space_group_name_H-M   'P 1'
_cell_length_a   11.95493942
_cell_length_b   16.63702505
_cell_length_c   10.73645400
_cell_angle_alpha   89.41594713
_cell_angle_beta   120.89887980
_cell_angle_gamma   130.41348287
_symmetry_Int_Tables_number   1
_chemical_formula_structural   GaCl13
_chemical_formula_sum   'Ga2 Cl26'
_cell_volume   1213.03336074
_cell_formula_units_Z   2
loop_
 _symmetry_equiv_pos_site_id
 _symmetry_equiv_pos_as_xyz
  1  'x, y, z'
loop_
 _atom_site_type_symbol
 _atom_site_label
 _atom_site_symmetry_multiplicity
 _atom_site_fract_x
 _atom_site_fract_y
 _atom_site_fract_z
 _atom_site_occupancy
  Ga  Ga0  1  0.866730  0.997732  0.860275  1
  Ga  Ga1  1  0.383270  0.752268  0.639725  1
  Cl  Cl2  1  0.278642  0.393321  0.641571  1
  Cl  Cl3  1  0.654702  0.332686  0.966808  1
  Cl  Cl4  1  0.859833  0.039042  0.362625  1
  Cl  Cl5  1  0.971358  0.356679  0.858429  1
  Cl  Cl6  1  0.557752  0.136654  0.227073  1
  Cl  Cl7  1  0.692248  0.613346  0.272927  1
  Cl  Cl8  1  0.390167  0.710958  0.137375  1
  Cl  Cl9  1  0.595298  0.417314  0.533192  1
  Cl  Cl10  1  0.031890  0.793163  0.740308  1
  Cl  Cl11  1  0.532137  0.732332  0.365583  1
  Cl  Cl12  1  0.967308  0.070447  0.733461  1
  Cl  Cl13  1  0.750984  0.212635  0.475621  1
  Cl  Cl14  1  0.072043  0.080573  0.124311  1
  Cl  Cl15  1  0.777709  0.559361  0.749983  1
  Cl  Cl16  1  0.214444  0.926071  0.227366  1
  Cl  Cl17  1  0.185129  0.415198  0.443107  1
  Cl  Cl18  1  0.218110  0.956837  0.759692  1
  Cl  Cl19  1  0.717863  0.017668  0.134417  1
  Cl  Cl20  1  0.646058  0.787255  0.740795  1
  Cl  Cl21  1  0.603942  0.962745  0.759205  1
  Cl  Cl22  1  0.035556  0.823929  0.272634  1
  Cl  Cl23  1  0.064871  0.334802  0.056893  1
  Cl  Cl24  1  0.282692  0.679553  0.766539  1
  Cl  Cl25  1  0.472291  0.190639  0.750017  1
  Cl  Cl26  1  0.177957  0.669427  0.375689  1
  Cl  Cl27  1  0.499016  0.537365  0.024379  1
