# generated using pymatgen
data_K4PaCrCl12
_symmetry_space_group_name_H-M   'P 1'
_cell_length_a   7.01174500
_cell_length_b   7.01174500
_cell_length_c   10.89210100
_cell_angle_alpha   90.00000000
_cell_angle_beta   90.00000000
_cell_angle_gamma   90.00000000
_symmetry_Int_Tables_number   1
_chemical_formula_structural   K4PaCrCl12
_chemical_formula_sum   'K4 Pa1 Cr1 Cl12'
_cell_volume   535.50543968
_cell_formula_units_Z   1
loop_
 _symmetry_equiv_pos_site_id
 _symmetry_equiv_pos_as_xyz
  1  'x, y, z'
loop_
 _atom_site_type_symbol
 _atom_site_label
 _atom_site_symmetry_multiplicity
 _atom_site_fract_x
 _atom_site_fract_y
 _atom_site_fract_z
 _atom_site_occupancy
  K  K0  1  0.500000  0.000000  0.804863  1
  K  K1  1  0.500000  0.000000  0.195137  1
  K  K2  1  0.000000  0.500000  0.195137  1
  K  K3  1  0.000000  0.500000  0.804863  1
  Pa  Pa4  1  0.500000  0.500000  0.500000  1
  Cr  Cr5  1  0.000000  0.000000  0.000000  1
  Cl  Cl6  1  0.760138  0.237312  0.000000  1
  Cl  Cl7  1  0.239862  0.762688  0.000000  1
  Cl  Cl8  1  0.500000  0.500000  0.262681  1
  Cl  Cl9  1  0.304620  0.195084  0.500000  1
  Cl  Cl10  1  0.237312  0.239862  0.000000  1
  Cl  Cl11  1  0.804916  0.304620  0.500000  1
  Cl  Cl12  1  0.000000  0.000000  0.218267  1
  Cl  Cl13  1  0.695380  0.804916  0.500000  1
  Cl  Cl14  1  0.195084  0.695380  0.500000  1
  Cl  Cl15  1  0.500000  0.500000  0.737319  1
  Cl  Cl16  1  0.762688  0.760138  0.000000  1
  Cl  Cl17  1  0.000000  0.000000  0.781733  1
