# generated using pymatgen
data_Er3GaPd3Pb2
_symmetry_space_group_name_H-M   'P 1'
_cell_length_a   7.82538905
_cell_length_b   7.82538963
_cell_length_c   3.71086500
_cell_angle_alpha   90.00000000
_cell_angle_beta   90.00000000
_cell_angle_gamma   120.82955960
_symmetry_Int_Tables_number   1
_chemical_formula_structural   Er3GaPd3Pb2
_chemical_formula_sum   'Er3 Ga1 Pd3 Pb2'
_cell_volume   195.13101723
_cell_formula_units_Z   1
loop_
 _symmetry_equiv_pos_site_id
 _symmetry_equiv_pos_as_xyz
  1  'x, y, z'
loop_
 _atom_site_type_symbol
 _atom_site_label
 _atom_site_symmetry_multiplicity
 _atom_site_fract_x
 _atom_site_fract_y
 _atom_site_fract_z
 _atom_site_occupancy
  Er  Er0  1  0.422227  0.422227  0.500000  1
  Er  Er1  1  0.599680  0.984262  0.500000  1
  Er  Er2  1  0.984262  0.599680  0.500000  1
  Ga  Ga3  1  0.731804  0.731804  0.000000  1
  Pd  Pd4  1  0.670311  0.348305  0.000000  1
  Pd  Pd5  1  0.348305  0.670311  0.000000  1
  Pd  Pd6  1  0.974958  0.974958  0.500000  1
  Pb  Pb7  1  0.267219  0.001235  0.000000  1
  Pb  Pb8  1  0.001235  0.267219  0.000000  1
