# generated using pymatgen
data_NaCaHf2F11
_symmetry_space_group_name_H-M   'P 1'
_cell_length_a   5.88882951
_cell_length_b   5.88882914
_cell_length_c   7.91790386
_cell_angle_alpha   69.87069377
_cell_angle_beta   69.87069137
_cell_angle_gamma   73.67227074
_symmetry_Int_Tables_number   1
_chemical_formula_structural   NaCaHf2F11
_chemical_formula_sum   'Na1 Ca1 Hf2 F11'
_cell_volume   237.90230650
_cell_formula_units_Z   1
loop_
 _symmetry_equiv_pos_site_id
 _symmetry_equiv_pos_as_xyz
  1  'x, y, z'
loop_
 _atom_site_type_symbol
 _atom_site_label
 _atom_site_symmetry_multiplicity
 _atom_site_fract_x
 _atom_site_fract_y
 _atom_site_fract_z
 _atom_site_occupancy
  Na  Na0  1  0.000000  0.000000  0.000000  1
  Ca  Ca1  1  0.000000  0.000000  0.500000  1
  Hf  Hf2  1  0.500895  0.500895  0.229636  1
  Hf  Hf3  1  0.499105  0.499105  0.770364  1
  F  F4  1  0.209503  0.769388  0.299369  1
  F  F5  1  0.230612  0.790497  0.700631  1
  F  F6  1  0.790497  0.230612  0.700631  1
  F  F7  1  0.769388  0.209503  0.299369  1
  F  F8  1  0.500000  0.500000  0.500000  1
  F  F9  1  0.663416  0.336584  0.000000  1
  F  F10  1  0.336584  0.663416  0.000000  1
  F  F11  1  0.735185  0.735185  0.655294  1
  F  F12  1  0.264815  0.264815  0.344706  1
  F  F13  1  0.731944  0.731944  0.111887  1
  F  F14  1  0.268056  0.268056  0.888113  1
