# generated using pymatgen
data_K(SmI3)2
_symmetry_space_group_name_H-M   'P 1'
_cell_length_a   8.56550500
_cell_length_b   8.56550568
_cell_length_c   14.72549000
_cell_angle_alpha   90.00000000
_cell_angle_beta   90.00000000
_cell_angle_gamma   119.99999351
_symmetry_Int_Tables_number   1
_chemical_formula_structural   K(SmI3)2
_chemical_formula_sum   'K2 Sm4 I12'
_cell_volume   935.63486241
_cell_formula_units_Z   2
loop_
 _symmetry_equiv_pos_site_id
 _symmetry_equiv_pos_as_xyz
  1  'x, y, z'
loop_
 _atom_site_type_symbol
 _atom_site_label
 _atom_site_symmetry_multiplicity
 _atom_site_fract_x
 _atom_site_fract_y
 _atom_site_fract_z
 _atom_site_occupancy
  K  K0  1  0.333333  0.666667  0.872663  1
  K  K1  1  0.666667  0.333333  0.372663  1
  Sm  Sm2  1  0.000000  0.000000  0.125753  1
  Sm  Sm3  1  0.000000  0.000000  0.375949  1
  Sm  Sm4  1  0.000000  0.000000  0.625753  1
  Sm  Sm5  1  0.000000  0.000000  0.875949  1
  I  I6  1  0.986628  0.698039  0.001118  1
  I  I7  1  0.284875  0.979963  0.250670  1
  I  I8  1  0.020037  0.304912  0.250670  1
  I  I9  1  0.301961  0.288591  0.001118  1
  I  I10  1  0.288591  0.301961  0.501118  1
  I  I11  1  0.711409  0.013372  0.001118  1
  I  I12  1  0.304912  0.020037  0.750670  1
  I  I13  1  0.695088  0.715125  0.250670  1
  I  I14  1  0.715125  0.695088  0.750670  1
  I  I15  1  0.013372  0.711409  0.501118  1
  I  I16  1  0.698039  0.986628  0.501118  1
  I  I17  1  0.979963  0.284875  0.750670  1
