# generated using pymatgen
data_Lu6Fe2Si5Ge
_symmetry_space_group_name_H-M   'P 1'
_cell_length_a   5.53896852
_cell_length_b   5.53896869
_cell_length_c   13.29817108
_cell_angle_alpha   109.34574602
_cell_angle_beta   109.34574733
_cell_angle_gamma   43.33587608
_symmetry_Int_Tables_number   1
_chemical_formula_structural   Lu6Fe2Si5Ge
_chemical_formula_sum   'Lu6 Fe2 Si5 Ge1'
_cell_volume   261.60096076
_cell_formula_units_Z   1
loop_
 _symmetry_equiv_pos_site_id
 _symmetry_equiv_pos_as_xyz
  1  'x, y, z'
loop_
 _atom_site_type_symbol
 _atom_site_label
 _atom_site_symmetry_multiplicity
 _atom_site_fract_x
 _atom_site_fract_y
 _atom_site_fract_z
 _atom_site_occupancy
  Lu  Lu0  1  0.401265  0.401265  0.080722  1
  Lu  Lu1  1  0.748366  0.748366  0.232485  1
  Lu  Lu2  1  0.523309  0.523309  0.380592  1
  Lu  Lu3  1  0.476356  0.476356  0.620376  1
  Lu  Lu4  1  0.251647  0.251647  0.769184  1
  Lu  Lu5  1  0.599442  0.599442  0.916498  1
  Fe  Fe6  1  0.247430  0.247430  0.415137  1
  Fe  Fe7  1  0.752890  0.752890  0.584994  1
  Si  Si8  1  0.051741  0.051741  0.244441  1
  Si  Si9  1  0.858751  0.858751  0.457535  1
  Si  Si10  1  0.141910  0.141910  0.543368  1
  Si  Si11  1  0.946150  0.946150  0.757415  1
  Si  Si12  1  0.879657  0.879657  0.922244  1
  Ge  Ge13  1  0.121088  0.121088  0.075008  1
