# generated using pymatgen
data_Nd2SmMg3Si2Pd
_symmetry_space_group_name_H-M   'P 1'
_cell_length_a   7.38084200
_cell_length_b   7.38084223
_cell_length_c   4.36943700
_cell_angle_alpha   90.00000000
_cell_angle_beta   90.00000000
_cell_angle_gamma   119.85392298
_symmetry_Int_Tables_number   1
_chemical_formula_structural   Nd2SmMg3Si2Pd
_chemical_formula_sum   'Nd2 Sm1 Mg3 Si2 Pd1'
_cell_volume   206.44545790
_cell_formula_units_Z   1
loop_
 _symmetry_equiv_pos_site_id
 _symmetry_equiv_pos_as_xyz
  1  'x, y, z'
loop_
 _atom_site_type_symbol
 _atom_site_label
 _atom_site_symmetry_multiplicity
 _atom_site_fract_x
 _atom_site_fract_y
 _atom_site_fract_z
 _atom_site_occupancy
  Nd  Nd0  1  0.415246  0.000039  0.500000  1
  Nd  Nd1  1  0.000039  0.415246  0.500000  1
  Sm  Sm2  1  0.585222  0.585222  0.500000  1
  Mg  Mg3  1  0.757264  0.999253  0.000000  1
  Mg  Mg4  1  0.999253  0.757264  0.000000  1
  Mg  Mg5  1  0.243307  0.243307  0.000000  1
  Si  Si6  1  0.334782  0.666247  0.000000  1
  Si  Si7  1  0.666247  0.334782  0.000000  1
  Pd  Pd8  1  0.998641  0.998641  0.500000  1
