# generated using pymatgen
data_Tb(ErSi2)5
_symmetry_space_group_name_H-M   'P 1'
_cell_length_a   6.60081800
_cell_length_b   6.59299094
_cell_length_c   8.27998432
_cell_angle_alpha   90.06868095
_cell_angle_beta   90.00000000
_cell_angle_gamma   120.03927933
_symmetry_Int_Tables_number   1
_chemical_formula_structural   Tb(ErSi2)5
_chemical_formula_sum   'Tb1 Er5 Si10'
_cell_volume   311.93774994
_cell_formula_units_Z   1
loop_
 _symmetry_equiv_pos_site_id
 _symmetry_equiv_pos_as_xyz
  1  'x, y, z'
loop_
 _atom_site_type_symbol
 _atom_site_label
 _atom_site_symmetry_multiplicity
 _atom_site_fract_x
 _atom_site_fract_y
 _atom_site_fract_z
 _atom_site_occupancy
  Tb  Tb0  1  0.330126  0.000000  0.000000  1
  Er  Er1  1  0.330863  0.000000  0.500000  1
  Er  Er2  1  0.669732  0.669278  0.500009  1
  Er  Er3  1  0.000453  0.330722  0.499991  1
  Er  Er4  1  0.999982  0.330525  0.000101  1
  Er  Er5  1  0.669457  0.669475  0.999899  1
  Si  Si6  1  0.999724  0.000314  0.748508  1
  Si  Si7  1  0.669937  0.061043  0.748208  1
  Si  Si8  1  0.392114  0.332721  0.747853  1
  Si  Si9  1  0.938390  0.606962  0.749602  1
  Si  Si10  1  0.333295  0.666493  0.748592  1
  Si  Si11  1  0.999411  0.999686  0.251492  1
  Si  Si12  1  0.666802  0.333507  0.251408  1
  Si  Si13  1  0.331430  0.393038  0.250398  1
  Si  Si14  1  0.059393  0.667279  0.252147  1
  Si  Si15  1  0.608893  0.938957  0.251792  1
