# generated using pymatgen
data_LaSm5DyCoI12
_symmetry_space_group_name_H-M   'P 1'
_cell_length_a   9.89094743
_cell_length_b   9.88442211
_cell_length_c   9.89034692
_cell_angle_alpha   106.37058814
_cell_angle_beta   106.43590264
_cell_angle_gamma   106.28849952
_symmetry_Int_Tables_number   1
_chemical_formula_structural   LaSm5DyCoI12
_chemical_formula_sum   'La1 Sm5 Dy1 Co1 I12'
_cell_volume   818.82687224
_cell_formula_units_Z   1
loop_
 _symmetry_equiv_pos_site_id
 _symmetry_equiv_pos_as_xyz
  1  'x, y, z'
loop_
 _atom_site_type_symbol
 _atom_site_label
 _atom_site_symmetry_multiplicity
 _atom_site_fract_x
 _atom_site_fract_y
 _atom_site_fract_z
 _atom_site_occupancy
  La  La0  1  0.996446  0.996161  0.996529  1
  Sm  Sm1  1  0.517128  0.589563  0.788855  1
  Sm  Sm2  1  0.788732  0.516401  0.590957  1
  Sm  Sm3  1  0.590643  0.789218  0.517437  1
  Sm  Sm4  1  0.480381  0.406165  0.209296  1
  Sm  Sm5  1  0.209278  0.480340  0.407212  1
  Dy  Dy6  1  0.409393  0.215533  0.480938  1
  Co  Co7  1  0.499314  0.499139  0.499215  1
  I  I8  1  0.274798  0.825113  0.426505  1
  I  I9  1  0.425080  0.271593  0.819026  1
  I  I10  1  0.823269  0.425776  0.273925  1
  I  I11  1  0.719459  0.174359  0.571001  1
  I  I12  1  0.572380  0.723984  0.175322  1
  I  I13  1  0.175110  0.572479  0.724543  1
  I  I14  1  0.045915  0.121016  0.349291  1
  I  I15  1  0.347936  0.042144  0.124343  1
  I  I16  1  0.120781  0.347340  0.041397  1
  I  I17  1  0.956080  0.876404  0.646743  1
  I  I18  1  0.646614  0.955943  0.876389  1
  I  I19  1  0.876632  0.646699  0.956444  1
