# generated using pymatgen
data_Y8Cu2Si12NiAu
_symmetry_space_group_name_H-M   'P 1'
_cell_length_a   8.03906300
_cell_length_b   8.03905628
_cell_length_c   8.17158800
_cell_angle_alpha   89.99995724
_cell_angle_beta   90.00004276
_cell_angle_gamma   120.00005646
_symmetry_Int_Tables_number   1
_chemical_formula_structural   Y8Cu2Si12NiAu
_chemical_formula_sum   'Y8 Cu2 Si12 Ni1 Au1'
_cell_volume   457.34859350
_cell_formula_units_Z   1
loop_
 _symmetry_equiv_pos_site_id
 _symmetry_equiv_pos_as_xyz
  1  'x, y, z'
loop_
 _atom_site_type_symbol
 _atom_site_label
 _atom_site_symmetry_multiplicity
 _atom_site_fract_x
 _atom_site_fract_y
 _atom_site_fract_z
 _atom_site_occupancy
  Y  Y0  1  0.000000  0.000000  0.247647  1
  Y  Y1  1  0.000000  0.000000  0.752415  1
  Y  Y2  1  0.995101  0.497551  0.249036  1
  Y  Y3  1  0.502449  0.497551  0.249037  1
  Y  Y4  1  0.502684  0.005367  0.750921  1
  Y  Y5  1  0.502449  0.004899  0.249036  1
  Y  Y6  1  0.502683  0.497316  0.750921  1
  Y  Y7  1  0.994634  0.497316  0.750921  1
  Cu  Cu8  1  0.333334  0.666667  0.999417  1
  Cu  Cu9  1  0.666667  0.333333  0.000422  1
  Si  Si10  1  0.169877  0.339753  0.000103  1
  Si  Si11  1  0.660247  0.830123  0.000103  1
  Si  Si12  1  0.161091  0.322182  0.500393  1
  Si  Si13  1  0.337809  0.168904  0.999911  1
  Si  Si14  1  0.169876  0.830124  0.000103  1
  Si  Si15  1  0.677817  0.838909  0.500393  1
  Si  Si16  1  0.831096  0.662191  0.999911  1
  Si  Si17  1  0.347370  0.173685  0.499575  1
  Si  Si18  1  0.161091  0.838909  0.500393  1
  Si  Si19  1  0.826315  0.652630  0.499575  1
  Si  Si20  1  0.831097  0.168903  0.999912  1
  Si  Si21  1  0.826315  0.173685  0.499575  1
  Ni  Ni22  1  0.666666  0.333333  0.500062  1
  Au  Au23  1  0.333333  0.666667  0.500223  1
