# generated using pymatgen
data_VNi3Pt3W
_symmetry_space_group_name_H-M   'P 1'
_cell_length_a   4.37352500
_cell_length_b   4.66166862
_cell_length_c   5.31975615
_cell_angle_alpha   90.24478697
_cell_angle_beta   90.00000000
_cell_angle_gamma   90.00000000
_symmetry_Int_Tables_number   1
_chemical_formula_structural   VNi3Pt3W
_chemical_formula_sum   'V1 Ni3 Pt3 W1'
_cell_volume   108.45779570
_cell_formula_units_Z   1
loop_
 _symmetry_equiv_pos_site_id
 _symmetry_equiv_pos_as_xyz
  1  'x, y, z'
loop_
 _atom_site_type_symbol
 _atom_site_label
 _atom_site_symmetry_multiplicity
 _atom_site_fract_x
 _atom_site_fract_y
 _atom_site_fract_z
 _atom_site_occupancy
  V  V0  1  0.000000  0.342806  0.008793  1
  Ni  Ni1  1  0.000000  0.338312  0.487669  1
  Ni  Ni2  1  0.500000  0.653440  0.011115  1
  Ni  Ni3  1  0.500000  0.174666  0.247459  1
  Pt  Pt4  1  0.500000  0.176158  0.751530  1
  Pt  Pt5  1  0.000000  0.822079  0.753340  1
  Pt  Pt6  1  0.000000  0.841109  0.249579  1
  W  W7  1  0.500000  0.651429  0.490515  1
