# generated using pymatgen
data_Ho2LuMg3(Ni7B2)2
_symmetry_space_group_name_H-M   'P 1'
_cell_length_a   4.94193273
_cell_length_b   4.94193350
_cell_length_c   13.98105969
_cell_angle_alpha   89.99908589
_cell_angle_beta   90.00091495
_cell_angle_gamma   119.97389041
_symmetry_Int_Tables_number   1
_chemical_formula_structural   Ho2LuMg3(Ni7B2)2
_chemical_formula_sum   'Ho2 Lu1 Mg3 Ni14 B4'
_cell_volume   295.78670549
_cell_formula_units_Z   1
loop_
 _symmetry_equiv_pos_site_id
 _symmetry_equiv_pos_as_xyz
  1  'x, y, z'
loop_
 _atom_site_type_symbol
 _atom_site_label
 _atom_site_symmetry_multiplicity
 _atom_site_fract_x
 _atom_site_fract_y
 _atom_site_fract_z
 _atom_site_occupancy
  Ho  Ho0  1  0.666995  0.333005  0.242620  1
  Ho  Ho1  1  0.333078  0.666922  0.751953  1
  Lu  Lu2  1  0.666850  0.333150  0.468915  1
  Mg  Mg3  1  0.666726  0.333274  0.025035  1
  Mg  Mg4  1  0.333152  0.666848  0.973498  1
  Mg  Mg5  1  0.333148  0.666852  0.534714  1
  Ni  Ni6  1  0.833273  0.667833  0.646820  1
  Ni  Ni7  1  0.833523  0.166477  0.647199  1
  Ni  Ni8  1  0.332167  0.166727  0.646820  1
  Ni  Ni9  1  0.167401  0.333498  0.353964  1
  Ni  Ni10  1  0.167209  0.832791  0.353890  1
  Ni  Ni11  1  0.666502  0.832599  0.353964  1
  Ni  Ni12  1  0.167095  0.333092  0.143509  1
  Ni  Ni13  1  0.166830  0.833170  0.143718  1
  Ni  Ni14  1  0.666908  0.832905  0.143509  1
  Ni  Ni15  1  0.833528  0.667909  0.855502  1
  Ni  Ni16  1  0.833684  0.166316  0.855252  1
  Ni  Ni17  1  0.332091  0.166472  0.855502  1
  Ni  Ni18  1  0.000264  0.999736  0.501392  1
  Ni  Ni19  1  0.999469  0.000531  0.999777  1
  B  B20  1  0.666162  0.333838  0.751165  1
  B  B21  1  0.333722  0.666278  0.249219  1
  B  B22  1  0.000167  0.999833  0.752278  1
  B  B23  1  0.000062  0.999938  0.249787  1
