# generated using pymatgen
data_Y4Al18CuIr4Pt
_symmetry_space_group_name_H-M   'P 1'
_cell_length_a   7.57946887
_cell_length_b   7.57946919
_cell_length_c   9.44670392
_cell_angle_alpha   90.12304409
_cell_angle_beta   90.12304102
_cell_angle_gamma   119.71831321
_symmetry_Int_Tables_number   1
_chemical_formula_structural   Y4Al18CuIr4Pt
_chemical_formula_sum   'Y4 Al18 Cu1 Ir4 Pt1'
_cell_volume   471.31392655
_cell_formula_units_Z   1
loop_
 _symmetry_equiv_pos_site_id
 _symmetry_equiv_pos_as_xyz
  1  'x, y, z'
loop_
 _atom_site_type_symbol
 _atom_site_label
 _atom_site_symmetry_multiplicity
 _atom_site_fract_x
 _atom_site_fract_y
 _atom_site_fract_z
 _atom_site_occupancy
  Y  Y0  1  0.994847  0.670819  0.249231  1
  Y  Y1  1  0.005153  0.329181  0.750769  1
  Y  Y2  1  0.670819  0.994847  0.249231  1
  Y  Y3  1  0.329181  0.005153  0.750769  1
  Al  Al4  1  0.129778  0.129778  0.248241  1
  Al  Al5  1  0.870222  0.870222  0.751759  1
  Al  Al6  1  0.000469  0.338090  0.075680  1
  Al  Al7  1  0.999531  0.661910  0.924320  1
  Al  Al8  1  0.000203  0.662523  0.574526  1
  Al  Al9  1  0.337477  0.999797  0.425474  1
  Al  Al10  1  0.999797  0.337477  0.425474  1
  Al  Al11  1  0.662523  0.000203  0.574526  1
  Al  Al12  1  0.661910  0.999531  0.924320  1
  Al  Al13  1  0.338090  0.000469  0.075680  1
  Al  Al14  1  0.335970  0.335970  0.553453  1
  Al  Al15  1  0.664030  0.664030  0.446547  1
  Al  Al16  1  0.664190  0.664190  0.054563  1
  Al  Al17  1  0.335810  0.335810  0.945437  1
  Al  Al18  1  0.338515  0.548176  0.249945  1
  Al  Al19  1  0.661485  0.451824  0.750055  1
  Al  Al20  1  0.548176  0.338515  0.249945  1
  Al  Al21  1  0.451824  0.661485  0.750055  1
  Cu  Cu22  1  0.000000  0.000000  0.000000  1
  Ir  Ir23  1  0.671665  0.328335  0.000000  1
  Ir  Ir24  1  0.328335  0.671665  0.000000  1
  Ir  Ir25  1  0.328320  0.671680  0.500000  1
  Ir  Ir26  1  0.671680  0.328320  0.500000  1
  Pt  Pt27  1  0.000000  0.000000  0.500000  1
