# generated using pymatgen
data_Yb10ZnNi4Sb
_symmetry_space_group_name_H-M   'P 1'
_cell_length_a   8.85411547
_cell_length_b   8.85411533
_cell_length_c   8.85411500
_cell_angle_alpha   129.16769694
_cell_angle_beta   129.16769619
_cell_angle_gamma   74.74089438
_symmetry_Int_Tables_number   1
_chemical_formula_structural   Yb10ZnNi4Sb
_chemical_formula_sum   'Yb10 Zn1 Ni4 Sb1'
_cell_volume   406.45514601
_cell_formula_units_Z   1
loop_
 _symmetry_equiv_pos_site_id
 _symmetry_equiv_pos_as_xyz
  1  'x, y, z'
loop_
 _atom_site_type_symbol
 _atom_site_label
 _atom_site_symmetry_multiplicity
 _atom_site_fract_x
 _atom_site_fract_y
 _atom_site_fract_z
 _atom_site_occupancy
  Yb  Yb0  1  0.495722  0.495722  0.000000  1
  Yb  Yb1  1  0.004278  0.004278  0.000000  1
  Yb  Yb2  1  0.540549  0.035055  0.841119  1
  Yb  Yb3  1  0.193937  0.699431  0.158881  1
  Yb  Yb4  1  0.035055  0.193937  0.494506  1
  Yb  Yb5  1  0.699431  0.540549  0.505494  1
  Yb  Yb6  1  0.464945  0.959451  0.158881  1
  Yb  Yb7  1  0.800569  0.306063  0.841119  1
  Yb  Yb8  1  0.959451  0.800569  0.494506  1
  Yb  Yb9  1  0.306063  0.464945  0.505494  1
  Zn  Zn10  1  0.750000  0.750000  0.000000  1
  Ni  Ni11  1  0.112448  0.612448  0.724897  1
  Ni  Ni12  1  0.887552  0.387552  0.275103  1
  Ni  Ni13  1  0.612448  0.887552  0.500000  1
  Ni  Ni14  1  0.387552  0.112448  0.500000  1
  Sb  Sb15  1  0.250000  0.250000  0.000000  1
