# generated using pymatgen
data_La4YTm5Pb8
_symmetry_space_group_name_H-M   'P 1'
_cell_length_a   8.25632400
_cell_length_b   15.71275400
_cell_length_c   8.35171500
_cell_angle_alpha   90.00000000
_cell_angle_beta   90.00000000
_cell_angle_gamma   90.00000000
_symmetry_Int_Tables_number   1
_chemical_formula_structural   La4YTm5Pb8
_chemical_formula_sum   'La8 Y2 Tm10 Pb16'
_cell_volume   1083.46454568
_cell_formula_units_Z   2
loop_
 _symmetry_equiv_pos_site_id
 _symmetry_equiv_pos_as_xyz
  1  'x, y, z'
loop_
 _atom_site_type_symbol
 _atom_site_label
 _atom_site_symmetry_multiplicity
 _atom_site_fract_x
 _atom_site_fract_y
 _atom_site_fract_z
 _atom_site_occupancy
  La  La0  1  0.483859  0.595221  0.678324  1
  La  La1  1  0.983859  0.904779  0.821676  1
  La  La2  1  0.517219  0.095410  0.323624  1
  La  La3  1  0.017219  0.404590  0.176376  1
  La  La4  1  0.517219  0.404590  0.323624  1
  La  La5  1  0.017219  0.095410  0.176376  1
  La  La6  1  0.483859  0.904779  0.678324  1
  La  La7  1  0.983859  0.595221  0.821676  1
  Y  Y8  1  0.192413  0.250000  0.504823  1
  Y  Y9  1  0.692413  0.250000  0.995177  1
  Tm  Tm10  1  0.641724  0.623670  0.158169  1
  Tm  Tm11  1  0.141724  0.876330  0.341831  1
  Tm  Tm12  1  0.357501  0.123377  0.842164  1
  Tm  Tm13  1  0.857501  0.376623  0.657836  1
  Tm  Tm14  1  0.357501  0.376623  0.842164  1
  Tm  Tm15  1  0.857501  0.123377  0.657836  1
  Tm  Tm16  1  0.641724  0.876330  0.158169  1
  Tm  Tm17  1  0.141724  0.623670  0.341831  1
  Tm  Tm18  1  0.807099  0.750000  0.494584  1
  Tm  Tm19  1  0.307099  0.750000  0.005416  1
  Pb  Pb20  1  0.696812  0.456958  0.955496  1
  Pb  Pb21  1  0.196812  0.043042  0.544504  1
  Pb  Pb22  1  0.302989  0.956192  0.044219  1
  Pb  Pb23  1  0.802989  0.543808  0.455781  1
  Pb  Pb24  1  0.302989  0.543808  0.044219  1
  Pb  Pb25  1  0.802989  0.956192  0.455781  1
  Pb  Pb26  1  0.696812  0.043042  0.955496  1
  Pb  Pb27  1  0.196812  0.456958  0.544504  1
  Pb  Pb28  1  0.445368  0.750000  0.370173  1
  Pb  Pb29  1  0.945368  0.750000  0.129827  1
  Pb  Pb30  1  0.554475  0.250000  0.630608  1
  Pb  Pb31  1  0.054475  0.250000  0.869392  1
  Pb  Pb32  1  0.671008  0.750000  0.852138  1
  Pb  Pb33  1  0.171008  0.750000  0.647862  1
  Pb  Pb34  1  0.329429  0.250000  0.147547  1
  Pb  Pb35  1  0.829429  0.250000  0.352453  1
