# generated using pymatgen
data_Ho2Er3GaBi2
_symmetry_space_group_name_H-M   'P 1'
_cell_length_a   8.03829300
_cell_length_b   9.24261400
_cell_length_c   12.03100200
_cell_angle_alpha   90.00000000
_cell_angle_beta   90.00000000
_cell_angle_gamma   90.00000000
_symmetry_Int_Tables_number   1
_chemical_formula_structural   Ho2Er3GaBi2
_chemical_formula_sum   'Ho8 Er12 Ga4 Bi8'
_cell_volume   893.84136163
_cell_formula_units_Z   4
loop_
 _symmetry_equiv_pos_site_id
 _symmetry_equiv_pos_as_xyz
  1  'x, y, z'
loop_
 _atom_site_type_symbol
 _atom_site_label
 _atom_site_symmetry_multiplicity
 _atom_site_fract_x
 _atom_site_fract_y
 _atom_site_fract_z
 _atom_site_occupancy
  Ho  Ho0  1  0.667978  0.750000  0.715690  1
  Ho  Ho1  1  0.332022  0.250000  0.284310  1
  Ho  Ho2  1  0.167978  0.250000  0.784310  1
  Ho  Ho3  1  0.832022  0.750000  0.215690  1
  Ho  Ho4  1  0.143232  0.750000  0.795004  1
  Ho  Ho5  1  0.856768  0.250000  0.204996  1
  Ho  Ho6  1  0.643232  0.250000  0.704996  1
  Ho  Ho7  1  0.356768  0.750000  0.295004  1
  Er  Er8  1  0.540235  0.750000  0.002553  1
  Er  Er9  1  0.459765  0.250000  0.997447  1
  Er  Er10  1  0.040235  0.250000  0.497447  1
  Er  Er11  1  0.959765  0.750000  0.502553  1
  Er  Er12  1  0.819301  0.446533  0.936041  1
  Er  Er13  1  0.180699  0.553467  0.063959  1
  Er  Er14  1  0.319301  0.553467  0.563959  1
  Er  Er15  1  0.180699  0.946533  0.063959  1
  Er  Er16  1  0.680699  0.446533  0.436041  1
  Er  Er17  1  0.819301  0.053467  0.936041  1
  Er  Er18  1  0.680699  0.053467  0.436041  1
  Er  Er19  1  0.319301  0.946533  0.563959  1
  Ga  Ga20  1  0.908777  0.750000  0.975822  1
  Ga  Ga21  1  0.091223  0.250000  0.024178  1
  Ga  Ga22  1  0.408777  0.250000  0.524178  1
  Ga  Ga23  1  0.591223  0.750000  0.475822  1
  Bi  Bi24  1  0.935312  0.008717  0.673953  1
  Bi  Bi25  1  0.064688  0.991283  0.326047  1
  Bi  Bi26  1  0.435312  0.991283  0.826047  1
  Bi  Bi27  1  0.064688  0.508717  0.326047  1
  Bi  Bi28  1  0.564688  0.008717  0.173953  1
  Bi  Bi29  1  0.935312  0.491283  0.673953  1
  Bi  Bi30  1  0.564688  0.491283  0.173953  1
  Bi  Bi31  1  0.435312  0.508717  0.826047  1
