# generated using pymatgen
data_Tb7Ce2Dy7(MgCo)4
_symmetry_space_group_name_H-M   'P 1'
_cell_length_a   9.51481188
_cell_length_b   9.73896946
_cell_length_c   9.74090573
_cell_angle_alpha   58.47661162
_cell_angle_beta   60.74754848
_cell_angle_gamma   60.77186316
_symmetry_Int_Tables_number   1
_chemical_formula_structural   Tb7Ce2Dy7(MgCo)4
_chemical_formula_sum   'Tb7 Ce2 Dy7 Mg4 Co4'
_cell_volume   637.57514347
_cell_formula_units_Z   1
loop_
 _symmetry_equiv_pos_site_id
 _symmetry_equiv_pos_as_xyz
  1  'x, y, z'
loop_
 _atom_site_type_symbol
 _atom_site_label
 _atom_site_symmetry_multiplicity
 _atom_site_fract_x
 _atom_site_fract_y
 _atom_site_fract_z
 _atom_site_occupancy
  Tb  Tb0  1  0.188710  0.811290  0.188710  1
  Tb  Tb1  1  0.810913  0.189087  0.810913  1
  Tb  Tb2  1  0.188129  0.189647  0.810675  1
  Tb  Tb3  1  0.810675  0.811548  0.188129  1
  Tb  Tb4  1  0.924339  0.575854  0.575672  1
  Tb  Tb5  1  0.575672  0.924135  0.924339  1
  Tb  Tb6  1  0.558659  0.941341  0.558659  1
  Ce  Ce7  1  0.817859  0.181780  0.182433  1
  Ce  Ce8  1  0.182433  0.817928  0.817859  1
  Dy  Dy9  1  0.941597  0.558403  0.941597  1
  Dy  Dy10  1  0.558315  0.558311  0.942356  1
  Dy  Dy11  1  0.942356  0.941018  0.558315  1
  Dy  Dy12  1  0.332742  0.347594  0.347809  1
  Dy  Dy13  1  0.348273  0.332715  0.971167  1
  Dy  Dy14  1  0.347809  0.971856  0.332742  1
  Dy  Dy15  1  0.971167  0.347845  0.348273  1
  Mg  Mg16  1  0.581626  0.578297  0.578158  1
  Mg  Mg17  1  0.578286  0.581585  0.261636  1
  Mg  Mg18  1  0.578158  0.261919  0.581626  1
  Mg  Mg19  1  0.261636  0.578492  0.578286  1
  Co  Co20  1  0.091309  0.156832  0.156800  1
  Co  Co21  1  0.155916  0.091129  0.596622  1
  Co  Co22  1  0.156800  0.595058  0.091309  1
  Co  Co23  1  0.596622  0.156334  0.155916  1
