# generated using pymatgen
data_Sr9Tm(PN5)2
_symmetry_space_group_name_H-M   'P 1'
_cell_length_a   7.49073310
_cell_length_b   7.49073216
_cell_length_c   8.50126519
_cell_angle_alpha   76.51261669
_cell_angle_beta   76.51261984
_cell_angle_gamma   95.25534318
_symmetry_Int_Tables_number   1
_chemical_formula_structural   Sr9Tm(PN5)2
_chemical_formula_sum   'Sr9 Tm1 P2 N10'
_cell_volume   445.65876406
_cell_formula_units_Z   1
loop_
 _symmetry_equiv_pos_site_id
 _symmetry_equiv_pos_as_xyz
  1  'x, y, z'
loop_
 _atom_site_type_symbol
 _atom_site_label
 _atom_site_symmetry_multiplicity
 _atom_site_fract_x
 _atom_site_fract_y
 _atom_site_fract_z
 _atom_site_occupancy
  Sr  Sr0  1  0.599013  0.599013  0.628518  1
  Sr  Sr1  1  0.679019  0.679019  0.997120  1
  Sr  Sr2  1  0.327112  0.327112  0.998100  1
  Sr  Sr3  1  0.924608  0.924608  0.201446  1
  Sr  Sr4  1  0.073236  0.073236  0.794689  1
  Sr  Sr5  1  0.551423  0.087551  0.756634  1
  Sr  Sr6  1  0.914981  0.443378  0.247190  1
  Sr  Sr7  1  0.443378  0.914981  0.247190  1
  Sr  Sr8  1  0.087551  0.551423  0.756634  1
  Tm  Tm9  1  0.425149  0.425149  0.356141  1
  P  P10  1  0.755560  0.242355  0.004495  1
  P  P11  1  0.242355  0.755560  0.004495  1
  N  N12  1  0.647760  0.647760  0.320956  1
  N  N13  1  0.341464  0.341464  0.640933  1
  N  N14  1  0.719012  0.023851  0.991494  1
  N  N15  1  0.974838  0.275518  0.019415  1
  N  N16  1  0.275518  0.974838  0.019415  1
  N  N17  1  0.023851  0.719012  0.991494  1
  N  N18  1  0.391334  0.726197  0.835487  1
  N  N19  1  0.275857  0.600783  0.176331  1
  N  N20  1  0.600783  0.275857  0.176331  1
  N  N21  1  0.726197  0.391334  0.835487  1
