# generated using pymatgen
data_Nd20Ir7Ru4Pt
_symmetry_space_group_name_H-M   'P 1'
_cell_length_a   11.24526097
_cell_length_b   11.24526099
_cell_length_c   6.65592364
_cell_angle_alpha   89.90780151
_cell_angle_beta   89.90779989
_cell_angle_gamma   90.01120998
_symmetry_Int_Tables_number   1
_chemical_formula_structural   Nd20Ir7Ru4Pt
_chemical_formula_sum   'Nd20 Ir7 Ru4 Pt1'
_cell_volume   841.67858171
_cell_formula_units_Z   1
loop_
 _symmetry_equiv_pos_site_id
 _symmetry_equiv_pos_as_xyz
  1  'x, y, z'
loop_
 _atom_site_type_symbol
 _atom_site_label
 _atom_site_symmetry_multiplicity
 _atom_site_fract_x
 _atom_site_fract_y
 _atom_site_fract_z
 _atom_site_occupancy
  Nd  Nd0  1  0.088190  0.292900  0.115921  1
  Nd  Nd1  1  0.793341  0.411000  0.115653  1
  Nd  Nd2  1  0.206633  0.584909  0.115600  1
  Nd  Nd3  1  0.908656  0.705398  0.115004  1
  Nd  Nd4  1  0.415091  0.793367  0.384400  1
  Nd  Nd5  1  0.589000  0.206659  0.384347  1
  Nd  Nd6  1  0.294602  0.091344  0.384996  1
  Nd  Nd7  1  0.707100  0.911810  0.384079  1
  Nd  Nd8  1  0.411758  0.206976  0.884527  1
  Nd  Nd9  1  0.705760  0.088498  0.884061  1
  Nd  Nd10  1  0.296057  0.913114  0.878597  1
  Nd  Nd11  1  0.588665  0.793122  0.884674  1
  Nd  Nd12  1  0.086886  0.703943  0.621403  1
  Nd  Nd13  1  0.911502  0.294240  0.615939  1
  Nd  Nd14  1  0.206878  0.411335  0.615326  1
  Nd  Nd15  1  0.793024  0.588242  0.615473  1
  Nd  Nd16  1  0.998454  0.001362  0.999390  1
  Nd  Nd17  1  0.500203  0.499842  0.999643  1
  Nd  Nd18  1  0.500158  0.499797  0.500357  1
  Nd  Nd19  1  0.998638  0.001546  0.500610  1
  Ir  Ir20  1  0.347265  0.347595  0.249968  1
  Ir  Ir21  1  0.652405  0.652735  0.250032  1
  Ir  Ir22  1  0.847404  0.152596  0.250000  1
  Ir  Ir23  1  0.346618  0.653382  0.750000  1
  Ir  Ir24  1  0.152189  0.152002  0.749810  1
  Ir  Ir25  1  0.847998  0.847811  0.750190  1
  Ir  Ir26  1  0.652808  0.347192  0.750000  1
  Ru  Ru27  1  0.000281  0.500573  0.377707  1
  Ru  Ru28  1  0.499427  0.999719  0.122293  1
  Ru  Ru29  1  0.499379  0.999796  0.621660  1
  Ru  Ru30  1  0.000204  0.500621  0.878340  1
  Pt  Pt31  1  0.153432  0.846568  0.250000  1
