# generated using pymatgen
data_Nd2Ga5Ni3
_symmetry_space_group_name_H-M   'P 1'
_cell_length_a   8.36145211
_cell_length_b   8.36145201
_cell_length_c   8.36145249
_cell_angle_alpha   139.14890952
_cell_angle_beta   106.91574100
_cell_angle_gamma   87.28447234
_symmetry_Int_Tables_number   1
_chemical_formula_structural   Nd2Ga5Ni3
_chemical_formula_sum   'Nd4 Ga10 Ni6'
_cell_volume   351.61982798
_cell_formula_units_Z   2
loop_
 _symmetry_equiv_pos_site_id
 _symmetry_equiv_pos_as_xyz
  1  'x, y, z'
loop_
 _atom_site_type_symbol
 _atom_site_label
 _atom_site_symmetry_multiplicity
 _atom_site_fract_x
 _atom_site_fract_y
 _atom_site_fract_z
 _atom_site_occupancy
  Nd  Nd0  1  0.632964  0.866870  0.766095  1
  Nd  Nd1  1  0.367036  0.133130  0.233905  1
  Nd  Nd2  1  0.100775  0.366870  0.733905  1
  Nd  Nd3  1  0.899225  0.633130  0.266095  1
  Ga  Ga4  1  0.270937  0.020937  0.750000  1
  Ga  Ga5  1  0.729063  0.979063  0.250000  1
  Ga  Ga6  1  0.729063  0.479063  0.750000  1
  Ga  Ga7  1  0.270937  0.520937  0.250000  1
  Ga  Ga8  1  0.446860  0.600558  0.846301  1
  Ga  Ga9  1  0.553140  0.399442  0.153699  1
  Ga  Ga10  1  0.754257  0.100558  0.653699  1
  Ga  Ga11  1  0.245743  0.899442  0.346301  1
  Ga  Ga12  1  0.000000  0.750000  0.750000  1
  Ga  Ga13  1  0.000000  0.250000  0.250000  1
  Ni  Ni14  1  0.244319  0.635835  0.608484  1
  Ni  Ni15  1  0.755681  0.364165  0.391516  1
  Ni  Ni16  1  0.027351  0.135835  0.891516  1
  Ni  Ni17  1  0.972649  0.864165  0.108484  1
  Ni  Ni18  1  0.500000  0.750000  0.250000  1
  Ni  Ni19  1  0.500000  0.250000  0.750000  1
