# generated using pymatgen
data_Sm3Co3Cu7Ni3B2
_symmetry_space_group_name_H-M   'P 1'
_cell_length_a   5.05491000
_cell_length_b   5.05491096
_cell_length_c   11.03371900
_cell_angle_alpha   90.00000000
_cell_angle_beta   90.00000000
_cell_angle_gamma   120.00000683
_symmetry_Int_Tables_number   1
_chemical_formula_structural   Sm3Co3Cu7Ni3B2
_chemical_formula_sum   'Sm3 Co3 Cu7 Ni3 B2'
_cell_volume   244.16277855
_cell_formula_units_Z   1
loop_
 _symmetry_equiv_pos_site_id
 _symmetry_equiv_pos_as_xyz
  1  'x, y, z'
loop_
 _atom_site_type_symbol
 _atom_site_label
 _atom_site_symmetry_multiplicity
 _atom_site_fract_x
 _atom_site_fract_y
 _atom_site_fract_z
 _atom_site_occupancy
  Sm  Sm0  1  0.000000  0.000000  0.998314  1
  Sm  Sm1  1  0.000000  0.000000  0.696890  1
  Sm  Sm2  1  0.000000  0.000000  0.315459  1
  Co  Co3  1  0.500000  0.500000  0.870812  1
  Co  Co4  1  0.500000  0.000000  0.870812  1
  Co  Co5  1  0.000000  0.500000  0.870812  1
  Cu  Cu6  1  0.500000  0.500000  0.500104  1
  Cu  Cu7  1  0.500000  0.000000  0.500104  1
  Cu  Cu8  1  0.000000  0.500000  0.500104  1
  Cu  Cu9  1  0.666667  0.333333  0.685677  1
  Cu  Cu10  1  0.333333  0.666667  0.685677  1
  Cu  Cu11  1  0.333333  0.666667  0.313792  1
  Cu  Cu12  1  0.666667  0.333333  0.313792  1
  Ni  Ni13  1  0.500000  0.500000  0.128660  1
  Ni  Ni14  1  0.500000  0.000000  0.128660  1
  Ni  Ni15  1  0.000000  0.500000  0.128660  1
  B  B16  1  0.666667  0.333333  0.995834  1
  B  B17  1  0.333333  0.666667  0.995834  1
