# generated using pymatgen
data_LuCu4Hg
_symmetry_space_group_name_H-M   'P 1'
_cell_length_a   5.06050700
_cell_length_b   5.06050663
_cell_length_c   5.06050700
_cell_angle_alpha   119.99999588
_cell_angle_beta   90.00000000
_cell_angle_gamma   119.99999588
_symmetry_Int_Tables_number   1
_chemical_formula_structural   LuCu4Hg
_chemical_formula_sum   'Lu1 Cu4 Hg1'
_cell_volume   91.63620905
_cell_formula_units_Z   1
loop_
 _symmetry_equiv_pos_site_id
 _symmetry_equiv_pos_as_xyz
  1  'x, y, z'
loop_
 _atom_site_type_symbol
 _atom_site_label
 _atom_site_symmetry_multiplicity
 _atom_site_fract_x
 _atom_site_fract_y
 _atom_site_fract_z
 _atom_site_occupancy
  Lu  Lu0  1  0.000000  0.000000  0.000000  1
  Cu  Cu1  1  0.375210  0.750420  0.125631  1
  Cu  Cu2  1  0.375210  0.249580  0.624789  1
  Cu  Cu3  1  0.874369  0.249580  0.624789  1
  Cu  Cu4  1  0.375210  0.750420  0.624789  1
  Hg  Hg5  1  0.750002  0.500001  0.250001  1
