# generated using pymatgen
data_Y2Er3(In2Rh)2
_symmetry_space_group_name_H-M   'P 1'
_cell_length_a   3.62263400
_cell_length_b   8.03783522
_cell_length_c   18.24447912
_cell_angle_alpha   89.74139537
_cell_angle_beta   90.00000000
_cell_angle_gamma   90.00000000
_symmetry_Int_Tables_number   1
_chemical_formula_structural   Y2Er3(In2Rh)2
_chemical_formula_sum   'Y4 Er6 In8 Rh4'
_cell_volume   531.23979755
_cell_formula_units_Z   2
loop_
 _symmetry_equiv_pos_site_id
 _symmetry_equiv_pos_as_xyz
  1  'x, y, z'
loop_
 _atom_site_type_symbol
 _atom_site_label
 _atom_site_symmetry_multiplicity
 _atom_site_fract_x
 _atom_site_fract_y
 _atom_site_fract_z
 _atom_site_occupancy
  Y  Y0  1  0.000000  0.500000  0.500000  1
  Y  Y1  1  0.000000  0.000000  0.000000  1
  Y  Y2  1  0.000000  0.745754  0.279440  1
  Y  Y3  1  0.000000  0.254246  0.720560  1
  Er  Er4  1  0.000000  0.754526  0.778490  1
  Er  Er5  1  0.000000  0.245474  0.221510  1
  Er  Er6  1  0.000000  0.615368  0.089380  1
  Er  Er7  1  0.000000  0.384632  0.910620  1
  Er  Er8  1  0.000000  0.882531  0.588725  1
  Er  Er9  1  0.000000  0.117469  0.411275  1
  In  In10  1  0.500000  0.706306  0.932269  1
  In  In11  1  0.500000  0.293694  0.067731  1
  In  In12  1  0.500000  0.796006  0.432572  1
  In  In13  1  0.500000  0.203994  0.567428  1
  In  In14  1  0.500000  0.573689  0.650500  1
  In  In15  1  0.500000  0.426311  0.349500  1
  In  In16  1  0.500000  0.927967  0.150833  1
  In  In17  1  0.500000  0.072033  0.849167  1
  Rh  Rh18  1  0.500000  0.517863  0.194275  1
  Rh  Rh19  1  0.500000  0.482137  0.805725  1
  Rh  Rh20  1  0.500000  0.971842  0.694800  1
  Rh  Rh21  1  0.500000  0.028158  0.305200  1
