# generated using pymatgen
data_CsPa2Se3
_symmetry_space_group_name_H-M   'P 1'
_cell_length_a   4.18457600
_cell_length_b   4.18457503
_cell_length_c   11.61218300
_cell_angle_alpha   90.00000000
_cell_angle_beta   90.00000000
_cell_angle_gamma   120.00000767
_symmetry_Int_Tables_number   1
_chemical_formula_structural   CsPa2Se3
_chemical_formula_sum   'Cs1 Pa2 Se3'
_cell_volume   176.09510695
_cell_formula_units_Z   1
loop_
 _symmetry_equiv_pos_site_id
 _symmetry_equiv_pos_as_xyz
  1  'x, y, z'
loop_
 _atom_site_type_symbol
 _atom_site_label
 _atom_site_symmetry_multiplicity
 _atom_site_fract_x
 _atom_site_fract_y
 _atom_site_fract_z
 _atom_site_occupancy
  Cs  Cs0  1  0.000000  0.000000  0.000000  1
  Pa  Pa1  1  0.333333  0.666667  0.628705  1
  Pa  Pa2  1  0.666667  0.333333  0.371295  1
  Se  Se3  1  0.333333  0.666667  0.227434  1
  Se  Se4  1  0.666667  0.333333  0.772566  1
  Se  Se5  1  0.000000  0.000000  0.500000  1
