# generated using pymatgen
data_CaAc(Al5Ru)4
_symmetry_space_group_name_H-M   'P 1'
_cell_length_a   6.92246408
_cell_length_b   6.92246398
_cell_length_c   9.24259200
_cell_angle_alpha   90.00000000
_cell_angle_beta   90.00000000
_cell_angle_gamma   96.71716917
_symmetry_Int_Tables_number   1
_chemical_formula_structural   CaAc(Al5Ru)4
_chemical_formula_sum   'Ca1 Ac1 Al20 Ru4'
_cell_volume   439.86941625
_cell_formula_units_Z   1
loop_
 _symmetry_equiv_pos_site_id
 _symmetry_equiv_pos_as_xyz
  1  'x, y, z'
loop_
 _atom_site_type_symbol
 _atom_site_label
 _atom_site_symmetry_multiplicity
 _atom_site_fract_x
 _atom_site_fract_y
 _atom_site_fract_z
 _atom_site_occupancy
  Ca  Ca0  1  0.876263  0.123737  0.750000  1
  Ac  Ac1  1  0.120735  0.879265  0.250000  1
  Al  Al2  1  0.623005  0.376995  0.548294  1
  Al  Al3  1  0.379154  0.620846  0.451587  1
  Al  Al4  1  0.379154  0.620846  0.048413  1
  Al  Al5  1  0.623005  0.376995  0.951706  1
  Al  Al6  1  0.226561  0.229580  0.504737  1
  Al  Al7  1  0.770420  0.773439  0.504737  1
  Al  Al8  1  0.770420  0.773439  0.995263  1
  Al  Al9  1  0.226561  0.229580  0.995263  1
  Al  Al10  1  0.837552  0.162448  0.098235  1
  Al  Al11  1  0.161281  0.838719  0.896205  1
  Al  Al12  1  0.161281  0.838719  0.603795  1
  Al  Al13  1  0.837552  0.162448  0.401765  1
  Al  Al14  1  0.860251  0.584667  0.750000  1
  Al  Al15  1  0.139528  0.406841  0.250000  1
  Al  Al16  1  0.415333  0.139749  0.750000  1
  Al  Al17  1  0.593159  0.860472  0.250000  1
  Al  Al18  1  0.219421  0.477894  0.750000  1
  Al  Al19  1  0.776275  0.515678  0.250000  1
  Al  Al20  1  0.522106  0.780579  0.750000  1
  Al  Al21  1  0.484322  0.223725  0.250000  1
  Ru  Ru22  1  0.999449  0.501119  0.501467  1
  Ru  Ru23  1  0.999449  0.501119  0.998533  1
  Ru  Ru24  1  0.498881  0.000551  0.998533  1
  Ru  Ru25  1  0.498881  0.000551  0.501467  1
