# generated using pymatgen
data_Ho(Zn2Co)4
_symmetry_space_group_name_H-M   'P 1'
_cell_length_a   6.61332599
_cell_length_b   6.61332659
_cell_length_c   6.61332666
_cell_angle_alpha   98.12514645
_cell_angle_beta   98.12514873
_cell_angle_gamma   135.83435748
_symmetry_Int_Tables_number   1
_chemical_formula_structural   Ho(Zn2Co)4
_chemical_formula_sum   'Ho1 Zn8 Co4'
_cell_volume   186.74081141
_cell_formula_units_Z   1
loop_
 _symmetry_equiv_pos_site_id
 _symmetry_equiv_pos_as_xyz
  1  'x, y, z'
loop_
 _atom_site_type_symbol
 _atom_site_label
 _atom_site_symmetry_multiplicity
 _atom_site_fract_x
 _atom_site_fract_y
 _atom_site_fract_z
 _atom_site_occupancy
  Ho  Ho0  1  0.000000  0.000000  0.000000  1
  Zn  Zn1  1  0.000000  0.340352  0.340352  1
  Zn  Zn2  1  0.000000  0.659648  0.659648  1
  Zn  Zn3  1  0.659648  0.000000  0.659648  1
  Zn  Zn4  1  0.340352  0.000000  0.340352  1
  Zn  Zn5  1  0.500000  0.275199  0.775199  1
  Zn  Zn6  1  0.500000  0.724801  0.224801  1
  Zn  Zn7  1  0.724801  0.500000  0.224801  1
  Zn  Zn8  1  0.275199  0.500000  0.775199  1
  Co  Co9  1  0.000000  0.000000  0.500000  1
  Co  Co10  1  0.500000  0.500000  0.500000  1
  Co  Co11  1  0.500000  0.000000  0.000000  1
  Co  Co12  1  0.000000  0.500000  0.000000  1
