# generated using pymatgen
data_Dy3Ho3Er4(CoSb2)2
_symmetry_space_group_name_H-M   'P 1'
_cell_length_a   7.83345000
_cell_length_b   8.74419800
_cell_length_c   12.13399400
_cell_angle_alpha   90.00000000
_cell_angle_beta   90.00000000
_cell_angle_gamma   90.00000000
_symmetry_Int_Tables_number   1
_chemical_formula_structural   Dy3Ho3Er4(CoSb2)2
_chemical_formula_sum   'Dy6 Ho6 Er8 Co4 Sb8'
_cell_volume   831.14507276
_cell_formula_units_Z   2
loop_
 _symmetry_equiv_pos_site_id
 _symmetry_equiv_pos_as_xyz
  1  'x, y, z'
loop_
 _atom_site_type_symbol
 _atom_site_label
 _atom_site_symmetry_multiplicity
 _atom_site_fract_x
 _atom_site_fract_y
 _atom_site_fract_z
 _atom_site_occupancy
  Dy  Dy0  1  0.546904  0.250000  0.001820  1
  Dy  Dy1  1  0.953096  0.250000  0.501820  1
  Dy  Dy2  1  0.621454  0.750000  0.307347  1
  Dy  Dy3  1  0.878546  0.750000  0.807347  1
  Dy  Dy4  1  0.378504  0.250000  0.692635  1
  Dy  Dy5  1  0.121496  0.250000  0.192635  1
  Ho  Ho6  1  0.154575  0.750000  0.203226  1
  Ho  Ho7  1  0.345425  0.750000  0.703226  1
  Ho  Ho8  1  0.845529  0.250000  0.796761  1
  Ho  Ho9  1  0.654471  0.250000  0.296761  1
  Ho  Ho10  1  0.453031  0.750000  0.998185  1
  Ho  Ho11  1  0.046969  0.750000  0.498185  1
  Er  Er12  1  0.822724  0.535973  0.065355  1
  Er  Er13  1  0.677276  0.964027  0.565355  1
  Er  Er14  1  0.177412  0.035317  0.934722  1
  Er  Er15  1  0.322588  0.464683  0.434722  1
  Er  Er16  1  0.177412  0.464683  0.934722  1
  Er  Er17  1  0.322588  0.035317  0.434722  1
  Er  Er18  1  0.822724  0.964027  0.065355  1
  Er  Er19  1  0.677276  0.535973  0.565355  1
  Co  Co20  1  0.434259  0.750000  0.491387  1
  Co  Co21  1  0.065741  0.750000  0.991387  1
  Co  Co22  1  0.565497  0.250000  0.508609  1
  Co  Co23  1  0.934503  0.250000  0.008609  1
  Sb  Sb24  1  0.929356  0.508871  0.327057  1
  Sb  Sb25  1  0.570644  0.991129  0.827057  1
  Sb  Sb26  1  0.070915  0.007922  0.672881  1
  Sb  Sb27  1  0.429085  0.492078  0.172881  1
  Sb  Sb28  1  0.070915  0.492078  0.672881  1
  Sb  Sb29  1  0.429085  0.007922  0.172881  1
  Sb  Sb30  1  0.929356  0.991129  0.327057  1
  Sb  Sb31  1  0.570644  0.508871  0.827057  1
