# generated using pymatgen
data_Ac10Si16Ir
_symmetry_space_group_name_H-M   'P 1'
_cell_length_a   7.27026668
_cell_length_b   8.84938674
_cell_length_c   11.95081800
_cell_angle_alpha   111.73053136
_cell_angle_beta   107.70850070
_cell_angle_gamma   90.00000364
_symmetry_Int_Tables_number   1
_chemical_formula_structural   Ac10Si16Ir
_chemical_formula_sum   'Ac10 Si16 Ir1'
_cell_volume   674.86822649
_cell_formula_units_Z   1
loop_
 _symmetry_equiv_pos_site_id
 _symmetry_equiv_pos_as_xyz
  1  'x, y, z'
loop_
 _atom_site_type_symbol
 _atom_site_label
 _atom_site_symmetry_multiplicity
 _atom_site_fract_x
 _atom_site_fract_y
 _atom_site_fract_z
 _atom_site_occupancy
  Ac  Ac0  1  0.237548  0.248490  0.000000  1
  Ac  Ac1  1  0.237548  0.751510  0.000000  1
  Ac  Ac2  1  0.835210  0.348303  0.199961  1
  Ac  Ac3  1  0.835210  0.851659  0.199961  1
  Ac  Ac4  1  0.433739  0.450791  0.400667  1
  Ac  Ac5  1  0.433739  0.949876  0.400667  1
  Ac  Ac6  1  0.033073  0.050124  0.599334  1
  Ac  Ac7  1  0.033073  0.549209  0.599334  1
  Ac  Ac8  1  0.635248  0.148341  0.800038  1
  Ac  Ac9  1  0.635248  0.651698  0.800038  1
  Si  Si10  1  0.910993  0.000000  0.000000  1
  Si  Si11  1  0.575497  0.500000  0.000000  1
  Si  Si12  1  0.165135  0.597976  0.195951  1
  Si  Si13  1  0.500993  0.599737  0.199475  1
  Si  Si14  1  0.497737  0.097258  0.194516  1
  Si  Si15  1  0.173608  0.103099  0.206198  1
  Si  Si16  1  0.759940  0.199275  0.398550  1
  Si  Si17  1  0.098493  0.699218  0.398438  1
  Si  Si18  1  0.762662  0.699751  0.399503  1
  Si  Si19  1  0.363160  0.300249  0.600497  1
  Si  Si20  1  0.700056  0.300782  0.601561  1
  Si  Si21  1  0.361390  0.800725  0.601450  1
  Si  Si22  1  0.967410  0.896901  0.793802  1
  Si  Si23  1  0.303220  0.902741  0.805483  1
  Si  Si24  1  0.301518  0.400263  0.800526  1
  Si  Si25  1  0.969185  0.402024  0.804049  1
  Ir  Ir26  1  0.577872  0.000000  0.000000  1
