# generated using pymatgen
data_CsLaSm9(C2I9)2
_symmetry_space_group_name_H-M   'P 1'
_cell_length_a   11.58205909
_cell_length_b   11.63722709
_cell_length_c   11.72305847
_cell_angle_alpha   113.14167190
_cell_angle_beta   87.13820611
_cell_angle_gamma   119.44661329
_symmetry_Int_Tables_number   1
_chemical_formula_structural   CsLaSm9(C2I9)2
_chemical_formula_sum   'Cs1 La1 Sm9 C4 I18'
_cell_volume   1244.81337384
_cell_formula_units_Z   1
loop_
 _symmetry_equiv_pos_site_id
 _symmetry_equiv_pos_as_xyz
  1  'x, y, z'
loop_
 _atom_site_type_symbol
 _atom_site_label
 _atom_site_symmetry_multiplicity
 _atom_site_fract_x
 _atom_site_fract_y
 _atom_site_fract_z
 _atom_site_occupancy
  Cs  Cs0  1  0.500017  0.000274  0.499964  1
  La  La1  1  0.665069  0.718772  0.703141  1
  Sm  Sm2  1  0.277030  0.353857  0.016365  1
  Sm  Sm3  1  0.092639  0.395301  0.294326  1
  Sm  Sm4  1  0.965423  0.038874  0.324472  1
  Sm  Sm5  1  0.907722  0.604907  0.705956  1
  Sm  Sm6  1  0.108048  0.944530  0.001224  1
  Sm  Sm7  1  0.036129  0.961930  0.676511  1
  Sm  Sm8  1  0.327536  0.277371  0.291798  1
  Sm  Sm9  1  0.724395  0.646729  0.984680  1
  Sm  Sm10  1  0.893692  0.056556  0.999989  1
  C  C11  1  0.152084  0.221358  0.124024  1
  C  C12  1  0.850145  0.779562  0.877304  1
  C  C13  1  0.923579  0.853624  0.803724  1
  C  C14  1  0.078626  0.147209  0.197653  1
  I  I15  1  0.444744  0.526430  0.833781  1
  I  I16  1  0.385433  0.037883  0.157940  1
  I  I17  1  0.777864  0.857962  0.497465  1
  I  I18  1  0.835693  0.311581  0.153761  1
  I  I19  1  0.551767  0.470204  0.169496  1
  I  I20  1  0.224997  0.145057  0.499430  1
  I  I21  1  0.317950  0.095398  0.831616  1
  I  I22  1  0.682546  0.904871  0.168414  1
  I  I23  1  0.978411  0.757636  0.169439  1
  I  I24  1  0.932514  0.299383  0.502471  1
  I  I25  1  0.021849  0.242348  0.830934  1
  I  I26  1  0.067657  0.700721  0.497520  1
  I  I27  1  0.261991  0.624501  0.184476  1
  I  I28  1  0.738036  0.375677  0.815643  1
  I  I29  1  0.639043  0.422759  0.491744  1
  I  I30  1  0.164906  0.688518  0.846480  1
  I  I31  1  0.613191  0.968999  0.845869  1
  I  I32  1  0.359275  0.569218  0.502389  1
