# generated using pymatgen
data_Ho4Al16GaSiRh6
_symmetry_space_group_name_H-M   'P 1'
_cell_length_a   7.52619013
_cell_length_b   7.52618267
_cell_length_c   9.41872300
_cell_angle_alpha   90.00000000
_cell_angle_beta   90.00000000
_cell_angle_gamma   119.47777659
_symmetry_Int_Tables_number   1
_chemical_formula_structural   Ho4Al16GaSiRh6
_chemical_formula_sum   'Ho4 Al16 Ga1 Si1 Rh6'
_cell_volume   464.44469038
_cell_formula_units_Z   1
loop_
 _symmetry_equiv_pos_site_id
 _symmetry_equiv_pos_as_xyz
  1  'x, y, z'
loop_
 _atom_site_type_symbol
 _atom_site_label
 _atom_site_symmetry_multiplicity
 _atom_site_fract_x
 _atom_site_fract_y
 _atom_site_fract_z
 _atom_site_occupancy
  Ho  Ho0  1  0.994501  0.676581  0.250000  1
  Ho  Ho1  1  0.003914  0.328077  0.750000  1
  Ho  Ho2  1  0.676581  0.994501  0.250000  1
  Ho  Ho3  1  0.328077  0.003913  0.750000  1
  Al  Al4  1  0.001108  0.337407  0.076879  1
  Al  Al5  1  0.998486  0.665332  0.925795  1
  Al  Al6  1  0.998486  0.665332  0.574205  1
  Al  Al7  1  0.337406  0.001108  0.423121  1
  Al  Al8  1  0.001108  0.337407  0.423121  1
  Al  Al9  1  0.665333  0.998487  0.574205  1
  Al  Al10  1  0.665333  0.998487  0.925795  1
  Al  Al11  1  0.337406  0.001108  0.076879  1
  Al  Al12  1  0.332541  0.332541  0.556129  1
  Al  Al13  1  0.663300  0.663300  0.446594  1
  Al  Al14  1  0.663300  0.663300  0.053406  1
  Al  Al15  1  0.332541  0.332541  0.943871  1
  Al  Al16  1  0.335988  0.549876  0.250000  1
  Al  Al17  1  0.662413  0.450602  0.750000  1
  Al  Al18  1  0.549877  0.335989  0.250000  1
  Al  Al19  1  0.450603  0.662413  0.750000  1
  Ga  Ga20  1  0.872524  0.872524  0.750000  1
  Si  Si21  1  0.131451  0.131451  0.250000  1
  Rh  Rh22  1  0.670636  0.327063  0.000063  1
  Rh  Rh23  1  0.327063  0.670635  0.000062  1
  Rh  Rh24  1  0.327063  0.670635  0.499938  1
  Rh  Rh25  1  0.670636  0.327063  0.499937  1
  Rh  Rh26  1  0.001161  0.001161  0.009608  1
  Rh  Rh27  1  0.001161  0.001161  0.490392  1
