# generated using pymatgen
data_YSc3In2(B2Rh5)2
_symmetry_space_group_name_H-M   'P 1'
_cell_length_a   9.53187278
_cell_length_b   9.53187278
_cell_length_c   3.17673600
_cell_angle_alpha   90.00000000
_cell_angle_beta   90.00000000
_cell_angle_gamma   89.17209019
_symmetry_Int_Tables_number   1
_chemical_formula_structural   YSc3In2(B2Rh5)2
_chemical_formula_sum   'Y1 Sc3 In2 B4 Rh10'
_cell_volume   288.59729611
_cell_formula_units_Z   1
loop_
 _symmetry_equiv_pos_site_id
 _symmetry_equiv_pos_as_xyz
  1  'x, y, z'
loop_
 _atom_site_type_symbol
 _atom_site_label
 _atom_site_symmetry_multiplicity
 _atom_site_fract_x
 _atom_site_fract_y
 _atom_site_fract_z
 _atom_site_occupancy
  Y  Y0  1  0.824685  0.324685  0.000000  1
  Sc  Sc1  1  0.325388  0.172604  0.000000  1
  Sc  Sc2  1  0.672604  0.825388  0.000000  1
  Sc  Sc3  1  0.176026  0.676026  0.000000  1
  In  In4  1  0.999575  0.002991  0.000000  1
  In  In5  1  0.502991  0.499575  0.000000  1
  B  B6  1  0.616802  0.116802  0.000000  1
  B  B7  1  0.128193  0.380192  0.000000  1
  B  B8  1  0.880192  0.628193  0.000000  1
  B  B9  1  0.375740  0.875740  0.000000  1
  Rh  Rh10  1  0.079890  0.225395  0.500000  1
  Rh  Rh11  1  0.223017  0.927396  0.500000  1
  Rh  Rh12  1  0.770172  0.063117  0.500000  1
  Rh  Rh13  1  0.928468  0.778854  0.500000  1
  Rh  Rh14  1  0.427396  0.723017  0.500000  1
  Rh  Rh15  1  0.563117  0.270172  0.500000  1
  Rh  Rh16  1  0.725395  0.579890  0.500000  1
  Rh  Rh17  1  0.278854  0.428468  0.500000  1
  Rh  Rh18  1  0.496503  0.996503  0.500000  1
  Rh  Rh19  1  0.004995  0.504995  0.500000  1
