# generated using pymatgen
data_Sr6Rh4PbO15
_symmetry_space_group_name_H-M   'P 1'
_cell_length_a   7.20195051
_cell_length_b   7.20195013
_cell_length_c   7.20195124
_cell_angle_alpha   85.10368427
_cell_angle_beta   85.10368961
_cell_angle_gamma   85.10368361
_symmetry_Int_Tables_number   1
_chemical_formula_structural   Sr6Rh4PbO15
_chemical_formula_sum   'Sr6 Rh4 Pb1 O15'
_cell_volume   369.68163255
_cell_formula_units_Z   1
loop_
 _symmetry_equiv_pos_site_id
 _symmetry_equiv_pos_as_xyz
  1  'x, y, z'
loop_
 _atom_site_type_symbol
 _atom_site_label
 _atom_site_symmetry_multiplicity
 _atom_site_fract_x
 _atom_site_fract_y
 _atom_site_fract_z
 _atom_site_occupancy
  Sr  Sr0  1  0.329367  0.670633  0.000000  1
  Sr  Sr1  1  0.670633  0.000000  0.329367  1
  Sr  Sr2  1  0.000000  0.329367  0.670633  1
  Sr  Sr3  1  0.139030  0.860970  0.500000  1
  Sr  Sr4  1  0.860970  0.500000  0.139030  1
  Sr  Sr5  1  0.500000  0.139030  0.860970  1
  Rh  Rh6  1  0.907088  0.907088  0.907088  1
  Rh  Rh7  1  0.092912  0.092912  0.092912  1
  Rh  Rh8  1  0.715072  0.715072  0.715072  1
  Rh  Rh9  1  0.284928  0.284928  0.284928  1
  Pb  Pb10  1  0.500000  0.500000  0.500000  1
  O  O11  1  0.228286  0.550168  0.363565  1
  O  O12  1  0.363565  0.228286  0.550168  1
  O  O13  1  0.550168  0.363565  0.228286  1
  O  O14  1  0.771714  0.636435  0.449832  1
  O  O15  1  0.449832  0.771714  0.636435  1
  O  O16  1  0.636435  0.449832  0.771714  1
  O  O17  1  0.000000  0.834532  0.165468  1
  O  O18  1  0.165468  0.000000  0.834532  1
  O  O19  1  0.834532  0.165468  0.000000  1
  O  O20  1  0.347615  0.013843  0.198529  1
  O  O21  1  0.198529  0.347615  0.013843  1
  O  O22  1  0.801471  0.986157  0.652385  1
  O  O23  1  0.986157  0.652385  0.801471  1
  O  O24  1  0.652385  0.801471  0.986157  1
  O  O25  1  0.013843  0.198529  0.347615  1
