# generated using pymatgen
data_TbY3Al4PtRh3
_symmetry_space_group_name_H-M   'P 1'
_cell_length_a   4.32543800
_cell_length_b   6.89320695
_cell_length_c   7.88255615
_cell_angle_alpha   89.91336804
_cell_angle_beta   90.00000000
_cell_angle_gamma   90.00000000
_symmetry_Int_Tables_number   1
_chemical_formula_structural   TbY3Al4PtRh3
_chemical_formula_sum   'Tb1 Y3 Al4 Pt1 Rh3'
_cell_volume   235.02712359
_cell_formula_units_Z   1
loop_
 _symmetry_equiv_pos_site_id
 _symmetry_equiv_pos_as_xyz
  1  'x, y, z'
loop_
 _atom_site_type_symbol
 _atom_site_label
 _atom_site_symmetry_multiplicity
 _atom_site_fract_x
 _atom_site_fract_y
 _atom_site_fract_z
 _atom_site_occupancy
  Tb  Tb0  1  0.750000  0.968880  0.319647  1
  Y  Y1  1  0.250000  0.029322  0.679689  1
  Y  Y2  1  0.250000  0.533519  0.818283  1
  Y  Y3  1  0.750000  0.470423  0.184326  1
  Al  Al4  1  0.250000  0.140399  0.064359  1
  Al  Al5  1  0.250000  0.639693  0.437444  1
  Al  Al6  1  0.750000  0.857023  0.935490  1
  Al  Al7  1  0.750000  0.360846  0.563651  1
  Pt  Pt8  1  0.750000  0.230115  0.882453  1
  Rh  Rh9  1  0.250000  0.267643  0.384051  1
  Rh  Rh10  1  0.250000  0.768813  0.115829  1
  Rh  Rh11  1  0.750000  0.733326  0.614777  1
