# generated using pymatgen
data_YbPrTaIr3
_symmetry_space_group_name_H-M   'P 1'
_cell_length_a   5.27287356
_cell_length_b   5.72705759
_cell_length_c   5.72705700
_cell_angle_alpha   59.99999761
_cell_angle_beta   57.10726253
_cell_angle_gamma   57.10726576
_symmetry_Int_Tables_number   1
_chemical_formula_structural   YbPrTaIr3
_chemical_formula_sum   'Yb1 Pr1 Ta1 Ir3'
_cell_volume   116.66831388
_cell_formula_units_Z   1
loop_
 _symmetry_equiv_pos_site_id
 _symmetry_equiv_pos_as_xyz
  1  'x, y, z'
loop_
 _atom_site_type_symbol
 _atom_site_label
 _atom_site_symmetry_multiplicity
 _atom_site_fract_x
 _atom_site_fract_y
 _atom_site_fract_z
 _atom_site_occupancy
  Yb  Yb0  1  0.745875  0.751375  0.751375  1
  Pr  Pr1  1  0.492343  0.502552  0.502552  1
  Ta  Ta2  1  0.623620  0.125460  0.125460  1
  Ir  Ir3  1  0.129387  0.121988  0.121988  1
  Ir  Ir4  1  0.129387  0.121988  0.626638  1
  Ir  Ir5  1  0.129387  0.626638  0.121988  1
