# generated using pymatgen
data_Dy6Ho4Si5Ge
_symmetry_space_group_name_H-M   'P 1'
_cell_length_a   8.44218600
_cell_length_b   8.44402157
_cell_length_c   6.35403000
_cell_angle_alpha   90.00000000
_cell_angle_beta   90.00000000
_cell_angle_gamma   119.99280934
_symmetry_Int_Tables_number   1
_chemical_formula_structural   Dy6Ho4Si5Ge
_chemical_formula_sum   'Dy6 Ho4 Si5 Ge1'
_cell_volume   392.29755983
_cell_formula_units_Z   1
loop_
 _symmetry_equiv_pos_site_id
 _symmetry_equiv_pos_as_xyz
  1  'x, y, z'
loop_
 _atom_site_type_symbol
 _atom_site_label
 _atom_site_symmetry_multiplicity
 _atom_site_fract_x
 _atom_site_fract_y
 _atom_site_fract_z
 _atom_site_occupancy
  Dy  Dy0  1  0.998927  0.755885  0.750000  1
  Dy  Dy1  1  0.999953  0.243313  0.250000  1
  Dy  Dy2  1  0.756639  0.756687  0.250000  1
  Dy  Dy3  1  0.757509  0.000000  0.750000  1
  Dy  Dy4  1  0.243042  0.244115  0.750000  1
  Dy  Dy5  1  0.242977  0.000000  0.250000  1
  Ho  Ho6  1  0.333190  0.665830  0.499340  1
  Ho  Ho7  1  0.667361  0.334170  0.000660  1
  Ho  Ho8  1  0.667361  0.334170  0.499340  1
  Ho  Ho9  1  0.333190  0.665830  0.000660  1
  Si  Si10  1  0.394547  0.394504  0.250000  1
  Si  Si11  1  0.000043  0.605496  0.250000  1
  Si  Si12  1  0.999977  0.394535  0.750000  1
  Si  Si13  1  0.605442  0.605465  0.750000  1
  Si  Si14  1  0.605597  0.000000  0.250000  1
  Ge  Ge15  1  0.394246  0.000000  0.750000  1
