# generated using pymatgen
data_Sc18TiRe7P2
_symmetry_space_group_name_H-M   'P 1'
_cell_length_a   8.63365000
_cell_length_b   8.63365067
_cell_length_c   8.60226100
_cell_angle_alpha   90.00000000
_cell_angle_beta   90.00000000
_cell_angle_gamma   119.99999744
_symmetry_Int_Tables_number   1
_chemical_formula_structural   Sc18TiRe7P2
_chemical_formula_sum   'Sc18 Ti1 Re7 P2'
_cell_volume   555.30574869
_cell_formula_units_Z   1
loop_
 _symmetry_equiv_pos_site_id
 _symmetry_equiv_pos_as_xyz
  1  'x, y, z'
loop_
 _atom_site_type_symbol
 _atom_site_label
 _atom_site_symmetry_multiplicity
 _atom_site_fract_x
 _atom_site_fract_y
 _atom_site_fract_z
 _atom_site_occupancy
  Sc  Sc0  1  0.197921  0.802079  0.450314  1
  Sc  Sc1  1  0.197921  0.395839  0.450314  1
  Sc  Sc2  1  0.604161  0.802079  0.450314  1
  Sc  Sc3  1  0.802079  0.197921  0.549686  1
  Sc  Sc4  1  0.802079  0.604161  0.549686  1
  Sc  Sc5  1  0.395839  0.197921  0.549686  1
  Sc  Sc6  1  0.803441  0.196559  0.949766  1
  Sc  Sc7  1  0.803441  0.606883  0.949766  1
  Sc  Sc8  1  0.393117  0.196559  0.949766  1
  Sc  Sc9  1  0.196559  0.803441  0.050234  1
  Sc  Sc10  1  0.196559  0.393117  0.050234  1
  Sc  Sc11  1  0.606883  0.803441  0.050234  1
  Sc  Sc12  1  0.537725  0.462275  0.249877  1
  Sc  Sc13  1  0.537725  0.075450  0.249877  1
  Sc  Sc14  1  0.924550  0.462275  0.249877  1
  Sc  Sc15  1  0.462275  0.537725  0.750123  1
  Sc  Sc16  1  0.462275  0.924550  0.750123  1
  Sc  Sc17  1  0.075450  0.537725  0.750123  1
  Ti  Ti18  1  0.000000  0.000000  0.500000  1
  Re  Re19  1  0.891777  0.108223  0.249359  1
  Re  Re20  1  0.891777  0.783553  0.249359  1
  Re  Re21  1  0.216447  0.108223  0.249359  1
  Re  Re22  1  0.108223  0.891777  0.750641  1
  Re  Re23  1  0.108223  0.216447  0.750641  1
  Re  Re24  1  0.783553  0.891777  0.750641  1
  Re  Re25  1  0.000000  0.000000  0.000000  1
  P  P26  1  0.333333  0.666667  0.248923  1
  P  P27  1  0.666667  0.333333  0.751077  1
