# generated using pymatgen
data_YCoP3Ir4
_symmetry_space_group_name_H-M   'P 1'
_cell_length_a   3.93814400
_cell_length_b   10.72618800
_cell_length_c   12.39711200
_cell_angle_alpha   90.00000000
_cell_angle_beta   90.00000000
_cell_angle_gamma   90.00000000
_symmetry_Int_Tables_number   1
_chemical_formula_structural   YCoP3Ir4
_chemical_formula_sum   'Y4 Co4 P12 Ir16'
_cell_volume   523.66979135
_cell_formula_units_Z   4
loop_
 _symmetry_equiv_pos_site_id
 _symmetry_equiv_pos_as_xyz
  1  'x, y, z'
loop_
 _atom_site_type_symbol
 _atom_site_label
 _atom_site_symmetry_multiplicity
 _atom_site_fract_x
 _atom_site_fract_y
 _atom_site_fract_z
 _atom_site_occupancy
  Y  Y0  1  0.250000  0.914221  0.209161  1
  Y  Y1  1  0.750000  0.085779  0.790839  1
  Y  Y2  1  0.750000  0.414221  0.290839  1
  Y  Y3  1  0.250000  0.585779  0.709161  1
  Co  Co4  1  0.250000  0.037706  0.433863  1
  Co  Co5  1  0.750000  0.962294  0.566137  1
  Co  Co6  1  0.750000  0.537706  0.066137  1
  Co  Co7  1  0.250000  0.462294  0.933863  1
  P  P8  1  0.250000  0.073908  0.605511  1
  P  P9  1  0.750000  0.926092  0.394489  1
  P  P10  1  0.750000  0.573908  0.894489  1
  P  P11  1  0.250000  0.426092  0.105511  1
  P  P12  1  0.250000  0.228182  0.371246  1
  P  P13  1  0.750000  0.771818  0.628754  1
  P  P14  1  0.750000  0.728182  0.128754  1
  P  P15  1  0.250000  0.271818  0.871246  1
  P  P16  1  0.250000  0.904943  0.885545  1
  P  P17  1  0.750000  0.095057  0.114455  1
  P  P18  1  0.750000  0.404943  0.614455  1
  P  P19  1  0.250000  0.595057  0.385545  1
  Ir  Ir20  1  0.250000  0.778524  0.482581  1
  Ir  Ir21  1  0.750000  0.221476  0.517419  1
  Ir  Ir22  1  0.750000  0.278524  0.017419  1
  Ir  Ir23  1  0.250000  0.721476  0.982581  1
  Ir  Ir24  1  0.250000  0.092338  0.978508  1
  Ir  Ir25  1  0.750000  0.907662  0.021492  1
  Ir  Ir26  1  0.750000  0.592338  0.521492  1
  Ir  Ir27  1  0.250000  0.407662  0.478508  1
  Ir  Ir28  1  0.250000  0.268480  0.678991  1
  Ir  Ir29  1  0.750000  0.731520  0.321009  1
  Ir  Ir30  1  0.750000  0.768480  0.821009  1
  Ir  Ir31  1  0.250000  0.231520  0.178991  1
  Ir  Ir32  1  0.250000  0.613323  0.199677  1
  Ir  Ir33  1  0.750000  0.386677  0.800323  1
  Ir  Ir34  1  0.750000  0.113323  0.300323  1
  Ir  Ir35  1  0.250000  0.886677  0.699677  1
