# generated using pymatgen
data_Y5Hg2(PtPb)2
_symmetry_space_group_name_H-M   'P 1'
_cell_length_a   3.67636600
_cell_length_b   8.14649900
_cell_length_c   18.47036100
_cell_angle_alpha   90.00000000
_cell_angle_beta   90.00000000
_cell_angle_gamma   90.00000000
_symmetry_Int_Tables_number   1
_chemical_formula_structural   Y5Hg2(PtPb)2
_chemical_formula_sum   'Y10 Hg4 Pt4 Pb4'
_cell_volume   553.17829735
_cell_formula_units_Z   2
loop_
 _symmetry_equiv_pos_site_id
 _symmetry_equiv_pos_as_xyz
  1  'x, y, z'
loop_
 _atom_site_type_symbol
 _atom_site_label
 _atom_site_symmetry_multiplicity
 _atom_site_fract_x
 _atom_site_fract_y
 _atom_site_fract_z
 _atom_site_occupancy
  Y  Y0  1  0.000000  0.106840  0.414591  1
  Y  Y1  1  0.000000  0.893160  0.585409  1
  Y  Y2  1  0.000000  0.393160  0.914591  1
  Y  Y3  1  0.000000  0.606840  0.085409  1
  Y  Y4  1  0.000000  0.243635  0.216869  1
  Y  Y5  1  0.000000  0.756365  0.783131  1
  Y  Y6  1  0.000000  0.256365  0.716869  1
  Y  Y7  1  0.000000  0.743635  0.283131  1
  Y  Y8  1  0.000000  0.000000  0.000000  1
  Y  Y9  1  0.000000  0.500000  0.500000  1
  Hg  Hg10  1  0.500000  0.293287  0.062974  1
  Hg  Hg11  1  0.500000  0.706713  0.937026  1
  Hg  Hg12  1  0.500000  0.206713  0.562974  1
  Hg  Hg13  1  0.500000  0.793287  0.437026  1
  Pt  Pt14  1  0.500000  0.025556  0.302973  1
  Pt  Pt15  1  0.500000  0.974444  0.697027  1
  Pt  Pt16  1  0.500000  0.474444  0.802973  1
  Pt  Pt17  1  0.500000  0.525556  0.197027  1
  Pb  Pb18  1  0.500000  0.421427  0.353877  1
  Pb  Pb19  1  0.500000  0.578573  0.646123  1
  Pb  Pb20  1  0.500000  0.078573  0.853877  1
  Pb  Pb21  1  0.500000  0.921427  0.146123  1
