# generated using pymatgen
data_DyTmTc2F14
_symmetry_space_group_name_H-M   'P 1'
_cell_length_a   5.56944000
_cell_length_b   8.86851663
_cell_length_c   11.98240364
_cell_angle_alpha   62.64734911
_cell_angle_beta   90.00000000
_cell_angle_gamma   90.00000000
_symmetry_Int_Tables_number   1
_chemical_formula_structural   DyTmTc2F14
_chemical_formula_sum   'Dy2 Tm2 Tc4 F28'
_cell_volume   525.67215672
_cell_formula_units_Z   2
loop_
 _symmetry_equiv_pos_site_id
 _symmetry_equiv_pos_as_xyz
  1  'x, y, z'
loop_
 _atom_site_type_symbol
 _atom_site_label
 _atom_site_symmetry_multiplicity
 _atom_site_fract_x
 _atom_site_fract_y
 _atom_site_fract_z
 _atom_site_occupancy
  Dy  Dy0  1  0.241114  0.186748  0.235038  1
  Dy  Dy1  1  0.741114  0.813252  0.264962  1
  Tm  Tm2  1  0.759115  0.815534  0.764274  1
  Tm  Tm3  1  0.259115  0.184466  0.735726  1
  Tc  Tc4  1  0.757681  0.274105  0.955017  1
  Tc  Tc5  1  0.257681  0.725895  0.544983  1
  Tc  Tc6  1  0.242370  0.728251  0.041084  1
  Tc  Tc7  1  0.742370  0.271749  0.458916  1
  F  F8  1  0.449789  0.707853  0.916715  1
  F  F9  1  0.949789  0.292147  0.583285  1
  F  F10  1  0.554208  0.293593  0.080773  1
  F  F11  1  0.054208  0.706407  0.419227  1
  F  F12  1  0.447089  0.276093  0.549203  1
  F  F13  1  0.947089  0.723907  0.950797  1
  F  F14  1  0.550789  0.721588  0.454496  1
  F  F15  1  0.050789  0.278412  0.045504  1
  F  F16  1  0.772541  0.523221  0.858297  1
  F  F17  1  0.272541  0.476779  0.641703  1
  F  F18  1  0.226794  0.480365  0.140047  1
  F  F19  1  0.726794  0.519635  0.359953  1
  F  F20  1  0.756723  0.027056  0.052272  1
  F  F21  1  0.256723  0.972944  0.447728  1
  F  F22  1  0.243578  0.975880  0.944695  1
  F  F23  1  0.743578  0.024120  0.555305  1
  F  F24  1  0.974594  0.730376  0.641591  1
  F  F25  1  0.474594  0.269624  0.858409  1
  F  F26  1  0.023556  0.271065  0.360903  1
  F  F27  1  0.523556  0.728935  0.139097  1
  F  F28  1  0.044819  0.746361  0.170957  1
  F  F29  1  0.544819  0.253639  0.329043  1
  F  F30  1  0.959922  0.252745  0.827277  1
  F  F31  1  0.459922  0.747255  0.672723  1
  F  F32  1  0.417514  0.970363  0.231587  1
  F  F33  1  0.917514  0.029637  0.268413  1
  F  F34  1  0.577803  0.027198  0.767315  1
  F  F35  1  0.077803  0.972802  0.732685  1
