# generated using pymatgen
data_La9Yb(Ga3Co2)2
_symmetry_space_group_name_H-M   'P 1'
_cell_length_a   7.81565424
_cell_length_b   7.68283714
_cell_length_c   10.62977700
_cell_angle_alpha   90.00000000
_cell_angle_beta   90.00000000
_cell_angle_gamma   129.12970655
_symmetry_Int_Tables_number   1
_chemical_formula_structural   La9Yb(Ga3Co2)2
_chemical_formula_sum   'La9 Yb1 Ga6 Co4'
_cell_volume   495.12598851
_cell_formula_units_Z   1
loop_
 _symmetry_equiv_pos_site_id
 _symmetry_equiv_pos_as_xyz
  1  'x, y, z'
loop_
 _atom_site_type_symbol
 _atom_site_label
 _atom_site_symmetry_multiplicity
 _atom_site_fract_x
 _atom_site_fract_y
 _atom_site_fract_z
 _atom_site_occupancy
  La  La0  1  0.868901  0.112767  0.006029  1
  La  La1  1  0.128503  0.886079  0.502165  1
  La  La2  1  0.128503  0.886079  0.997835  1
  La  La3  1  0.516741  0.934344  0.750000  1
  La  La4  1  0.868901  0.112767  0.493971  1
  La  La5  1  0.404776  0.404748  0.750000  1
  La  La6  1  0.934115  0.512250  0.750000  1
  La  La7  1  0.067610  0.480513  0.250000  1
  La  La8  1  0.598040  0.591911  0.250000  1
  Yb  Yb9  1  0.484874  0.066122  0.250000  1
  Ga  Ga10  1  0.896879  0.899262  0.750000  1
  Ga  Ga11  1  0.345338  0.648819  0.999808  1
  Ga  Ga12  1  0.345338  0.648819  0.500192  1
  Ga  Ga13  1  0.109989  0.097637  0.250000  1
  Ga  Ga14  1  0.653287  0.354429  0.001812  1
  Ga  Ga15  1  0.653287  0.354429  0.498188  1
  Co  Co16  1  0.662668  0.671993  0.566368  1
  Co  Co17  1  0.662668  0.671993  0.933632  1
  Co  Co18  1  0.334791  0.332521  0.064944  1
  Co  Co19  1  0.334791  0.332521  0.435056  1
