# generated using pymatgen
data_Y5Co16(MoP4)3
_symmetry_space_group_name_H-M   'P 1'
_cell_length_a   12.08759200
_cell_length_b   12.08759122
_cell_length_c   3.71560800
_cell_angle_alpha   90.00000000
_cell_angle_beta   90.00000000
_cell_angle_gamma   119.99999118
_symmetry_Int_Tables_number   1
_chemical_formula_structural   Y5Co16(MoP4)3
_chemical_formula_sum   'Y5 Co16 Mo3 P12'
_cell_volume   470.15397988
_cell_formula_units_Z   1
loop_
 _symmetry_equiv_pos_site_id
 _symmetry_equiv_pos_as_xyz
  1  'x, y, z'
loop_
 _atom_site_type_symbol
 _atom_site_label
 _atom_site_symmetry_multiplicity
 _atom_site_fract_x
 _atom_site_fract_y
 _atom_site_fract_z
 _atom_site_occupancy
  Y  Y0  1  0.666667  0.333333  0.000000  1
  Y  Y1  1  0.333333  0.666667  0.000000  1
  Y  Y2  1  0.185174  0.185174  0.500000  1
  Y  Y3  1  0.814826  0.000000  0.500000  1
  Y  Y4  1  0.000000  0.814826  0.500000  1
  Co  Co5  1  0.822902  0.198188  0.000000  1
  Co  Co6  1  0.801812  0.624714  0.000000  1
  Co  Co7  1  0.375286  0.177098  0.000000  1
  Co  Co8  1  0.198188  0.822902  0.000000  1
  Co  Co9  1  0.624714  0.801812  0.000000  1
  Co  Co10  1  0.177098  0.375286  0.000000  1
  Co  Co11  1  0.644808  0.126955  0.500000  1
  Co  Co12  1  0.873045  0.517854  0.500000  1
  Co  Co13  1  0.482146  0.355192  0.500000  1
  Co  Co14  1  0.126955  0.644808  0.500000  1
  Co  Co15  1  0.517854  0.873045  0.500000  1
  Co  Co16  1  0.355192  0.482146  0.500000  1
  Co  Co17  1  0.719255  0.719255  0.500000  1
  Co  Co18  1  0.280745  0.000000  0.500000  1
  Co  Co19  1  0.000000  0.280745  0.500000  1
  Co  Co20  1  0.000000  0.000000  0.000000  1
  Mo  Mo21  1  0.553740  0.553740  0.000000  1
  Mo  Mo22  1  0.446260  0.000000  0.000000  1
  Mo  Mo23  1  0.000000  0.446260  0.000000  1
  P  P24  1  0.361166  0.361166  0.000000  1
  P  P25  1  0.638834  0.000000  0.000000  1
  P  P26  1  0.000000  0.638834  0.000000  1
  P  P27  1  0.834641  0.313813  0.500000  1
  P  P28  1  0.686187  0.520828  0.500000  1
  P  P29  1  0.479172  0.165359  0.500000  1
  P  P30  1  0.313813  0.834641  0.500000  1
  P  P31  1  0.520828  0.686187  0.500000  1
  P  P32  1  0.165359  0.479172  0.500000  1
  P  P33  1  0.821441  0.821441  0.000000  1
  P  P34  1  0.178559  0.000000  0.000000  1
  P  P35  1  0.000000  0.178559  0.000000  1
