# generated using pymatgen
data_PrSmBi6(SeO5)4
_symmetry_space_group_name_H-M   'P 1'
_cell_length_a   8.86159407
_cell_length_b   8.86159236
_cell_length_c   11.54970048
_cell_angle_alpha   89.98953758
_cell_angle_beta   89.98953392
_cell_angle_gamma   143.34751726
_symmetry_Int_Tables_number   1
_chemical_formula_structural   PrSmBi6(SeO5)4
_chemical_formula_sum   'Pr1 Sm1 Bi6 Se4 O20'
_cell_volume   541.42649271
_cell_formula_units_Z   1
loop_
 _symmetry_equiv_pos_site_id
 _symmetry_equiv_pos_as_xyz
  1  'x, y, z'
loop_
 _atom_site_type_symbol
 _atom_site_label
 _atom_site_symmetry_multiplicity
 _atom_site_fract_x
 _atom_site_fract_y
 _atom_site_fract_z
 _atom_site_occupancy
  Pr  Pr0  1  0.730863  0.230863  0.613914  1
  Sm  Sm1  1  0.233651  0.733651  0.387852  1
  Bi  Bi2  1  0.237623  0.737623  0.866843  1
  Bi  Bi3  1  0.735048  0.235048  0.134388  1
  Bi  Bi4  1  0.891495  0.062673  0.392967  1
  Bi  Bi5  1  0.062351  0.891268  0.604625  1
  Bi  Bi6  1  0.391268  0.562351  0.604625  1
  Bi  Bi7  1  0.562673  0.391495  0.392967  1
  Se  Se8  1  0.389283  0.578578  0.147450  1
  Se  Se9  1  0.578176  0.391871  0.854397  1
  Se  Se10  1  0.891871  0.078176  0.854397  1
  Se  Se11  1  0.078578  0.889283  0.147450  1
  O  O12  1  0.146270  0.476933  0.224133  1
  O  O13  1  0.469317  0.142438  0.780623  1
  O  O14  1  0.642438  0.969317  0.780623  1
  O  O15  1  0.976933  0.646270  0.224133  1
  O  O16  1  0.566820  0.891755  0.498525  1
  O  O17  1  0.896327  0.570951  0.497113  1
  O  O18  1  0.070951  0.396327  0.497113  1
  O  O19  1  0.391755  0.066820  0.498525  1
  O  O20  1  0.127236  0.627236  0.696664  1
  O  O21  1  0.615158  0.115158  0.302586  1
  O  O22  1  0.554642  0.857948  0.081308  1
  O  O23  1  0.856897  0.553692  0.919264  1
  O  O24  1  0.175006  0.076415  0.260469  1
  O  O25  1  0.074138  0.174612  0.738603  1
  O  O26  1  0.674612  0.574138  0.738603  1
  O  O27  1  0.576415  0.675006  0.260469  1
  O  O28  1  0.247890  0.247716  0.499401  1
  O  O29  1  0.747716  0.747890  0.499401  1
  O  O30  1  0.357948  0.054642  0.081308  1
  O  O31  1  0.053692  0.356897  0.919264  1
