# generated using pymatgen
data_Tm3Mg2ScIr3
_symmetry_space_group_name_H-M   'P 1'
_cell_length_a   7.19618400
_cell_length_b   7.25532569
_cell_length_c   4.08481100
_cell_angle_alpha   90.00000000
_cell_angle_beta   90.00000000
_cell_angle_gamma   119.73072443
_symmetry_Int_Tables_number   1
_chemical_formula_structural   Tm3Mg2ScIr3
_chemical_formula_sum   'Tm3 Mg2 Sc1 Ir3'
_cell_volume   185.19693787
_cell_formula_units_Z   1
loop_
 _symmetry_equiv_pos_site_id
 _symmetry_equiv_pos_as_xyz
  1  'x, y, z'
loop_
 _atom_site_type_symbol
 _atom_site_label
 _atom_site_symmetry_multiplicity
 _atom_site_fract_x
 _atom_site_fract_y
 _atom_site_fract_z
 _atom_site_occupancy
  Tm  Tm0  1  0.401041  0.000000  0.500000  1
  Tm  Tm1  1  0.003689  0.416591  0.500000  1
  Tm  Tm2  1  0.587099  0.583410  0.500000  1
  Mg  Mg3  1  0.248905  0.248687  0.000000  1
  Mg  Mg4  1  0.000219  0.751314  0.000000  1
  Sc  Sc5  1  0.753523  0.000000  0.000000  1
  Ir  Ir6  1  0.670665  0.326763  0.000000  1
  Ir  Ir7  1  0.343902  0.673237  0.000000  1
  Ir  Ir8  1  0.990958  0.000000  0.500000  1
