# generated using pymatgen
data_SrSi3AsRh6
_symmetry_space_group_name_H-M   'P 1'
_cell_length_a   7.11978714
_cell_length_b   7.11978623
_cell_length_c   3.82676400
_cell_angle_alpha   90.00000000
_cell_angle_beta   90.00000000
_cell_angle_gamma   119.79731164
_symmetry_Int_Tables_number   1
_chemical_formula_structural   SrSi3AsRh6
_chemical_formula_sum   'Sr1 Si3 As1 Rh6'
_cell_volume   168.33703357
_cell_formula_units_Z   1
loop_
 _symmetry_equiv_pos_site_id
 _symmetry_equiv_pos_as_xyz
  1  'x, y, z'
loop_
 _atom_site_type_symbol
 _atom_site_label
 _atom_site_symmetry_multiplicity
 _atom_site_fract_x
 _atom_site_fract_y
 _atom_site_fract_z
 _atom_site_occupancy
  Sr  Sr0  1  0.002020  0.997980  0.000000  1
  Si  Si1  1  0.796364  0.597382  0.500000  1
  Si  Si2  1  0.402618  0.203636  0.500000  1
  Si  Si3  1  0.333112  0.666888  0.000000  1
  As  As4  1  0.804029  0.195971  0.500000  1
  Rh  Rh5  1  0.199744  0.800256  0.500000  1
  Rh  Rh6  1  0.206564  0.405642  0.500000  1
  Rh  Rh7  1  0.525042  0.064558  0.000000  1
  Rh  Rh8  1  0.935442  0.474958  0.000000  1
  Rh  Rh9  1  0.534039  0.465961  0.000000  1
  Rh  Rh10  1  0.594358  0.793436  0.500000  1
