# generated using pymatgen
data_YbSmLu8(In2Pt)4
_symmetry_space_group_name_H-M   'P 1'
_cell_length_a   3.55466900
_cell_length_b   8.12106713
_cell_length_c   18.16451914
_cell_angle_alpha   90.01906791
_cell_angle_beta   90.00000000
_cell_angle_gamma   90.00000000
_symmetry_Int_Tables_number   1
_chemical_formula_structural   YbSmLu8(In2Pt)4
_chemical_formula_sum   'Yb1 Sm1 Lu8 In8 Pt4'
_cell_volume   524.36796142
_cell_formula_units_Z   1
loop_
 _symmetry_equiv_pos_site_id
 _symmetry_equiv_pos_as_xyz
  1  'x, y, z'
loop_
 _atom_site_type_symbol
 _atom_site_label
 _atom_site_symmetry_multiplicity
 _atom_site_fract_x
 _atom_site_fract_y
 _atom_site_fract_z
 _atom_site_occupancy
  Yb  Yb0  1  0.000000  0.000000  0.000000  1
  Sm  Sm1  1  0.000000  0.500000  0.500000  1
  Lu  Lu2  1  0.000000  0.120264  0.412715  1
  Lu  Lu3  1  0.000000  0.879736  0.587285  1
  Lu  Lu4  1  0.000000  0.379587  0.913234  1
  Lu  Lu5  1  0.000000  0.620413  0.086766  1
  Lu  Lu6  1  0.000000  0.244122  0.219982  1
  Lu  Lu7  1  0.000000  0.755878  0.780018  1
  Lu  Lu8  1  0.000000  0.255086  0.721824  1
  Lu  Lu9  1  0.000000  0.744914  0.278176  1
  In  In10  1  0.500000  0.424725  0.349446  1
  In  In11  1  0.500000  0.575275  0.650554  1
  In  In12  1  0.500000  0.072147  0.851674  1
  In  In13  1  0.500000  0.927853  0.148326  1
  In  In14  1  0.500000  0.297884  0.065710  1
  In  In15  1  0.500000  0.702116  0.934290  1
  In  In16  1  0.500000  0.200568  0.566778  1
  In  In17  1  0.500000  0.799432  0.433222  1
  Pt  Pt18  1  0.500000  0.026149  0.303010  1
  Pt  Pt19  1  0.500000  0.973851  0.696990  1
  Pt  Pt20  1  0.500000  0.475755  0.803794  1
  Pt  Pt21  1  0.500000  0.524245  0.196206  1
