# generated using pymatgen
data_SrNd(Tm2Rh9)2
_symmetry_space_group_name_H-M   'P 1'
_cell_length_a   5.26896300
_cell_length_b   5.26896155
_cell_length_c   17.49462300
_cell_angle_alpha   90.00000000
_cell_angle_beta   90.00000000
_cell_angle_gamma   119.99999028
_symmetry_Int_Tables_number   1
_chemical_formula_structural   SrNd(Tm2Rh9)2
_chemical_formula_sum   'Sr1 Nd1 Tm4 Rh18'
_cell_volume   420.61566245
_cell_formula_units_Z   1
loop_
 _symmetry_equiv_pos_site_id
 _symmetry_equiv_pos_as_xyz
  1  'x, y, z'
loop_
 _atom_site_type_symbol
 _atom_site_label
 _atom_site_symmetry_multiplicity
 _atom_site_fract_x
 _atom_site_fract_y
 _atom_site_fract_z
 _atom_site_occupancy
  Sr  Sr0  1  0.666667  0.333333  0.250000  1
  Nd  Nd1  1  0.333333  0.666667  0.750000  1
  Tm  Tm2  1  0.333333  0.666667  0.540865  1
  Tm  Tm3  1  0.666667  0.333333  0.041281  1
  Tm  Tm4  1  0.666667  0.333333  0.458719  1
  Tm  Tm5  1  0.333333  0.666667  0.959135  1
  Rh  Rh6  1  0.167381  0.334763  0.123263  1
  Rh  Rh7  1  0.832446  0.664894  0.624600  1
  Rh  Rh8  1  0.665237  0.832619  0.123263  1
  Rh  Rh9  1  0.167381  0.832619  0.123263  1
  Rh  Rh10  1  0.832446  0.167554  0.624600  1
  Rh  Rh11  1  0.335106  0.167554  0.624600  1
  Rh  Rh12  1  0.832446  0.664894  0.875400  1
  Rh  Rh13  1  0.832446  0.167554  0.875400  1
  Rh  Rh14  1  0.335106  0.167554  0.875400  1
  Rh  Rh15  1  0.665237  0.832619  0.376737  1
  Rh  Rh16  1  0.167381  0.832619  0.376737  1
  Rh  Rh17  1  0.167381  0.334763  0.376737  1
  Rh  Rh18  1  0.000000  0.000000  0.250000  1
  Rh  Rh19  1  0.000000  0.000000  0.750000  1
  Rh  Rh20  1  0.333333  0.666667  0.250000  1
  Rh  Rh21  1  0.666667  0.333333  0.750000  1
  Rh  Rh22  1  0.000000  0.000000  0.999348  1
  Rh  Rh23  1  0.000000  0.000000  0.500652  1
