# generated using pymatgen
data_Y4Zr3SnIr4
_symmetry_space_group_name_H-M   'P 1'
_cell_length_a   4.47807800
_cell_length_b   7.20527065
_cell_length_c   8.33282069
_cell_angle_alpha   93.19909056
_cell_angle_beta   90.00000000
_cell_angle_gamma   90.00000000
_symmetry_Int_Tables_number   1
_chemical_formula_structural   Y4Zr3SnIr4
_chemical_formula_sum   'Y4 Zr3 Sn1 Ir4'
_cell_volume   268.44584036
_cell_formula_units_Z   1
loop_
 _symmetry_equiv_pos_site_id
 _symmetry_equiv_pos_as_xyz
  1  'x, y, z'
loop_
 _atom_site_type_symbol
 _atom_site_label
 _atom_site_symmetry_multiplicity
 _atom_site_fract_x
 _atom_site_fract_y
 _atom_site_fract_z
 _atom_site_occupancy
  Y  Y0  1  0.250000  0.032410  0.334443  1
  Y  Y1  1  0.250000  0.517886  0.178372  1
  Y  Y2  1  0.750000  0.993744  0.668155  1
  Y  Y3  1  0.750000  0.464368  0.816654  1
  Zr  Zr4  1  0.250000  0.134330  0.926441  1
  Zr  Zr5  1  0.250000  0.642028  0.564734  1
  Zr  Zr6  1  0.750000  0.857592  0.073014  1
  Sn  Sn7  1  0.750000  0.355607  0.425369  1
  Ir  Ir8  1  0.250000  0.269952  0.626927  1
  Ir  Ir9  1  0.250000  0.761551  0.896190  1
  Ir  Ir10  1  0.750000  0.741703  0.391042  1
  Ir  Ir11  1  0.750000  0.228829  0.098659  1
