# generated using pymatgen
data_Sc4Al23ZnPt9
_symmetry_space_group_name_H-M   'P 1'
_cell_length_a   7.46609985
_cell_length_b   7.47890150
_cell_length_c   13.03556696
_cell_angle_alpha   84.63133537
_cell_angle_beta   79.05835997
_cell_angle_gamma   59.94034721
_symmetry_Int_Tables_number   1
_chemical_formula_structural   Sc4Al23ZnPt9
_chemical_formula_sum   'Sc4 Al23 Zn1 Pt9'
_cell_volume   618.53237539
_cell_formula_units_Z   1
loop_
 _symmetry_equiv_pos_site_id
 _symmetry_equiv_pos_as_xyz
  1  'x, y, z'
loop_
 _atom_site_type_symbol
 _atom_site_label
 _atom_site_symmetry_multiplicity
 _atom_site_fract_x
 _atom_site_fract_y
 _atom_site_fract_z
 _atom_site_occupancy
  Sc  Sc0  1  0.393232  0.168200  0.809396  1
  Sc  Sc1  1  0.607534  0.831194  0.189943  1
  Sc  Sc2  1  0.733066  0.498841  0.809458  1
  Sc  Sc3  1  0.266884  0.501791  0.190223  1
  Al  Al4  1  0.323894  0.161097  0.056622  1
  Al  Al5  1  0.146420  0.832269  0.563284  1
  Al  Al6  1  0.853837  0.167700  0.437607  1
  Al  Al7  1  0.479771  0.166716  0.560625  1
  Al  Al8  1  0.520107  0.833478  0.439918  1
  Al  Al9  1  0.222607  0.165234  0.322707  1
  Al  Al10  1  0.777899  0.834443  0.676794  1
  Al  Al11  1  0.436547  0.504110  0.678286  1
  Al  Al12  1  0.562725  0.496429  0.322836  1
  Al  Al13  1  0.106869  0.162888  0.676718  1
  Al  Al14  1  0.892365  0.837015  0.324475  1
  Al  Al15  1  0.357279  0.496589  0.941310  1
  Al  Al16  1  0.645552  0.508053  0.056539  1
  Al  Al17  1  0.017824  0.170328  0.949706  1
  Al  Al18  1  0.979504  0.829881  0.047199  1
  Al  Al19  1  0.187115  0.499630  0.440104  1
  Al  Al20  1  0.812839  0.500303  0.560716  1
  Al  Al21  1  0.730334  0.164495  0.183054  1
  Al  Al22  1  0.268614  0.836379  0.817595  1
  Al  Al23  1  0.057456  0.627985  0.818004  1
  Al  Al24  1  0.939958  0.372300  0.184000  1
  Al  Al25  1  0.848002  0.045463  0.818644  1
  Al  Al26  1  0.148506  0.953703  0.183639  1
  Zn  Zn27  1  0.682320  0.833813  0.934131  1
  Pt  Pt28  1  0.120051  0.491616  0.639415  1
  Pt  Pt29  1  0.880045  0.508281  0.361555  1
  Pt  Pt30  1  0.657392  0.178696  0.001047  1
  Pt  Pt31  1  0.335910  0.827861  0.001858  1
  Pt  Pt32  1  0.537295  0.167122  0.361325  1
  Pt  Pt33  1  0.462224  0.833084  0.639145  1
  Pt  Pt34  1  0.778536  0.175181  0.638328  1
  Pt  Pt35  1  0.221370  0.824818  0.362766  1
  Pt  Pt36  1  0.008118  0.493016  0.001030  1
