# generated using pymatgen
data_LaNd3In16Pt3Au5
_symmetry_space_group_name_H-M   'P 1'
_cell_length_a   4.67227300
_cell_length_b   7.44273235
_cell_length_c   18.82889900
_cell_angle_alpha   90.18093843
_cell_angle_beta   90.00000000
_cell_angle_gamma   90.00000000
_symmetry_Int_Tables_number   1
_chemical_formula_structural   LaNd3In16Pt3Au5
_chemical_formula_sum   'La1 Nd3 In16 Pt3 Au5'
_cell_volume   654.76185795
_cell_formula_units_Z   1
loop_
 _symmetry_equiv_pos_site_id
 _symmetry_equiv_pos_as_xyz
  1  'x, y, z'
loop_
 _atom_site_type_symbol
 _atom_site_label
 _atom_site_symmetry_multiplicity
 _atom_site_fract_x
 _atom_site_fract_y
 _atom_site_fract_z
 _atom_site_occupancy
  La  La0  1  0.250000  0.474262  0.857301  1
  Nd  Nd1  1  0.750000  0.971825  0.642944  1
  Nd  Nd2  1  0.750000  0.525526  0.144771  1
  Nd  Nd3  1  0.250000  0.025932  0.355783  1
  In  In4  1  0.250000  0.235099  0.190713  1
  In  In5  1  0.250000  0.494849  0.425153  1
  In  In6  1  0.250000  0.003490  0.927762  1
  In  In7  1  0.250000  0.829165  0.188651  1
  In  In8  1  0.250000  0.676354  0.686735  1
  In  In9  1  0.250000  0.257784  0.688703  1
  In  In10  1  0.250000  0.143774  0.533541  1
  In  In11  1  0.750000  0.993334  0.074447  1
  In  In12  1  0.750000  0.166406  0.813666  1
  In  In13  1  0.250000  0.356040  0.036164  1
  In  In14  1  0.750000  0.860183  0.464531  1
  In  In15  1  0.750000  0.643060  0.967795  1
  In  In16  1  0.750000  0.769611  0.812247  1
  In  In17  1  0.750000  0.510000  0.569219  1
  In  In18  1  0.750000  0.329302  0.310535  1
  In  In19  1  0.750000  0.735275  0.309423  1
  Pt  Pt20  1  0.250000  0.965764  0.781106  1
  Pt  Pt21  1  0.750000  0.033989  0.219985  1
  Pt  Pt22  1  0.250000  0.536036  0.279718  1
  Au  Au23  1  0.250000  0.749731  0.539452  1
  Au  Au24  1  0.250000  0.750600  0.041482  1
  Au  Au25  1  0.750000  0.250722  0.457935  1
  Au  Au26  1  0.750000  0.247382  0.960835  1
  Au  Au27  1  0.750000  0.464504  0.719402  1
