# generated using pymatgen
data_Tb8Hf3Zr9Si15Sn
_symmetry_space_group_name_H-M   'P 1'
_cell_length_a   7.36707712
_cell_length_b   7.39335637
_cell_length_c   13.55217118
_cell_angle_alpha   89.73302401
_cell_angle_beta   90.05841373
_cell_angle_gamma   89.84597661
_symmetry_Int_Tables_number   1
_chemical_formula_structural   Tb8Hf3Zr9Si15Sn
_chemical_formula_sum   'Tb8 Hf3 Zr9 Si15 Sn1'
_cell_volume   738.14081516
_cell_formula_units_Z   1
loop_
 _symmetry_equiv_pos_site_id
 _symmetry_equiv_pos_as_xyz
  1  'x, y, z'
loop_
 _atom_site_type_symbol
 _atom_site_label
 _atom_site_symmetry_multiplicity
 _atom_site_fract_x
 _atom_site_fract_y
 _atom_site_fract_z
 _atom_site_occupancy
  Tb  Tb0  1  0.989624  0.345724  0.211766  1
  Tb  Tb1  1  0.003907  0.655108  0.715238  1
  Tb  Tb2  1  0.147699  0.505815  0.469803  1
  Tb  Tb3  1  0.505604  0.843775  0.033815  1
  Tb  Tb4  1  0.846198  0.503034  0.963108  1
  Tb  Tb5  1  0.498100  0.152445  0.539588  1
  Tb  Tb6  1  0.345477  0.995992  0.785611  1
  Tb  Tb7  1  0.660526  0.997457  0.284130  1
  Hf  Hf8  1  0.659477  0.516243  0.379484  1
  Hf  Hf9  1  0.993257  0.147942  0.626298  1
  Hf  Hf10  1  0.003443  0.850272  0.123928  1
  Zr  Zr11  1  0.174994  0.175193  0.999071  1
  Zr  Zr12  1  0.824776  0.826631  0.500960  1
  Zr  Zr13  1  0.325677  0.681677  0.248370  1
  Zr  Zr14  1  0.675341  0.324247  0.750018  1
  Zr  Zr15  1  0.140896  0.988324  0.374037  1
  Zr  Zr16  1  0.853340  0.003349  0.874207  1
  Zr  Zr17  1  0.503522  0.648674  0.624803  1
  Zr  Zr18  1  0.351859  0.494955  0.875213  1
  Zr  Zr19  1  0.496360  0.352111  0.119485  1
  Si  Si20  1  0.638407  0.705814  0.816361  1
  Si  Si21  1  0.204994  0.864799  0.568087  1
  Si  Si22  1  0.138904  0.793717  0.933525  1
  Si  Si23  1  0.795396  0.136443  0.065330  1
  Si  Si24  1  0.860157  0.206857  0.434217  1
  Si  Si25  1  0.292602  0.361173  0.683383  1
  Si  Si26  1  0.705219  0.637948  0.183305  1
  Si  Si27  1  0.293718  0.043284  0.181595  1
  Si  Si28  1  0.706416  0.948417  0.687333  1
  Si  Si29  1  0.449049  0.796474  0.436463  1
  Si  Si30  1  0.203935  0.551699  0.063480  1
  Si  Si31  1  0.551114  0.203559  0.935078  1
  Si  Si32  1  0.793499  0.448212  0.565229  1
  Si  Si33  1  0.050972  0.293943  0.812558  1
  Si  Si34  1  0.950674  0.702459  0.311557  1
  Sn  Sn35  1  0.364864  0.296235  0.323566  1
