# generated using pymatgen
data_NdY5Si4(GeRh6)2
_symmetry_space_group_name_H-M   'P 1'
_cell_length_a   5.61714400
_cell_length_b   5.61714229
_cell_length_c   15.21676000
_cell_angle_alpha   90.00000000
_cell_angle_beta   90.00000000
_cell_angle_gamma   119.99999831
_symmetry_Int_Tables_number   1
_chemical_formula_structural   NdY5Si4(GeRh6)2
_chemical_formula_sum   'Nd1 Y5 Si4 Ge2 Rh12'
_cell_volume   415.79935624
_cell_formula_units_Z   1
loop_
 _symmetry_equiv_pos_site_id
 _symmetry_equiv_pos_as_xyz
  1  'x, y, z'
loop_
 _atom_site_type_symbol
 _atom_site_label
 _atom_site_symmetry_multiplicity
 _atom_site_fract_x
 _atom_site_fract_y
 _atom_site_fract_z
 _atom_site_occupancy
  Nd  Nd0  1  0.666667  0.333333  0.750000  1
  Y  Y1  1  0.666667  0.333333  0.965214  1
  Y  Y2  1  0.666667  0.333333  0.534786  1
  Y  Y3  1  0.333333  0.666667  0.036718  1
  Y  Y4  1  0.333333  0.666667  0.463282  1
  Y  Y5  1  0.333333  0.666667  0.250000  1
  Si  Si6  1  0.666667  0.333333  0.250000  1
  Si  Si7  1  0.000000  0.000000  0.250000  1
  Si  Si8  1  0.000000  0.000000  0.750000  1
  Si  Si9  1  0.333333  0.666667  0.750000  1
  Ge  Ge10  1  0.000000  0.000000  0.499324  1
  Ge  Ge11  1  0.000000  0.000000  0.000676  1
  Rh  Rh12  1  0.167121  0.334241  0.867758  1
  Rh  Rh13  1  0.167121  0.334241  0.632242  1
  Rh  Rh14  1  0.665759  0.832879  0.867758  1
  Rh  Rh15  1  0.333806  0.166903  0.365535  1
  Rh  Rh16  1  0.833097  0.666194  0.365535  1
  Rh  Rh17  1  0.833097  0.166903  0.365535  1
  Rh  Rh18  1  0.833097  0.166903  0.134465  1
  Rh  Rh19  1  0.333806  0.166903  0.134465  1
  Rh  Rh20  1  0.665759  0.832879  0.632242  1
  Rh  Rh21  1  0.167121  0.832879  0.632242  1
  Rh  Rh22  1  0.833097  0.666194  0.134465  1
  Rh  Rh23  1  0.167121  0.832879  0.867758  1
