# generated using pymatgen
data_Tb4AlCoTc6
_symmetry_space_group_name_H-M   'P 1'
_cell_length_a   5.27464400
_cell_length_b   5.27464376
_cell_length_c   9.10435200
_cell_angle_alpha   90.00000000
_cell_angle_beta   90.00000000
_cell_angle_gamma   119.99998896
_symmetry_Int_Tables_number   1
_chemical_formula_structural   Tb4AlCoTc6
_chemical_formula_sum   'Tb4 Al1 Co1 Tc6'
_cell_volume   219.36432856
_cell_formula_units_Z   1
loop_
 _symmetry_equiv_pos_site_id
 _symmetry_equiv_pos_as_xyz
  1  'x, y, z'
loop_
 _atom_site_type_symbol
 _atom_site_label
 _atom_site_symmetry_multiplicity
 _atom_site_fract_x
 _atom_site_fract_y
 _atom_site_fract_z
 _atom_site_occupancy
  Tb  Tb0  1  0.333333  0.666667  0.436194  1
  Tb  Tb1  1  0.666667  0.333333  0.563806  1
  Tb  Tb2  1  0.666667  0.333333  0.929916  1
  Tb  Tb3  1  0.333333  0.666667  0.070084  1
  Al  Al4  1  0.000000  0.000000  0.000000  1
  Co  Co5  1  0.000000  0.000000  0.500000  1
  Tc  Tc6  1  0.830893  0.169107  0.251890  1
  Tc  Tc7  1  0.830893  0.661786  0.251890  1
  Tc  Tc8  1  0.338214  0.169107  0.251890  1
  Tc  Tc9  1  0.169107  0.830893  0.748110  1
  Tc  Tc10  1  0.169107  0.338214  0.748110  1
  Tc  Tc11  1  0.661786  0.830893  0.748110  1
