# generated using pymatgen
data_Tb4Tc3SnF28
_symmetry_space_group_name_H-M   'P 1'
_cell_length_a   5.62813809
_cell_length_b   8.97311622
_cell_length_c   12.08806700
_cell_angle_alpha   62.45143425
_cell_angle_beta   90.01023114
_cell_angle_gamma   89.98821959
_symmetry_Int_Tables_number   1
_chemical_formula_structural   Tb4Tc3SnF28
_chemical_formula_sum   'Tb4 Tc3 Sn1 F28'
_cell_volume   541.25504743
_cell_formula_units_Z   1
loop_
 _symmetry_equiv_pos_site_id
 _symmetry_equiv_pos_as_xyz
  1  'x, y, z'
loop_
 _atom_site_type_symbol
 _atom_site_label
 _atom_site_symmetry_multiplicity
 _atom_site_fract_x
 _atom_site_fract_y
 _atom_site_fract_z
 _atom_site_occupancy
  Tb  Tb0  1  0.258531  0.813459  0.265608  1
  Tb  Tb1  1  0.741142  0.187300  0.735139  1
  Tb  Tb2  1  0.758736  0.185995  0.235402  1
  Tb  Tb3  1  0.241675  0.813768  0.763799  1
  Tc  Tc4  1  0.242294  0.273664  0.956638  1
  Tc  Tc5  1  0.257331  0.273383  0.456773  1
  Tc  Tc6  1  0.742918  0.726546  0.543084  1
  Sn  Sn7  1  0.756226  0.727209  0.042289  1
  F  F8  1  0.947705  0.707618  0.419282  1
  F  F9  1  0.052517  0.292127  0.580860  1
  F  F10  1  0.446936  0.292163  0.080959  1
  F  F11  1  0.548861  0.705938  0.916329  1
  F  F12  1  0.473720  0.729545  0.141597  1
  F  F13  1  0.521204  0.270732  0.860002  1
  F  F14  1  0.978286  0.269175  0.360734  1
  F  F15  1  0.022091  0.730359  0.639253  1
  F  F16  1  0.956658  0.744923  0.173010  1
  F  F17  1  0.043429  0.255755  0.828720  1
  F  F18  1  0.457167  0.254639  0.329519  1
  F  F19  1  0.543121  0.745129  0.670206  1
  F  F20  1  0.771580  0.477914  0.141721  1
  F  F21  1  0.229081  0.519412  0.858441  1
  F  F22  1  0.269427  0.519312  0.359905  1
  F  F23  1  0.730489  0.480488  0.640752  1
  F  F24  1  0.952510  0.280051  0.046479  1
  F  F25  1  0.054102  0.718485  0.953948  1
  F  F26  1  0.452966  0.719475  0.453857  1
  F  F27  1  0.547037  0.280359  0.546400  1
  F  F28  1  0.741794  0.971818  0.446974  1
  F  F29  1  0.258061  0.027980  0.552732  1
  F  F30  1  0.241712  0.028201  0.053029  1
  F  F31  1  0.759936  0.977126  0.945874  1
  F  F32  1  0.581918  0.970907  0.231676  1
  F  F33  1  0.418966  0.029036  0.767990  1
  F  F34  1  0.081767  0.029372  0.268317  1
  F  F35  1  0.918108  0.970637  0.732699  1
