# generated using pymatgen
data_LaThCo17Si8Ni
_symmetry_space_group_name_H-M   'P 1'
_cell_length_a   7.95852515
_cell_length_b   7.95530811
_cell_length_c   7.94380062
_cell_angle_alpha   121.84804235
_cell_angle_beta   121.31081607
_cell_angle_gamma   87.38304205
_symmetry_Int_Tables_number   1
_chemical_formula_structural   LaThCo17Si8Ni
_chemical_formula_sum   'La1 Th1 Co17 Si8 Ni1'
_cell_volume   346.42985945
_cell_formula_units_Z   1
loop_
 _symmetry_equiv_pos_site_id
 _symmetry_equiv_pos_as_xyz
  1  'x, y, z'
loop_
 _atom_site_type_symbol
 _atom_site_label
 _atom_site_symmetry_multiplicity
 _atom_site_fract_x
 _atom_site_fract_y
 _atom_site_fract_z
 _atom_site_occupancy
  La  La0  1  0.248712  0.248892  0.999669  1
  Th  Th1  1  0.750936  0.751183  0.999741  1
  Co  Co2  1  0.809520  0.313735  0.760452  1
  Co  Co3  1  0.312501  0.550390  0.501711  1
  Co  Co4  1  0.189083  0.689621  0.240053  1
  Co  Co5  1  0.689180  0.450280  0.501721  1
  Co  Co6  1  0.948397  0.186242  0.495934  1
  Co  Co7  1  0.067810  0.194681  0.263780  1
  Co  Co8  1  0.299373  0.429766  0.728574  1
  Co  Co9  1  0.048554  0.809633  0.496014  1
  Co  Co10  1  0.568670  0.302316  0.869961  1
  Co  Co11  1  0.449468  0.948227  0.760413  1
  Co  Co12  1  0.797069  0.077409  0.875244  1
  Co  Co13  1  0.430985  0.698123  0.128331  1
  Co  Co14  1  0.700105  0.569396  0.268675  1
  Co  Co15  1  0.206188  0.931263  0.138134  1
  Co  Co16  1  0.999745  0.498257  0.497913  1
  Co  Co17  1  0.553077  0.048169  0.239691  1
  Co  Co18  1  0.501747  0.998790  0.500415  1
  Si  Si19  1  0.286281  0.789816  0.837209  1
  Si  Si20  1  0.790492  0.953104  0.503167  1
  Si  Si21  1  0.952458  0.452702  0.162693  1
  Si  Si22  1  0.452687  0.287932  0.499678  1
  Si  Si23  1  0.048314  0.549943  0.837190  1
  Si  Si24  1  0.212802  0.048014  0.501803  1
  Si  Si25  1  0.709025  0.211399  0.162801  1
  Si  Si26  1  0.549001  0.711590  0.501043  1
  Ni  Ni27  1  0.927819  0.799127  0.727987  1
