# generated using pymatgen
data_Ho4HgPd(PtPb)2
_symmetry_space_group_name_H-M   'P 1'
_cell_length_a   8.12830360
_cell_length_b   8.12830356
_cell_length_c   3.56884900
_cell_angle_alpha   90.00000000
_cell_angle_beta   90.00000000
_cell_angle_gamma   90.75165036
_symmetry_Int_Tables_number   1
_chemical_formula_structural   Ho4HgPd(PtPb)2
_chemical_formula_sum   'Ho4 Hg1 Pd1 Pt2 Pb2'
_cell_volume   235.77113351
_cell_formula_units_Z   1
loop_
 _symmetry_equiv_pos_site_id
 _symmetry_equiv_pos_as_xyz
  1  'x, y, z'
loop_
 _atom_site_type_symbol
 _atom_site_label
 _atom_site_symmetry_multiplicity
 _atom_site_fract_x
 _atom_site_fract_y
 _atom_site_fract_z
 _atom_site_occupancy
  Ho  Ho0  1  0.691193  0.167692  0.500000  1
  Ho  Ho1  1  0.149463  0.350537  0.500000  1
  Ho  Ho2  1  0.834084  0.665916  0.500000  1
  Ho  Ho3  1  0.332308  0.808807  0.500000  1
  Hg  Hg4  1  0.374684  0.125316  0.000000  1
  Pd  Pd5  1  0.624523  0.875477  0.000000  1
  Pt  Pt6  1  0.123306  0.630911  0.000000  1
  Pt  Pt7  1  0.869089  0.376694  0.000000  1
  Pb  Pb8  1  0.996177  0.994827  0.000000  1
  Pb  Pb9  1  0.505173  0.503823  0.000000  1
