# generated using pymatgen
data_Li6TbDy2In3
_symmetry_space_group_name_H-M   'P 1'
_cell_length_a   4.85707800
_cell_length_b   6.84090600
_cell_length_c   14.52239200
_cell_angle_alpha   90.00000000
_cell_angle_beta   90.00000000
_cell_angle_gamma   90.00000000
_symmetry_Int_Tables_number   1
_chemical_formula_structural   Li6TbDy2In3
_chemical_formula_sum   'Li12 Tb2 Dy4 In6'
_cell_volume   482.53281829
_cell_formula_units_Z   2
loop_
 _symmetry_equiv_pos_site_id
 _symmetry_equiv_pos_as_xyz
  1  'x, y, z'
loop_
 _atom_site_type_symbol
 _atom_site_label
 _atom_site_symmetry_multiplicity
 _atom_site_fract_x
 _atom_site_fract_y
 _atom_site_fract_z
 _atom_site_occupancy
  Li  Li0  1  0.500015  0.250217  0.999999  1
  Li  Li1  1  0.500015  0.749783  0.999999  1
  Li  Li2  1  0.000698  0.249293  0.166527  1
  Li  Li3  1  0.000698  0.750706  0.166527  1
  Li  Li4  1  0.500694  0.250705  0.333473  1
  Li  Li5  1  0.500694  0.749294  0.333473  1
  Li  Li6  1  0.000015  0.249782  0.500001  1
  Li  Li7  1  0.000015  0.750217  0.500001  1
  Li  Li8  1  0.499379  0.251044  0.666643  1
  Li  Li9  1  0.499379  0.748955  0.666643  1
  Li  Li10  1  0.999381  0.248954  0.833356  1
  Li  Li11  1  0.999381  0.751045  0.833356  1
  Tb  Tb12  1  0.999238  0.000000  0.666487  1
  Tb  Tb13  1  0.499238  0.500000  0.833514  1
  Dy  Dy14  1  0.999620  0.000000  0.999951  1
  Dy  Dy15  1  0.500853  0.500000  0.166514  1
  Dy  Dy16  1  0.000851  0.000000  0.333486  1
  Dy  Dy17  1  0.499620  0.500000  0.500049  1
  In  In18  1  0.000241  0.500000  0.000107  1
  In  In19  1  0.500734  0.000000  0.166449  1
  In  In20  1  0.000731  0.500000  0.333551  1
  In  In21  1  0.500241  0.000000  0.499893  1
  In  In22  1  0.999139  0.500000  0.666476  1
  In  In23  1  0.499138  0.000000  0.833523  1
