# generated using pymatgen
data_Lu6ScVO12
_symmetry_space_group_name_H-M   'P 1'
_cell_length_a   6.43323822
_cell_length_b   6.43323750
_cell_length_c   6.43323818
_cell_angle_alpha   92.49589645
_cell_angle_beta   92.49590201
_cell_angle_gamma   92.49590641
_symmetry_Int_Tables_number   1
_chemical_formula_structural   Lu6ScVO12
_chemical_formula_sum   'Lu6 Sc1 V1 O12'
_cell_volume   265.46901496
_cell_formula_units_Z   1
loop_
 _symmetry_equiv_pos_site_id
 _symmetry_equiv_pos_as_xyz
  1  'x, y, z'
loop_
 _atom_site_type_symbol
 _atom_site_label
 _atom_site_symmetry_multiplicity
 _atom_site_fract_x
 _atom_site_fract_y
 _atom_site_fract_z
 _atom_site_occupancy
  Lu  Lu0  1  0.744028  0.927689  0.436452  1
  Lu  Lu1  1  0.927689  0.436452  0.744028  1
  Lu  Lu2  1  0.436452  0.744028  0.927689  1
  Lu  Lu3  1  0.255972  0.072311  0.563548  1
  Lu  Lu4  1  0.072311  0.563548  0.255972  1
  Lu  Lu5  1  0.563548  0.255972  0.072311  1
  Sc  Sc6  1  0.000000  0.000000  0.000000  1
  V  V7  1  0.500000  0.500000  0.500000  1
  O  O8  1  0.591983  0.462246  0.805574  1
  O  O9  1  0.462246  0.805574  0.591983  1
  O  O10  1  0.805574  0.591983  0.462246  1
  O  O11  1  0.408017  0.537754  0.194426  1
  O  O12  1  0.537754  0.194426  0.408017  1
  O  O13  1  0.194426  0.408017  0.537754  1
  O  O14  1  0.070446  0.912910  0.311468  1
  O  O15  1  0.912910  0.311468  0.070446  1
  O  O16  1  0.688532  0.929554  0.087090  1
  O  O17  1  0.087090  0.688532  0.929554  1
  O  O18  1  0.929554  0.087090  0.688532  1
  O  O19  1  0.311468  0.070446  0.912910  1
