# generated using pymatgen
data_Pr16Mg4Os3Au
_symmetry_space_group_name_H-M   'P 1'
_cell_length_a   10.12080660
_cell_length_b   10.15971529
_cell_length_c   10.17120704
_cell_angle_alpha   59.96038577
_cell_angle_beta   59.83251011
_cell_angle_gamma   59.88493143
_symmetry_Int_Tables_number   1
_chemical_formula_structural   Pr16Mg4Os3Au
_chemical_formula_sum   'Pr16 Mg4 Os3 Au1'
_cell_volume   737.72352193
_cell_formula_units_Z   1
loop_
 _symmetry_equiv_pos_site_id
 _symmetry_equiv_pos_as_xyz
  1  'x, y, z'
loop_
 _atom_site_type_symbol
 _atom_site_label
 _atom_site_symmetry_multiplicity
 _atom_site_fract_x
 _atom_site_fract_y
 _atom_site_fract_z
 _atom_site_occupancy
  Pr  Pr0  1  0.337203  0.352227  0.351995  1
  Pr  Pr1  1  0.337213  0.352235  0.958563  1
  Pr  Pr2  1  0.337768  0.958343  0.351949  1
  Pr  Pr3  1  0.970852  0.342605  0.343266  1
  Pr  Pr4  1  0.820893  0.190372  0.190926  1
  Pr  Pr5  1  0.188241  0.811215  0.811546  1
  Pr  Pr6  1  0.188246  0.811218  0.188993  1
  Pr  Pr7  1  0.820897  0.190365  0.797808  1
  Pr  Pr8  1  0.188772  0.188505  0.811362  1
  Pr  Pr9  1  0.821299  0.797251  0.190737  1
  Pr  Pr10  1  0.936110  0.561742  0.562286  1
  Pr  Pr11  1  0.555408  0.939710  0.939354  1
  Pr  Pr12  1  0.555411  0.939709  0.565532  1
  Pr  Pr13  1  0.936099  0.561761  0.939852  1
  Pr  Pr14  1  0.555868  0.565803  0.939163  1
  Pr  Pr15  1  0.936603  0.940010  0.561691  1
  Mg  Mg16  1  0.578575  0.578218  0.578727  1
  Mg  Mg17  1  0.578571  0.578221  0.264483  1
  Mg  Mg18  1  0.578402  0.264369  0.578615  1
  Mg  Mg19  1  0.261597  0.579105  0.579649  1
  Os  Os20  1  0.146552  0.137489  0.136482  1
  Os  Os21  1  0.146540  0.137491  0.579480  1
  Os  Os22  1  0.147045  0.580071  0.136443  1
  Au  Au23  1  0.575835  0.141966  0.141101  1
