# generated using pymatgen
data_Ta4V4Si3Ge
_symmetry_space_group_name_H-M   'P 1'
_cell_length_a   3.41011200
_cell_length_b   6.60960636
_cell_length_c   7.93509391
_cell_angle_alpha   90.04560511
_cell_angle_beta   90.00000000
_cell_angle_gamma   90.00000000
_symmetry_Int_Tables_number   1
_chemical_formula_structural   Ta4V4Si3Ge
_chemical_formula_sum   'Ta4 V4 Si3 Ge1'
_cell_volume   178.85297631
_cell_formula_units_Z   1
loop_
 _symmetry_equiv_pos_site_id
 _symmetry_equiv_pos_as_xyz
  1  'x, y, z'
loop_
 _atom_site_type_symbol
 _atom_site_label
 _atom_site_symmetry_multiplicity
 _atom_site_fract_x
 _atom_site_fract_y
 _atom_site_fract_z
 _atom_site_occupancy
  Ta  Ta0  1  0.250000  0.543649  0.167064  1
  Ta  Ta1  1  0.750000  0.460185  0.838701  1
  Ta  Ta2  1  0.750000  0.947504  0.666597  1
  Ta  Ta3  1  0.250000  0.042895  0.329772  1
  V  V4  1  0.250000  0.632915  0.559925  1
  V  V5  1  0.750000  0.373143  0.435577  1
  V  V6  1  0.750000  0.871042  0.061105  1
  V  V7  1  0.250000  0.128384  0.941560  1
  Si  Si8  1  0.250000  0.755309  0.862510  1
  Si  Si9  1  0.750000  0.245354  0.137973  1
  Si  Si10  1  0.750000  0.745745  0.360265  1
  Ge  Ge11  1  0.250000  0.253875  0.638951  1
