# generated using pymatgen
data_Nd5ZrRuO12
_symmetry_space_group_name_H-M   'P 1'
_cell_length_a   7.14773235
_cell_length_b   7.14773383
_cell_length_c   7.63823206
_cell_angle_alpha   74.52561173
_cell_angle_beta   74.52560286
_cell_angle_gamma   50.78014488
_symmetry_Int_Tables_number   1
_chemical_formula_structural   Nd5ZrRuO12
_chemical_formula_sum   'Nd5 Zr1 Ru1 O12'
_cell_volume   288.84166118
_cell_formula_units_Z   1
loop_
 _symmetry_equiv_pos_site_id
 _symmetry_equiv_pos_as_xyz
  1  'x, y, z'
loop_
 _atom_site_type_symbol
 _atom_site_label
 _atom_site_symmetry_multiplicity
 _atom_site_fract_x
 _atom_site_fract_y
 _atom_site_fract_z
 _atom_site_occupancy
  Nd  Nd0  1  0.298440  0.305854  0.360274  1
  Nd  Nd1  1  0.694146  0.701560  0.639726  1
  Nd  Nd2  1  0.687173  0.701454  0.166946  1
  Nd  Nd3  1  0.298546  0.312827  0.833054  1
  Nd  Nd4  1  0.006458  0.993542  0.500000  1
  Zr  Zr5  1  0.769947  0.230053  0.000000  1
  Ru  Ru6  1  0.254252  0.745748  0.000000  1
  O  O7  1  0.092922  0.598571  0.574409  1
  O  O8  1  0.021247  0.978148  0.183945  1
  O  O9  1  0.401429  0.907078  0.425591  1
  O  O10  1  0.492682  0.508907  0.181083  1
  O  O11  1  0.099110  0.583646  0.081162  1
  O  O12  1  0.902361  0.405515  0.422367  1
  O  O13  1  0.021852  0.978753  0.816055  1
  O  O14  1  0.594485  0.097638  0.577633  1
  O  O15  1  0.491093  0.507318  0.818917  1
  O  O16  1  0.561787  0.104283  0.082477  1
  O  O17  1  0.416354  0.900890  0.918838  1
  O  O18  1  0.895717  0.438213  0.917523  1
