# generated using pymatgen
data_Y5(SiBi)2
_symmetry_space_group_name_H-M   'P 1'
_cell_length_a   8.67762168
_cell_length_b   8.67762231
_cell_length_c   7.94474400
_cell_angle_alpha   90.00000000
_cell_angle_beta   90.00000000
_cell_angle_gamma   125.58848048
_symmetry_Int_Tables_number   1
_chemical_formula_structural   Y5(SiBi)2
_chemical_formula_sum   'Y10 Si4 Bi4'
_cell_volume   486.50603344
_cell_formula_units_Z   2
loop_
 _symmetry_equiv_pos_site_id
 _symmetry_equiv_pos_as_xyz
  1  'x, y, z'
loop_
 _atom_site_type_symbol
 _atom_site_label
 _atom_site_symmetry_multiplicity
 _atom_site_fract_x
 _atom_site_fract_y
 _atom_site_fract_z
 _atom_site_occupancy
  Y  Y0  1  0.042852  0.286990  0.335468  1
  Y  Y1  1  0.957148  0.713010  0.664532  1
  Y  Y2  1  0.457148  0.213010  0.835468  1
  Y  Y3  1  0.786990  0.542852  0.164532  1
  Y  Y4  1  0.542852  0.786990  0.164532  1
  Y  Y5  1  0.213010  0.457148  0.835468  1
  Y  Y6  1  0.713010  0.957148  0.664532  1
  Y  Y7  1  0.286990  0.042852  0.335468  1
  Y  Y8  1  0.000000  0.000000  0.000000  1
  Y  Y9  1  0.500000  0.500000  0.500000  1
  Si  Si10  1  0.365605  0.365605  0.133240  1
  Si  Si11  1  0.634395  0.634395  0.866760  1
  Si  Si12  1  0.134395  0.134395  0.633240  1
  Si  Si13  1  0.865605  0.865605  0.366760  1
  Bi  Bi14  1  0.792531  0.207469  0.000000  1
  Bi  Bi15  1  0.207469  0.792531  0.000000  1
  Bi  Bi16  1  0.707469  0.292531  0.500000  1
  Bi  Bi17  1  0.292531  0.707469  0.500000  1
