# generated using pymatgen
data_NaSi4(IrRh)3
_symmetry_space_group_name_H-M   'P 1'
_cell_length_a   7.08712900
_cell_length_b   7.08712896
_cell_length_c   3.72708200
_cell_angle_alpha   90.00000000
_cell_angle_beta   90.00000000
_cell_angle_gamma   119.99999550
_symmetry_Int_Tables_number   1
_chemical_formula_structural   NaSi4(IrRh)3
_chemical_formula_sum   'Na1 Si4 Ir3 Rh3'
_cell_volume   162.12137284
_cell_formula_units_Z   1
loop_
 _symmetry_equiv_pos_site_id
 _symmetry_equiv_pos_as_xyz
  1  'x, y, z'
loop_
 _atom_site_type_symbol
 _atom_site_label
 _atom_site_symmetry_multiplicity
 _atom_site_fract_x
 _atom_site_fract_y
 _atom_site_fract_z
 _atom_site_occupancy
  Na  Na0  1  0.000000  0.000000  0.000000  1
  Si  Si1  1  0.801669  0.198331  0.500000  1
  Si  Si2  1  0.396663  0.198331  0.500000  1
  Si  Si3  1  0.333333  0.666667  0.000000  1
  Si  Si4  1  0.801669  0.603337  0.500000  1
  Ir  Ir5  1  0.533214  0.066429  0.000000  1
  Ir  Ir6  1  0.933571  0.466786  0.000000  1
  Ir  Ir7  1  0.533214  0.466786  0.000000  1
  Rh  Rh8  1  0.195302  0.804698  0.500000  1
  Rh  Rh9  1  0.195302  0.390606  0.500000  1
  Rh  Rh10  1  0.609394  0.804698  0.500000  1
