# generated using pymatgen
data_La7Pr(Mg3Au10)2
_symmetry_space_group_name_H-M   'P 1'
_cell_length_a   8.79638706
_cell_length_b   8.79638673
_cell_length_c   10.42681001
_cell_angle_alpha   89.99646835
_cell_angle_beta   89.99646672
_cell_angle_gamma   108.46896310
_symmetry_Int_Tables_number   1
_chemical_formula_structural   La7Pr(Mg3Au10)2
_chemical_formula_sum   'La7 Pr1 Mg6 Au20'
_cell_volume   765.23589265
_cell_formula_units_Z   1
loop_
 _symmetry_equiv_pos_site_id
 _symmetry_equiv_pos_as_xyz
  1  'x, y, z'
loop_
 _atom_site_type_symbol
 _atom_site_label
 _atom_site_symmetry_multiplicity
 _atom_site_fract_x
 _atom_site_fract_y
 _atom_site_fract_z
 _atom_site_occupancy
  La  La0  1  0.299677  0.700323  0.000000  1
  La  La1  1  0.799442  0.200558  0.500000  1
  La  La2  1  0.200509  0.799491  0.500000  1
  La  La3  1  0.301957  0.301321  0.202879  1
  La  La4  1  0.698679  0.698043  0.797121  1
  La  La5  1  0.198515  0.198790  0.703504  1
  La  La6  1  0.801210  0.801485  0.296496  1
  Pr  Pr7  1  0.700440  0.299560  0.000000  1
  Mg  Mg8  1  0.010482  0.510484  0.249856  1
  Mg  Mg9  1  0.988368  0.488717  0.750478  1
  Mg  Mg10  1  0.489516  0.989518  0.750144  1
  Mg  Mg11  1  0.511283  0.011632  0.249522  1
  Mg  Mg12  1  0.999908  0.000092  0.000000  1
  Mg  Mg13  1  0.500059  0.499941  0.500000  1
  Au  Au14  1  0.096679  0.097080  0.403700  1
  Au  Au15  1  0.902920  0.903321  0.596300  1
  Au  Au16  1  0.403019  0.402320  0.904527  1
  Au  Au17  1  0.597680  0.596981  0.095473  1
  Au  Au18  1  0.885543  0.166196  0.203896  1
  Au  Au19  1  0.114159  0.834659  0.795980  1
  Au  Au20  1  0.614261  0.333934  0.705264  1
  Au  Au21  1  0.666066  0.385739  0.294736  1
  Au  Au22  1  0.386402  0.665834  0.295360  1
  Au  Au23  1  0.334166  0.613598  0.704640  1
  Au  Au24  1  0.833804  0.114457  0.796104  1
  Au  Au25  1  0.165341  0.885841  0.204020  1
  Au  Au26  1  0.934402  0.656785  0.022572  1
  Au  Au27  1  0.064778  0.342403  0.977446  1
  Au  Au28  1  0.565424  0.842057  0.522608  1
  Au  Au29  1  0.157943  0.434576  0.477392  1
  Au  Au30  1  0.434562  0.158005  0.477648  1
  Au  Au31  1  0.841995  0.565438  0.522352  1
  Au  Au32  1  0.343215  0.065598  0.977428  1
  Au  Au33  1  0.657597  0.935222  0.022554  1
