# generated using pymatgen
data_Nd2ZnGa5Ag2
_symmetry_space_group_name_H-M   'P 1'
_cell_length_a   4.33713000
_cell_length_b   4.33713000
_cell_length_c   10.74440400
_cell_angle_alpha   90.00000000
_cell_angle_beta   90.00000000
_cell_angle_gamma   90.00000000
_symmetry_Int_Tables_number   1
_chemical_formula_structural   Nd2ZnGa5Ag2
_chemical_formula_sum   'Nd2 Zn1 Ga5 Ag2'
_cell_volume   202.10972419
_cell_formula_units_Z   1
loop_
 _symmetry_equiv_pos_site_id
 _symmetry_equiv_pos_as_xyz
  1  'x, y, z'
loop_
 _atom_site_type_symbol
 _atom_site_label
 _atom_site_symmetry_multiplicity
 _atom_site_fract_x
 _atom_site_fract_y
 _atom_site_fract_z
 _atom_site_occupancy
  Nd  Nd0  1  0.500000  0.000000  0.748039  1
  Nd  Nd1  1  0.000000  0.500000  0.251961  1
  Zn  Zn2  1  0.500000  0.500000  0.500000  1
  Ga  Ga3  1  0.000000  0.500000  0.861672  1
  Ga  Ga4  1  0.500000  0.000000  0.367493  1
  Ga  Ga5  1  0.500000  0.000000  0.138328  1
  Ga  Ga6  1  0.000000  0.500000  0.632507  1
  Ga  Ga7  1  0.500000  0.500000  0.000000  1
  Ag  Ag8  1  0.000000  0.000000  0.500000  1
  Ag  Ag9  1  0.000000  0.000000  0.000000  1
