# generated using pymatgen
data_Ac4Co2NiSn8
_symmetry_space_group_name_H-M   'P 1'
_cell_length_a   4.67818900
_cell_length_b   4.65811600
_cell_length_c   18.42550400
_cell_angle_alpha   90.00000000
_cell_angle_beta   90.00000000
_cell_angle_gamma   90.00000000
_symmetry_Int_Tables_number   1
_chemical_formula_structural   Ac4Co2NiSn8
_chemical_formula_sum   'Ac4 Co2 Ni1 Sn8'
_cell_volume   401.52023700
_cell_formula_units_Z   1
loop_
 _symmetry_equiv_pos_site_id
 _symmetry_equiv_pos_as_xyz
  1  'x, y, z'
loop_
 _atom_site_type_symbol
 _atom_site_label
 _atom_site_symmetry_multiplicity
 _atom_site_fract_x
 _atom_site_fract_y
 _atom_site_fract_z
 _atom_site_occupancy
  Ac  Ac0  1  0.500000  0.000000  0.607446  1
  Ac  Ac1  1  0.000000  0.000000  0.108984  1
  Ac  Ac2  1  0.000000  0.500000  0.891325  1
  Ac  Ac3  1  0.500000  0.500000  0.390239  1
  Co  Co4  1  0.000000  0.000000  0.316299  1
  Co  Co5  1  0.000000  0.500000  0.688287  1
  Ni  Ni6  1  0.500000  0.500000  0.183550  1
  Sn  Sn7  1  0.500000  0.000000  0.944856  1
  Sn  Sn8  1  0.000000  0.000000  0.452060  1
  Sn  Sn9  1  0.000000  0.500000  0.550921  1
  Sn  Sn10  1  0.500000  0.500000  0.045649  1
  Sn  Sn11  1  0.000000  0.000000  0.751962  1
  Sn  Sn12  1  0.500000  0.000000  0.249327  1
  Sn  Sn13  1  0.500000  0.500000  0.753529  1
  Sn  Sn14  1  0.000000  0.500000  0.250866  1
