# generated using pymatgen
data_Zr12Al7HgO4
_symmetry_space_group_name_H-M   'P 1'
_cell_length_a   7.42270097
_cell_length_b   7.42270097
_cell_length_c   7.42270097
_cell_angle_alpha   89.76570598
_cell_angle_beta   90.23429402
_cell_angle_gamma   90.23429402
_symmetry_Int_Tables_number   1
_chemical_formula_structural   Zr12Al7HgO4
_chemical_formula_sum   'Zr12 Al7 Hg1 O4'
_cell_volume   408.95453701
_cell_formula_units_Z   1
loop_
 _symmetry_equiv_pos_site_id
 _symmetry_equiv_pos_as_xyz
  1  'x, y, z'
loop_
 _atom_site_type_symbol
 _atom_site_label
 _atom_site_symmetry_multiplicity
 _atom_site_fract_x
 _atom_site_fract_y
 _atom_site_fract_z
 _atom_site_occupancy
  Zr  Zr0  1  0.790997  0.957203  0.374955  1
  Zr  Zr1  1  0.706277  0.044655  0.875844  1
  Zr  Zr2  1  0.207323  0.452070  0.120806  1
  Zr  Zr3  1  0.295341  0.544287  0.627265  1
  Zr  Zr4  1  0.955345  0.375844  0.793723  1
  Zr  Zr5  1  0.042797  0.874955  0.709003  1
  Zr  Zr6  1  0.455713  0.127265  0.204659  1
  Zr  Zr7  1  0.547930  0.620806  0.292677  1
  Zr  Zr8  1  0.379194  0.792677  0.952070  1
  Zr  Zr9  1  0.872735  0.704659  0.044287  1
  Zr  Zr10  1  0.125045  0.209003  0.457203  1
  Zr  Zr11  1  0.624156  0.293723  0.544655  1
  Al  Al12  1  0.322024  0.177929  0.822087  1
  Al  Al13  1  0.822071  0.322087  0.177976  1
  Al  Al14  1  0.677913  0.677976  0.677929  1
  Al  Al15  1  0.571093  0.428907  0.928907  1
  Al  Al16  1  0.430089  0.930003  0.574641  1
  Al  Al17  1  0.925359  0.569911  0.430003  1
  Al  Al18  1  0.069997  0.074641  0.069911  1
  Hg  Hg19  1  0.182343  0.817657  0.317657  1
  O  O20  1  0.875621  0.124379  0.624379  1
  O  O21  1  0.622238  0.874581  0.127017  1
  O  O22  1  0.125419  0.627017  0.877762  1
  O  O23  1  0.372983  0.377762  0.374581  1
