# generated using pymatgen
data_Zr7MnCo15ReP12
_symmetry_space_group_name_H-M   'P 1'
_cell_length_a   12.07207934
_cell_length_b   12.05083036
_cell_length_c   3.67255000
_cell_angle_alpha   90.00000000
_cell_angle_beta   90.00000000
_cell_angle_gamma   120.28310801
_symmetry_Int_Tables_number   1
_chemical_formula_structural   Zr7MnCo15ReP12
_chemical_formula_sum   'Zr7 Mn1 Co15 Re1 P12'
_cell_volume   461.37214654
_cell_formula_units_Z   1
loop_
 _symmetry_equiv_pos_site_id
 _symmetry_equiv_pos_as_xyz
  1  'x, y, z'
loop_
 _atom_site_type_symbol
 _atom_site_label
 _atom_site_symmetry_multiplicity
 _atom_site_fract_x
 _atom_site_fract_y
 _atom_site_fract_z
 _atom_site_occupancy
  Zr  Zr0  1  0.556204  0.999931  0.000000  1
  Zr  Zr1  1  0.998876  0.555957  0.000000  1
  Zr  Zr2  1  0.666865  0.334452  0.000000  1
  Zr  Zr3  1  0.333176  0.666241  0.000000  1
  Zr  Zr4  1  0.818797  0.819126  0.500000  1
  Zr  Zr5  1  0.175042  0.999419  0.500000  1
  Zr  Zr6  1  0.000915  0.178143  0.500000  1
  Mn  Mn7  1  0.204411  0.374234  0.000000  1
  Co  Co8  1  0.179568  0.808427  0.000000  1
  Co  Co9  1  0.816023  0.625909  0.000000  1
  Co  Co10  1  0.809514  0.180579  0.000000  1
  Co  Co11  1  0.372504  0.197331  0.000000  1
  Co  Co12  1  0.126915  0.480505  0.500000  1
  Co  Co13  1  0.354476  0.875864  0.500000  1
  Co  Co14  1  0.513603  0.638424  0.500000  1
  Co  Co15  1  0.640935  0.516124  0.500000  1
  Co  Co16  1  0.872116  0.355809  0.500000  1
  Co  Co17  1  0.480595  0.130996  0.500000  1
  Co  Co18  1  0.999942  0.999430  0.000000  1
  Co  Co19  1  0.722430  0.999829  0.500000  1
  Co  Co20  1  0.999649  0.722860  0.500000  1
  Co  Co21  1  0.625764  0.816853  0.000000  1
  Co  Co22  1  0.284913  0.279602  0.500000  1
  Re  Re23  1  0.449924  0.445792  0.000000  1
  P  P24  1  0.641158  0.641724  0.000000  1
  P  P25  1  0.347490  0.004019  0.000000  1
  P  P26  1  0.008422  0.349697  0.000000  1
  P  P27  1  0.481270  0.315843  0.500000  1
  P  P28  1  0.692504  0.174359  0.500000  1
  P  P29  1  0.825073  0.518625  0.500000  1
  P  P30  1  0.517550  0.824385  0.500000  1
  P  P31  1  0.173777  0.691727  0.500000  1
  P  P32  1  0.824166  0.999097  0.000000  1
  P  P33  1  0.997614  0.823046  0.000000  1
  P  P34  1  0.312393  0.478490  0.500000  1
  P  P35  1  0.175428  0.177152  0.000000  1
