# generated using pymatgen
data_Hf4Zr2CoSb2
_symmetry_space_group_name_H-M   'P 1'
_cell_length_a   7.76329133
_cell_length_b   7.76329115
_cell_length_c   3.61280800
_cell_angle_alpha   90.00000000
_cell_angle_beta   90.00000000
_cell_angle_gamma   120.13434048
_symmetry_Int_Tables_number   1
_chemical_formula_structural   Hf4Zr2CoSb2
_chemical_formula_sum   'Hf4 Zr2 Co1 Sb2'
_cell_volume   188.31190314
_cell_formula_units_Z   1
loop_
 _symmetry_equiv_pos_site_id
 _symmetry_equiv_pos_as_xyz
  1  'x, y, z'
loop_
 _atom_site_type_symbol
 _atom_site_label
 _atom_site_symmetry_multiplicity
 _atom_site_fract_x
 _atom_site_fract_y
 _atom_site_fract_z
 _atom_site_occupancy
  Hf  Hf0  1  0.237724  0.000791  0.500000  1
  Hf  Hf1  1  0.000791  0.237724  0.500000  1
  Hf  Hf2  1  0.762415  0.762415  0.500000  1
  Hf  Hf3  1  0.396474  0.396474  0.000000  1
  Zr  Zr4  1  0.600156  0.000049  0.000000  1
  Zr  Zr5  1  0.000049  0.600156  0.000000  1
  Co  Co6  1  0.002784  0.002784  0.000000  1
  Sb  Sb7  1  0.333741  0.665866  0.500000  1
  Sb  Sb8  1  0.665866  0.333741  0.500000  1
