# generated using pymatgen
data_Tb4Tm4Sc12Si15Ru
_symmetry_space_group_name_H-M   'P 1'
_cell_length_a   7.06518590
_cell_length_b   7.42941960
_cell_length_c   13.92207752
_cell_angle_alpha   90.01183211
_cell_angle_beta   89.97110854
_cell_angle_gamma   90.14410200
_symmetry_Int_Tables_number   1
_chemical_formula_structural   Tb4Tm4Sc12Si15Ru
_chemical_formula_sum   'Tb4 Tm4 Sc12 Si15 Ru1'
_cell_volume   730.77063967
_cell_formula_units_Z   1
loop_
 _symmetry_equiv_pos_site_id
 _symmetry_equiv_pos_as_xyz
  1  'x, y, z'
loop_
 _atom_site_type_symbol
 _atom_site_label
 _atom_site_symmetry_multiplicity
 _atom_site_fract_x
 _atom_site_fract_y
 _atom_site_fract_z
 _atom_site_occupancy
  Tb  Tb0  1  0.511452  0.323145  0.095274  1
  Tb  Tb1  1  0.010869  0.177872  0.404827  1
  Tb  Tb2  1  0.511275  0.323264  0.404030  1
  Tb  Tb3  1  0.489134  0.676268  0.595750  1
  Tm  Tm4  1  0.011470  0.178861  0.095848  1
  Tm  Tm5  1  0.991001  0.826778  0.904243  1
  Tm  Tm6  1  0.488683  0.677673  0.903589  1
  Tm  Tm7  1  0.990849  0.826835  0.596328  1
  Sc  Sc8  1  0.157627  0.502501  0.750269  1
  Sc  Sc9  1  0.838379  0.495298  0.249712  1
  Sc  Sc10  1  0.338970  0.005604  0.249736  1
  Sc  Sc11  1  0.669877  0.998014  0.750208  1
  Sc  Sc12  1  0.316208  0.171204  0.628226  1
  Sc  Sc13  1  0.672392  0.825904  0.374115  1
  Sc  Sc14  1  0.171109  0.678289  0.374189  1
  Sc  Sc15  1  0.672069  0.825666  0.125372  1
  Sc  Sc16  1  0.837201  0.320058  0.627948  1
  Sc  Sc17  1  0.315780  0.171448  0.872227  1
  Sc  Sc18  1  0.837762  0.319464  0.872500  1
  Sc  Sc19  1  0.171232  0.678412  0.125412  1
  Si  Si20  1  0.968584  0.885214  0.249545  1
  Si  Si21  1  0.469139  0.615326  0.249762  1
  Si  Si22  1  0.529219  0.388193  0.750645  1
  Si  Si23  1  0.285582  0.865974  0.750738  1
  Si  Si24  1  0.714389  0.129153  0.249206  1
  Si  Si25  1  0.213111  0.371226  0.249265  1
  Si  Si26  1  0.780297  0.628016  0.750843  1
  Si  Si27  1  0.158682  0.469419  0.537925  1
  Si  Si28  1  0.844810  0.537402  0.462072  1
  Si  Si29  1  0.344517  0.965277  0.460594  1
  Si  Si30  1  0.845063  0.536074  0.038134  1
  Si  Si31  1  0.656929  0.034145  0.539206  1
  Si  Si32  1  0.160300  0.469165  0.962197  1
  Si  Si33  1  0.656664  0.032901  0.960673  1
  Si  Si34  1  0.342954  0.965070  0.039319  1
  Ru  Ru35  1  0.026420  0.104886  0.750073  1
