# generated using pymatgen
data_FeSNO7
_symmetry_space_group_name_H-M   'P 1'
_cell_length_a   6.43408800
_cell_length_b   5.25656385
_cell_length_c   8.71769546
_cell_angle_alpha   86.33958713
_cell_angle_beta   90.00000000
_cell_angle_gamma   90.00000000
_symmetry_Int_Tables_number   1
_chemical_formula_structural   FeSNO7
_chemical_formula_sum   'Fe2 S2 N2 O14'
_cell_volume   294.24138355
_cell_formula_units_Z   2
loop_
 _symmetry_equiv_pos_site_id
 _symmetry_equiv_pos_as_xyz
  1  'x, y, z'
loop_
 _atom_site_type_symbol
 _atom_site_label
 _atom_site_symmetry_multiplicity
 _atom_site_fract_x
 _atom_site_fract_y
 _atom_site_fract_z
 _atom_site_occupancy
  Fe  Fe0  1  0.250000  0.207292  0.661345  1
  Fe  Fe1  1  0.750000  0.792708  0.338655  1
  S  S2  1  0.750000  0.272837  0.572763  1
  S  S3  1  0.250000  0.727163  0.427237  1
  N  N4  1  0.250000  0.270384  0.943102  1
  N  N5  1  0.750000  0.729616  0.056898  1
  O  O6  1  0.750000  0.700051  0.920471  1
  O  O7  1  0.250000  0.047275  0.885056  1
  O  O8  1  0.250000  0.458023  0.837339  1
  O  O9  1  0.934831  0.208703  0.667733  1
  O  O10  1  0.565169  0.208703  0.667733  1
  O  O11  1  0.250000  0.869406  0.569328  1
  O  O12  1  0.750000  0.550803  0.525370  1
  O  O13  1  0.250000  0.449197  0.474630  1
  O  O14  1  0.750000  0.130594  0.430672  1
  O  O15  1  0.434831  0.791297  0.332267  1
  O  O16  1  0.065169  0.791297  0.332267  1
  O  O17  1  0.750000  0.541977  0.162661  1
  O  O18  1  0.750000  0.952725  0.114944  1
  O  O19  1  0.250000  0.299949  0.079529  1
