# generated using pymatgen
data_Tm3Al3ZnSiPt
_symmetry_space_group_name_H-M   'P 1'
_cell_length_a   6.87480700
_cell_length_b   6.87480768
_cell_length_c   4.21013000
_cell_angle_alpha   90.00000000
_cell_angle_beta   90.00000000
_cell_angle_gamma   120.00000156
_symmetry_Int_Tables_number   1
_chemical_formula_structural   Tm3Al3ZnSiPt
_chemical_formula_sum   'Tm3 Al3 Zn1 Si1 Pt1'
_cell_volume   172.32456653
_cell_formula_units_Z   1
loop_
 _symmetry_equiv_pos_site_id
 _symmetry_equiv_pos_as_xyz
  1  'x, y, z'
loop_
 _atom_site_type_symbol
 _atom_site_label
 _atom_site_symmetry_multiplicity
 _atom_site_fract_x
 _atom_site_fract_y
 _atom_site_fract_z
 _atom_site_occupancy
  Tm  Tm0  1  0.419202  0.999190  0.000000  1
  Tm  Tm1  1  0.000810  0.420012  0.000000  1
  Tm  Tm2  1  0.579988  0.580799  0.000000  1
  Al  Al3  1  0.762423  0.002604  0.500000  1
  Al  Al4  1  0.240180  0.237577  0.500000  1
  Al  Al5  1  0.997396  0.759818  0.500000  1
  Zn  Zn6  1  0.666666  0.333334  0.500000  1
  Si  Si7  1  0.333333  0.666667  0.500000  1
  Pt  Pt8  1  0.000000  0.000000  0.000000  1
