# generated using pymatgen
data_TbHo3Al18(IrPd2)2
_symmetry_space_group_name_H-M   'P 1'
_cell_length_a   7.60722500
_cell_length_b   7.60733511
_cell_length_c   9.44640800
_cell_angle_alpha   90.00000000
_cell_angle_beta   90.00000000
_cell_angle_gamma   119.63582370
_symmetry_Int_Tables_number   1
_chemical_formula_structural   TbHo3Al18(IrPd2)2
_chemical_formula_sum   'Tb1 Ho3 Al18 Ir2 Pd4'
_cell_volume   475.15816276
_cell_formula_units_Z   1
loop_
 _symmetry_equiv_pos_site_id
 _symmetry_equiv_pos_as_xyz
  1  'x, y, z'
loop_
 _atom_site_type_symbol
 _atom_site_label
 _atom_site_symmetry_multiplicity
 _atom_site_fract_x
 _atom_site_fract_y
 _atom_site_fract_z
 _atom_site_occupancy
  Tb  Tb0  1  0.994339  0.668794  0.250000  1
  Ho  Ho1  1  0.005650  0.331103  0.750000  1
  Ho  Ho2  1  0.668887  0.994364  0.250000  1
  Ho  Ho3  1  0.331151  0.005715  0.750000  1
  Al  Al4  1  0.127763  0.127876  0.250000  1
  Al  Al5  1  0.872340  0.872354  0.750000  1
  Al  Al6  1  0.999719  0.331225  0.076152  1
  Al  Al7  1  0.000264  0.668531  0.923515  1
  Al  Al8  1  0.000264  0.668531  0.576485  1
  Al  Al9  1  0.331695  0.999972  0.423852  1
  Al  Al10  1  0.999719  0.331225  0.423848  1
  Al  Al11  1  0.668532  0.000272  0.576329  1
  Al  Al12  1  0.668532  0.000272  0.923671  1
  Al  Al13  1  0.331695  0.999972  0.076148  1
  Al  Al14  1  0.330662  0.330648  0.557004  1
  Al  Al15  1  0.669138  0.669350  0.443205  1
  Al  Al16  1  0.669138  0.669350  0.056795  1
  Al  Al17  1  0.330662  0.330648  0.942996  1
  Al  Al18  1  0.340523  0.547683  0.250000  1
  Al  Al19  1  0.659551  0.452177  0.750000  1
  Al  Al20  1  0.547480  0.340218  0.250000  1
  Al  Al21  1  0.452196  0.659580  0.750000  1
  Ir  Ir22  1  0.000020  0.000167  0.999869  1
  Ir  Ir23  1  0.000020  0.000167  0.500131  1
  Pd  Pd24  1  0.672314  0.327492  0.999945  1
  Pd  Pd25  1  0.327716  0.672413  0.999948  1
  Pd  Pd26  1  0.327716  0.672413  0.500052  1
  Pd  Pd27  1  0.672314  0.327492  0.500055  1
