# generated using pymatgen
data_GdHo5(RuO7)2
_symmetry_space_group_name_H-M   'P 1'
_cell_length_a   6.46001273
_cell_length_b   6.46001289
_cell_length_c   7.46065800
_cell_angle_alpha   89.89080114
_cell_angle_beta   90.10920774
_cell_angle_gamma   108.63340666
_symmetry_Int_Tables_number   1
_chemical_formula_structural   GdHo5(RuO7)2
_chemical_formula_sum   'Gd1 Ho5 Ru2 O14'
_cell_volume   295.02554767
_cell_formula_units_Z   1
loop_
 _symmetry_equiv_pos_site_id
 _symmetry_equiv_pos_as_xyz
  1  'x, y, z'
loop_
 _atom_site_type_symbol
 _atom_site_label
 _atom_site_symmetry_multiplicity
 _atom_site_fract_x
 _atom_site_fract_y
 _atom_site_fract_z
 _atom_site_occupancy
  Gd  Gd0  1  0.522125  0.522125  0.500000  1
  Ho  Ho1  1  0.462888  0.462888  0.000000  1
  Ho  Ho2  1  0.998421  0.536239  0.243531  1
  Ho  Ho3  1  0.999618  0.465283  0.745497  1
  Ho  Ho4  1  0.536239  0.998421  0.756469  1
  Ho  Ho5  1  0.465283  0.999618  0.254503  1
  Ru  Ru6  1  0.001076  0.001076  0.500000  1
  Ru  Ru7  1  0.999722  0.999722  0.000000  1
  O  O8  1  0.932186  0.069070  0.749818  1
  O  O9  1  0.069070  0.932186  0.250182  1
  O  O10  1  0.360010  0.638983  0.245398  1
  O  O11  1  0.638983  0.360010  0.754602  1
  O  O12  1  0.367927  0.630610  0.754348  1
  O  O13  1  0.630610  0.367927  0.245652  1
  O  O14  1  0.326632  0.079539  0.974856  1
  O  O15  1  0.675150  0.923868  0.474810  1
  O  O16  1  0.313337  0.059824  0.535225  1
  O  O17  1  0.691185  0.946308  0.036217  1
  O  O18  1  0.059824  0.313337  0.464775  1
  O  O19  1  0.946308  0.691185  0.963783  1
  O  O20  1  0.923868  0.675150  0.525190  1
  O  O21  1  0.079539  0.326632  0.025144  1
