# generated using pymatgen
data_DyCo3As3Ru2
_symmetry_space_group_name_H-M   'P 1'
_cell_length_a   3.86354200
_cell_length_b   10.93519400
_cell_length_c   12.33869000
_cell_angle_alpha   90.00000000
_cell_angle_beta   90.00000000
_cell_angle_gamma   90.00000000
_symmetry_Int_Tables_number   1
_chemical_formula_structural   DyCo3As3Ru2
_chemical_formula_sum   'Dy4 Co12 As12 Ru8'
_cell_volume   521.29214757
_cell_formula_units_Z   4
loop_
 _symmetry_equiv_pos_site_id
 _symmetry_equiv_pos_as_xyz
  1  'x, y, z'
loop_
 _atom_site_type_symbol
 _atom_site_label
 _atom_site_symmetry_multiplicity
 _atom_site_fract_x
 _atom_site_fract_y
 _atom_site_fract_z
 _atom_site_occupancy
  Dy  Dy0  1  0.250000  0.585240  0.705644  1
  Dy  Dy1  1  0.250000  0.914760  0.205644  1
  Dy  Dy2  1  0.750000  0.414760  0.294356  1
  Dy  Dy3  1  0.750000  0.085240  0.794356  1
  Co  Co4  1  0.250000  0.220217  0.178169  1
  Co  Co5  1  0.250000  0.279783  0.678169  1
  Co  Co6  1  0.750000  0.779783  0.821831  1
  Co  Co7  1  0.750000  0.720217  0.321831  1
  Co  Co8  1  0.250000  0.885131  0.696637  1
  Co  Co9  1  0.250000  0.614869  0.196637  1
  Co  Co10  1  0.750000  0.114869  0.303363  1
  Co  Co11  1  0.750000  0.385131  0.803363  1
  Co  Co12  1  0.250000  0.466286  0.932604  1
  Co  Co13  1  0.250000  0.033714  0.432604  1
  Co  Co14  1  0.750000  0.533714  0.067396  1
  Co  Co15  1  0.750000  0.966286  0.567396  1
  As  As16  1  0.250000  0.418792  0.114110  1
  As  As17  1  0.250000  0.081208  0.614110  1
  As  As18  1  0.750000  0.581208  0.885890  1
  As  As19  1  0.750000  0.918792  0.385890  1
  As  As20  1  0.250000  0.272826  0.866429  1
  As  As21  1  0.250000  0.227174  0.366429  1
  As  As22  1  0.750000  0.727174  0.133571  1
  As  As23  1  0.750000  0.772826  0.633571  1
  As  As24  1  0.250000  0.599967  0.384185  1
  As  As25  1  0.250000  0.900033  0.884185  1
  As  As26  1  0.750000  0.400033  0.615815  1
  As  As27  1  0.750000  0.099967  0.115815  1
  Ru  Ru28  1  0.250000  0.707062  0.985896  1
  Ru  Ru29  1  0.250000  0.792938  0.485896  1
  Ru  Ru30  1  0.750000  0.292938  0.014104  1
  Ru  Ru31  1  0.750000  0.207062  0.514104  1
  Ru  Ru32  1  0.250000  0.404056  0.486289  1
  Ru  Ru33  1  0.250000  0.095944  0.986289  1
  Ru  Ru34  1  0.750000  0.595944  0.513711  1
  Ru  Ru35  1  0.750000  0.904056  0.013711  1
