# generated using pymatgen
data_Ce5Tc3(P3Ru4)4
_symmetry_space_group_name_H-M   'P 1'
_cell_length_a   12.63557100
_cell_length_b   12.63557034
_cell_length_c   3.97935400
_cell_angle_alpha   90.00000000
_cell_angle_beta   90.00000000
_cell_angle_gamma   119.99999912
_symmetry_Int_Tables_number   1
_chemical_formula_structural   Ce5Tc3(P3Ru4)4
_chemical_formula_sum   'Ce5 Tc3 P12 Ru16'
_cell_volume   550.21564225
_cell_formula_units_Z   1
loop_
 _symmetry_equiv_pos_site_id
 _symmetry_equiv_pos_as_xyz
  1  'x, y, z'
loop_
 _atom_site_type_symbol
 _atom_site_label
 _atom_site_symmetry_multiplicity
 _atom_site_fract_x
 _atom_site_fract_y
 _atom_site_fract_z
 _atom_site_occupancy
  Ce  Ce0  1  0.186032  0.186032  0.500000  1
  Ce  Ce1  1  0.813968  0.000000  0.500000  1
  Ce  Ce2  1  0.000000  0.813968  0.500000  1
  Ce  Ce3  1  0.333333  0.666667  0.000000  1
  Ce  Ce4  1  0.666667  0.333333  0.000000  1
  Tc  Tc5  1  0.557597  0.557597  0.000000  1
  Tc  Tc6  1  0.442403  0.000000  0.000000  1
  Tc  Tc7  1  0.000000  0.442403  0.000000  1
  P  P8  1  0.814948  0.814948  0.000000  1
  P  P9  1  0.185052  0.000000  0.000000  1
  P  P10  1  0.000000  0.185052  0.000000  1
  P  P11  1  0.167692  0.475877  0.500000  1
  P  P12  1  0.524123  0.691815  0.500000  1
  P  P13  1  0.308185  0.832308  0.500000  1
  P  P14  1  0.691815  0.524123  0.500000  1
  P  P15  1  0.832308  0.308185  0.500000  1
  P  P16  1  0.475877  0.167692  0.500000  1
  P  P17  1  0.375265  0.375265  0.000000  1
  P  P18  1  0.624735  0.000000  0.000000  1
  P  P19  1  0.000000  0.624735  0.000000  1
  Ru  Ru20  1  0.718531  0.718531  0.500000  1
  Ru  Ru21  1  0.281469  0.000000  0.500000  1
  Ru  Ru22  1  0.000000  0.281469  0.500000  1
  Ru  Ru23  1  0.183757  0.375514  0.000000  1
  Ru  Ru24  1  0.624486  0.808243  0.000000  1
  Ru  Ru25  1  0.191757  0.816243  0.000000  1
  Ru  Ru26  1  0.808243  0.624486  0.000000  1
  Ru  Ru27  1  0.816243  0.191757  0.000000  1
  Ru  Ru28  1  0.375514  0.183757  0.000000  1
  Ru  Ru29  1  0.364554  0.491379  0.500000  1
  Ru  Ru30  1  0.508621  0.873175  0.500000  1
  Ru  Ru31  1  0.126825  0.635446  0.500000  1
  Ru  Ru32  1  0.873175  0.508621  0.500000  1
  Ru  Ru33  1  0.635446  0.126825  0.500000  1
  Ru  Ru34  1  0.491379  0.364554  0.500000  1
  Ru  Ru35  1  0.000000  0.000000  0.000000  1
