# generated using pymatgen
data_Pr20IrPt7Rh4
_symmetry_space_group_name_H-M   'P 1'
_cell_length_a   11.49471673
_cell_length_b   11.49471677
_cell_length_c   6.62090908
_cell_angle_alpha   90.04546388
_cell_angle_beta   90.04546362
_cell_angle_gamma   89.98978467
_symmetry_Int_Tables_number   1
_chemical_formula_structural   Pr20IrPt7Rh4
_chemical_formula_sum   'Pr20 Ir1 Pt7 Rh4'
_cell_volume   874.81030766
_cell_formula_units_Z   1
loop_
 _symmetry_equiv_pos_site_id
 _symmetry_equiv_pos_as_xyz
  1  'x, y, z'
loop_
 _atom_site_type_symbol
 _atom_site_label
 _atom_site_symmetry_multiplicity
 _atom_site_fract_x
 _atom_site_fract_y
 _atom_site_fract_z
 _atom_site_occupancy
  Pr  Pr0  1  0.294492  0.089178  0.375668  1
  Pr  Pr1  1  0.295174  0.905869  0.877190  1
  Pr  Pr2  1  0.705038  0.089434  0.876061  1
  Pr  Pr3  1  0.704514  0.909846  0.375610  1
  Pr  Pr4  1  0.587280  0.792578  0.875657  1
  Pr  Pr5  1  0.589968  0.206574  0.377014  1
  Pr  Pr6  1  0.408227  0.791342  0.382278  1
  Pr  Pr7  1  0.409335  0.204731  0.876545  1
  Pr  Pr8  1  0.207422  0.412720  0.624343  1
  Pr  Pr9  1  0.208658  0.591773  0.117722  1
  Pr  Pr10  1  0.793426  0.410032  0.122986  1
  Pr  Pr11  1  0.795269  0.590665  0.623455  1
  Pr  Pr12  1  0.910822  0.705508  0.124332  1
  Pr  Pr13  1  0.910566  0.294962  0.623939  1
  Pr  Pr14  1  0.094131  0.704826  0.622810  1
  Pr  Pr15  1  0.090154  0.295486  0.124390  1
  Pr  Pr16  1  0.999036  0.999289  0.500312  1
  Pr  Pr17  1  0.000711  0.000964  0.999688  1
  Pr  Pr18  1  0.498257  0.500932  0.999819  1
  Pr  Pr19  1  0.499068  0.501743  0.500181  1
  Ir  Ir20  1  0.346439  0.653561  0.750000  1
  Pt  Pt21  1  0.845878  0.154122  0.250000  1
  Pt  Pt22  1  0.845393  0.846413  0.750795  1
  Pt  Pt23  1  0.153587  0.154607  0.749205  1
  Pt  Pt24  1  0.153610  0.846390  0.250000  1
  Pt  Pt25  1  0.654115  0.345885  0.750000  1
  Pt  Pt26  1  0.655543  0.655040  0.250022  1
  Pt  Pt27  1  0.344960  0.344457  0.249978  1
  Rh  Rh28  1  0.500167  0.000236  0.115565  1
  Rh  Rh29  1  0.500260  0.001263  0.613603  1
  Rh  Rh30  1  0.998737  0.499740  0.886397  1
  Rh  Rh31  1  0.999764  0.499833  0.384435  1
