# generated using pymatgen
data_Zr6BeI12
_symmetry_space_group_name_H-M   'P 1'
_cell_length_a   9.35123259
_cell_length_b   9.35123325
_cell_length_c   9.35123402
_cell_angle_alpha   107.05026218
_cell_angle_beta   107.05026455
_cell_angle_gamma   107.05025563
_symmetry_Int_Tables_number   1
_chemical_formula_structural   Zr6BeI12
_chemical_formula_sum   'Zr6 Be1 I12'
_cell_volume   680.07240201
_cell_formula_units_Z   1
loop_
 _symmetry_equiv_pos_site_id
 _symmetry_equiv_pos_as_xyz
  1  'x, y, z'
loop_
 _atom_site_type_symbol
 _atom_site_label
 _atom_site_symmetry_multiplicity
 _atom_site_fract_x
 _atom_site_fract_y
 _atom_site_fract_z
 _atom_site_occupancy
  Zr  Zr0  1  0.971375  0.720028  0.907825  1
  Zr  Zr1  1  0.279972  0.092175  0.028625  1
  Zr  Zr2  1  0.092175  0.028625  0.279972  1
  Zr  Zr3  1  0.907825  0.971375  0.720028  1
  Zr  Zr4  1  0.720028  0.907825  0.971375  1
  Zr  Zr5  1  0.028625  0.279972  0.092175  1
  Be  Be6  1  0.000000  0.000000  0.000000  1
  I  I7  1  0.922288  0.307042  0.776251  1
  I  I8  1  0.692958  0.223749  0.077712  1
  I  I9  1  0.441831  0.144008  0.367683  1
  I  I10  1  0.855992  0.632317  0.558169  1
  I  I11  1  0.223749  0.077712  0.692958  1
  I  I12  1  0.632317  0.558169  0.855992  1
  I  I13  1  0.367683  0.441831  0.144008  1
  I  I14  1  0.776251  0.922288  0.307042  1
  I  I15  1  0.144008  0.367683  0.441831  1
  I  I16  1  0.558169  0.855992  0.632317  1
  I  I17  1  0.307042  0.776251  0.922288  1
  I  I18  1  0.077712  0.692958  0.223749  1
