# generated using pymatgen
data_Ho8Tm2Sn5Sb
_symmetry_space_group_name_H-M   'P 1'
_cell_length_a   8.91585900
_cell_length_b   8.90708790
_cell_length_c   6.45654402
_cell_angle_alpha   89.99190514
_cell_angle_beta   90.00000000
_cell_angle_gamma   120.03257632
_symmetry_Int_Tables_number   1
_chemical_formula_structural   Ho8Tm2Sn5Sb
_chemical_formula_sum   'Ho8 Tm2 Sn5 Sb1'
_cell_volume   443.90191337
_cell_formula_units_Z   1
loop_
 _symmetry_equiv_pos_site_id
 _symmetry_equiv_pos_as_xyz
  1  'x, y, z'
loop_
 _atom_site_type_symbol
 _atom_site_label
 _atom_site_symmetry_multiplicity
 _atom_site_fract_x
 _atom_site_fract_y
 _atom_site_fract_z
 _atom_site_occupancy
  Ho  Ho0  1  0.998026  0.760000  0.749994  1
  Ho  Ho1  1  0.000683  0.239036  0.249984  1
  Ho  Ho2  1  0.761648  0.760964  0.250016  1
  Ho  Ho3  1  0.761841  0.000000  0.750000  1
  Ho  Ho4  1  0.238025  0.240000  0.750006  1
  Ho  Ho5  1  0.239081  0.000000  0.250000  1
  Ho  Ho6  1  0.667433  0.334288  0.499834  1
  Ho  Ho7  1  0.333143  0.665712  0.000166  1
  Tm  Tm8  1  0.333132  0.665648  0.499788  1
  Tm  Tm9  1  0.667485  0.334352  0.000212  1
  Sn  Sn10  1  0.395710  0.394916  0.249993  1
  Sn  Sn11  1  0.000794  0.605084  0.250007  1
  Sn  Sn12  1  0.999812  0.395628  0.750002  1
  Sn  Sn13  1  0.604184  0.604372  0.749998  1
  Sn  Sn14  1  0.605290  0.000000  0.250000  1
  Sb  Sb15  1  0.393713  0.000000  0.750000  1
