# generated using pymatgen
data_Hf4Ta4Si2GeAs
_symmetry_space_group_name_H-M   'P 1'
_cell_length_a   3.62972000
_cell_length_b   7.00734875
_cell_length_c   8.48917193
_cell_angle_alpha   89.82891426
_cell_angle_beta   90.00000000
_cell_angle_gamma   90.00000000
_symmetry_Int_Tables_number   1
_chemical_formula_structural   Hf4Ta4Si2GeAs
_chemical_formula_sum   'Hf4 Ta4 Si2 Ge1 As1'
_cell_volume   215.91869689
_cell_formula_units_Z   1
loop_
 _symmetry_equiv_pos_site_id
 _symmetry_equiv_pos_as_xyz
  1  'x, y, z'
loop_
 _atom_site_type_symbol
 _atom_site_label
 _atom_site_symmetry_multiplicity
 _atom_site_fract_x
 _atom_site_fract_y
 _atom_site_fract_z
 _atom_site_occupancy
  Hf  Hf0  1  0.250000  0.036886  0.665136  1
  Hf  Hf1  1  0.250000  0.547180  0.833198  1
  Hf  Hf2  1  0.750000  0.463409  0.166987  1
  Hf  Hf3  1  0.750000  0.953386  0.333555  1
  Ta  Ta4  1  0.750000  0.862899  0.941056  1
  Ta  Ta5  1  0.250000  0.635616  0.441428  1
  Ta  Ta6  1  0.750000  0.368291  0.561044  1
  Ta  Ta7  1  0.250000  0.132462  0.058604  1
  Si  Si8  1  0.250000  0.757444  0.142808  1
  Si  Si9  1  0.750000  0.743974  0.641898  1
  Ge  Ge10  1  0.250000  0.253018  0.357210  1
  As  As11  1  0.750000  0.245435  0.857074  1
