# generated using pymatgen
data_Pr3Sm(NbN2)4
_symmetry_space_group_name_H-M   'P 1'
_cell_length_a   3.41401000
_cell_length_b   5.84202963
_cell_length_c   11.12207415
_cell_angle_alpha   89.91405737
_cell_angle_beta   90.00000000
_cell_angle_gamma   90.00000000
_symmetry_Int_Tables_number   1
_chemical_formula_structural   Pr3Sm(NbN2)4
_chemical_formula_sum   'Pr3 Sm1 Nb4 N8'
_cell_volume   221.82671196
_cell_formula_units_Z   1
loop_
 _symmetry_equiv_pos_site_id
 _symmetry_equiv_pos_as_xyz
  1  'x, y, z'
loop_
 _atom_site_type_symbol
 _atom_site_label
 _atom_site_symmetry_multiplicity
 _atom_site_fract_x
 _atom_site_fract_y
 _atom_site_fract_z
 _atom_site_occupancy
  Pr  Pr0  1  0.250000  0.586098  0.860470  1
  Pr  Pr1  1  0.750000  0.414021  0.139008  1
  Pr  Pr2  1  0.750000  0.913858  0.361881  1
  Sm  Sm3  1  0.250000  0.085928  0.639291  1
  Nb  Nb4  1  0.250000  0.917867  0.108155  1
  Nb  Nb5  1  0.750000  0.082778  0.890857  1
  Nb  Nb6  1  0.750000  0.582728  0.607676  1
  Nb  Nb7  1  0.250000  0.416986  0.393037  1
  N  N8  1  0.250000  0.661270  0.247428  1
  N  N9  1  0.750000  0.336166  0.750837  1
  N  N10  1  0.750000  0.842218  0.744304  1
  N  N11  1  0.250000  0.161780  0.253510  1
  N  N12  1  0.250000  0.728448  0.515073  1
  N  N13  1  0.750000  0.270103  0.489922  1
  N  N14  1  0.750000  0.775218  0.012449  1
  N  N15  1  0.250000  0.224532  0.986102  1
