# generated using pymatgen
data_BaCa3Sb2
_symmetry_space_group_name_H-M   'P 1'
_cell_length_a   4.93358558
_cell_length_b   4.93359107
_cell_length_c   9.38285551
_cell_angle_alpha   105.17485476
_cell_angle_beta   105.17469583
_cell_angle_gamma   90.01911252
_symmetry_Int_Tables_number   1
_chemical_formula_structural   BaCa3Sb2
_chemical_formula_sum   'Ba1 Ca3 Sb2'
_cell_volume   212.15065092
_cell_formula_units_Z   1
loop_
 _symmetry_equiv_pos_site_id
 _symmetry_equiv_pos_as_xyz
  1  'x, y, z'
loop_
 _atom_site_type_symbol
 _atom_site_label
 _atom_site_symmetry_multiplicity
 _atom_site_fract_x
 _atom_site_fract_y
 _atom_site_fract_z
 _atom_site_occupancy
  Ba  Ba0  1  0.676337  0.676339  0.353379  1
  Ca  Ca1  1  0.496648  0.996609  0.993093  1
  Ca  Ca2  1  0.996610  0.496647  0.993094  1
  Ca  Ca3  1  0.328922  0.328919  0.657819  1
  Sb  Sb4  1  0.129127  0.129127  0.259136  1
  Sb  Sb5  1  0.872353  0.872355  0.743478  1
