# generated using pymatgen
data_HoZr3(Al3Ir)6
_symmetry_space_group_name_H-M   'P 1'
_cell_length_a   7.49760009
_cell_length_b   7.49031962
_cell_length_c   9.32714400
_cell_angle_alpha   90.00000000
_cell_angle_beta   90.00000000
_cell_angle_gamma   119.81989160
_symmetry_Int_Tables_number   1
_chemical_formula_structural   HoZr3(Al3Ir)6
_chemical_formula_sum   'Ho1 Zr3 Al18 Ir6'
_cell_volume   454.45122210
_cell_formula_units_Z   1
loop_
 _symmetry_equiv_pos_site_id
 _symmetry_equiv_pos_as_xyz
  1  'x, y, z'
loop_
 _atom_site_type_symbol
 _atom_site_label
 _atom_site_symmetry_multiplicity
 _atom_site_fract_x
 _atom_site_fract_y
 _atom_site_fract_z
 _atom_site_occupancy
  Ho  Ho0  1  0.330083  0.005367  0.750000  1
  Zr  Zr1  1  0.994633  0.670555  0.250000  1
  Zr  Zr2  1  0.005629  0.330504  0.750000  1
  Zr  Zr3  1  0.670334  0.994512  0.250000  1
  Al  Al4  1  0.122065  0.122998  0.250000  1
  Al  Al5  1  0.873094  0.876312  0.750000  1
  Al  Al6  1  0.997777  0.334140  0.075489  1
  Al  Al7  1  0.999873  0.663170  0.925932  1
  Al  Al8  1  0.999873  0.663170  0.574068  1
  Al  Al9  1  0.334390  0.998245  0.421669  1
  Al  Al10  1  0.997777  0.334140  0.424511  1
  Al  Al11  1  0.668235  0.002175  0.574114  1
  Al  Al12  1  0.668235  0.002175  0.925886  1
  Al  Al13  1  0.334390  0.998245  0.078331  1
  Al  Al14  1  0.331529  0.333767  0.556720  1
  Al  Al15  1  0.668110  0.668019  0.441293  1
  Al  Al16  1  0.668110  0.668019  0.058707  1
  Al  Al17  1  0.331529  0.333767  0.943280  1
  Al  Al18  1  0.338075  0.551886  0.250000  1
  Al  Al19  1  0.665889  0.452690  0.750000  1
  Al  Al20  1  0.552761  0.338910  0.250000  1
  Al  Al21  1  0.448014  0.657796  0.750000  1
  Ir  Ir22  1  0.671998  0.327754  0.000822  1
  Ir  Ir23  1  0.328217  0.672913  0.001075  1
  Ir  Ir24  1  0.328217  0.672913  0.498925  1
  Ir  Ir25  1  0.671998  0.327754  0.499178  1
  Ir  Ir26  1  0.999582  0.999051  0.000916  1
  Ir  Ir27  1  0.999582  0.999051  0.499084  1
