# generated using pymatgen
data_HfTaNb3(NiP)4
_symmetry_space_group_name_H-M   'P 1'
_cell_length_a   7.31043471
_cell_length_b   7.31043372
_cell_length_c   7.30248151
_cell_angle_alpha   93.61628096
_cell_angle_beta   93.16716228
_cell_angle_gamma   151.86094339
_symmetry_Int_Tables_number   1
_chemical_formula_structural   HfTaNb3(NiP)4
_chemical_formula_sum   'Hf1 Ta1 Nb3 Ni4 P4'
_cell_volume   178.51779104
_cell_formula_units_Z   1
loop_
 _symmetry_equiv_pos_site_id
 _symmetry_equiv_pos_as_xyz
  1  'x, y, z'
loop_
 _atom_site_type_symbol
 _atom_site_label
 _atom_site_symmetry_multiplicity
 _atom_site_fract_x
 _atom_site_fract_y
 _atom_site_fract_z
 _atom_site_occupancy
  Hf  Hf0  1  0.869208  0.197886  0.067095  1
  Ta  Ta1  1  0.500255  0.499303  0.999558  1
  Nb  Nb2  1  0.128336  0.806491  0.934827  1
  Nb  Nb3  1  0.195091  0.130472  0.325562  1
  Nb  Nb4  1  0.805593  0.867948  0.673539  1
  Ni  Ni5  1  0.610269  0.084718  0.694987  1
  Ni  Ni6  1  0.389611  0.916204  0.305815  1
  Ni  Ni7  1  0.084892  0.390067  0.474958  1
  Ni  Ni8  1  0.915167  0.610013  0.525181  1
  P  P9  1  0.758489  0.445944  0.204433  1
  P  P10  1  0.240832  0.553149  0.793980  1
  P  P11  1  0.444906  0.239137  0.684045  1
  P  P12  1  0.557352  0.758670  0.316020  1
