# generated using pymatgen
data_Nd5(RuO6)2
_symmetry_space_group_name_H-M   'P 1'
_cell_length_a   7.07268571
_cell_length_b   7.07270320
_cell_length_c   7.68286528
_cell_angle_alpha   74.21026251
_cell_angle_beta   74.21020920
_cell_angle_gamma   50.13255426
_symmetry_Int_Tables_number   1
_chemical_formula_structural   Nd5(RuO6)2
_chemical_formula_sum   'Nd5 Ru2 O12'
_cell_volume   281.35288872
_cell_formula_units_Z   1
loop_
 _symmetry_equiv_pos_site_id
 _symmetry_equiv_pos_as_xyz
  1  'x, y, z'
loop_
 _atom_site_type_symbol
 _atom_site_label
 _atom_site_symmetry_multiplicity
 _atom_site_fract_x
 _atom_site_fract_y
 _atom_site_fract_z
 _atom_site_occupancy
  Nd  Nd0  1  0.305961  0.305959  0.357912  1
  Nd  Nd1  1  0.694039  0.694041  0.642088  1
  Nd  Nd2  1  0.690643  0.690644  0.168102  1
  Nd  Nd3  1  0.309357  0.309356  0.831898  1
  Nd  Nd4  1  0.000000  0.000000  0.500000  1
  Ru  Ru5  1  0.764755  0.235246  0.000000  1
  Ru  Ru6  1  0.235245  0.764754  0.000000  1
  O  O7  1  0.095750  0.594711  0.577459  1
  O  O8  1  0.999144  0.999144  0.186878  1
  O  O9  1  0.405288  0.904250  0.422540  1
  O  O10  1  0.499876  0.499876  0.173148  1
  O  O11  1  0.095791  0.584181  0.079175  1
  O  O12  1  0.904250  0.405289  0.422541  1
  O  O13  1  0.000856  0.000856  0.813122  1
  O  O14  1  0.594712  0.095749  0.577460  1
  O  O15  1  0.500124  0.500124  0.826852  1
  O  O16  1  0.584183  0.095791  0.079173  1
  O  O17  1  0.415817  0.904209  0.920827  1
  O  O18  1  0.904209  0.415819  0.920825  1
