# generated using pymatgen
data_Dy5Er11Cd4Ni3Ru
_symmetry_space_group_name_H-M   'P 1'
_cell_length_a   9.52811464
_cell_length_b   9.50266320
_cell_length_c   9.50266245
_cell_angle_alpha   59.70517345
_cell_angle_beta   59.72620748
_cell_angle_gamma   59.72621147
_symmetry_Int_Tables_number   1
_chemical_formula_structural   Dy5Er11Cd4Ni3Ru
_chemical_formula_sum   'Dy5 Er11 Cd4 Ni3 Ru1'
_cell_volume   604.51061318
_cell_formula_units_Z   1
loop_
 _symmetry_equiv_pos_site_id
 _symmetry_equiv_pos_as_xyz
  1  'x, y, z'
loop_
 _atom_site_type_symbol
 _atom_site_label
 _atom_site_symmetry_multiplicity
 _atom_site_fract_x
 _atom_site_fract_y
 _atom_site_fract_z
 _atom_site_occupancy
  Dy  Dy0  1  0.808601  0.189020  0.189020  1
  Dy  Dy1  1  0.817249  0.185158  0.815238  1
  Dy  Dy2  1  0.188681  0.809052  0.188145  1
  Dy  Dy3  1  0.817249  0.815238  0.185158  1
  Dy  Dy4  1  0.188681  0.188145  0.809052  1
  Er  Er5  1  0.596809  0.597105  0.597105  1
  Er  Er6  1  0.600663  0.602002  0.204103  1
  Er  Er7  1  0.600663  0.204103  0.602002  1
  Er  Er8  1  0.201833  0.601836  0.601836  1
  Er  Er9  1  0.061486  0.437299  0.437299  1
  Er  Er10  1  0.437340  0.061557  0.061557  1
  Er  Er11  1  0.437814  0.060474  0.437866  1
  Er  Er12  1  0.062258  0.436202  0.061648  1
  Er  Er13  1  0.437814  0.437866  0.060474  1
  Er  Er14  1  0.062258  0.061648  0.436202  1
  Er  Er15  1  0.187505  0.814454  0.814454  1
  Cd  Cd16  1  0.830818  0.829668  0.829668  1
  Cd  Cd17  1  0.829395  0.829597  0.506576  1
  Cd  Cd18  1  0.829395  0.506576  0.829597  1
  Cd  Cd19  1  0.505446  0.829784  0.829784  1
  Ni  Ni20  1  0.389616  0.393495  0.824678  1
  Ni  Ni21  1  0.389616  0.824678  0.393495  1
  Ni  Ni22  1  0.825102  0.391424  0.391424  1
  Ru  Ru23  1  0.393708  0.393620  0.393620  1
