# generated using pymatgen
data_DyFe5Tc7
_symmetry_space_group_name_H-M   'P 1'
_cell_length_a   6.65825644
_cell_length_b   6.65825512
_cell_length_c   6.65825583
_cell_angle_alpha   138.06311406
_cell_angle_beta   96.09374538
_cell_angle_gamma   98.62478902
_symmetry_Int_Tables_number   1
_chemical_formula_structural   DyFe5Tc7
_chemical_formula_sum   'Dy1 Fe5 Tc7'
_cell_volume   184.14791424
_cell_formula_units_Z   1
loop_
 _symmetry_equiv_pos_site_id
 _symmetry_equiv_pos_as_xyz
  1  'x, y, z'
loop_
 _atom_site_type_symbol
 _atom_site_label
 _atom_site_symmetry_multiplicity
 _atom_site_fract_x
 _atom_site_fract_y
 _atom_site_fract_z
 _atom_site_occupancy
  Dy  Dy0  1  0.006874  0.000000  0.006874  1
  Fe  Fe1  1  0.491304  0.495265  0.498820  1
  Fe  Fe2  1  0.491304  0.992484  0.996038  1
  Fe  Fe3  1  0.003555  0.007516  0.498820  1
  Fe  Fe4  1  0.003555  0.504735  0.996038  1
  Fe  Fe5  1  0.228417  0.500000  0.728417  1
  Tc  Tc6  1  0.641017  0.000000  0.641017  1
  Tc  Tc7  1  0.363326  0.000000  0.363326  1
  Tc  Tc8  1  0.350709  0.354933  0.995776  1
  Tc  Tc9  1  0.640843  0.645067  0.995776  1
  Tc  Tc10  1  0.778915  0.500000  0.278915  1
  Tc  Tc11  1  0.795351  0.295260  0.500091  1
  Tc  Tc12  1  0.204830  0.704740  0.500091  1
