# generated using pymatgen
data_Ca2Zn3Pt
_symmetry_space_group_name_H-M   'P 1'
_cell_length_a   5.45936600
_cell_length_b   5.45936631
_cell_length_c   9.11798500
_cell_angle_alpha   90.00000000
_cell_angle_beta   90.00000000
_cell_angle_gamma   119.99999813
_symmetry_Int_Tables_number   1
_chemical_formula_structural   Ca2Zn3Pt
_chemical_formula_sum   'Ca4 Zn6 Pt2'
_cell_volume   235.34986806
_cell_formula_units_Z   2
loop_
 _symmetry_equiv_pos_site_id
 _symmetry_equiv_pos_as_xyz
  1  'x, y, z'
loop_
 _atom_site_type_symbol
 _atom_site_label
 _atom_site_symmetry_multiplicity
 _atom_site_fract_x
 _atom_site_fract_y
 _atom_site_fract_z
 _atom_site_occupancy
  Ca  Ca0  1  0.666667  0.333333  0.055412  1
  Ca  Ca1  1  0.666667  0.333333  0.444588  1
  Ca  Ca2  1  0.333333  0.666667  0.555412  1
  Ca  Ca3  1  0.333333  0.666667  0.944588  1
  Zn  Zn4  1  0.164648  0.329295  0.250000  1
  Zn  Zn5  1  0.164647  0.835353  0.250000  1
  Zn  Zn6  1  0.670706  0.835353  0.250000  1
  Zn  Zn7  1  0.329294  0.164648  0.750000  1
  Zn  Zn8  1  0.835353  0.164648  0.750000  1
  Zn  Zn9  1  0.835352  0.670706  0.750000  1
  Pt  Pt10  1  0.000000  0.000000  0.000000  1
  Pt  Pt11  1  0.000000  0.000000  0.500000  1
