# generated using pymatgen
data_Zr10BiB2Pb5
_symmetry_space_group_name_H-M   'P 1'
_cell_length_a   8.71456908
_cell_length_b   8.71666050
_cell_length_c   5.89431000
_cell_angle_alpha   90.00000000
_cell_angle_beta   90.00000000
_cell_angle_gamma   120.00794136
_symmetry_Int_Tables_number   1
_chemical_formula_structural   Zr10BiB2Pb5
_chemical_formula_sum   'Zr10 Bi1 B2 Pb5'
_cell_volume   387.72597283
_cell_formula_units_Z   1
loop_
 _symmetry_equiv_pos_site_id
 _symmetry_equiv_pos_as_xyz
  1  'x, y, z'
loop_
 _atom_site_type_symbol
 _atom_site_label
 _atom_site_symmetry_multiplicity
 _atom_site_fract_x
 _atom_site_fract_y
 _atom_site_fract_z
 _atom_site_occupancy
  Zr  Zr0  1  0.666391  0.333090  0.499713  1
  Zr  Zr1  1  0.333609  0.666700  0.499713  1
  Zr  Zr2  1  0.333609  0.666700  0.000287  1
  Zr  Zr3  1  0.666391  0.333090  0.000287  1
  Zr  Zr4  1  0.776042  0.775988  0.250000  1
  Zr  Zr5  1  0.223958  0.999946  0.250000  1
  Zr  Zr6  1  0.000000  0.224859  0.250000  1
  Zr  Zr7  1  0.224927  0.223757  0.750000  1
  Zr  Zr8  1  0.775073  0.998830  0.750000  1
  Zr  Zr9  1  0.000000  0.776781  0.750000  1
  Bi  Bi10  1  0.000000  0.399354  0.750000  1
  B  B11  1  0.000000  0.999976  0.499645  1
  B  B12  1  0.000000  0.999976  0.000355  1
  Pb  Pb13  1  0.398666  0.398651  0.250000  1
  Pb  Pb14  1  0.601334  0.999985  0.250000  1
  Pb  Pb15  1  0.000000  0.601689  0.250000  1
  Pb  Pb16  1  0.601601  0.601115  0.750000  1
  Pb  Pb17  1  0.398399  0.999514  0.750000  1
