# generated using pymatgen
data_Li2Pr3(ZnSn2)2
_symmetry_space_group_name_H-M   'P 1'
_cell_length_a   4.71927100
_cell_length_b   7.36523564
_cell_length_c   8.93807776
_cell_angle_alpha   116.32337353
_cell_angle_beta   105.30744480
_cell_angle_gamma   89.99999772
_symmetry_Int_Tables_number   1
_chemical_formula_structural   Li2Pr3(ZnSn2)2
_chemical_formula_sum   'Li2 Pr3 Zn2 Sn4'
_cell_volume   266.10660812
_cell_formula_units_Z   1
loop_
 _symmetry_equiv_pos_site_id
 _symmetry_equiv_pos_as_xyz
  1  'x, y, z'
loop_
 _atom_site_type_symbol
 _atom_site_label
 _atom_site_symmetry_multiplicity
 _atom_site_fract_x
 _atom_site_fract_y
 _atom_site_fract_z
 _atom_site_occupancy
  Li  Li0  1  0.321029  0.632049  0.642057  1
  Li  Li1  1  0.678971  0.367951  0.357943  1
  Pr  Pr2  1  0.872189  0.343169  0.744380  1
  Pr  Pr3  1  0.127811  0.656831  0.255620  1
  Pr  Pr4  1  0.000000  0.000000  0.000000  1
  Zn  Zn5  1  0.340617  0.019088  0.681233  1
  Zn  Zn6  1  0.659383  0.980912  0.318767  1
  Sn  Sn7  1  0.217911  0.201112  0.435823  1
  Sn  Sn8  1  0.782089  0.798888  0.564177  1
  Sn  Sn9  1  0.489079  0.686206  0.978159  1
  Sn  Sn10  1  0.510921  0.313794  0.021841  1
