# generated using pymatgen
data_Lu10GaSi3Sb4
_symmetry_space_group_name_H-M   'P 1'
_cell_length_a   8.36460508
_cell_length_b   8.36460586
_cell_length_c   7.71725623
_cell_angle_alpha   89.84305668
_cell_angle_beta   89.84306854
_cell_angle_gamma   125.15991794
_symmetry_Int_Tables_number   1
_chemical_formula_structural   Lu10GaSi3Sb4
_chemical_formula_sum   'Lu10 Ga1 Si3 Sb4'
_cell_volume   441.42750971
_cell_formula_units_Z   1
loop_
 _symmetry_equiv_pos_site_id
 _symmetry_equiv_pos_as_xyz
  1  'x, y, z'
loop_
 _atom_site_type_symbol
 _atom_site_label
 _atom_site_symmetry_multiplicity
 _atom_site_fract_x
 _atom_site_fract_y
 _atom_site_fract_z
 _atom_site_occupancy
  Lu  Lu0  1  0.039540  0.290061  0.335077  1
  Lu  Lu1  1  0.958747  0.711063  0.665406  1
  Lu  Lu2  1  0.459173  0.207713  0.832859  1
  Lu  Lu3  1  0.791680  0.541310  0.165757  1
  Lu  Lu4  1  0.541310  0.791680  0.165757  1
  Lu  Lu5  1  0.207713  0.459173  0.832859  1
  Lu  Lu6  1  0.711063  0.958747  0.665406  1
  Lu  Lu7  1  0.290061  0.039540  0.335077  1
  Lu  Lu8  1  0.998897  0.998897  0.998693  1
  Lu  Lu9  1  0.501375  0.501375  0.501759  1
  Ga  Ga10  1  0.367620  0.367620  0.130774  1
  Si  Si11  1  0.631354  0.631354  0.869283  1
  Si  Si12  1  0.134759  0.134759  0.632189  1
  Si  Si13  1  0.867146  0.867146  0.366396  1
  Sb  Sb14  1  0.792370  0.204792  0.000231  1
  Sb  Sb15  1  0.204792  0.792370  0.000231  1
  Sb  Sb16  1  0.707525  0.294876  0.501121  1
  Sb  Sb17  1  0.294876  0.707525  0.501121  1
