# generated using pymatgen
data_YbYRuPtO7
_symmetry_space_group_name_H-M   'P 1'
_cell_length_a   7.24862943
_cell_length_b   7.24862786
_cell_length_c   7.19156000
_cell_angle_alpha   60.26009413
_cell_angle_beta   60.26010122
_cell_angle_gamma   60.52742685
_symmetry_Int_Tables_number   1
_chemical_formula_structural   YbYRuPtO7
_chemical_formula_sum   'Yb2 Y2 Ru2 Pt2 O14'
_cell_volume   269.29662869
_cell_formula_units_Z   2
loop_
 _symmetry_equiv_pos_site_id
 _symmetry_equiv_pos_as_xyz
  1  'x, y, z'
loop_
 _atom_site_type_symbol
 _atom_site_label
 _atom_site_symmetry_multiplicity
 _atom_site_fract_x
 _atom_site_fract_y
 _atom_site_fract_z
 _atom_site_occupancy
  Yb  Yb0  1  0.125000  0.125000  0.625000  1
  Yb  Yb1  1  0.125000  0.125000  0.125000  1
  Y  Y2  1  0.125000  0.625000  0.125000  1
  Y  Y3  1  0.625000  0.125000  0.125000  1
  Ru  Ru4  1  0.625000  0.125000  0.625000  1
  Ru  Ru5  1  0.125000  0.625000  0.625000  1
  Pt  Pt6  1  0.625000  0.625000  0.125000  1
  Pt  Pt7  1  0.625000  0.625000  0.625000  1
  O  O8  1  0.996088  0.996088  0.003912  1
  O  O9  1  0.253912  0.253912  0.246088  1
  O  O10  1  0.316979  0.316979  0.683021  1
  O  O11  1  0.532801  0.532801  0.967199  1
  O  O12  1  0.712358  0.289800  0.703705  1
  O  O13  1  0.712358  0.289800  0.294138  1
  O  O14  1  0.289800  0.712358  0.703705  1
  O  O15  1  0.289800  0.712358  0.294138  1
  O  O16  1  0.717199  0.717199  0.282801  1
  O  O17  1  0.960200  0.537642  0.546295  1
  O  O18  1  0.537642  0.960200  0.955862  1
  O  O19  1  0.933021  0.933021  0.566979  1
  O  O20  1  0.960200  0.537642  0.955862  1
  O  O21  1  0.537642  0.960200  0.546295  1
