# generated using pymatgen
data_Zr3Nb4Cr(Co4P3)4
_symmetry_space_group_name_H-M   'P 1'
_cell_length_a   11.89253000
_cell_length_b   11.91106210
_cell_length_c   3.62665200
_cell_angle_alpha   90.00000000
_cell_angle_beta   90.00000000
_cell_angle_gamma   119.94855102
_symmetry_Int_Tables_number   1
_chemical_formula_structural   Zr3Nb4Cr(Co4P3)4
_chemical_formula_sum   'Zr3 Nb4 Cr1 Co16 P12'
_cell_volume   445.12929819
_cell_formula_units_Z   1
loop_
 _symmetry_equiv_pos_site_id
 _symmetry_equiv_pos_as_xyz
  1  'x, y, z'
loop_
 _atom_site_type_symbol
 _atom_site_label
 _atom_site_symmetry_multiplicity
 _atom_site_fract_x
 _atom_site_fract_y
 _atom_site_fract_z
 _atom_site_occupancy
  Zr  Zr0  1  0.820192  0.000000  0.500000  1
  Zr  Zr1  1  0.333132  0.668198  0.000000  1
  Zr  Zr2  1  0.664935  0.331802  0.000000  1
  Nb  Nb3  1  0.000635  0.822038  0.500000  1
  Nb  Nb4  1  0.178598  0.177962  0.500000  1
  Nb  Nb5  1  0.000053  0.447381  0.000000  1
  Nb  Nb6  1  0.552672  0.552619  0.000000  1
  Cr  Cr7  1  0.445624  0.000000  0.000000  1
  Co  Co8  1  0.278697  0.000000  0.500000  1
  Co  Co9  1  0.001474  0.276619  0.500000  1
  Co  Co10  1  0.724856  0.723381  0.500000  1
  Co  Co11  1  0.627365  0.807830  0.000000  1
  Co  Co12  1  0.194938  0.823172  0.000000  1
  Co  Co13  1  0.179472  0.370260  0.000000  1
  Co  Co14  1  0.371766  0.176828  0.000000  1
  Co  Co15  1  0.809213  0.629740  0.000000  1
  Co  Co16  1  0.819535  0.192170  0.000000  1
  Co  Co17  1  0.515771  0.874217  0.500000  1
  Co  Co18  1  0.129599  0.648494  0.500000  1
  Co  Co19  1  0.355050  0.483430  0.500000  1
  Co  Co20  1  0.481105  0.351506  0.500000  1
  Co  Co21  1  0.871620  0.516570  0.500000  1
  Co  Co22  1  0.641554  0.125783  0.500000  1
  Co  Co23  1  0.002205  0.000000  0.000000  1
  P  P24  1  0.176560  0.000000  0.000000  1
  P  P25  1  0.001274  0.174998  0.000000  1
  P  P26  1  0.826276  0.825002  0.000000  1
  P  P27  1  0.519893  0.690824  0.500000  1
  P  P28  1  0.315824  0.837058  0.500000  1
  P  P29  1  0.170311  0.482152  0.500000  1
  P  P30  1  0.478766  0.162942  0.500000  1
  P  P31  1  0.688159  0.517848  0.500000  1
  P  P32  1  0.829069  0.309176  0.500000  1
  P  P33  1  0.639928  0.000000  0.000000  1
  P  P34  1  0.002455  0.651030  0.000000  1
  P  P35  1  0.351425  0.348970  0.000000  1
