# generated using pymatgen
data_Nd4ErLu3(ReB6)4
_symmetry_space_group_name_H-M   'P 1'
_cell_length_a   3.70110800
_cell_length_b   9.19972902
_cell_length_c   11.66260602
_cell_angle_alpha   90.00661827
_cell_angle_beta   90.00000000
_cell_angle_gamma   90.00000000
_symmetry_Int_Tables_number   1
_chemical_formula_structural   Nd4ErLu3(ReB6)4
_chemical_formula_sum   'Nd4 Er1 Lu3 Re4 B24'
_cell_volume   397.10229326
_cell_formula_units_Z   1
loop_
 _symmetry_equiv_pos_site_id
 _symmetry_equiv_pos_as_xyz
  1  'x, y, z'
loop_
 _atom_site_type_symbol
 _atom_site_label
 _atom_site_symmetry_multiplicity
 _atom_site_fract_x
 _atom_site_fract_y
 _atom_site_fract_z
 _atom_site_occupancy
  Nd  Nd0  1  0.000000  0.322485  0.414633  1
  Nd  Nd1  1  0.000000  0.677235  0.585554  1
  Nd  Nd2  1  0.000000  0.822404  0.085204  1
  Nd  Nd3  1  0.000000  0.177615  0.914508  1
  Er  Er4  1  0.000000  0.943675  0.370158  1
  Lu  Lu5  1  0.000000  0.056727  0.631082  1
  Lu  Lu6  1  0.000000  0.443530  0.129902  1
  Lu  Lu7  1  0.000000  0.556554  0.869703  1
  Re  Re8  1  0.000000  0.639309  0.317981  1
  Re  Re9  1  0.000000  0.359866  0.682102  1
  Re  Re10  1  0.000000  0.141054  0.181130  1
  Re  Re11  1  0.000000  0.859522  0.818344  1
  B  B12  1  0.500000  0.555028  0.429919  1
  B  B13  1  0.500000  0.444224  0.570227  1
  B  B14  1  0.500000  0.055765  0.069717  1
  B  B15  1  0.500000  0.944398  0.929857  1
  B  B16  1  0.500000  0.750236  0.415417  1
  B  B17  1  0.500000  0.248533  0.584662  1
  B  B18  1  0.500000  0.251795  0.084146  1
  B  B19  1  0.500000  0.748467  0.915535  1
  B  B20  1  0.500000  0.791887  0.265471  1
  B  B21  1  0.500000  0.207354  0.734414  1
  B  B22  1  0.500000  0.293287  0.234028  1
  B  B23  1  0.500000  0.707139  0.765753  1
  B  B24  1  0.500000  0.628826  0.185041  1
  B  B25  1  0.500000  0.370926  0.814723  1
  B  B26  1  0.500000  0.130042  0.314015  1
  B  B27  1  0.500000  0.870815  0.685518  1
  B  B28  1  0.500000  0.984166  0.213291  1
  B  B29  1  0.500000  0.016339  0.786229  1
  B  B30  1  0.500000  0.483202  0.285872  1
  B  B31  1  0.500000  0.516486  0.713960  1
  B  B32  1  0.500000  0.595143  0.025899  1
  B  B33  1  0.500000  0.404921  0.973830  1
  B  B34  1  0.500000  0.096211  0.474982  1
  B  B35  1  0.500000  0.904832  0.527193  1
