# generated using pymatgen
data_Sr7Ca5(AlSb3)4
_symmetry_space_group_name_H-M   'P 1'
_cell_length_a   4.61798100
_cell_length_b   13.35402413
_cell_length_c   14.73959515
_cell_angle_alpha   90.01640559
_cell_angle_beta   90.00000000
_cell_angle_gamma   90.00000000
_symmetry_Int_Tables_number   1
_chemical_formula_structural   Sr7Ca5(AlSb3)4
_chemical_formula_sum   'Sr7 Ca5 Al4 Sb12'
_cell_volume   908.97059859
_cell_formula_units_Z   1
loop_
 _symmetry_equiv_pos_site_id
 _symmetry_equiv_pos_as_xyz
  1  'x, y, z'
loop_
 _atom_site_type_symbol
 _atom_site_label
 _atom_site_symmetry_multiplicity
 _atom_site_fract_x
 _atom_site_fract_y
 _atom_site_fract_z
 _atom_site_occupancy
  Sr  Sr0  1  0.250000  0.060472  0.889641  1
  Sr  Sr1  1  0.750000  0.938098  0.109779  1
  Sr  Sr2  1  0.250000  0.561691  0.612119  1
  Sr  Sr3  1  0.750000  0.439332  0.389089  1
  Sr  Sr4  1  0.250000  0.852967  0.494493  1
  Sr  Sr5  1  0.750000  0.146667  0.506026  1
  Sr  Sr6  1  0.250000  0.354990  0.005096  1
  Ca  Ca7  1  0.750000  0.647426  0.997416  1
  Ca  Ca8  1  0.750000  0.228348  0.219229  1
  Ca  Ca9  1  0.250000  0.770825  0.781967  1
  Ca  Ca10  1  0.750000  0.726325  0.275453  1
  Ca  Ca11  1  0.250000  0.272999  0.721680  1
  Al  Al12  1  0.250000  0.067427  0.294892  1
  Al  Al13  1  0.750000  0.931202  0.705711  1
  Al  Al14  1  0.250000  0.567438  0.203774  1
  Al  Al15  1  0.750000  0.434167  0.797704  1
  Sb  Sb16  1  0.250000  0.251272  0.374770  1
  Sb  Sb17  1  0.750000  0.748379  0.625435  1
  Sb  Sb18  1  0.250000  0.747302  0.117257  1
  Sb  Sb19  1  0.750000  0.249258  0.875782  1
  Sb  Sb20  1  0.250000  0.116015  0.114205  1
  Sb  Sb21  1  0.750000  0.881844  0.887049  1
  Sb  Sb22  1  0.250000  0.617178  0.384384  1
  Sb  Sb23  1  0.750000  0.384893  0.615948  1
  Sb  Sb24  1  0.250000  0.038850  0.656315  1
  Sb  Sb25  1  0.750000  0.959725  0.343670  1
  Sb  Sb26  1  0.250000  0.541767  0.848607  1
  Sb  Sb27  1  0.750000  0.463141  0.152511  1
