# generated using pymatgen
data_Dy12CdCo6
_symmetry_space_group_name_H-M   'P 1'
_cell_length_a   8.36764749
_cell_length_b   8.36764635
_cell_length_c   8.36764700
_cell_angle_alpha   109.47121737
_cell_angle_beta   109.47121462
_cell_angle_gamma   109.47122256
_symmetry_Int_Tables_number   1
_chemical_formula_structural   Dy12CdCo6
_chemical_formula_sum   'Dy12 Cd1 Co6'
_cell_volume   451.01209840
_cell_formula_units_Z   1
loop_
 _symmetry_equiv_pos_site_id
 _symmetry_equiv_pos_as_xyz
  1  'x, y, z'
loop_
 _atom_site_type_symbol
 _atom_site_label
 _atom_site_symmetry_multiplicity
 _atom_site_fract_x
 _atom_site_fract_y
 _atom_site_fract_z
 _atom_site_occupancy
  Dy  Dy0  1  0.806744  0.695703  0.502448  1
  Dy  Dy1  1  0.193256  0.304297  0.497552  1
  Dy  Dy2  1  0.193256  0.695703  0.888959  1
  Dy  Dy3  1  0.806744  0.304297  0.111041  1
  Dy  Dy4  1  0.695703  0.502448  0.806744  1
  Dy  Dy5  1  0.304297  0.497552  0.193256  1
  Dy  Dy6  1  0.695703  0.888959  0.193256  1
  Dy  Dy7  1  0.304297  0.111041  0.806744  1
  Dy  Dy8  1  0.502448  0.806744  0.695703  1
  Dy  Dy9  1  0.497552  0.193256  0.304297  1
  Dy  Dy10  1  0.111041  0.806744  0.304297  1
  Dy  Dy11  1  0.888959  0.193256  0.695703  1
  Cd  Cd12  1  0.000000  0.000000  0.000000  1
  Co  Co13  1  0.886324  0.386324  0.500000  1
  Co  Co14  1  0.113676  0.613676  0.500000  1
  Co  Co15  1  0.386324  0.500000  0.886324  1
  Co  Co16  1  0.613676  0.500000  0.113676  1
  Co  Co17  1  0.500000  0.886324  0.386324  1
  Co  Co18  1  0.500000  0.113676  0.613676  1
