# generated using pymatgen
data_La3Ce(EuSe4)2
_symmetry_space_group_name_H-M   'P 1'
_cell_length_a   7.94002070
_cell_length_b   7.91429792
_cell_length_c   7.91429800
_cell_angle_alpha   109.11710903
_cell_angle_beta   109.52538366
_cell_angle_gamma   109.63924691
_symmetry_Int_Tables_number   1
_chemical_formula_structural   La3Ce(EuSe4)2
_chemical_formula_sum   'La3 Ce1 Eu2 Se8'
_cell_volume   383.46181747
_cell_formula_units_Z   1
loop_
 _symmetry_equiv_pos_site_id
 _symmetry_equiv_pos_as_xyz
  1  'x, y, z'
loop_
 _atom_site_type_symbol
 _atom_site_label
 _atom_site_symmetry_multiplicity
 _atom_site_fract_x
 _atom_site_fract_y
 _atom_site_fract_z
 _atom_site_occupancy
  La  La0  1  0.625000  0.246641  0.121641  1
  La  La1  1  0.496791  0.375691  0.621922  1
  La  La2  1  0.753209  0.875131  0.378900  1
  Ce  Ce3  1  0.125000  0.501106  0.876106  1
  Eu  Eu4  1  0.000794  0.000354  0.001075  1
  Eu  Eu5  1  0.249206  0.750281  0.499560  1
  Se  Se6  1  0.377289  0.479818  0.248484  1
  Se  Se7  1  0.020413  0.270684  0.397710  1
  Se  Se8  1  0.229587  0.127297  0.750272  1
  Se  Se9  1  0.378024  0.979300  0.250551  1
  Se  Se10  1  0.517582  0.769698  0.897860  1
  Se  Se11  1  0.871976  0.622527  0.101276  1
  Se  Se12  1  0.732418  0.130277  0.752115  1
  Se  Se13  1  0.872711  0.621196  0.602528  1
