# generated using pymatgen
data_SrSmMg(Si3Pd10)2
_symmetry_space_group_name_H-M   'P 1'
_cell_length_a   8.72418985
_cell_length_b   8.72418983
_cell_length_c   8.72418900
_cell_angle_alpha   59.99999936
_cell_angle_beta   59.99999945
_cell_angle_gamma   59.99999735
_symmetry_Int_Tables_number   1
_chemical_formula_structural   SrSmMg(Si3Pd10)2
_chemical_formula_sum   'Sr1 Sm1 Mg1 Si6 Pd20'
_cell_volume   469.52667427
_cell_formula_units_Z   1
loop_
 _symmetry_equiv_pos_site_id
 _symmetry_equiv_pos_as_xyz
  1  'x, y, z'
loop_
 _atom_site_type_symbol
 _atom_site_label
 _atom_site_symmetry_multiplicity
 _atom_site_fract_x
 _atom_site_fract_y
 _atom_site_fract_z
 _atom_site_occupancy
  Sr  Sr0  1  0.250000  0.250000  0.250000  1
  Sm  Sm1  1  0.750000  0.750000  0.750000  1
  Mg  Mg2  1  0.000000  0.000000  0.000000  1
  Si  Si3  1  0.733331  0.266669  0.266669  1
  Si  Si4  1  0.266669  0.733331  0.733331  1
  Si  Si5  1  0.266669  0.733331  0.266669  1
  Si  Si6  1  0.733331  0.266669  0.733331  1
  Si  Si7  1  0.266669  0.266669  0.733331  1
  Si  Si8  1  0.733331  0.733331  0.266669  1
  Pd  Pd9  1  0.387883  0.387883  0.387883  1
  Pd  Pd10  1  0.616429  0.616429  0.616429  1
  Pd  Pd11  1  0.387883  0.387883  0.836351  1
  Pd  Pd12  1  0.387883  0.836351  0.387883  1
  Pd  Pd13  1  0.616429  0.616429  0.150713  1
  Pd  Pd14  1  0.616429  0.150713  0.616429  1
  Pd  Pd15  1  0.836351  0.387883  0.387883  1
  Pd  Pd16  1  0.150713  0.616429  0.616429  1
  Pd  Pd17  1  0.345703  0.997191  0.997191  1
  Pd  Pd18  1  0.659915  0.997191  0.997191  1
  Pd  Pd19  1  0.997191  0.345703  0.659915  1
  Pd  Pd20  1  0.997191  0.659915  0.345703  1
  Pd  Pd21  1  0.997191  0.345703  0.997191  1
  Pd  Pd22  1  0.659915  0.997191  0.345703  1
  Pd  Pd23  1  0.997191  0.659915  0.997191  1
  Pd  Pd24  1  0.345703  0.997191  0.659915  1
  Pd  Pd25  1  0.997191  0.997191  0.345703  1
  Pd  Pd26  1  0.997191  0.997191  0.659915  1
  Pd  Pd27  1  0.659915  0.345703  0.997191  1
  Pd  Pd28  1  0.345703  0.659915  0.997191  1
