# generated using pymatgen
data_Rb8Dy6BBr20
_symmetry_space_group_name_H-M   'P 1'
_cell_length_a   12.25346003
_cell_length_b   12.25346089
_cell_length_c   12.25295900
_cell_angle_alpha   60.00135221
_cell_angle_beta   60.00134987
_cell_angle_gamma   59.99729580
_symmetry_Int_Tables_number   1
_chemical_formula_structural   Rb8Dy6BBr20
_chemical_formula_sum   'Rb8 Dy6 B1 Br20'
_cell_volume   1300.89870513
_cell_formula_units_Z   1
loop_
 _symmetry_equiv_pos_site_id
 _symmetry_equiv_pos_as_xyz
  1  'x, y, z'
loop_
 _atom_site_type_symbol
 _atom_site_label
 _atom_site_symmetry_multiplicity
 _atom_site_fract_x
 _atom_site_fract_y
 _atom_site_fract_z
 _atom_site_occupancy
  Rb  Rb0  1  0.359147  0.359147  0.359147  1
  Rb  Rb1  1  0.640853  0.640853  0.640853  1
  Rb  Rb2  1  0.359147  0.359147  0.922559  1
  Rb  Rb3  1  0.359147  0.922559  0.359147  1
  Rb  Rb4  1  0.640853  0.640853  0.077441  1
  Rb  Rb5  1  0.640853  0.077441  0.640853  1
  Rb  Rb6  1  0.922559  0.359147  0.359147  1
  Rb  Rb7  1  0.077441  0.640853  0.640853  1
  Dy  Dy8  1  0.848127  0.151873  0.151873  1
  Dy  Dy9  1  0.151873  0.848127  0.848127  1
  Dy  Dy10  1  0.151873  0.848127  0.151873  1
  Dy  Dy11  1  0.848127  0.151873  0.848127  1
  Dy  Dy12  1  0.151874  0.151874  0.848126  1
  Dy  Dy13  1  0.848126  0.848126  0.151874  1
  B  B14  1  0.000000  0.000000  0.000000  1
  Br  Br15  1  0.330219  0.999990  0.000010  1
  Br  Br16  1  0.669781  0.000010  0.999990  1
  Br  Br17  1  0.999990  0.330219  0.669781  1
  Br  Br18  1  0.000010  0.669781  0.330219  1
  Br  Br19  1  0.999990  0.330219  0.000010  1
  Br  Br20  1  0.669781  0.000010  0.330219  1
  Br  Br21  1  0.000010  0.669781  0.999990  1
  Br  Br22  1  0.330219  0.999990  0.669781  1
  Br  Br23  1  0.000000  0.000000  0.330205  1
  Br  Br24  1  0.000000  0.000000  0.669795  1
  Br  Br25  1  0.669795  0.330205  0.000000  1
  Br  Br26  1  0.330205  0.669795  0.000000  1
  Br  Br27  1  0.679451  0.320549  0.320549  1
  Br  Br28  1  0.320549  0.679451  0.679451  1
  Br  Br29  1  0.320549  0.679451  0.320549  1
  Br  Br30  1  0.679451  0.320549  0.679451  1
  Br  Br31  1  0.320557  0.320557  0.679443  1
  Br  Br32  1  0.679443  0.679443  0.320557  1
  Br  Br33  1  0.250000  0.250000  0.250000  1
  Br  Br34  1  0.750000  0.750000  0.750000  1
