# generated using pymatgen
data_LiEr16Co4Ag3
_symmetry_space_group_name_H-M   'P 1'
_cell_length_a   9.34730275
_cell_length_b   9.35523888
_cell_length_c   9.35523900
_cell_angle_alpha   59.99999605
_cell_angle_beta   59.97190641
_cell_angle_gamma   59.97190572
_symmetry_Int_Tables_number   1
_chemical_formula_structural   LiEr16Co4Ag3
_chemical_formula_sum   'Li1 Er16 Co4 Ag3'
_cell_volume   578.22453809
_cell_formula_units_Z   1
loop_
 _symmetry_equiv_pos_site_id
 _symmetry_equiv_pos_as_xyz
  1  'x, y, z'
loop_
 _atom_site_type_symbol
 _atom_site_label
 _atom_site_symmetry_multiplicity
 _atom_site_fract_x
 _atom_site_fract_y
 _atom_site_fract_z
 _atom_site_occupancy
  Li  Li0  1  0.549762  0.816746  0.816746  1
  Er  Er1  1  0.595897  0.595938  0.595938  1
  Er  Er2  1  0.595897  0.595938  0.212227  1
  Er  Er3  1  0.595897  0.212227  0.595938  1
  Er  Er4  1  0.202283  0.599239  0.599239  1
  Er  Er5  1  0.058583  0.439361  0.439361  1
  Er  Er6  1  0.435668  0.063883  0.063883  1
  Er  Er7  1  0.435668  0.063883  0.436565  1
  Er  Er8  1  0.058583  0.439361  0.062695  1
  Er  Er9  1  0.435668  0.436565  0.063883  1
  Er  Er10  1  0.058583  0.062695  0.439361  1
  Er  Er11  1  0.185932  0.812089  0.812089  1
  Er  Er12  1  0.811809  0.187418  0.187418  1
  Er  Er13  1  0.811809  0.187418  0.813356  1
  Er  Er14  1  0.185932  0.812089  0.189890  1
  Er  Er15  1  0.811809  0.813356  0.187418  1
  Er  Er16  1  0.185932  0.189890  0.812089  1
  Co  Co17  1  0.387695  0.392732  0.392732  1
  Co  Co18  1  0.387695  0.392732  0.826843  1
  Co  Co19  1  0.387695  0.826843  0.392732  1
  Co  Co20  1  0.823795  0.392069  0.392069  1
  Ag  Ag21  1  0.832472  0.832621  0.832621  1
  Ag  Ag22  1  0.832472  0.832621  0.502288  1
  Ag  Ag23  1  0.832472  0.502288  0.832621  1
