# generated using pymatgen
data_Rb2IrPd11O24
_symmetry_space_group_name_H-M   'P 1'
_cell_length_a   8.69954122
_cell_length_b   8.69954106
_cell_length_c   8.70591677
_cell_angle_alpha   107.24308394
_cell_angle_beta   107.09631410
_cell_angle_gamma   114.15221172
_symmetry_Int_Tables_number   1
_chemical_formula_structural   Rb2IrPd11O24
_chemical_formula_sum   'Rb2 Ir1 Pd11 O24'
_cell_volume   504.80070781
_cell_formula_units_Z   1
loop_
 _symmetry_equiv_pos_site_id
 _symmetry_equiv_pos_as_xyz
  1  'x, y, z'
loop_
 _atom_site_type_symbol
 _atom_site_label
 _atom_site_symmetry_multiplicity
 _atom_site_fract_x
 _atom_site_fract_y
 _atom_site_fract_z
 _atom_site_occupancy
  Rb  Rb0  1  0.789397  0.788028  0.998173  1
  Rb  Rb1  1  0.210145  0.208776  0.998173  1
  Ir  Ir2  1  0.165152  0.353129  0.518280  1
  Pd  Pd3  1  0.315134  0.832278  0.814713  1
  Pd  Pd4  1  0.649131  0.167503  0.816634  1
  Pd  Pd5  1  0.982434  0.499578  0.814713  1
  Pd  Pd6  1  0.017072  0.499757  0.184451  1
  Pd  Pd7  1  0.350813  0.832894  0.183708  1
  Pd  Pd8  1  0.684696  0.167380  0.184451  1
  Pd  Pd9  1  0.832820  0.649229  0.482051  1
  Pd  Pd10  1  0.167219  0.982085  0.482532  1
  Pd  Pd11  1  0.500446  0.315313  0.482532  1
  Pd  Pd12  1  0.500587  0.685350  0.518114  1
  Pd  Pd13  1  0.832763  0.017527  0.518114  1
  O  O14  1  0.787686  0.507870  0.628690  1
  O  O15  1  0.120820  0.841004  0.628690  1
  O  O16  1  0.455035  0.173278  0.628313  1
  O  O17  1  0.883683  0.162789  0.373646  1
  O  O18  1  0.210858  0.489963  0.373646  1
  O  O19  1  0.545567  0.827190  0.372757  1
  O  O20  1  0.491429  0.121060  0.278604  1
  O  O21  1  0.828137  0.454867  0.283003  1
  O  O22  1  0.157543  0.787174  0.278604  1
  O  O23  1  0.178183  0.538735  0.716919  1
  O  O24  1  0.507345  0.879660  0.720510  1
  O  O25  1  0.840851  0.213166  0.720510  1
  O  O26  1  0.513274  0.870704  0.049327  1
  O  O27  1  0.847354  0.201835  0.049187  1
  O  O28  1  0.178624  0.536055  0.049327  1
  O  O29  1  0.151926  0.796202  0.948129  1
  O  O30  1  0.489752  0.133047  0.952055  1
  O  O31  1  0.819007  0.462302  0.952055  1
  O  O32  1  0.131162  0.182600  0.640853  1
  O  O33  1  0.458254  0.509691  0.640853  1
  O  O34  1  0.798385  0.846519  0.644905  1
  O  O35  1  0.536612  0.487222  0.356810  1
  O  O36  1  0.869588  0.820197  0.356810  1
  O  O37  1  0.201114  0.158043  0.359157  1
