# generated using pymatgen
data_Hf18ZnMo8Pt
_symmetry_space_group_name_H-M   'P 1'
_cell_length_a   8.75746900
_cell_length_b   8.75746907
_cell_length_c   8.55056500
_cell_angle_alpha   90.00000000
_cell_angle_beta   90.00000000
_cell_angle_gamma   119.99999595
_symmetry_Int_Tables_number   1
_chemical_formula_structural   Hf18ZnMo8Pt
_chemical_formula_sum   'Hf18 Zn1 Mo8 Pt1'
_cell_volume   567.91414159
_cell_formula_units_Z   1
loop_
 _symmetry_equiv_pos_site_id
 _symmetry_equiv_pos_as_xyz
  1  'x, y, z'
loop_
 _atom_site_type_symbol
 _atom_site_label
 _atom_site_symmetry_multiplicity
 _atom_site_fract_x
 _atom_site_fract_y
 _atom_site_fract_z
 _atom_site_occupancy
  Hf  Hf0  1  0.195510  0.804490  0.448857  1
  Hf  Hf1  1  0.195510  0.391019  0.448857  1
  Hf  Hf2  1  0.608981  0.804490  0.448857  1
  Hf  Hf3  1  0.803260  0.196740  0.551386  1
  Hf  Hf4  1  0.803260  0.606520  0.551386  1
  Hf  Hf5  1  0.393480  0.196740  0.551386  1
  Hf  Hf6  1  0.803260  0.196740  0.948614  1
  Hf  Hf7  1  0.803260  0.606520  0.948614  1
  Hf  Hf8  1  0.393480  0.196740  0.948614  1
  Hf  Hf9  1  0.195510  0.804490  0.051143  1
  Hf  Hf10  1  0.195510  0.391019  0.051143  1
  Hf  Hf11  1  0.608981  0.804490  0.051143  1
  Hf  Hf12  1  0.540961  0.459039  0.250000  1
  Hf  Hf13  1  0.540961  0.081922  0.250000  1
  Hf  Hf14  1  0.918078  0.459039  0.250000  1
  Hf  Hf15  1  0.457865  0.542135  0.750000  1
  Hf  Hf16  1  0.457865  0.915730  0.750000  1
  Hf  Hf17  1  0.084270  0.542135  0.750000  1
  Zn  Zn18  1  0.333333  0.666667  0.250000  1
  Mo  Mo19  1  0.889253  0.110747  0.250000  1
  Mo  Mo20  1  0.889253  0.778506  0.250000  1
  Mo  Mo21  1  0.221494  0.110747  0.250000  1
  Mo  Mo22  1  0.111765  0.888235  0.750000  1
  Mo  Mo23  1  0.111765  0.223530  0.750000  1
  Mo  Mo24  1  0.776470  0.888235  0.750000  1
  Mo  Mo25  1  0.000000  0.000000  0.501426  1
  Mo  Mo26  1  0.000000  0.000000  0.998574  1
  Pt  Pt27  1  0.666667  0.333333  0.750000  1
