# generated using pymatgen
data_Rb6Sc(RhBr6)3
_symmetry_space_group_name_H-M   'P 1'
_cell_length_a   7.59787400
_cell_length_b   7.59786379
_cell_length_c   19.26051000
_cell_angle_alpha   89.99999910
_cell_angle_beta   90.00006289
_cell_angle_gamma   119.99996319
_symmetry_Int_Tables_number   1
_chemical_formula_structural   Rb6Sc(RhBr6)3
_chemical_formula_sum   'Rb6 Sc1 Rh3 Br18'
_cell_volume   962.90217179
_cell_formula_units_Z   1
loop_
 _symmetry_equiv_pos_site_id
 _symmetry_equiv_pos_as_xyz
  1  'x, y, z'
loop_
 _atom_site_type_symbol
 _atom_site_label
 _atom_site_symmetry_multiplicity
 _atom_site_fract_x
 _atom_site_fract_y
 _atom_site_fract_z
 _atom_site_occupancy
  Rb  Rb0  1  0.333334  0.666668  0.067085  1
  Rb  Rb1  1  0.666667  0.333333  0.937334  1
  Rb  Rb2  1  0.666666  0.333332  0.567024  1
  Rb  Rb3  1  0.333334  0.666668  0.436306  1
  Rb  Rb4  1  0.999999  0.000001  0.250723  1
  Rb  Rb5  1  0.000000  0.000002  0.745309  1
  Sc  Sc6  1  0.333333  0.666668  0.840057  1
  Rh  Rh7  1  0.333333  0.666666  0.665873  1
  Rh  Rh8  1  0.666667  0.333333  0.334622  1
  Rh  Rh9  1  0.666667  0.333333  0.165494  1
  Br  Br10  1  0.178238  0.356477  0.591890  1
  Br  Br11  1  0.822259  0.644517  0.407573  1
  Br  Br12  1  0.643522  0.821762  0.591890  1
  Br  Br13  1  0.822170  0.644339  0.092362  1
  Br  Br14  1  0.355483  0.177741  0.407573  1
  Br  Br15  1  0.167832  0.335664  0.910618  1
  Br  Br16  1  0.178239  0.821761  0.591890  1
  Br  Br17  1  0.355661  0.177830  0.092362  1
  Br  Br18  1  0.822260  0.177740  0.407573  1
  Br  Br19  1  0.664336  0.832168  0.910618  1
  Br  Br20  1  0.822170  0.177830  0.092362  1
  Br  Br21  1  0.167831  0.832169  0.910618  1
  Br  Br22  1  0.516529  0.033058  0.249949  1
  Br  Br23  1  0.490392  0.980782  0.744332  1
  Br  Br24  1  0.966942  0.483470  0.249949  1
  Br  Br25  1  0.019218  0.509608  0.744332  1
  Br  Br26  1  0.516529  0.483472  0.249949  1
  Br  Br27  1  0.490391  0.509610  0.744332  1
