# generated using pymatgen
data_Y2Si2RuRh
_symmetry_space_group_name_H-M   'P 1'
_cell_length_a   4.31319300
_cell_length_b   6.98125600
_cell_length_c   7.24232100
_cell_angle_alpha   90.00000000
_cell_angle_beta   90.00000000
_cell_angle_gamma   90.00000000
_symmetry_Int_Tables_number   1
_chemical_formula_structural   Y2Si2RuRh
_chemical_formula_sum   'Y4 Si4 Ru2 Rh2'
_cell_volume   218.07718146
_cell_formula_units_Z   2
loop_
 _symmetry_equiv_pos_site_id
 _symmetry_equiv_pos_as_xyz
  1  'x, y, z'
loop_
 _atom_site_type_symbol
 _atom_site_label
 _atom_site_symmetry_multiplicity
 _atom_site_fract_x
 _atom_site_fract_y
 _atom_site_fract_z
 _atom_site_occupancy
  Y  Y0  1  0.750000  0.010515  0.186969  1
  Y  Y1  1  0.250000  0.491055  0.687072  1
  Y  Y2  1  0.750000  0.510515  0.313031  1
  Y  Y3  1  0.250000  0.991055  0.812928  1
  Si  Si4  1  0.250000  0.300594  0.101090  1
  Si  Si5  1  0.250000  0.800594  0.398910  1
  Si  Si6  1  0.750000  0.697111  0.888068  1
  Si  Si7  1  0.750000  0.197111  0.611932  1
  Ru  Ru8  1  0.750000  0.847727  0.567181  1
  Ru  Ru9  1  0.750000  0.347727  0.932819  1
  Rh  Rh10  1  0.250000  0.652998  0.068199  1
  Rh  Rh11  1  0.250000  0.152998  0.431801  1
