# generated using pymatgen
data_Pr4HoInPb2
_symmetry_space_group_name_H-M   'P 1'
_cell_length_a   6.39273195
_cell_length_b   9.44524207
_cell_length_c   9.44524110
_cell_angle_alpha   83.56399292
_cell_angle_beta   70.49181607
_cell_angle_gamma   70.49181287
_symmetry_Int_Tables_number   1
_chemical_formula_structural   Pr4HoInPb2
_chemical_formula_sum   'Pr8 Ho2 In2 Pb4'
_cell_volume   506.71258944
_cell_formula_units_Z   2
loop_
 _symmetry_equiv_pos_site_id
 _symmetry_equiv_pos_as_xyz
  1  'x, y, z'
loop_
 _atom_site_type_symbol
 _atom_site_label
 _atom_site_symmetry_multiplicity
 _atom_site_fract_x
 _atom_site_fract_y
 _atom_site_fract_z
 _atom_site_occupancy
  Pr  Pr0  1  0.719515  0.865820  0.696743  1
  Pr  Pr1  1  0.280485  0.134180  0.303257  1
  Pr  Pr2  1  0.780485  0.303257  0.134180  1
  Pr  Pr3  1  0.219515  0.696743  0.865820  1
  Pr  Pr4  1  0.584619  0.696761  0.134408  1
  Pr  Pr5  1  0.415381  0.303239  0.865592  1
  Pr  Pr6  1  0.084619  0.134408  0.696761  1
  Pr  Pr7  1  0.915381  0.865592  0.303239  1
  Ho  Ho8  1  0.750000  0.499908  0.500092  1
  Ho  Ho9  1  0.250000  0.500092  0.499908  1
  In  In10  1  0.250000  0.000065  0.999935  1
  In  In11  1  0.750000  0.999935  0.000065  1
  Pb  Pb12  1  0.156652  0.499845  0.186702  1
  Pb  Pb13  1  0.843348  0.500155  0.813298  1
  Pb  Pb14  1  0.343348  0.813298  0.500155  1
  Pb  Pb15  1  0.656652  0.186702  0.499845  1
