# generated using pymatgen
data_LiTb3Mg2Si2Ag
_symmetry_space_group_name_H-M   'P 1'
_cell_length_a   7.22761700
_cell_length_b   7.27137237
_cell_length_c   4.31024800
_cell_angle_alpha   90.00000000
_cell_angle_beta   90.00000000
_cell_angle_gamma   119.80113750
_symmetry_Int_Tables_number   1
_chemical_formula_structural   LiTb3Mg2Si2Ag
_chemical_formula_sum   'Li1 Tb3 Mg2 Si2 Ag1'
_cell_volume   196.56726451
_cell_formula_units_Z   1
loop_
 _symmetry_equiv_pos_site_id
 _symmetry_equiv_pos_as_xyz
  1  'x, y, z'
loop_
 _atom_site_type_symbol
 _atom_site_label
 _atom_site_symmetry_multiplicity
 _atom_site_fract_x
 _atom_site_fract_y
 _atom_site_fract_z
 _atom_site_occupancy
  Li  Li0  1  0.251807  0.000000  0.500000  1
  Tb  Tb1  1  0.568938  0.000000  0.000000  1
  Tb  Tb2  1  0.002778  0.579023  0.000000  1
  Tb  Tb3  1  0.423755  0.420977  0.000000  1
  Mg  Mg4  1  0.001484  0.248102  0.500000  1
  Mg  Mg5  1  0.753383  0.751898  0.500000  1
  Si  Si6  1  0.331819  0.667644  0.500000  1
  Si  Si7  1  0.664176  0.332356  0.500000  1
  Ag  Ag8  1  0.001859  0.000000  0.000000  1
