# generated using pymatgen
data_La8Nd8Cd4PdRu3
_symmetry_space_group_name_H-M   'P 1'
_cell_length_a   9.99351937
_cell_length_b   10.03392513
_cell_length_c   10.09529600
_cell_angle_alpha   59.79747271
_cell_angle_beta   59.66253818
_cell_angle_gamma   60.08827828
_symmetry_Int_Tables_number   1
_chemical_formula_structural   La8Nd8Cd4PdRu3
_chemical_formula_sum   'La8 Nd8 Cd4 Pd1 Ru3'
_cell_volume   713.33615550
_cell_formula_units_Z   1
loop_
 _symmetry_equiv_pos_site_id
 _symmetry_equiv_pos_as_xyz
  1  'x, y, z'
loop_
 _atom_site_type_symbol
 _atom_site_label
 _atom_site_symmetry_multiplicity
 _atom_site_fract_x
 _atom_site_fract_y
 _atom_site_fract_z
 _atom_site_occupancy
  La  La0  1  0.340633  0.349356  0.353516  1
  La  La1  1  0.340633  0.349356  0.956495  1
  La  La2  1  0.342145  0.954465  0.351695  1
  La  La3  1  0.962754  0.347109  0.345068  1
  La  La4  1  0.819914  0.191530  0.189675  1
  La  La5  1  0.188712  0.810908  0.812261  1
  La  La6  1  0.188712  0.810908  0.188119  1
  La  La7  1  0.819914  0.191530  0.798882  1
  Nd  Nd8  1  0.192746  0.192996  0.807129  1
  Nd  Nd9  1  0.811525  0.800606  0.193935  1
  Nd  Nd10  1  0.934204  0.565358  0.564172  1
  Nd  Nd11  1  0.561804  0.936279  0.935442  1
  Nd  Nd12  1  0.561804  0.936279  0.566477  1
  Nd  Nd13  1  0.934204  0.565358  0.936266  1
  Nd  Nd14  1  0.561278  0.567168  0.935777  1
  Nd  Nd15  1  0.936609  0.938641  0.562375  1
  Cd  Cd16  1  0.581594  0.580970  0.578630  1
  Cd  Cd17  1  0.581594  0.580970  0.258806  1
  Cd  Cd18  1  0.579056  0.258004  0.581470  1
  Cd  Cd19  1  0.257106  0.579279  0.581808  1
  Pd  Pd20  1  0.577498  0.143322  0.139590  1
  Ru  Ru21  1  0.137697  0.133620  0.144829  1
  Ru  Ru22  1  0.137697  0.133620  0.583853  1
  Ru  Ru23  1  0.150172  0.582368  0.133730  1
