# generated using pymatgen
data_Sr5Ga2Bi
_symmetry_space_group_name_H-M   'P 1'
_cell_length_a   10.02590227
_cell_length_b   10.02590183
_cell_length_c   10.02590124
_cell_angle_alpha   129.54483867
_cell_angle_beta   129.54483944
_cell_angle_gamma   74.13547293
_symmetry_Int_Tables_number   1
_chemical_formula_structural   Sr5Ga2Bi
_chemical_formula_sum   'Sr10 Ga4 Bi2'
_cell_volume   584.31713032
_cell_formula_units_Z   2
loop_
 _symmetry_equiv_pos_site_id
 _symmetry_equiv_pos_as_xyz
  1  'x, y, z'
loop_
 _atom_site_type_symbol
 _atom_site_label
 _atom_site_symmetry_multiplicity
 _atom_site_fract_x
 _atom_site_fract_y
 _atom_site_fract_z
 _atom_site_occupancy
  Sr  Sr0  1  0.000000  0.000000  0.000000  1
  Sr  Sr1  1  0.500000  0.500000  0.000000  1
  Sr  Sr2  1  0.186615  0.686615  0.153418  1
  Sr  Sr3  1  0.466803  0.966803  0.153418  1
  Sr  Sr4  1  0.033197  0.186616  0.500000  1
  Sr  Sr5  1  0.313384  0.466803  0.500000  1
  Sr  Sr6  1  0.686615  0.533197  0.500000  1
  Sr  Sr7  1  0.966803  0.813385  0.500000  1
  Sr  Sr8  1  0.533197  0.033197  0.846582  1
  Sr  Sr9  1  0.813384  0.313384  0.846582  1
  Ga  Ga10  1  0.890474  0.390475  0.280951  1
  Ga  Ga11  1  0.390474  0.109525  0.499999  1
  Ga  Ga12  1  0.609524  0.890474  0.499999  1
  Ga  Ga13  1  0.109525  0.609525  0.719048  1
  Bi  Bi14  1  0.250000  0.250000  0.000000  1
  Bi  Bi15  1  0.750000  0.750000  0.000000  1
