# generated using pymatgen
data_Sm2Er4Ga17Pd5
_symmetry_space_group_name_H-M   'P 1'
_cell_length_a   8.18785276
_cell_length_b   8.18785251
_cell_length_c   15.78504438
_cell_angle_alpha   75.99497502
_cell_angle_beta   75.99497568
_cell_angle_gamma   30.22998378
_symmetry_Int_Tables_number   1
_chemical_formula_structural   Sm2Er4Ga17Pd5
_chemical_formula_sum   'Sm2 Er4 Ga17 Pd5'
_cell_volume   515.78433160
_cell_formula_units_Z   1
loop_
 _symmetry_equiv_pos_site_id
 _symmetry_equiv_pos_as_xyz
  1  'x, y, z'
loop_
 _atom_site_type_symbol
 _atom_site_label
 _atom_site_symmetry_multiplicity
 _atom_site_fract_x
 _atom_site_fract_y
 _atom_site_fract_z
 _atom_site_occupancy
  Sm  Sm0  1  0.753979  0.753979  0.750285  1
  Sm  Sm1  1  0.246021  0.246021  0.249715  1
  Er  Er2  1  0.599676  0.599676  0.597106  1
  Er  Er3  1  0.090114  0.090114  0.092808  1
  Er  Er4  1  0.909886  0.909886  0.907192  1
  Er  Er5  1  0.400324  0.400324  0.402894  1
  Ga  Ga6  1  0.821716  0.821716  0.538799  1
  Ga  Ga7  1  0.326159  0.326159  0.042835  1
  Ga  Ga8  1  0.673841  0.673841  0.957165  1
  Ga  Ga9  1  0.178284  0.178284  0.461201  1
  Ga  Ga10  1  0.545450  0.545450  0.826518  1
  Ga  Ga11  1  0.037844  0.037844  0.322432  1
  Ga  Ga12  1  0.962156  0.962156  0.677568  1
  Ga  Ga13  1  0.454550  0.454550  0.173482  1
  Ga  Ga14  1  0.269522  0.269522  0.897975  1
  Ga  Ga15  1  0.761436  0.761436  0.395133  1
  Ga  Ga16  1  0.238564  0.238564  0.604867  1
  Ga  Ga17  1  0.730478  0.730478  0.102025  1
  Ga  Ga18  1  0.400758  0.400758  0.764766  1
  Ga  Ga19  1  0.893125  0.893125  0.266559  1
  Ga  Ga20  1  0.106875  0.106875  0.733441  1
  Ga  Ga21  1  0.599242  0.599242  0.235234  1
  Ga  Ga22  1  0.000000  0.000000  0.500000  1
  Pd  Pd23  1  0.106511  0.106511  0.896961  1
  Pd  Pd24  1  0.592208  0.592208  0.404936  1
  Pd  Pd25  1  0.407792  0.407792  0.595064  1
  Pd  Pd26  1  0.893489  0.893489  0.103039  1
  Pd  Pd27  1  0.500000  0.500000  0.000000  1
