# generated using pymatgen
data_YEr4ReTcC7
_symmetry_space_group_name_H-M   'P 1'
_cell_length_a   8.27140576
_cell_length_b   8.27140629
_cell_length_c   3.40951300
_cell_angle_alpha   90.00000000
_cell_angle_beta   90.00000000
_cell_angle_gamma   122.18059824
_symmetry_Int_Tables_number   1
_chemical_formula_structural   YEr4ReTcC7
_chemical_formula_sum   'Y1 Er4 Re1 Tc1 C7'
_cell_volume   197.42998824
_cell_formula_units_Z   1
loop_
 _symmetry_equiv_pos_site_id
 _symmetry_equiv_pos_as_xyz
  1  'x, y, z'
loop_
 _atom_site_type_symbol
 _atom_site_label
 _atom_site_symmetry_multiplicity
 _atom_site_fract_x
 _atom_site_fract_y
 _atom_site_fract_z
 _atom_site_occupancy
  Y  Y0  1  0.500180  0.499820  0.000000  1
  Er  Er1  1  0.076642  0.336255  0.500000  1
  Er  Er2  1  0.922733  0.662392  0.500000  1
  Er  Er3  1  0.663745  0.923358  0.500000  1
  Er  Er4  1  0.337608  0.077267  0.500000  1
  Re  Re5  1  0.284868  0.715132  0.000000  1
  Tc  Tc6  1  0.714841  0.285159  0.000000  1
  C  C7  1  0.626977  0.373023  0.500000  1
  C  C8  1  0.372915  0.627085  0.500000  1
  C  C9  1  0.999633  0.000367  0.000000  1
  C  C10  1  0.169413  0.169531  0.000000  1
  C  C11  1  0.830469  0.830587  0.000000  1
  C  C12  1  0.001415  0.501441  0.000000  1
  C  C13  1  0.498559  0.998585  0.000000  1
