# generated using pymatgen
data_Lu4NpTc6W
_symmetry_space_group_name_H-M   'P 1'
_cell_length_a   5.27869191
_cell_length_b   5.27869295
_cell_length_c   8.94119700
_cell_angle_alpha   90.00000000
_cell_angle_beta   90.00000000
_cell_angle_gamma   115.55817991
_symmetry_Int_Tables_number   1
_chemical_formula_structural   Lu4NpTc6W
_chemical_formula_sum   'Lu4 Np1 Tc6 W1'
_cell_volume   224.76361559
_cell_formula_units_Z   1
loop_
 _symmetry_equiv_pos_site_id
 _symmetry_equiv_pos_as_xyz
  1  'x, y, z'
loop_
 _atom_site_type_symbol
 _atom_site_label
 _atom_site_symmetry_multiplicity
 _atom_site_fract_x
 _atom_site_fract_y
 _atom_site_fract_z
 _atom_site_occupancy
  Lu  Lu0  1  0.330445  0.669555  0.444543  1
  Lu  Lu1  1  0.664400  0.335600  0.570005  1
  Lu  Lu2  1  0.664400  0.335600  0.929995  1
  Lu  Lu3  1  0.330445  0.669555  0.055457  1
  Np  Np4  1  0.848252  0.151748  0.250000  1
  Tc  Tc5  1  0.992556  0.007444  0.487725  1
  Tc  Tc6  1  0.992556  0.007444  0.012275  1
  Tc  Tc7  1  0.838733  0.622637  0.250000  1
  Tc  Tc8  1  0.377363  0.161267  0.250000  1
  Tc  Tc9  1  0.163449  0.355575  0.750000  1
  Tc  Tc10  1  0.644425  0.836551  0.750000  1
  W  W11  1  0.152974  0.847026  0.750000  1
