# generated using pymatgen
data_HfZr7H30
_symmetry_space_group_name_H-M   'P 1'
_cell_length_a   7.01096341
_cell_length_b   7.01096355
_cell_length_c   7.01096308
_cell_angle_alpha   109.50305188
_cell_angle_beta   109.50305771
_cell_angle_gamma   109.50304333
_symmetry_Int_Tables_number   1
_chemical_formula_structural   HfZr7H30
_chemical_formula_sum   'Hf1 Zr7 H30'
_cell_volume   264.97099190
_cell_formula_units_Z   1
loop_
 _symmetry_equiv_pos_site_id
 _symmetry_equiv_pos_as_xyz
  1  'x, y, z'
loop_
 _atom_site_type_symbol
 _atom_site_label
 _atom_site_symmetry_multiplicity
 _atom_site_fract_x
 _atom_site_fract_y
 _atom_site_fract_z
 _atom_site_occupancy
  Hf  Hf0  1  0.905622  0.905622  0.905622  1
  Zr  Zr1  1  0.499662  0.000711  0.092934  1
  Zr  Zr2  1  0.000711  0.092934  0.499662  1
  Zr  Zr3  1  0.092934  0.499662  0.000711  1
  Zr  Zr4  1  0.000165  0.592527  0.500371  1
  Zr  Zr5  1  0.592527  0.500371  0.000165  1
  Zr  Zr6  1  0.500371  0.000165  0.592527  1
  Zr  Zr7  1  0.408043  0.408043  0.408043  1
  H  H8  1  0.654913  0.967282  0.384173  1
  H  H9  1  0.229836  0.312712  0.845430  1
  H  H10  1  0.187013  0.417104  0.532273  1
  H  H11  1  0.080701  0.266729  0.112341  1
  H  H12  1  0.266729  0.112341  0.080701  1
  H  H13  1  0.112341  0.080701  0.266729  1
  H  H14  1  0.467985  0.154752  0.884801  1
  H  H15  1  0.730192  0.345216  0.812609  1
  H  H16  1  0.624902  0.374955  0.250048  1
  H  H17  1  0.250048  0.624902  0.374955  1
  H  H18  1  0.750676  0.875306  0.123394  1
  H  H19  1  0.123394  0.750676  0.875306  1
  H  H20  1  0.374955  0.250048  0.624902  1
  H  H21  1  0.875306  0.123394  0.750676  1
  H  H22  1  0.771554  0.585716  0.618145  1
  H  H23  1  0.312712  0.845430  0.229836  1
  H  H24  1  0.384173  0.654913  0.967282  1
  H  H25  1  0.967282  0.384173  0.654913  1
  H  H26  1  0.532273  0.187013  0.417104  1
  H  H27  1  0.417104  0.532273  0.187013  1
  H  H28  1  0.845430  0.229836  0.312712  1
  H  H29  1  0.917562  0.690526  0.031121  1
  H  H30  1  0.812609  0.730192  0.345216  1
  H  H31  1  0.154752  0.884801  0.467985  1
  H  H32  1  0.690526  0.031121  0.917562  1
  H  H33  1  0.345216  0.812609  0.730192  1
  H  H34  1  0.884801  0.467985  0.154752  1
  H  H35  1  0.618145  0.771554  0.585716  1
  H  H36  1  0.585716  0.618145  0.771554  1
  H  H37  1  0.031121  0.917562  0.690526  1
