# generated using pymatgen
data_TmPaF8
_symmetry_space_group_name_H-M   'P 1'
_cell_length_a   8.21027450
_cell_length_b   8.29876554
_cell_length_c   8.07651220
_cell_angle_alpha   63.65757867
_cell_angle_beta   64.37594464
_cell_angle_gamma   80.69540091
_symmetry_Int_Tables_number   1
_chemical_formula_structural   TmPaF8
_chemical_formula_sum   'Tm3 Pa3 F24'
_cell_volume   444.33885120
_cell_formula_units_Z   3
loop_
 _symmetry_equiv_pos_site_id
 _symmetry_equiv_pos_as_xyz
  1  'x, y, z'
loop_
 _atom_site_type_symbol
 _atom_site_label
 _atom_site_symmetry_multiplicity
 _atom_site_fract_x
 _atom_site_fract_y
 _atom_site_fract_z
 _atom_site_occupancy
  Tm  Tm0  1  0.368409  0.238975  0.334631  1
  Tm  Tm1  1  0.221682  0.360626  0.844940  1
  Tm  Tm2  1  0.781664  0.615101  0.165121  1
  Pa  Pa3  1  0.624881  0.775670  0.660240  1
  Pa  Pa4  1  0.787770  0.205986  0.758697  1
  Pa  Pa5  1  0.214064  0.787219  0.260777  1
  F  F6  1  0.312542  0.268129  0.608039  1
  F  F7  1  0.684920  0.740778  0.388281  1
  F  F8  1  0.727971  0.685362  0.889546  1
  F  F9  1  0.272001  0.316793  0.103424  1
  F  F10  1  0.826083  0.930049  0.948960  1
  F  F11  1  0.180818  0.054532  0.046734  1
  F  F12  1  0.055642  0.173142  0.551703  1
  F  F13  1  0.928704  0.832202  0.461568  1
  F  F14  1  0.407375  0.597907  0.742393  1
  F  F15  1  0.600069  0.404327  0.245172  1
  F  F16  1  0.499660  0.999195  0.496081  1
  F  F17  1  0.004307  0.505360  0.993479  1
  F  F18  1  0.510785  0.247065  0.789376  1
  F  F19  1  0.497836  0.753023  0.201411  1
  F  F20  1  0.744355  0.500096  0.712943  1
  F  F21  1  0.255030  0.513549  0.284059  1
  F  F22  1  0.397849  0.813092  0.914332  1
  F  F23  1  0.613224  0.180849  0.068943  1
  F  F24  1  0.180329  0.608427  0.572311  1
  F  F25  1  0.813114  0.394214  0.439630  1
  F  F26  1  0.721225  0.025388  0.644142  1
  F  F27  1  0.272580  0.971230  0.354009  1
  F  F28  1  0.969534  0.275068  0.852162  1
  F  F29  1  0.025582  0.726646  0.166898  1
