# generated using pymatgen
data_Sn16IrPt2Rh
_symmetry_space_group_name_H-M   'P 1'
_cell_length_a   12.61922299
_cell_length_b   12.61922362
_cell_length_c   12.62543700
_cell_angle_alpha   150.71105950
_cell_angle_beta   150.71106454
_cell_angle_gamma   41.82487745
_symmetry_Int_Tables_number   1
_chemical_formula_structural   Sn16IrPt2Rh
_chemical_formula_sum   'Sn16 Ir1 Pt2 Rh1'
_cell_volume   480.17421894
_cell_formula_units_Z   1
loop_
 _symmetry_equiv_pos_site_id
 _symmetry_equiv_pos_as_xyz
  1  'x, y, z'
loop_
 _atom_site_type_symbol
 _atom_site_label
 _atom_site_symmetry_multiplicity
 _atom_site_fract_x
 _atom_site_fract_y
 _atom_site_fract_z
 _atom_site_occupancy
  Sn  Sn0  1  0.982028  0.489055  0.844645  1
  Sn  Sn1  1  0.362617  0.855591  0.844645  1
  Sn  Sn2  1  0.010945  0.517972  0.155355  1
  Sn  Sn3  1  0.262121  0.604183  0.994275  1
  Sn  Sn4  1  0.105092  0.110039  0.341896  1
  Sn  Sn5  1  0.855197  0.010272  0.491757  1
  Sn  Sn6  1  0.518515  0.363439  0.508243  1
  Sn  Sn7  1  0.136561  0.981485  0.491757  1
  Sn  Sn8  1  0.489728  0.644803  0.508243  1
  Sn  Sn9  1  0.736804  0.731856  0.341896  1
  Sn  Sn10  1  0.389961  0.394908  0.658104  1
  Sn  Sn11  1  0.768144  0.763196  0.658104  1
  Sn  Sn12  1  0.644409  0.137383  0.155355  1
  Sn  Sn13  1  0.895817  0.237879  0.005725  1
  Sn  Sn14  1  0.232154  0.890092  0.994275  1
  Sn  Sn15  1  0.609908  0.267846  0.005725  1
  Ir  Ir16  1  0.000000  0.500000  0.500000  1
  Pt  Pt17  1  0.500000  0.000000  0.500000  1
  Pt  Pt18  1  0.250000  0.250000  0.000000  1
  Rh  Rh19  1  0.750000  0.750000  0.000000  1
