# generated using pymatgen
data_CeErZn5Ge
_symmetry_space_group_name_H-M   'P 1'
_cell_length_a   8.27559200
_cell_length_b   8.27559298
_cell_length_c   8.82055900
_cell_angle_alpha   90.00000000
_cell_angle_beta   90.00000000
_cell_angle_gamma   149.56650901
_symmetry_Int_Tables_number   1
_chemical_formula_structural   CeErZn5Ge
_chemical_formula_sum   'Ce2 Er2 Zn10 Ge2'
_cell_volume   305.98927016
_cell_formula_units_Z   2
loop_
 _symmetry_equiv_pos_site_id
 _symmetry_equiv_pos_as_xyz
  1  'x, y, z'
loop_
 _atom_site_type_symbol
 _atom_site_label
 _atom_site_symmetry_multiplicity
 _atom_site_fract_x
 _atom_site_fract_y
 _atom_site_fract_z
 _atom_site_occupancy
  Ce  Ce0  1  0.000000  0.000000  0.500000  1
  Ce  Ce1  1  0.000000  0.000000  0.000000  1
  Er  Er2  1  0.200820  0.799180  0.250000  1
  Er  Er3  1  0.799180  0.200820  0.750000  1
  Zn  Zn4  1  0.812759  0.187241  0.392116  1
  Zn  Zn5  1  0.187241  0.812759  0.607884  1
  Zn  Zn6  1  0.812759  0.187241  0.107884  1
  Zn  Zn7  1  0.187241  0.812759  0.892116  1
  Zn  Zn8  1  0.653567  0.346433  0.476275  1
  Zn  Zn9  1  0.346433  0.653567  0.523725  1
  Zn  Zn10  1  0.653567  0.346433  0.023725  1
  Zn  Zn11  1  0.346433  0.653567  0.976275  1
  Zn  Zn12  1  0.400106  0.599894  0.250000  1
  Zn  Zn13  1  0.599894  0.400106  0.750000  1
  Ge  Ge14  1  0.556831  0.443169  0.250000  1
  Ge  Ge15  1  0.443169  0.556831  0.750000  1
