# generated using pymatgen
data_YbPa3(NiAs)4
_symmetry_space_group_name_H-M   'P 1'
_cell_length_a   4.06352700
_cell_length_b   4.06352809
_cell_length_c   15.46096600
_cell_angle_alpha   90.00000000
_cell_angle_beta   90.00000000
_cell_angle_gamma   120.00001557
_symmetry_Int_Tables_number   1
_chemical_formula_structural   YbPa3(NiAs)4
_chemical_formula_sum   'Yb1 Pa3 Ni4 As4'
_cell_volume   221.09229323
_cell_formula_units_Z   1
loop_
 _symmetry_equiv_pos_site_id
 _symmetry_equiv_pos_as_xyz
  1  'x, y, z'
loop_
 _atom_site_type_symbol
 _atom_site_label
 _atom_site_symmetry_multiplicity
 _atom_site_fract_x
 _atom_site_fract_y
 _atom_site_fract_z
 _atom_site_occupancy
  Yb  Yb0  1  0.000000  0.000000  0.500000  1
  Pa  Pa1  1  0.000000  0.000000  0.252325  1
  Pa  Pa2  1  0.000000  0.000000  0.747675  1
  Pa  Pa3  1  0.000000  0.000000  0.000000  1
  Ni  Ni4  1  0.333333  0.666667  0.122430  1
  Ni  Ni5  1  0.666667  0.333333  0.877570  1
  Ni  Ni6  1  0.666667  0.333333  0.642139  1
  Ni  Ni7  1  0.333333  0.666667  0.357861  1
  As  As8  1  0.333333  0.666667  0.623477  1
  As  As9  1  0.666667  0.333333  0.376523  1
  As  As10  1  0.666667  0.333333  0.126523  1
  As  As11  1  0.333333  0.666667  0.873477  1
