# generated using pymatgen
data_K2SmTh(SbSe3)4
_symmetry_space_group_name_H-M   'P 1'
_cell_length_a   4.24057920
_cell_length_b   15.49427859
_cell_length_c   17.01148673
_cell_angle_alpha   90.09803853
_cell_angle_beta   91.76849257
_cell_angle_gamma   89.57562073
_symmetry_Int_Tables_number   1
_chemical_formula_structural   K2SmTh(SbSe3)4
_chemical_formula_sum   'K4 Sm2 Th2 Sb8 Se24'
_cell_volume   1117.17062559
_cell_formula_units_Z   2
loop_
 _symmetry_equiv_pos_site_id
 _symmetry_equiv_pos_as_xyz
  1  'x, y, z'
loop_
 _atom_site_type_symbol
 _atom_site_label
 _atom_site_symmetry_multiplicity
 _atom_site_fract_x
 _atom_site_fract_y
 _atom_site_fract_z
 _atom_site_occupancy
  K  K0  1  0.268819  0.717026  0.670990  1
  K  K1  1  0.267871  0.787412  0.167791  1
  K  K2  1  0.731181  0.282974  0.329010  1
  K  K3  1  0.732129  0.212588  0.832209  1
  Sm  Sm4  1  0.724871  0.135259  0.091348  1
  Sm  Sm5  1  0.275129  0.864741  0.908652  1
  Th  Th6  1  0.711638  0.365259  0.590677  1
  Th  Th7  1  0.288362  0.634741  0.409323  1
  Sb  Sb8  1  0.263763  0.121087  0.526595  1
  Sb  Sb9  1  0.255498  0.375831  0.026187  1
  Sb  Sb10  1  0.744502  0.624169  0.973813  1
  Sb  Sb11  1  0.250580  0.026370  0.288846  1
  Sb  Sb12  1  0.755516  0.523661  0.203661  1
  Sb  Sb13  1  0.749420  0.973630  0.711154  1
  Sb  Sb14  1  0.736237  0.878913  0.473405  1
  Sb  Sb15  1  0.244484  0.476339  0.796339  1
  Se  Se16  1  0.326341  0.470537  0.307612  1
  Se  Se17  1  0.694385  0.969810  0.188992  1
  Se  Se18  1  0.305615  0.030190  0.811008  1
  Se  Se19  1  0.260029  0.832108  0.373242  1
  Se  Se20  1  0.739971  0.167892  0.626758  1
  Se  Se21  1  0.707051  0.069270  0.407734  1
  Se  Se22  1  0.292949  0.930730  0.592266  1
  Se  Se23  1  0.227554  0.210886  0.985290  1
  Se  Se24  1  0.261943  0.659404  0.871404  1
  Se  Se25  1  0.219578  0.291544  0.483261  1
  Se  Se26  1  0.738057  0.340596  0.128596  1
  Se  Se27  1  0.298812  0.573811  0.094468  1
  Se  Se28  1  0.200185  0.988273  0.053044  1
  Se  Se29  1  0.769308  0.824497  0.786999  1
  Se  Se30  1  0.673659  0.529463  0.692388  1
  Se  Se31  1  0.778852  0.674078  0.288687  1
  Se  Se32  1  0.701188  0.426189  0.905532  1
  Se  Se33  1  0.230692  0.175503  0.213001  1
  Se  Se34  1  0.221148  0.325922  0.711313  1
  Se  Se35  1  0.772446  0.789114  0.014710  1
  Se  Se36  1  0.799815  0.011727  0.946956  1
  Se  Se37  1  0.190948  0.511350  0.557515  1
  Se  Se38  1  0.809052  0.488650  0.442485  1
  Se  Se39  1  0.780422  0.708456  0.516739  1
