# generated using pymatgen
data_Sr8Yb11DyPt16
_symmetry_space_group_name_H-M   'P 1'
_cell_length_a   7.65294819
_cell_length_b   7.81095294
_cell_length_c   14.81747260
_cell_angle_alpha   90.00470361
_cell_angle_beta   90.06749446
_cell_angle_gamma   89.91958467
_symmetry_Int_Tables_number   1
_chemical_formula_structural   Sr8Yb11DyPt16
_chemical_formula_sum   'Sr8 Yb11 Dy1 Pt16'
_cell_volume   885.73987576
_cell_formula_units_Z   1
loop_
 _symmetry_equiv_pos_site_id
 _symmetry_equiv_pos_as_xyz
  1  'x, y, z'
loop_
 _atom_site_type_symbol
 _atom_site_label
 _atom_site_symmetry_multiplicity
 _atom_site_fract_x
 _atom_site_fract_y
 _atom_site_fract_z
 _atom_site_occupancy
  Sr  Sr0  1  0.502492  0.325437  0.903654  1
  Sr  Sr1  1  0.001540  0.176297  0.595437  1
  Sr  Sr2  1  0.498003  0.675223  0.403477  1
  Sr  Sr3  1  0.997693  0.824174  0.096951  1
  Sr  Sr4  1  0.498348  0.674645  0.097861  1
  Sr  Sr5  1  0.998001  0.824498  0.403397  1
  Sr  Sr6  1  0.502685  0.324134  0.595707  1
  Sr  Sr7  1  0.000988  0.177158  0.903633  1
  Yb  Yb8  1  0.839157  0.666283  0.622503  1
  Yb  Yb9  1  0.660836  0.167023  0.376954  1
  Yb  Yb10  1  0.160360  0.333197  0.123353  1
  Yb  Yb11  1  0.661121  0.167436  0.123317  1
  Yb  Yb12  1  0.160799  0.333163  0.377004  1
  Yb  Yb13  1  0.339100  0.832718  0.622758  1
  Yb  Yb14  1  0.839320  0.666862  0.877202  1
  Yb  Yb15  1  0.176535  0.496508  0.748919  1
  Yb  Yb16  1  0.679446  0.003081  0.749018  1
  Yb  Yb17  1  0.822440  0.501700  0.250432  1
  Yb  Yb18  1  0.322189  0.997819  0.250596  1
  Dy  Dy19  1  0.339255  0.832437  0.876339  1
  Pt  Pt20  1  0.332016  0.037546  0.040512  1
  Pt  Pt21  1  0.834547  0.460551  0.457378  1
  Pt  Pt22  1  0.665420  0.960622  0.542735  1
  Pt  Pt23  1  0.167559  0.545443  0.956442  1
  Pt  Pt24  1  0.661875  0.959224  0.956034  1
  Pt  Pt25  1  0.165168  0.538388  0.542924  1
  Pt  Pt26  1  0.335299  0.038961  0.457284  1
  Pt  Pt27  1  0.836908  0.460767  0.042396  1
  Pt  Pt28  1  0.542952  0.630901  0.753053  1
  Pt  Pt29  1  0.047187  0.869599  0.751423  1
  Pt  Pt30  1  0.454470  0.370563  0.249893  1
  Pt  Pt31  1  0.954812  0.128959  0.250054  1
  Pt  Pt32  1  0.305648  0.122649  0.751810  1
  Pt  Pt33  1  0.801535  0.375984  0.749539  1
  Pt  Pt34  1  0.697043  0.875136  0.250049  1
  Pt  Pt35  1  0.197256  0.624913  0.249963  1
