# generated using pymatgen
data_DyTh2(CoSn)3
_symmetry_space_group_name_H-M   'P 1'
_cell_length_a   7.37462469
_cell_length_b   7.28653216
_cell_length_c   4.00535700
_cell_angle_alpha   90.00000000
_cell_angle_beta   90.00000000
_cell_angle_gamma   119.60563353
_symmetry_Int_Tables_number   1
_chemical_formula_structural   DyTh2(CoSn)3
_chemical_formula_sum   'Dy1 Th2 Co3 Sn3'
_cell_volume   187.13060993
_cell_formula_units_Z   1
loop_
 _symmetry_equiv_pos_site_id
 _symmetry_equiv_pos_as_xyz
  1  'x, y, z'
loop_
 _atom_site_type_symbol
 _atom_site_label
 _atom_site_symmetry_multiplicity
 _atom_site_fract_x
 _atom_site_fract_y
 _atom_site_fract_z
 _atom_site_occupancy
  Dy  Dy0  1  0.000000  0.591552  0.500000  1
  Th  Th1  1  0.413875  0.415127  0.500000  1
  Th  Th2  1  0.586125  0.001251  0.500000  1
  Co  Co3  1  0.347084  0.667296  0.000000  1
  Co  Co4  1  0.000000  0.005967  0.500000  1
  Co  Co5  1  0.652916  0.320212  0.000000  1
  Sn  Sn6  1  0.759424  0.749198  0.000000  1
  Sn  Sn7  1  0.000000  0.259624  0.000000  1
  Sn  Sn8  1  0.240576  0.989774  0.000000  1
