# generated using pymatgen
data_Ho3In4CoIr
_symmetry_space_group_name_H-M   'P 1'
_cell_length_a   7.91941500
_cell_length_b   7.91941549
_cell_length_c   3.60318100
_cell_angle_alpha   90.00000000
_cell_angle_beta   90.00000000
_cell_angle_gamma   119.99999991
_symmetry_Int_Tables_number   1
_chemical_formula_structural   Ho3In4CoIr
_chemical_formula_sum   'Ho3 In4 Co1 Ir1'
_cell_volume   195.70545951
_cell_formula_units_Z   1
loop_
 _symmetry_equiv_pos_site_id
 _symmetry_equiv_pos_as_xyz
  1  'x, y, z'
loop_
 _atom_site_type_symbol
 _atom_site_label
 _atom_site_symmetry_multiplicity
 _atom_site_fract_x
 _atom_site_fract_y
 _atom_site_fract_z
 _atom_site_occupancy
  Ho  Ho0  1  0.701328  0.954831  0.500000  1
  Ho  Ho1  1  0.253503  0.298672  0.500000  1
  Ho  Ho2  1  0.045169  0.746497  0.500000  1
  In  In3  1  0.920226  0.337511  0.000000  1
  In  In4  1  0.417285  0.079774  0.000000  1
  In  In5  1  0.662489  0.582715  0.000000  1
  In  In6  1  0.333333  0.666667  0.000000  1
  Co  Co7  1  0.666667  0.333333  0.500000  1
  Ir  Ir8  1  0.000000  0.000000  0.000000  1
