# generated using pymatgen
data_Ho7Er5Co4
_symmetry_space_group_name_H-M   'P 1'
_cell_length_a   6.15661747
_cell_length_b   6.91303702
_cell_length_c   9.36341072
_cell_angle_alpha   90.00679951
_cell_angle_beta   90.04440184
_cell_angle_gamma   90.00426817
_symmetry_Int_Tables_number   1
_chemical_formula_structural   Ho7Er5Co4
_chemical_formula_sum   'Ho7 Er5 Co4'
_cell_volume   398.51529259
_cell_formula_units_Z   1
loop_
 _symmetry_equiv_pos_site_id
 _symmetry_equiv_pos_as_xyz
  1  'x, y, z'
loop_
 _atom_site_type_symbol
 _atom_site_label
 _atom_site_symmetry_multiplicity
 _atom_site_fract_x
 _atom_site_fract_y
 _atom_site_fract_z
 _atom_site_occupancy
  Ho  Ho0  1  0.323606  0.675446  0.067272  1
  Ho  Ho1  1  0.176195  0.175164  0.432189  1
  Ho  Ho2  1  0.676056  0.324782  0.567601  1
  Ho  Ho3  1  0.860561  0.541573  0.250014  1
  Ho  Ho4  1  0.639288  0.041394  0.249637  1
  Ho  Ho5  1  0.138898  0.458759  0.750252  1
  Ho  Ho6  1  0.361137  0.958095  0.750044  1
  Er  Er7  1  0.823936  0.824707  0.932418  1
  Er  Er8  1  0.675676  0.324707  0.933013  1
  Er  Er9  1  0.824221  0.824701  0.567708  1
  Er  Er10  1  0.324269  0.675270  0.432784  1
  Er  Er11  1  0.175613  0.175297  0.066774  1
  Co  Co12  1  0.049826  0.886518  0.249904  1
  Co  Co13  1  0.449991  0.386498  0.249358  1
  Co  Co14  1  0.950315  0.113435  0.751262  1
  Co  Co15  1  0.550411  0.613653  0.749772  1
