# generated using pymatgen
data_Y2In(GaPt)3
_symmetry_space_group_name_H-M   'P 1'
_cell_length_a   6.76190100
_cell_length_b   6.76189999
_cell_length_c   4.21870500
_cell_angle_alpha   90.00000000
_cell_angle_beta   90.00000000
_cell_angle_gamma   116.07236540
_symmetry_Int_Tables_number   1
_chemical_formula_structural   Y2In(GaPt)3
_chemical_formula_sum   'Y2 In1 Ga3 Pt3'
_cell_volume   173.26423899
_cell_formula_units_Z   1
loop_
 _symmetry_equiv_pos_site_id
 _symmetry_equiv_pos_as_xyz
  1  'x, y, z'
loop_
 _atom_site_type_symbol
 _atom_site_label
 _atom_site_symmetry_multiplicity
 _atom_site_fract_x
 _atom_site_fract_y
 _atom_site_fract_z
 _atom_site_occupancy
  Y  Y0  1  0.576579  0.993746  0.500000  1
  Y  Y1  1  0.993746  0.576579  0.500000  1
  In  In2  1  0.409895  0.409895  0.500000  1
  Ga  Ga3  1  0.775354  0.775354  0.000000  1
  Ga  Ga4  1  0.246008  0.983757  0.000000  1
  Ga  Ga5  1  0.983757  0.246008  0.000000  1
  Pt  Pt6  1  0.647605  0.346226  0.000000  1
  Pt  Pt7  1  0.346226  0.647605  0.000000  1
  Pt  Pt8  1  0.020831  0.020831  0.500000  1
