# generated using pymatgen
data_LaPr3(CdPd2)2
_symmetry_space_group_name_H-M   'P 1'
_cell_length_a   7.85230853
_cell_length_b   7.85230853
_cell_length_c   4.01368400
_cell_angle_alpha   90.00000000
_cell_angle_beta   90.00000000
_cell_angle_gamma   90.52539196
_symmetry_Int_Tables_number   1
_chemical_formula_structural   LaPr3(CdPd2)2
_chemical_formula_sum   'La1 Pr3 Cd2 Pd4'
_cell_volume   247.46833090
_cell_formula_units_Z   1
loop_
 _symmetry_equiv_pos_site_id
 _symmetry_equiv_pos_as_xyz
  1  'x, y, z'
loop_
 _atom_site_type_symbol
 _atom_site_label
 _atom_site_symmetry_multiplicity
 _atom_site_fract_x
 _atom_site_fract_y
 _atom_site_fract_z
 _atom_site_occupancy
  La  La0  1  0.325885  0.825885  0.500000  1
  Pr  Pr1  1  0.825843  0.673189  0.500000  1
  Pr  Pr2  1  0.173189  0.325843  0.500000  1
  Pr  Pr3  1  0.674809  0.174809  0.500000  1
  Cd  Cd4  1  0.998644  0.000807  0.000000  1
  Cd  Cd5  1  0.500807  0.498644  0.000000  1
  Pd  Pd6  1  0.372150  0.127345  0.000000  1
  Pd  Pd7  1  0.872607  0.372607  0.000000  1
  Pd  Pd8  1  0.128721  0.628721  0.000000  1
  Pd  Pd9  1  0.627345  0.872150  0.000000  1
