# generated using pymatgen
data_Ac5Tl2Ir
_symmetry_space_group_name_H-M   'P 1'
_cell_length_a   8.78235000
_cell_length_b   9.74103700
_cell_length_c   13.62225900
_cell_angle_alpha   90.00000000
_cell_angle_beta   90.00000000
_cell_angle_gamma   90.00000000
_symmetry_Int_Tables_number   1
_chemical_formula_structural   Ac5Tl2Ir
_chemical_formula_sum   'Ac20 Tl8 Ir4'
_cell_volume   1165.37330920
_cell_formula_units_Z   4
loop_
 _symmetry_equiv_pos_site_id
 _symmetry_equiv_pos_as_xyz
  1  'x, y, z'
loop_
 _atom_site_type_symbol
 _atom_site_label
 _atom_site_symmetry_multiplicity
 _atom_site_fract_x
 _atom_site_fract_y
 _atom_site_fract_z
 _atom_site_occupancy
  Ac  Ac0  1  0.669218  0.750000  0.710350  1
  Ac  Ac1  1  0.330782  0.250000  0.289650  1
  Ac  Ac2  1  0.169218  0.250000  0.789650  1
  Ac  Ac3  1  0.830782  0.750000  0.210350  1
  Ac  Ac4  1  0.134865  0.750000  0.815499  1
  Ac  Ac5  1  0.865135  0.250000  0.184501  1
  Ac  Ac6  1  0.634865  0.250000  0.684501  1
  Ac  Ac7  1  0.365135  0.750000  0.315499  1
  Ac  Ac8  1  0.559087  0.750000  0.999606  1
  Ac  Ac9  1  0.440913  0.250000  0.000394  1
  Ac  Ac10  1  0.059087  0.250000  0.500394  1
  Ac  Ac11  1  0.940913  0.750000  0.499606  1
  Ac  Ac12  1  0.831988  0.461092  0.918509  1
  Ac  Ac13  1  0.168012  0.538908  0.081491  1
  Ac  Ac14  1  0.331988  0.538908  0.581491  1
  Ac  Ac15  1  0.168012  0.961092  0.081491  1
  Ac  Ac16  1  0.668012  0.461092  0.418509  1
  Ac  Ac17  1  0.831988  0.038908  0.918509  1
  Ac  Ac18  1  0.668012  0.038908  0.418509  1
  Ac  Ac19  1  0.331988  0.961092  0.581491  1
  Tl  Tl20  1  0.944653  0.009046  0.670169  1
  Tl  Tl21  1  0.055347  0.990954  0.329831  1
  Tl  Tl22  1  0.444653  0.990954  0.829831  1
  Tl  Tl23  1  0.055347  0.509046  0.329831  1
  Tl  Tl24  1  0.555347  0.009046  0.170169  1
  Tl  Tl25  1  0.944653  0.490954  0.670169  1
  Tl  Tl26  1  0.555347  0.490954  0.170169  1
  Tl  Tl27  1  0.444653  0.509046  0.829831  1
  Ir  Ir28  1  0.925444  0.750000  0.995016  1
  Ir  Ir29  1  0.074556  0.250000  0.004984  1
  Ir  Ir30  1  0.425444  0.250000  0.504984  1
  Ir  Ir31  1  0.574556  0.750000  0.495016  1
