# generated using pymatgen
data_Ho5Cd2(InPd)2
_symmetry_space_group_name_H-M   'P 1'
_cell_length_a   3.59083400
_cell_length_b   8.07015200
_cell_length_c   18.36102900
_cell_angle_alpha   90.00000000
_cell_angle_beta   90.00000000
_cell_angle_gamma   90.00000000
_symmetry_Int_Tables_number   1
_chemical_formula_structural   Ho5Cd2(InPd)2
_chemical_formula_sum   'Ho10 Cd4 In4 Pd4'
_cell_volume   532.07647774
_cell_formula_units_Z   2
loop_
 _symmetry_equiv_pos_site_id
 _symmetry_equiv_pos_as_xyz
  1  'x, y, z'
loop_
 _atom_site_type_symbol
 _atom_site_label
 _atom_site_symmetry_multiplicity
 _atom_site_fract_x
 _atom_site_fract_y
 _atom_site_fract_z
 _atom_site_occupancy
  Ho  Ho0  1  0.000000  0.500000  0.500000  1
  Ho  Ho1  1  0.000000  0.000000  0.000000  1
  Ho  Ho2  1  0.000000  0.740849  0.280893  1
  Ho  Ho3  1  0.000000  0.259151  0.719107  1
  Ho  Ho4  1  0.000000  0.759151  0.780893  1
  Ho  Ho5  1  0.000000  0.240849  0.219107  1
  Ho  Ho6  1  0.000000  0.612342  0.083270  1
  Ho  Ho7  1  0.000000  0.387658  0.916730  1
  Ho  Ho8  1  0.000000  0.887658  0.583270  1
  Ho  Ho9  1  0.000000  0.112342  0.416730  1
  Cd  Cd10  1  0.500000  0.712434  0.931219  1
  Cd  Cd11  1  0.500000  0.287566  0.068781  1
  Cd  Cd12  1  0.500000  0.787566  0.431219  1
  Cd  Cd13  1  0.500000  0.212434  0.568781  1
  In  In14  1  0.500000  0.578029  0.647989  1
  In  In15  1  0.500000  0.421971  0.352011  1
  In  In16  1  0.500000  0.921971  0.147989  1
  In  In17  1  0.500000  0.078029  0.852011  1
  Pd  Pd18  1  0.500000  0.524779  0.196275  1
  Pd  Pd19  1  0.500000  0.475221  0.803725  1
  Pd  Pd20  1  0.500000  0.975221  0.696275  1
  Pd  Pd21  1  0.500000  0.024779  0.303725  1
