# generated using pymatgen
data_LaTm2Rh9
_symmetry_space_group_name_H-M   'P 1'
_cell_length_a   5.28905183
_cell_length_b   5.28912453
_cell_length_c   17.48320000
_cell_angle_alpha   90.00000000
_cell_angle_beta   90.00000000
_cell_angle_gamma   120.00248740
_symmetry_Int_Tables_number   1
_chemical_formula_structural   LaTm2Rh9
_chemical_formula_sum   'La2 Tm4 Rh18'
_cell_volume   423.54765993
_cell_formula_units_Z   2
loop_
 _symmetry_equiv_pos_site_id
 _symmetry_equiv_pos_as_xyz
  1  'x, y, z'
loop_
 _atom_site_type_symbol
 _atom_site_label
 _atom_site_symmetry_multiplicity
 _atom_site_fract_x
 _atom_site_fract_y
 _atom_site_fract_z
 _atom_site_occupancy
  La  La0  1  0.333344  0.666694  0.750000  1
  La  La1  1  0.666656  0.333306  0.250000  1
  Tm  Tm2  1  0.333305  0.666688  0.540931  1
  Tm  Tm3  1  0.666695  0.333312  0.040931  1
  Tm  Tm4  1  0.666695  0.333312  0.459069  1
  Tm  Tm5  1  0.333305  0.666688  0.959069  1
  Rh  Rh6  1  0.167589  0.335130  0.123750  1
  Rh  Rh7  1  0.832411  0.664870  0.623750  1
  Rh  Rh8  1  0.664869  0.832398  0.123735  1
  Rh  Rh9  1  0.167599  0.832398  0.123766  1
  Rh  Rh10  1  0.832401  0.167602  0.623766  1
  Rh  Rh11  1  0.335131  0.167602  0.623735  1
  Rh  Rh12  1  0.832411  0.664870  0.876250  1
  Rh  Rh13  1  0.832401  0.167602  0.876234  1
  Rh  Rh14  1  0.335131  0.167602  0.876265  1
  Rh  Rh15  1  0.664869  0.832398  0.376265  1
  Rh  Rh16  1  0.167599  0.832398  0.376234  1
  Rh  Rh17  1  0.167589  0.335130  0.376250  1
  Rh  Rh18  1  0.999795  0.000005  0.250000  1
  Rh  Rh19  1  0.000205  0.999995  0.750000  1
  Rh  Rh20  1  0.333572  0.666601  0.250000  1
  Rh  Rh21  1  0.666428  0.333399  0.750000  1
  Rh  Rh22  1  0.000000  0.000000  0.000000  1
  Rh  Rh23  1  0.000000  0.000000  0.500000  1
