# generated using pymatgen
data_Li6SnAs5Rh12
_symmetry_space_group_name_H-M   'P 1'
_cell_length_a   4.22253005
_cell_length_b   5.93726300
_cell_length_c   12.76485000
_cell_angle_alpha   90.00000000
_cell_angle_beta   90.00888774
_cell_angle_gamma   90.00000000
_symmetry_Int_Tables_number   1
_chemical_formula_structural   Li6SnAs5Rh12
_chemical_formula_sum   'Li6 Sn1 As5 Rh12'
_cell_volume   320.01825050
_cell_formula_units_Z   1
loop_
 _symmetry_equiv_pos_site_id
 _symmetry_equiv_pos_as_xyz
  1  'x, y, z'
loop_
 _atom_site_type_symbol
 _atom_site_label
 _atom_site_symmetry_multiplicity
 _atom_site_fract_x
 _atom_site_fract_y
 _atom_site_fract_z
 _atom_site_occupancy
  Li  Li0  1  0.000000  0.000000  0.000000  1
  Li  Li1  1  0.499666  0.500001  0.167089  1
  Li  Li2  1  0.999651  0.000000  0.337197  1
  Li  Li3  1  0.499999  0.500001  0.500000  1
  Li  Li4  1  0.000350  0.000000  0.662802  1
  Li  Li5  1  0.500335  0.500001  0.832910  1
  Sn  Sn6  1  0.000000  0.500001  0.000000  1
  As  As7  1  0.499634  0.000000  0.167447  1
  As  As8  1  0.999734  0.500001  0.334334  1
  As  As9  1  0.499999  0.000000  0.500000  1
  As  As10  1  0.000265  0.500001  0.665665  1
  As  As11  1  0.500368  0.000000  0.832553  1
  Rh  Rh12  1  0.499999  0.236224  0.000000  1
  Rh  Rh13  1  0.499999  0.763777  0.000000  1
  Rh  Rh14  1  0.999712  0.244008  0.174710  1
  Rh  Rh15  1  0.999712  0.755991  0.174710  1
  Rh  Rh16  1  0.499730  0.249162  0.335892  1
  Rh  Rh17  1  0.499730  0.750838  0.335892  1
  Rh  Rh18  1  0.000000  0.251720  0.500000  1
  Rh  Rh19  1  0.000000  0.748281  0.500000  1
  Rh  Rh20  1  0.500269  0.249162  0.664108  1
  Rh  Rh21  1  0.500269  0.750838  0.664108  1
  Rh  Rh22  1  0.000290  0.244008  0.825290  1
  Rh  Rh23  1  0.000290  0.755991  0.825290  1
