# generated using pymatgen
data_ThTa3(NbCl6)3
_symmetry_space_group_name_H-M   'P 1'
_cell_length_a   10.31116577
_cell_length_b   10.31117070
_cell_length_c   10.31233640
_cell_angle_alpha   55.87085232
_cell_angle_beta   55.86045414
_cell_angle_gamma   55.85531988
_symmetry_Int_Tables_number   1
_chemical_formula_structural   ThTa3(NbCl6)3
_chemical_formula_sum   'Th1 Ta3 Nb3 Cl18'
_cell_volume   700.91406721
_cell_formula_units_Z   1
loop_
 _symmetry_equiv_pos_site_id
 _symmetry_equiv_pos_as_xyz
  1  'x, y, z'
loop_
 _atom_site_type_symbol
 _atom_site_label
 _atom_site_symmetry_multiplicity
 _atom_site_fract_x
 _atom_site_fract_y
 _atom_site_fract_z
 _atom_site_occupancy
  Th  Th0  1  0.000562  0.999448  0.000185  1
  Ta  Ta1  1  0.412520  0.307357  0.643969  1
  Ta  Ta2  1  0.355554  0.587854  0.692423  1
  Ta  Ta3  1  0.692994  0.355790  0.587010  1
  Nb  Nb4  1  0.306292  0.645449  0.411460  1
  Nb  Nb5  1  0.645223  0.412373  0.305598  1
  Nb  Nb6  1  0.588035  0.694148  0.354256  1
  Cl  Cl7  1  0.565964  0.164430  0.445105  1
  Cl  Cl8  1  0.227222  0.372130  0.902550  1
  Cl  Cl9  1  0.904383  0.225587  0.374323  1
  Cl  Cl10  1  0.370924  0.905635  0.225697  1
  Cl  Cl11  1  0.774618  0.628871  0.094459  1
  Cl  Cl12  1  0.096473  0.772905  0.630932  1
  Cl  Cl13  1  0.702641  0.960033  0.159561  1
  Cl  Cl14  1  0.955097  0.161207  0.702286  1
  Cl  Cl15  1  0.162438  0.700121  0.956415  1
  Cl  Cl16  1  0.299145  0.043959  0.838900  1
  Cl  Cl17  1  0.039174  0.840462  0.298564  1
  Cl  Cl18  1  0.841665  0.296745  0.040228  1
  Cl  Cl19  1  0.557795  0.432192  0.833379  1
  Cl  Cl20  1  0.166417  0.439093  0.570092  1
  Cl  Cl21  1  0.441720  0.568139  0.164248  1
  Cl  Cl22  1  0.430087  0.833467  0.561057  1
  Cl  Cl23  1  0.835394  0.555021  0.434251  1
  Cl  Cl24  1  0.627662  0.097582  0.773052  1
