# generated using pymatgen
data_Er3ThPd4
_symmetry_space_group_name_H-M   'P 1'
_cell_length_a   4.62757700
_cell_length_b   5.61587127
_cell_length_c   6.97823545
_cell_angle_alpha   89.63635470
_cell_angle_beta   90.00000000
_cell_angle_gamma   90.00000000
_symmetry_Int_Tables_number   1
_chemical_formula_structural   Er3ThPd4
_chemical_formula_sum   'Er3 Th1 Pd4'
_cell_volume   181.34587029
_cell_formula_units_Z   1
loop_
 _symmetry_equiv_pos_site_id
 _symmetry_equiv_pos_as_xyz
  1  'x, y, z'
loop_
 _atom_site_type_symbol
 _atom_site_label
 _atom_site_symmetry_multiplicity
 _atom_site_fract_x
 _atom_site_fract_y
 _atom_site_fract_z
 _atom_site_occupancy
  Er  Er0  1  0.750000  0.355281  0.814061  1
  Er  Er1  1  0.750000  0.143005  0.320016  1
  Er  Er2  1  0.250000  0.856790  0.682681  1
  Th  Th3  1  0.250000  0.641945  0.182518  1
  Pd  Pd4  1  0.250000  0.155810  0.040882  1
  Pd  Pd5  1  0.750000  0.848326  0.952999  1
  Pd  Pd6  1  0.750000  0.654515  0.462959  1
  Pd  Pd7  1  0.250000  0.344329  0.543884  1
