# generated using pymatgen
data_Th3Ga23CuPd9
_symmetry_space_group_name_H-M   'P 1'
_cell_length_a   8.54962606
_cell_length_b   8.51362563
_cell_length_c   8.54962523
_cell_angle_alpha   89.40489749
_cell_angle_beta   89.67292238
_cell_angle_gamma   89.40490574
_symmetry_Int_Tables_number   1
_chemical_formula_structural   Th3Ga23CuPd9
_chemical_formula_sum   'Th3 Ga23 Cu1 Pd9'
_cell_volume   622.23592585
_cell_formula_units_Z   1
loop_
 _symmetry_equiv_pos_site_id
 _symmetry_equiv_pos_as_xyz
  1  'x, y, z'
loop_
 _atom_site_type_symbol
 _atom_site_label
 _atom_site_symmetry_multiplicity
 _atom_site_fract_x
 _atom_site_fract_y
 _atom_site_fract_z
 _atom_site_occupancy
  Th  Th0  1  0.996110  0.500000  0.003890  1
  Th  Th1  1  0.500773  0.999258  0.000819  1
  Th  Th2  1  0.999181  0.000742  0.499227  1
  Ga  Ga3  1  0.987041  0.644994  0.644584  1
  Ga  Ga4  1  0.645014  0.637987  0.996651  1
  Ga  Ga5  1  0.645816  0.985967  0.640485  1
  Ga  Ga6  1  0.003349  0.362013  0.354986  1
  Ga  Ga7  1  0.355416  0.355006  0.012959  1
  Ga  Ga8  1  0.359515  0.014033  0.354184  1
  Ga  Ga9  1  0.260362  0.500000  0.739638  1
  Ga  Ga10  1  0.499240  0.261183  0.735928  1
  Ga  Ga11  1  0.504943  0.730972  0.262664  1
  Ga  Ga12  1  0.264072  0.738817  0.500760  1
  Ga  Ga13  1  0.737336  0.269028  0.495057  1
  Ga  Ga14  1  0.837939  0.142840  0.837080  1
  Ga  Ga15  1  0.143386  0.837643  0.837234  1
  Ga  Ga16  1  0.835337  0.833164  0.145808  1
  Ga  Ga17  1  0.162920  0.857160  0.162061  1
  Ga  Ga18  1  0.854192  0.166836  0.164663  1
  Ga  Ga19  1  0.162766  0.162357  0.856614  1
  Ga  Ga20  1  0.730070  0.490119  0.731444  1
  Ga  Ga21  1  0.490950  0.730018  0.734711  1
  Ga  Ga22  1  0.732991  0.721148  0.474813  1
  Ga  Ga23  1  0.268556  0.509881  0.269930  1
  Ga  Ga24  1  0.525187  0.278852  0.267009  1
  Ga  Ga25  1  0.265289  0.269982  0.509050  1
  Cu  Cu26  1  0.737452  0.500000  0.262548  1
  Pd  Pd27  1  0.838537  0.838831  0.840785  1
  Pd  Pd28  1  0.159215  0.161169  0.161463  1
  Pd  Pd29  1  0.662234  0.332986  0.994517  1
  Pd  Pd30  1  0.999293  0.336852  0.664754  1
  Pd  Pd31  1  0.337138  0.000000  0.662862  1
  Pd  Pd32  1  0.335246  0.663148  0.000707  1
  Pd  Pd33  1  0.005483  0.667014  0.337766  1
  Pd  Pd34  1  0.663833  0.000000  0.336167  1
  Pd  Pd35  1  0.493818  0.500000  0.506182  1
