# generated using pymatgen
data_LiAc6Ga3Si8
_symmetry_space_group_name_H-M   'P 1'
_cell_length_a   4.55313516
_cell_length_b   4.43776193
_cell_length_c   22.00649900
_cell_angle_alpha   84.21311725
_cell_angle_beta   95.93787390
_cell_angle_gamma   89.99999648
_symmetry_Int_Tables_number   1
_chemical_formula_structural   LiAc6Ga3Si8
_chemical_formula_sum   'Li1 Ac6 Ga3 Si8'
_cell_volume   439.99328989
_cell_formula_units_Z   1
loop_
 _symmetry_equiv_pos_site_id
 _symmetry_equiv_pos_as_xyz
  1  'x, y, z'
loop_
 _atom_site_type_symbol
 _atom_site_label
 _atom_site_symmetry_multiplicity
 _atom_site_fract_x
 _atom_site_fract_y
 _atom_site_fract_z
 _atom_site_occupancy
  Li  Li0  1  0.904541  0.345577  0.308799  1
  Ac  Ac1  1  0.375176  0.875313  0.249247  1
  Ac  Ac2  1  0.041952  0.208437  0.582950  1
  Ac  Ac3  1  0.705279  0.545087  0.910268  1
  Ac  Ac4  1  0.291923  0.458103  0.084125  1
  Ac  Ac5  1  0.961429  0.788577  0.422763  1
  Ac  Ac6  1  0.625598  0.124351  0.751403  1
  Ga  Ga7  1  0.570451  0.679005  0.640600  1
  Ga  Ga8  1  0.234719  0.015054  0.969158  1
  Ga  Ga9  1  0.762686  0.987339  0.025233  1
  Si  Si10  1  0.432699  0.317035  0.366068  1
  Si  Si11  1  0.097013  0.653535  0.694471  1
  Si  Si12  1  0.845371  0.402783  0.193768  1
  Si  Si13  1  0.512929  0.735995  0.528079  1
  Si  Si14  1  0.177041  0.071908  0.856402  1
  Si  Si15  1  0.820267  0.931162  0.138537  1
  Si  Si16  1  0.488528  0.262521  0.474911  1
  Si  Si17  1  0.152399  0.598216  0.803215  1
