# generated using pymatgen
data_Ta20AlIr9
_symmetry_space_group_name_H-M   'P 1'
_cell_length_a   9.92548360
_cell_length_b   9.92548360
_cell_length_c   5.14978500
_cell_angle_alpha   90.00000000
_cell_angle_beta   90.00000000
_cell_angle_gamma   90.77943309
_symmetry_Int_Tables_number   1
_chemical_formula_structural   Ta20AlIr9
_chemical_formula_sum   'Ta20 Al1 Ir9'
_cell_volume   507.28528372
_cell_formula_units_Z   1
loop_
 _symmetry_equiv_pos_site_id
 _symmetry_equiv_pos_as_xyz
  1  'x, y, z'
loop_
 _atom_site_type_symbol
 _atom_site_label
 _atom_site_symmetry_multiplicity
 _atom_site_fract_x
 _atom_site_fract_y
 _atom_site_fract_z
 _atom_site_occupancy
  Ta  Ta0  1  0.462547  0.129082  0.000000  1
  Ta  Ta1  1  0.395793  0.395793  0.000000  1
  Ta  Ta2  1  0.129082  0.462547  0.000000  1
  Ta  Ta3  1  0.870919  0.537453  0.000000  1
  Ta  Ta4  1  0.604207  0.604207  0.000000  1
  Ta  Ta5  1  0.537453  0.870919  0.000000  1
  Ta  Ta6  1  0.682519  0.317481  0.248899  1
  Ta  Ta7  1  0.317481  0.682519  0.248899  1
  Ta  Ta8  1  0.180736  0.180736  0.251887  1
  Ta  Ta9  1  0.819264  0.819264  0.251887  1
  Ta  Ta10  1  0.629356  0.034994  0.500001  1
  Ta  Ta11  1  0.895812  0.104188  0.500001  1
  Ta  Ta12  1  0.965006  0.370644  0.500001  1
  Ta  Ta13  1  0.034994  0.629356  0.500001  1
  Ta  Ta14  1  0.104188  0.895812  0.500001  1
  Ta  Ta15  1  0.370644  0.965006  0.500001  1
  Ta  Ta16  1  0.180736  0.180736  0.748113  1
  Ta  Ta17  1  0.819264  0.819264  0.748113  1
  Ta  Ta18  1  0.682519  0.317481  0.751102  1
  Ta  Ta19  1  0.317481  0.682519  0.751102  1
  Al  Al20  1  0.500000  0.500000  0.500001  1
  Ir  Ir21  1  0.000000  0.000000  0.000000  1
  Ir  Ir22  1  0.738492  0.066244  0.000000  1
  Ir  Ir23  1  0.933757  0.261508  0.000000  1
  Ir  Ir24  1  0.066244  0.738492  0.000000  1
  Ir  Ir25  1  0.261508  0.933757  0.000000  1
  Ir  Ir26  1  0.436331  0.240735  0.500001  1
  Ir  Ir27  1  0.240735  0.436331  0.500001  1
  Ir  Ir28  1  0.759266  0.563668  0.500001  1
  Ir  Ir29  1  0.563668  0.759266  0.500001  1
