# generated using pymatgen
data_Er2Si7Ir12
_symmetry_space_group_name_H-M   'P 1'
_cell_length_a   9.75884800
_cell_length_b   9.75884726
_cell_length_c   3.87438900
_cell_angle_alpha   90.00000000
_cell_angle_beta   90.00000000
_cell_angle_gamma   119.99999574
_symmetry_Int_Tables_number   1
_chemical_formula_structural   Er2Si7Ir12
_chemical_formula_sum   'Er2 Si7 Ir12'
_cell_volume   319.54420625
_cell_formula_units_Z   1
loop_
 _symmetry_equiv_pos_site_id
 _symmetry_equiv_pos_as_xyz
  1  'x, y, z'
loop_
 _atom_site_type_symbol
 _atom_site_label
 _atom_site_symmetry_multiplicity
 _atom_site_fract_x
 _atom_site_fract_y
 _atom_site_fract_z
 _atom_site_occupancy
  Er  Er0  1  0.333333  0.666667  0.749681  1
  Er  Er1  1  0.666667  0.333333  0.250319  1
  Si  Si2  1  0.000000  0.000000  0.500000  1
  Si  Si3  1  0.405100  0.290173  0.751683  1
  Si  Si4  1  0.709827  0.114928  0.751683  1
  Si  Si5  1  0.885072  0.594900  0.751683  1
  Si  Si6  1  0.594900  0.709827  0.248317  1
  Si  Si7  1  0.290173  0.885072  0.248317  1
  Si  Si8  1  0.114928  0.405100  0.248317  1
  Ir  Ir9  1  0.444622  0.063744  0.750984  1
  Ir  Ir10  1  0.936256  0.380879  0.750984  1
  Ir  Ir11  1  0.619121  0.555378  0.750984  1
  Ir  Ir12  1  0.555378  0.936256  0.249016  1
  Ir  Ir13  1  0.063744  0.619121  0.249016  1
  Ir  Ir14  1  0.380879  0.444622  0.249016  1
  Ir  Ir15  1  0.144536  0.262094  0.746508  1
  Ir  Ir16  1  0.737906  0.882442  0.746508  1
  Ir  Ir17  1  0.117558  0.855464  0.746508  1
  Ir  Ir18  1  0.855464  0.737906  0.253492  1
  Ir  Ir19  1  0.262094  0.117558  0.253492  1
  Ir  Ir20  1  0.882442  0.144536  0.253492  1
