# generated using pymatgen
data_Sm4Ga5GePt18
_symmetry_space_group_name_H-M   'P 1'
_cell_length_a   7.82673718
_cell_length_b   7.84333026
_cell_length_c   10.24243521
_cell_angle_alpha   67.53544803
_cell_angle_beta   67.53586947
_cell_angle_gamma   59.93426055
_symmetry_Int_Tables_number   1
_chemical_formula_structural   Sm4Ga5GePt18
_chemical_formula_sum   'Sm4 Ga5 Ge1 Pt18'
_cell_volume   488.36795939
_cell_formula_units_Z   1
loop_
 _symmetry_equiv_pos_site_id
 _symmetry_equiv_pos_as_xyz
  1  'x, y, z'
loop_
 _atom_site_type_symbol
 _atom_site_label
 _atom_site_symmetry_multiplicity
 _atom_site_fract_x
 _atom_site_fract_y
 _atom_site_fract_z
 _atom_site_occupancy
  Sm  Sm0  1  0.244752  0.414377  0.249300  1
  Sm  Sm1  1  0.587554  0.754435  0.248573  1
  Sm  Sm2  1  0.753151  0.584786  0.750598  1
  Sm  Sm3  1  0.415556  0.244291  0.751675  1
  Ga  Ga4  1  0.819250  0.360884  0.500890  1
  Ga  Ga5  1  0.638034  0.181093  0.998778  1
  Ga  Ga6  1  0.360967  0.818884  0.001592  1
  Ga  Ga7  1  0.000219  0.500470  0.999248  1
  Ga  Ga8  1  0.499779  0.000662  0.500002  1
  Ge  Ge9  1  0.182676  0.634037  0.499000  1
  Pt  Pt10  1  0.189682  0.024017  0.428316  1
  Pt  Pt11  1  0.300611  0.138638  0.079048  1
  Pt  Pt12  1  0.645512  0.470192  0.078408  1
  Pt  Pt13  1  0.527973  0.356223  0.421350  1
  Pt  Pt14  1  0.857304  0.698722  0.423854  1
  Pt  Pt15  1  0.916251  0.291863  0.254411  1
  Pt  Pt16  1  0.709562  0.082582  0.245094  1
  Pt  Pt17  1  0.805504  0.983070  0.572536  1
  Pt  Pt18  1  0.471723  0.647047  0.577855  1
  Pt  Pt19  1  0.870135  0.131894  0.749826  1
  Pt  Pt20  1  0.980687  0.810792  0.070811  1
  Pt  Pt21  1  0.290295  0.917621  0.754994  1
  Pt  Pt22  1  0.352894  0.530297  0.921148  1
  Pt  Pt23  1  0.132751  0.864454  0.254151  1
  Pt  Pt24  1  0.701089  0.859001  0.921084  1
  Pt  Pt25  1  0.084387  0.706622  0.740809  1
  Pt  Pt26  1  0.020267  0.190480  0.929435  1
  Pt  Pt27  1  0.141435  0.302567  0.577216  1
