# generated using pymatgen
data_Y4Al4Ir2PdPt
_symmetry_space_group_name_H-M   'P 1'
_cell_length_a   4.38551000
_cell_length_b   6.86216771
_cell_length_c   7.84021797
_cell_angle_alpha   89.91897712
_cell_angle_beta   90.00000000
_cell_angle_gamma   90.00000000
_symmetry_Int_Tables_number   1
_chemical_formula_structural   Y4Al4Ir2PdPt
_chemical_formula_sum   'Y4 Al4 Ir2 Pd1 Pt1'
_cell_volume   235.94410767
_cell_formula_units_Z   1
loop_
 _symmetry_equiv_pos_site_id
 _symmetry_equiv_pos_as_xyz
  1  'x, y, z'
loop_
 _atom_site_type_symbol
 _atom_site_label
 _atom_site_symmetry_multiplicity
 _atom_site_fract_x
 _atom_site_fract_y
 _atom_site_fract_z
 _atom_site_occupancy
  Y  Y0  1  0.250000  0.033456  0.679715  1
  Y  Y1  1  0.250000  0.529046  0.821602  1
  Y  Y2  1  0.750000  0.976111  0.316187  1
  Y  Y3  1  0.750000  0.474829  0.182734  1
  Al  Al4  1  0.250000  0.141363  0.065453  1
  Al  Al5  1  0.250000  0.640906  0.433795  1
  Al  Al6  1  0.750000  0.856239  0.941030  1
  Al  Al7  1  0.750000  0.353096  0.560804  1
  Ir  Ir8  1  0.250000  0.270185  0.383137  1
  Ir  Ir9  1  0.250000  0.769542  0.116656  1
  Pd  Pd10  1  0.750000  0.727280  0.618240  1
  Pt  Pt11  1  0.750000  0.227946  0.880648  1
