# generated using pymatgen
data_Ca3Y(GePd2)4
_symmetry_space_group_name_H-M   'P 1'
_cell_length_a   5.61075701
_cell_length_b   7.14597500
_cell_length_c   7.54027601
_cell_angle_alpha   90.00000000
_cell_angle_beta   90.00529749
_cell_angle_gamma   90.00000000
_symmetry_Int_Tables_number   1
_chemical_formula_structural   Ca3Y(GePd2)4
_chemical_formula_sum   'Ca3 Y1 Ge4 Pd8'
_cell_volume   302.32230796
_cell_formula_units_Z   1
loop_
 _symmetry_equiv_pos_site_id
 _symmetry_equiv_pos_as_xyz
  1  'x, y, z'
loop_
 _atom_site_type_symbol
 _atom_site_label
 _atom_site_symmetry_multiplicity
 _atom_site_fract_x
 _atom_site_fract_y
 _atom_site_fract_z
 _atom_site_occupancy
  Ca  Ca0  1  0.134853  0.750000  0.525834  1
  Ca  Ca1  1  0.864103  0.250000  0.473819  1
  Ca  Ca2  1  0.636050  0.250000  0.973418  1
  Y  Y3  1  0.361454  0.750000  0.026817  1
  Ge  Ge4  1  0.864255  0.750000  0.876086  1
  Ge  Ge5  1  0.134140  0.250000  0.123062  1
  Ge  Ge6  1  0.364753  0.250000  0.621719  1
  Ge  Ge7  1  0.634844  0.750000  0.377208  1
  Pd  Pd8  1  0.588989  0.554346  0.676194  1
  Pd  Pd9  1  0.404733  0.448235  0.322158  1
  Pd  Pd10  1  0.102727  0.447660  0.829069  1
  Pd  Pd11  1  0.404733  0.051765  0.322158  1
  Pd  Pd12  1  0.906325  0.554461  0.173598  1
  Pd  Pd13  1  0.588989  0.945654  0.676194  1
  Pd  Pd14  1  0.906325  0.945539  0.173598  1
  Pd  Pd15  1  0.102727  0.052340  0.829069  1
