# generated using pymatgen
data_MnTl3F6
_symmetry_space_group_name_H-M   'P 1'
_cell_length_a   6.27297675
_cell_length_b   6.52329520
_cell_length_c   6.60164500
_cell_angle_alpha   118.68043921
_cell_angle_beta   117.36539128
_cell_angle_gamma   90.89193527
_symmetry_Int_Tables_number   1
_chemical_formula_structural   MnTl3F6
_chemical_formula_sum   'Mn1 Tl3 F6'
_cell_volume   200.57457143
_cell_formula_units_Z   1
loop_
 _symmetry_equiv_pos_site_id
 _symmetry_equiv_pos_as_xyz
  1  'x, y, z'
loop_
 _atom_site_type_symbol
 _atom_site_label
 _atom_site_symmetry_multiplicity
 _atom_site_fract_x
 _atom_site_fract_y
 _atom_site_fract_z
 _atom_site_occupancy
  Mn  Mn0  1  0.000000  0.000000  0.000000  1
  Tl  Tl1  1  0.499999  0.500000  0.000000  1
  Tl  Tl2  1  0.774131  0.224696  0.490142  1
  Tl  Tl3  1  0.225869  0.775304  0.509859  1
  F  F4  1  0.297445  0.160947  0.059263  1
  F  F5  1  0.886131  0.280827  0.054106  1
  F  F6  1  0.173549  0.143091  0.436400  1
  F  F7  1  0.826452  0.856908  0.563599  1
  F  F8  1  0.113868  0.719174  0.945893  1
  F  F9  1  0.702556  0.839052  0.940736  1
