# generated using pymatgen
data_SrCaMnN3
_symmetry_space_group_name_H-M   'P 1'
_cell_length_a   6.01608605
_cell_length_b   6.01608628
_cell_length_c   11.91933600
_cell_angle_alpha   90.00000000
_cell_angle_beta   90.00000000
_cell_angle_gamma   125.25808168
_symmetry_Int_Tables_number   1
_chemical_formula_structural   SrCaMnN3
_chemical_formula_sum   'Sr4 Ca4 Mn4 N12'
_cell_volume   352.26405819
_cell_formula_units_Z   4
loop_
 _symmetry_equiv_pos_site_id
 _symmetry_equiv_pos_as_xyz
  1  'x, y, z'
loop_
 _atom_site_type_symbol
 _atom_site_label
 _atom_site_symmetry_multiplicity
 _atom_site_fract_x
 _atom_site_fract_y
 _atom_site_fract_z
 _atom_site_occupancy
  Sr  Sr0  1  0.449339  0.550661  0.353134  1
  Sr  Sr1  1  0.550661  0.449339  0.646866  1
  Sr  Sr2  1  0.050661  0.949339  0.853134  1
  Sr  Sr3  1  0.949339  0.050661  0.146866  1
  Ca  Ca4  1  0.140455  0.859545  0.424898  1
  Ca  Ca5  1  0.859545  0.140455  0.575102  1
  Ca  Ca6  1  0.359545  0.640455  0.924898  1
  Ca  Ca7  1  0.640455  0.359545  0.075102  1
  Mn  Mn8  1  0.256199  0.743801  0.161154  1
  Mn  Mn9  1  0.743801  0.256199  0.838846  1
  Mn  Mn10  1  0.243801  0.756199  0.661154  1
  Mn  Mn11  1  0.756199  0.243801  0.338846  1
  N  N12  1  0.164711  0.835289  0.041101  1
  N  N13  1  0.835289  0.164711  0.958899  1
  N  N14  1  0.335289  0.664711  0.541101  1
  N  N15  1  0.664711  0.335289  0.458899  1
  N  N16  1  0.419801  0.580199  0.129554  1
  N  N17  1  0.580199  0.419801  0.870446  1
  N  N18  1  0.080199  0.919801  0.629554  1
  N  N19  1  0.919801  0.080199  0.370446  1
  N  N20  1  0.965894  0.534106  0.250000  1
  N  N21  1  0.534106  0.965894  0.750000  1
  N  N22  1  0.034106  0.465894  0.750000  1
  N  N23  1  0.465894  0.034106  0.250000  1
