# generated using pymatgen
data_DyLu2Be2Co9B4
_symmetry_space_group_name_H-M   'P 1'
_cell_length_a   4.99503900
_cell_length_b   4.99469486
_cell_length_c   9.34743500
_cell_angle_alpha   90.00007575
_cell_angle_beta   89.99984852
_cell_angle_gamma   120.00228585
_symmetry_Int_Tables_number   1
_chemical_formula_structural   DyLu2Be2Co9B4
_chemical_formula_sum   'Dy1 Lu2 Be2 Co9 B4'
_cell_volume   201.95793739
_cell_formula_units_Z   1
loop_
 _symmetry_equiv_pos_site_id
 _symmetry_equiv_pos_as_xyz
  1  'x, y, z'
loop_
 _atom_site_type_symbol
 _atom_site_label
 _atom_site_symmetry_multiplicity
 _atom_site_fract_x
 _atom_site_fract_y
 _atom_site_fract_z
 _atom_site_occupancy
  Dy  Dy0  1  0.999991  0.000000  0.000009  1
  Lu  Lu1  1  0.000000  0.000000  0.338170  1
  Lu  Lu2  1  0.999990  0.000000  0.661802  1
  Be  Be3  1  0.333201  0.666413  0.000073  1
  Be  Be4  1  0.666787  0.333587  0.000073  1
  Co  Co5  1  0.499995  0.000000  0.499981  1
  Co  Co6  1  0.499994  0.499998  0.500049  1
  Co  Co7  1  0.999996  0.500002  0.500049  1
  Co  Co8  1  0.499994  0.000000  0.189891  1
  Co  Co9  1  0.499994  0.499997  0.189940  1
  Co  Co10  1  0.999998  0.500003  0.189940  1
  Co  Co11  1  0.499997  0.000000  0.810102  1
  Co  Co12  1  0.500000  0.500005  0.809966  1
  Co  Co13  1  0.999995  0.499995  0.809966  1
  B  B14  1  0.333271  0.666558  0.342156  1
  B  B15  1  0.666713  0.333442  0.342156  1
  B  B16  1  0.666618  0.333252  0.657839  1
  B  B17  1  0.333367  0.666748  0.657839  1
