# generated using pymatgen
data_Na4TcPtBr12
_symmetry_space_group_name_H-M   'P 1'
_cell_length_a   7.39859666
_cell_length_b   7.14431762
_cell_length_c   12.33252930
_cell_angle_alpha   54.70731312
_cell_angle_beta   90.41744259
_cell_angle_gamma   89.56686081
_symmetry_Int_Tables_number   1
_chemical_formula_structural   Na4TcPtBr12
_chemical_formula_sum   'Na4 Tc1 Pt1 Br12'
_cell_volume   531.99580294
_cell_formula_units_Z   1
loop_
 _symmetry_equiv_pos_site_id
 _symmetry_equiv_pos_as_xyz
  1  'x, y, z'
loop_
 _atom_site_type_symbol
 _atom_site_label
 _atom_site_symmetry_multiplicity
 _atom_site_fract_x
 _atom_site_fract_y
 _atom_site_fract_z
 _atom_site_occupancy
  Na  Na0  1  0.422527  0.745640  0.248748  1
  Na  Na1  1  0.917937  0.274471  0.243789  1
  Na  Na2  1  0.082063  0.725529  0.756211  1
  Na  Na3  1  0.577473  0.254360  0.751252  1
  Tc  Tc4  1  0.500000  0.000000  0.500000  1
  Pt  Pt5  1  0.000000  0.000000  0.000000  1
  Br  Br6  1  0.812748  0.343292  0.939884  1
  Br  Br7  1  0.522688  0.146829  0.257542  1
  Br  Br8  1  0.477312  0.853171  0.742458  1
  Br  Br9  1  0.282743  0.227853  0.945328  1
  Br  Br10  1  0.326377  0.652430  0.551658  1
  Br  Br11  1  0.203382  0.214474  0.452169  1
  Br  Br12  1  0.187252  0.656708  0.060116  1
  Br  Br13  1  0.796618  0.785526  0.547831  1
  Br  Br14  1  0.717257  0.772147  0.054672  1
  Br  Br15  1  0.028061  0.874633  0.236094  1
  Br  Br16  1  0.971939  0.125367  0.763906  1
  Br  Br17  1  0.673623  0.347570  0.448342  1
