# generated using pymatgen
data_Dy3TmMn9Fe11P12
_symmetry_space_group_name_H-M   'P 1'
_cell_length_a   3.63993200
_cell_length_b   10.29751022
_cell_length_c   12.11828005
_cell_angle_alpha   89.67898522
_cell_angle_beta   90.00000000
_cell_angle_gamma   90.00000000
_symmetry_Int_Tables_number   1
_chemical_formula_structural   Dy3TmMn9Fe11P12
_chemical_formula_sum   'Dy3 Tm1 Mn9 Fe11 P12'
_cell_volume   454.21311500
_cell_formula_units_Z   1
loop_
 _symmetry_equiv_pos_site_id
 _symmetry_equiv_pos_as_xyz
  1  'x, y, z'
loop_
 _atom_site_type_symbol
 _atom_site_label
 _atom_site_symmetry_multiplicity
 _atom_site_fract_x
 _atom_site_fract_y
 _atom_site_fract_z
 _atom_site_occupancy
  Dy  Dy0  1  0.250000  0.580796  0.710531  1
  Dy  Dy1  1  0.750000  0.423822  0.291658  1
  Dy  Dy2  1  0.750000  0.080348  0.788567  1
  Tm  Tm3  1  0.250000  0.916046  0.211260  1
  Mn  Mn4  1  0.250000  0.705049  0.991363  1
  Mn  Mn5  1  0.250000  0.795477  0.491668  1
  Mn  Mn6  1  0.750000  0.292153  0.011464  1
  Mn  Mn7  1  0.750000  0.206718  0.507593  1
  Mn  Mn8  1  0.250000  0.410749  0.492440  1
  Mn  Mn9  1  0.250000  0.089222  0.990204  1
  Mn  Mn10  1  0.750000  0.592498  0.510092  1
  Mn  Mn11  1  0.750000  0.904305  0.008701  1
  Mn  Mn12  1  0.250000  0.217583  0.174478  1
  Fe  Fe13  1  0.250000  0.278897  0.671779  1
  Fe  Fe14  1  0.750000  0.778330  0.827674  1
  Fe  Fe15  1  0.750000  0.722317  0.328349  1
  Fe  Fe16  1  0.250000  0.877888  0.694595  1
  Fe  Fe17  1  0.250000  0.624121  0.195766  1
  Fe  Fe18  1  0.750000  0.126332  0.300068  1
  Fe  Fe19  1  0.750000  0.376198  0.805404  1
  Fe  Fe20  1  0.250000  0.461996  0.935990  1
  Fe  Fe21  1  0.250000  0.038300  0.433647  1
  Fe  Fe22  1  0.750000  0.537840  0.064007  1
  Fe  Fe23  1  0.750000  0.963437  0.562650  1
  P  P24  1  0.250000  0.425852  0.113139  1
  P  P25  1  0.250000  0.077044  0.611521  1
  P  P26  1  0.750000  0.575492  0.886671  1
  P  P27  1  0.750000  0.924335  0.385691  1
  P  P28  1  0.250000  0.268631  0.861529  1
  P  P29  1  0.250000  0.235820  0.368020  1
  P  P30  1  0.750000  0.731320  0.138984  1
  P  P31  1  0.750000  0.769867  0.638545  1
  P  P32  1  0.250000  0.605316  0.382007  1
  P  P33  1  0.250000  0.895950  0.880305  1
  P  P34  1  0.750000  0.396545  0.619767  1
  P  P35  1  0.750000  0.093411  0.113872  1
