# generated using pymatgen
data_Zr6In3GaCBr18
_symmetry_space_group_name_H-M   'P 1'
_cell_length_a   10.30888945
_cell_length_b   10.53082597
_cell_length_c   10.57042785
_cell_angle_alpha   118.38350332
_cell_angle_beta   99.88534389
_cell_angle_gamma   103.95252969
_symmetry_Int_Tables_number   1
_chemical_formula_structural   Zr6In3GaCBr18
_chemical_formula_sum   'Zr6 In3 Ga1 C1 Br18'
_cell_volume   923.07690738
_cell_formula_units_Z   1
loop_
 _symmetry_equiv_pos_site_id
 _symmetry_equiv_pos_as_xyz
  1  'x, y, z'
loop_
 _atom_site_type_symbol
 _atom_site_label
 _atom_site_symmetry_multiplicity
 _atom_site_fract_x
 _atom_site_fract_y
 _atom_site_fract_z
 _atom_site_occupancy
  Zr  Zr0  1  0.351537  0.447389  0.775085  1
  Zr  Zr1  1  0.364589  0.624447  0.134281  1
  Zr  Zr2  1  0.642724  0.733539  0.043352  1
  Zr  Zr3  1  0.648594  0.553958  0.225049  1
  Zr  Zr4  1  0.356375  0.265384  0.955581  1
  Zr  Zr5  1  0.634715  0.374409  0.867014  1
  In  In6  1  0.855175  0.962827  0.775536  1
  In  In7  1  0.145378  0.036854  0.223359  1
  In  In8  1  0.825970  0.279105  0.444175  1
  Ga  Ga9  1  0.166490  0.719397  0.551672  1
  C  C10  1  0.499332  0.499746  0.999951  1
  Br  Br11  1  0.823661  0.419058  0.107567  1
  Br  Br12  1  0.517922  0.704926  0.413999  1
  Br  Br13  1  0.172781  0.972652  0.894533  1
  Br  Br14  1  0.175945  0.581519  0.894320  1
  Br  Br15  1  0.832818  0.834697  0.312080  1
  Br  Br16  1  0.504355  0.294119  0.211494  1
  Br  Br17  1  0.799278  0.220525  0.706608  1
  Br  Br18  1  0.166662  0.166715  0.686465  1
  Br  Br19  1  0.507381  0.911793  0.199139  1
  Br  Br20  1  0.820002  0.626457  0.899310  1
  Br  Br21  1  0.201254  0.776583  0.302762  1
  Br  Br22  1  0.162056  0.385132  0.496348  1
  Br  Br23  1  0.496036  0.707079  0.789515  1
  Br  Br24  1  0.828963  0.023845  0.100506  1
  Br  Br25  1  0.483164  0.294946  0.586923  1
  Br  Br26  1  0.178916  0.370822  0.099340  1
  Br  Br27  1  0.847200  0.624951  0.503948  1
  Br  Br28  1  0.490727  0.087127  0.800086  1
