# generated using pymatgen
data_PaFeF7
_symmetry_space_group_name_H-M   'P 1'
_cell_length_a   5.79629800
_cell_length_b   9.22745116
_cell_length_c   12.08966252
_cell_angle_alpha   60.39687015
_cell_angle_beta   90.00000000
_cell_angle_gamma   90.00000000
_symmetry_Int_Tables_number   1
_chemical_formula_structural   PaFeF7
_chemical_formula_sum   'Pa4 Fe4 F28'
_cell_volume   562.21213391
_cell_formula_units_Z   4
loop_
 _symmetry_equiv_pos_site_id
 _symmetry_equiv_pos_as_xyz
  1  'x, y, z'
loop_
 _atom_site_type_symbol
 _atom_site_label
 _atom_site_symmetry_multiplicity
 _atom_site_fract_x
 _atom_site_fract_y
 _atom_site_fract_z
 _atom_site_occupancy
  Pa  Pa0  1  0.248772  0.798834  0.266278  1
  Pa  Pa1  1  0.751228  0.201166  0.733722  1
  Pa  Pa2  1  0.748772  0.201166  0.233722  1
  Pa  Pa3  1  0.251228  0.798834  0.766278  1
  Fe  Fe4  1  0.751708  0.729512  0.038444  1
  Fe  Fe5  1  0.248292  0.270488  0.961556  1
  Fe  Fe6  1  0.251708  0.270488  0.461556  1
  Fe  Fe7  1  0.748292  0.729512  0.538444  1
  F  F8  1  0.971150  0.709656  0.408251  1
  F  F9  1  0.028850  0.290344  0.591749  1
  F  F10  1  0.471150  0.290344  0.091749  1
  F  F11  1  0.528850  0.709656  0.908251  1
  F  F12  1  0.498975  0.739817  0.161287  1
  F  F13  1  0.501025  0.260183  0.838713  1
  F  F14  1  0.998975  0.260183  0.338713  1
  F  F15  1  0.001025  0.739817  0.661287  1
  F  F16  1  0.984671  0.745856  0.167522  1
  F  F17  1  0.015329  0.254144  0.832478  1
  F  F18  1  0.484671  0.254144  0.332478  1
  F  F19  1  0.515329  0.745856  0.667522  1
  F  F20  1  0.766083  0.477587  0.140515  1
  F  F21  1  0.233917  0.522413  0.859485  1
  F  F22  1  0.266083  0.522413  0.359485  1
  F  F23  1  0.733917  0.477587  0.640515  1
  F  F24  1  0.948532  0.270450  0.064539  1
  F  F25  1  0.051468  0.729550  0.935461  1
  F  F26  1  0.448532  0.729550  0.435461  1
  F  F27  1  0.551468  0.270450  0.564539  1
  F  F28  1  0.743453  0.981478  0.431193  1
  F  F29  1  0.256547  0.018522  0.568807  1
  F  F30  1  0.243453  0.018522  0.068807  1
  F  F31  1  0.756547  0.981478  0.931193  1
  F  F32  1  0.592022  0.985518  0.226495  1
  F  F33  1  0.407978  0.014482  0.773505  1
  F  F34  1  0.092022  0.014482  0.273505  1
  F  F35  1  0.907978  0.985518  0.726495  1
