# generated using pymatgen
data_Zr10Si5Bi
_symmetry_space_group_name_H-M   'P 1'
_cell_length_a   7.07053363
_cell_length_b   7.07053447
_cell_length_c   8.12849285
_cell_angle_alpha   115.78037883
_cell_angle_beta   115.78038271
_cell_angle_gamma   90.00000346
_symmetry_Int_Tables_number   1
_chemical_formula_structural   Zr10Si5Bi
_chemical_formula_sum   'Zr10 Si5 Bi1'
_cell_volume   320.40509986
_cell_formula_units_Z   1
loop_
 _symmetry_equiv_pos_site_id
 _symmetry_equiv_pos_as_xyz
  1  'x, y, z'
loop_
 _atom_site_type_symbol
 _atom_site_label
 _atom_site_symmetry_multiplicity
 _atom_site_fract_x
 _atom_site_fract_y
 _atom_site_fract_z
 _atom_site_occupancy
  Zr  Zr0  1  0.500593  0.500593  0.001188  1
  Zr  Zr1  1  0.999407  0.999407  0.998812  1
  Zr  Zr2  1  0.987611  0.820625  0.285206  1
  Zr  Zr3  1  0.297594  0.464581  0.285206  1
  Zr  Zr4  1  0.820625  0.297594  0.285206  1
  Zr  Zr5  1  0.464581  0.987611  0.285206  1
  Zr  Zr6  1  0.035419  0.202406  0.714794  1
  Zr  Zr7  1  0.679375  0.512389  0.714794  1
  Zr  Zr8  1  0.202406  0.679375  0.714794  1
  Zr  Zr9  1  0.512389  0.035419  0.714794  1
  Si  Si10  1  0.250000  0.250000  0.500000  1
  Si  Si11  1  0.628272  0.871728  0.000000  1
  Si  Si12  1  0.371728  0.128272  0.000000  1
  Si  Si13  1  0.871728  0.371728  0.000000  1
  Si  Si14  1  0.128272  0.628272  0.000000  1
  Bi  Bi15  1  0.750000  0.750000  0.500000  1
