# generated using pymatgen
data_NpAgO4
_symmetry_space_group_name_H-M   'P 1'
_cell_length_a   5.07896459
_cell_length_b   5.07896528
_cell_length_c   7.03967200
_cell_angle_alpha   90.00000000
_cell_angle_beta   90.00000000
_cell_angle_gamma   86.06347074
_symmetry_Int_Tables_number   1
_chemical_formula_structural   NpAgO4
_chemical_formula_sum   'Np2 Ag2 O8'
_cell_volume   181.16613393
_cell_formula_units_Z   2
loop_
 _symmetry_equiv_pos_site_id
 _symmetry_equiv_pos_as_xyz
  1  'x, y, z'
loop_
 _atom_site_type_symbol
 _atom_site_label
 _atom_site_symmetry_multiplicity
 _atom_site_fract_x
 _atom_site_fract_y
 _atom_site_fract_z
 _atom_site_occupancy
  Np  Np0  1  0.498952  0.501049  0.250001  1
  Np  Np1  1  0.501049  0.498952  0.750000  1
  Ag  Ag2  1  0.000000  0.000000  0.000000  1
  Ag  Ag3  1  0.000000  0.000000  0.500000  1
  O  O4  1  0.246801  0.255099  0.250001  1
  O  O5  1  0.744901  0.753199  0.250001  1
  O  O6  1  0.255099  0.246801  0.750000  1
  O  O7  1  0.753199  0.744901  0.750000  1
  O  O8  1  0.318268  0.681732  0.998910  1
  O  O9  1  0.318268  0.681732  0.501089  1
  O  O10  1  0.681732  0.318268  0.498910  1
  O  O11  1  0.681732  0.318268  0.001089  1
