# generated using pymatgen
data_Ca10CuNi3Hg2
_symmetry_space_group_name_H-M   'P 1'
_cell_length_a   9.12438435
_cell_length_b   9.12438553
_cell_length_c   9.18918505
_cell_angle_alpha   129.74683518
_cell_angle_beta   129.74684426
_cell_angle_gamma   73.26922517
_symmetry_Int_Tables_number   1
_chemical_formula_structural   Ca10CuNi3Hg2
_chemical_formula_sum   'Ca10 Cu1 Ni3 Hg2'
_cell_volume   442.70291946
_cell_formula_units_Z   1
loop_
 _symmetry_equiv_pos_site_id
 _symmetry_equiv_pos_as_xyz
  1  'x, y, z'
loop_
 _atom_site_type_symbol
 _atom_site_label
 _atom_site_symmetry_multiplicity
 _atom_site_fract_x
 _atom_site_fract_y
 _atom_site_fract_z
 _atom_site_occupancy
  Ca  Ca0  1  0.528751  0.028751  0.829135  1
  Ca  Ca1  1  0.195840  0.695840  0.160184  1
  Ca  Ca2  1  0.042290  0.194096  0.505381  1
  Ca  Ca3  1  0.694096  0.542290  0.505381  1
  Ca  Ca4  1  0.464344  0.964344  0.160184  1
  Ca  Ca5  1  0.800384  0.300384  0.829135  1
  Ca  Ca6  1  0.963091  0.811286  0.505381  1
  Ca  Ca7  1  0.311286  0.463091  0.505381  1
  Ca  Ca8  1  0.497079  0.501130  0.998209  1
  Ca  Ca9  1  0.001130  0.997079  0.998209  1
  Cu  Cu10  1  0.888850  0.388850  0.277702  1
  Ni  Ni11  1  0.609882  0.889533  0.499415  1
  Ni  Ni12  1  0.389533  0.109882  0.499415  1
  Ni  Ni13  1  0.110526  0.610526  0.721053  1
  Hg  Hg14  1  0.251460  0.251460  0.002918  1
  Hg  Hg15  1  0.751460  0.751460  0.002918  1
