# generated using pymatgen
data_Tb3Mg2ZnSi2Au
_symmetry_space_group_name_H-M   'P 1'
_cell_length_a   7.09695700
_cell_length_b   7.13058228
_cell_length_c   4.34412100
_cell_angle_alpha   90.00000000
_cell_angle_beta   90.00000000
_cell_angle_gamma   119.84412537
_symmetry_Int_Tables_number   1
_chemical_formula_structural   Tb3Mg2ZnSi2Au
_chemical_formula_sum   'Tb3 Mg2 Zn1 Si2 Au1'
_cell_volume   190.68200889
_cell_formula_units_Z   1
loop_
 _symmetry_equiv_pos_site_id
 _symmetry_equiv_pos_as_xyz
  1  'x, y, z'
loop_
 _atom_site_type_symbol
 _atom_site_label
 _atom_site_symmetry_multiplicity
 _atom_site_fract_x
 _atom_site_fract_y
 _atom_site_fract_z
 _atom_site_occupancy
  Tb  Tb0  1  0.573511  0.000000  0.000000  1
  Tb  Tb1  1  0.002372  0.584408  0.000000  1
  Tb  Tb2  1  0.417964  0.415592  0.000000  1
  Mg  Mg3  1  0.002547  0.242755  0.500000  1
  Mg  Mg4  1  0.759793  0.757245  0.500000  1
  Zn  Zn5  1  0.252151  0.000000  0.500000  1
  Si  Si6  1  0.331453  0.671395  0.500000  1
  Si  Si7  1  0.660060  0.328605  0.500000  1
  Au  Au8  1  0.000150  0.000000  0.000000  1
