# generated using pymatgen
data_CaNp3(ReB6)2
_symmetry_space_group_name_H-M   'P 1'
_cell_length_a   3.62410100
_cell_length_b   9.27201015
_cell_length_c   11.35358619
_cell_angle_alpha   89.97909003
_cell_angle_beta   90.00088161
_cell_angle_gamma   89.99889059
_symmetry_Int_Tables_number   1
_chemical_formula_structural   CaNp3(ReB6)2
_chemical_formula_sum   'Ca2 Np6 Re4 B24'
_cell_volume   381.51113962
_cell_formula_units_Z   2
loop_
 _symmetry_equiv_pos_site_id
 _symmetry_equiv_pos_as_xyz
  1  'x, y, z'
loop_
 _atom_site_type_symbol
 _atom_site_label
 _atom_site_symmetry_multiplicity
 _atom_site_fract_x
 _atom_site_fract_y
 _atom_site_fract_z
 _atom_site_occupancy
  Ca  Ca0  1  0.999987  0.339155  0.408476  1
  Ca  Ca1  1  0.000013  0.660845  0.591524  1
  Np  Np2  1  0.000002  0.837432  0.093217  1
  Np  Np3  1  0.999998  0.162568  0.906783  1
  Np  Np4  1  0.000003  0.958781  0.400577  1
  Np  Np5  1  0.999997  0.041219  0.599423  1
  Np  Np6  1  0.000006  0.459397  0.099385  1
  Np  Np7  1  0.999994  0.540603  0.900615  1
  Re  Re8  1  0.000208  0.650310  0.314921  1
  Re  Re9  1  0.999792  0.349690  0.685079  1
  Re  Re10  1  0.999939  0.143814  0.179034  1
  Re  Re11  1  0.000061  0.856186  0.820966  1
  B  B12  1  0.500022  0.553576  0.430173  1
  B  B13  1  0.499978  0.446424  0.569827  1
  B  B14  1  0.499981  0.052020  0.068127  1
  B  B15  1  0.500019  0.947980  0.931873  1
  B  B16  1  0.500039  0.745198  0.421929  1
  B  B17  1  0.499961  0.254802  0.578071  1
  B  B18  1  0.499972  0.243648  0.076698  1
  B  B19  1  0.500028  0.756352  0.923302  1
  B  B20  1  0.500024  0.805985  0.273607  1
  B  B21  1  0.499976  0.194015  0.726393  1
  B  B22  1  0.499966  0.304228  0.224665  1
  B  B23  1  0.500034  0.695772  0.775335  1
  B  B24  1  0.500035  0.646027  0.187515  1
  B  B25  1  0.499965  0.353973  0.812485  1
  B  B26  1  0.499973  0.144195  0.311612  1
  B  B27  1  0.500027  0.855805  0.688388  1
  B  B28  1  0.499969  0.988739  0.220060  1
  B  B29  1  0.500031  0.011261  0.779940  1
  B  B30  1  0.500030  0.490260  0.279256  1
  B  B31  1  0.499970  0.509740  0.720744  1
  B  B32  1  0.500001  0.642231  0.038858  1
  B  B33  1  0.499999  0.357769  0.961142  1
  B  B34  1  0.499998  0.137221  0.461837  1
  B  B35  1  0.500002  0.862779  0.538163  1
