# generated using pymatgen
data_Tb9Dy7(In3Fe)2
_symmetry_space_group_name_H-M   'P 1'
_cell_length_a   10.38020100
_cell_length_b   10.38043794
_cell_length_c   7.07805600
_cell_angle_alpha   89.99829909
_cell_angle_beta   90.00027140
_cell_angle_gamma   119.99890654
_symmetry_Int_Tables_number   1
_chemical_formula_structural   Tb9Dy7(In3Fe)2
_chemical_formula_sum   'Tb9 Dy7 In6 Fe2'
_cell_volume   660.49700211
_cell_formula_units_Z   1
loop_
 _symmetry_equiv_pos_site_id
 _symmetry_equiv_pos_as_xyz
  1  'x, y, z'
loop_
 _atom_site_type_symbol
 _atom_site_label
 _atom_site_symmetry_multiplicity
 _atom_site_fract_x
 _atom_site_fract_y
 _atom_site_fract_z
 _atom_site_occupancy
  Tb  Tb0  1  0.333342  0.666671  0.677189  1
  Tb  Tb1  1  0.536649  0.073284  0.787699  1
  Tb  Tb2  1  0.926713  0.463350  0.787696  1
  Tb  Tb3  1  0.536653  0.463346  0.787702  1
  Tb  Tb4  1  0.463434  0.926875  0.287507  1
  Tb  Tb5  1  0.073135  0.536573  0.287512  1
  Tb  Tb6  1  0.463430  0.536577  0.287510  1
  Tb  Tb7  1  0.999985  0.000017  0.775484  1
  Tb  Tb8  1  0.000013  0.999987  0.275568  1
  Dy  Dy9  1  0.821809  0.643628  0.492696  1
  Dy  Dy10  1  0.356373  0.178192  0.492699  1
  Dy  Dy11  1  0.821820  0.178190  0.492682  1
  Dy  Dy12  1  0.178022  0.356038  0.992775  1
  Dy  Dy13  1  0.643969  0.821978  0.992767  1
  Dy  Dy14  1  0.178022  0.821974  0.992736  1
  Dy  Dy15  1  0.666654  0.333336  0.177384  1
  In  In16  1  0.836764  0.673521  0.036477  1
  In  In17  1  0.326437  0.163212  0.036467  1
  In  In18  1  0.836764  0.163227  0.036489  1
  In  In19  1  0.163065  0.326114  0.536359  1
  In  In20  1  0.673902  0.836948  0.536325  1
  In  In21  1  0.163036  0.836962  0.536326  1
  Fe  Fe22  1  0.666675  0.333326  0.560221  1
  Fe  Fe23  1  0.333332  0.666674  0.059802  1
