# generated using pymatgen
data_CaBPPt6
_symmetry_space_group_name_H-M   'P 1'
_cell_length_a   8.38677300
_cell_length_b   8.38677300
_cell_length_c   8.38677300
_cell_angle_alpha   90.00000000
_cell_angle_beta   90.00000000
_cell_angle_gamma   90.00000000
_symmetry_Int_Tables_number   1
_chemical_formula_structural   CaBPPt6
_chemical_formula_sum   'Ca4 B4 P4 Pt24'
_cell_volume   589.90851515
_cell_formula_units_Z   4
loop_
 _symmetry_equiv_pos_site_id
 _symmetry_equiv_pos_as_xyz
  1  'x, y, z'
loop_
 _atom_site_type_symbol
 _atom_site_label
 _atom_site_symmetry_multiplicity
 _atom_site_fract_x
 _atom_site_fract_y
 _atom_site_fract_z
 _atom_site_occupancy
  Ca  Ca0  1  0.494602  0.505398  0.005398  1
  Ca  Ca1  1  0.505398  0.005398  0.494602  1
  Ca  Ca2  1  0.005398  0.494602  0.505398  1
  Ca  Ca3  1  0.994602  0.994602  0.994602  1
  B  B4  1  0.801562  0.301562  0.198438  1
  B  B5  1  0.198438  0.801562  0.301562  1
  B  B6  1  0.698438  0.698438  0.698438  1
  B  B7  1  0.301562  0.198438  0.801562  1
  P  P8  1  0.188079  0.688079  0.811921  1
  P  P9  1  0.811921  0.188079  0.688079  1
  P  P10  1  0.311921  0.311921  0.311921  1
  P  P11  1  0.688079  0.811921  0.188079  1
  Pt  Pt12  1  0.408344  0.860861  0.160486  1
  Pt  Pt13  1  0.591656  0.360861  0.339514  1
  Pt  Pt14  1  0.091656  0.139139  0.660486  1
  Pt  Pt15  1  0.908344  0.639139  0.839514  1
  Pt  Pt16  1  0.160486  0.408344  0.860861  1
  Pt  Pt17  1  0.339514  0.591656  0.360861  1
  Pt  Pt18  1  0.660486  0.091656  0.139139  1
  Pt  Pt19  1  0.839514  0.908344  0.639139  1
  Pt  Pt20  1  0.860861  0.160486  0.408344  1
  Pt  Pt21  1  0.360861  0.339514  0.591656  1
  Pt  Pt22  1  0.139139  0.660486  0.091656  1
  Pt  Pt23  1  0.639139  0.839514  0.908344  1
  Pt  Pt24  1  0.560275  0.166417  0.823236  1
  Pt  Pt25  1  0.439725  0.666417  0.676764  1
  Pt  Pt26  1  0.939725  0.833583  0.323236  1
  Pt  Pt27  1  0.060275  0.333583  0.176764  1
  Pt  Pt28  1  0.823236  0.560275  0.166417  1
  Pt  Pt29  1  0.676764  0.439725  0.666417  1
  Pt  Pt30  1  0.323236  0.939725  0.833583  1
  Pt  Pt31  1  0.176764  0.060275  0.333583  1
  Pt  Pt32  1  0.166417  0.823236  0.560275  1
  Pt  Pt33  1  0.666417  0.676764  0.439725  1
  Pt  Pt34  1  0.833583  0.323236  0.939725  1
  Pt  Pt35  1  0.333583  0.176764  0.060275  1
