# generated using pymatgen
data_La8Zn7InIrRh7
_symmetry_space_group_name_H-M   'P 1'
_cell_length_a   4.06552700
_cell_length_b   7.55396665
_cell_length_c   16.77150604
_cell_angle_alpha   90.00455700
_cell_angle_beta   90.00000000
_cell_angle_gamma   90.00000000
_symmetry_Int_Tables_number   1
_chemical_formula_structural   La8Zn7InIrRh7
_chemical_formula_sum   'La8 Zn7 In1 Ir1 Rh7'
_cell_volume   515.06729475
_cell_formula_units_Z   1
loop_
 _symmetry_equiv_pos_site_id
 _symmetry_equiv_pos_as_xyz
  1  'x, y, z'
loop_
 _atom_site_type_symbol
 _atom_site_label
 _atom_site_symmetry_multiplicity
 _atom_site_fract_x
 _atom_site_fract_y
 _atom_site_fract_z
 _atom_site_occupancy
  La  La0  1  0.750000  0.327489  0.442236  1
  La  La1  1  0.250000  0.048756  0.717118  1
  La  La2  1  0.250000  0.545589  0.782049  1
  La  La3  1  0.250000  0.672857  0.560894  1
  La  La4  1  0.750000  0.818834  0.056511  1
  La  La5  1  0.250000  0.173352  0.936755  1
  La  La6  1  0.750000  0.459337  0.219198  1
  La  La7  1  0.750000  0.945080  0.289642  1
  Zn  Zn8  1  0.250000  0.999710  0.443137  1
  Zn  Zn9  1  0.750000  0.873755  0.849553  1
  Zn  Zn10  1  0.750000  0.001765  0.560120  1
  Zn  Zn11  1  0.250000  0.499866  0.058176  1
  Zn  Zn12  1  0.750000  0.371718  0.649798  1
  Zn  Zn13  1  0.750000  0.502097  0.936701  1
  Zn  Zn14  1  0.250000  0.623114  0.353490  1
  In  In15  1  0.250000  0.122369  0.151257  1
  Ir  Ir16  1  0.750000  0.256215  0.812550  1
  Rh  Rh17  1  0.250000  0.245836  0.315620  1
  Rh  Rh18  1  0.250000  0.741543  0.932523  1
  Rh  Rh19  1  0.250000  0.243483  0.565636  1
  Rh  Rh20  1  0.250000  0.743310  0.184753  1
  Rh  Rh21  1  0.750000  0.757780  0.436186  1
  Rh  Rh22  1  0.750000  0.270144  0.061898  1
  Rh  Rh23  1  0.750000  0.756005  0.684197  1
