# generated using pymatgen
data_Li6TmNp2N6
_symmetry_space_group_name_H-M   'P 1'
_cell_length_a   5.96917400
_cell_length_b   5.96917459
_cell_length_c   5.46828400
_cell_angle_alpha   90.00000000
_cell_angle_beta   90.00000000
_cell_angle_gamma   119.99999675
_symmetry_Int_Tables_number   1
_chemical_formula_structural   Li6TmNp2N6
_chemical_formula_sum   'Li6 Tm1 Np2 N6'
_cell_volume   168.73696282
_cell_formula_units_Z   1
loop_
 _symmetry_equiv_pos_site_id
 _symmetry_equiv_pos_as_xyz
  1  'x, y, z'
loop_
 _atom_site_type_symbol
 _atom_site_label
 _atom_site_symmetry_multiplicity
 _atom_site_fract_x
 _atom_site_fract_y
 _atom_site_fract_z
 _atom_site_occupancy
  Li  Li0  1  0.986698  0.660821  0.607456  1
  Li  Li1  1  0.339179  0.325878  0.607456  1
  Li  Li2  1  0.674122  0.013302  0.607456  1
  Li  Li3  1  0.013302  0.339179  0.392544  1
  Li  Li4  1  0.660821  0.674122  0.392544  1
  Li  Li5  1  0.325878  0.986698  0.392544  1
  Tm  Tm6  1  0.000000  0.000000  0.000000  1
  Np  Np7  1  0.333333  0.666667  0.995114  1
  Np  Np8  1  0.666667  0.333333  0.004886  1
  N  N9  1  0.000692  0.657159  0.224984  1
  N  N10  1  0.342841  0.343534  0.224984  1
  N  N11  1  0.656466  0.999308  0.224984  1
  N  N12  1  0.999308  0.342841  0.775016  1
  N  N13  1  0.657159  0.656466  0.775016  1
  N  N14  1  0.343534  0.000692  0.775016  1
