# generated using pymatgen
data_LiHo3Ir8
_symmetry_space_group_name_H-M   'P 1'
_cell_length_a   5.31249200
_cell_length_b   5.31249097
_cell_length_c   8.62151500
_cell_angle_alpha   90.00000000
_cell_angle_beta   90.00000000
_cell_angle_gamma   119.99998148
_symmetry_Int_Tables_number   1
_chemical_formula_structural   LiHo3Ir8
_chemical_formula_sum   'Li1 Ho3 Ir8'
_cell_volume   210.72244424
_cell_formula_units_Z   1
loop_
 _symmetry_equiv_pos_site_id
 _symmetry_equiv_pos_as_xyz
  1  'x, y, z'
loop_
 _atom_site_type_symbol
 _atom_site_label
 _atom_site_symmetry_multiplicity
 _atom_site_fract_x
 _atom_site_fract_y
 _atom_site_fract_z
 _atom_site_occupancy
  Li  Li0  1  0.333333  0.666667  0.437878  1
  Ho  Ho1  1  0.333333  0.666667  0.086029  1
  Ho  Ho2  1  0.666667  0.333333  0.554778  1
  Ho  Ho3  1  0.666667  0.333333  0.929894  1
  Ir  Ir4  1  0.000000  0.000000  0.997930  1
  Ir  Ir5  1  0.000000  0.000000  0.498360  1
  Ir  Ir6  1  0.830713  0.661427  0.250403  1
  Ir  Ir7  1  0.171254  0.828746  0.747974  1
  Ir  Ir8  1  0.657492  0.828746  0.747974  1
  Ir  Ir9  1  0.338573  0.169287  0.250403  1
  Ir  Ir10  1  0.830713  0.169287  0.250403  1
  Ir  Ir11  1  0.171254  0.342508  0.747974  1
