# generated using pymatgen
data_Tb4Co9Si5
_symmetry_space_group_name_H-M   'P 1'
_cell_length_a   11.32638838
_cell_length_b   11.32638866
_cell_length_c   11.32638799
_cell_angle_alpha   26.60502299
_cell_angle_beta   26.60502238
_cell_angle_gamma   26.60501825
_symmetry_Int_Tables_number   1
_chemical_formula_structural   Tb4Co9Si5
_chemical_formula_sum   'Tb4 Co9 Si5'
_cell_volume   256.90532665
_cell_formula_units_Z   1
loop_
 _symmetry_equiv_pos_site_id
 _symmetry_equiv_pos_as_xyz
  1  'x, y, z'
loop_
 _atom_site_type_symbol
 _atom_site_label
 _atom_site_symmetry_multiplicity
 _atom_site_fract_x
 _atom_site_fract_y
 _atom_site_fract_z
 _atom_site_occupancy
  Tb  Tb0  1  0.949293  0.949293  0.949293  1
  Tb  Tb1  1  0.851824  0.851824  0.851824  1
  Tb  Tb2  1  0.148176  0.148176  0.148176  1
  Tb  Tb3  1  0.050707  0.050707  0.050707  1
  Co  Co4  1  0.607636  0.607636  0.108468  1
  Co  Co5  1  0.891532  0.392364  0.392364  1
  Co  Co6  1  0.500000  0.000000  0.500000  1
  Co  Co7  1  0.392364  0.891532  0.392364  1
  Co  Co8  1  0.500000  0.500000  0.000000  1
  Co  Co9  1  0.108468  0.607636  0.607636  1
  Co  Co10  1  0.000000  0.500000  0.500000  1
  Co  Co11  1  0.392364  0.392364  0.891532  1
  Co  Co12  1  0.607636  0.108468  0.607636  1
  Si  Si13  1  0.278773  0.278773  0.278773  1
  Si  Si14  1  0.500000  0.500000  0.500000  1
  Si  Si15  1  0.387562  0.387562  0.387562  1
  Si  Si16  1  0.721227  0.721227  0.721227  1
  Si  Si17  1  0.612438  0.612438  0.612438  1
