# generated using pymatgen
data_TbDy19Rh12
_symmetry_space_group_name_H-M   'P 1'
_cell_length_a   10.91208640
_cell_length_b   10.90884262
_cell_length_c   6.35012600
_cell_angle_alpha   89.98273066
_cell_angle_beta   90.01559974
_cell_angle_gamma   90.00877068
_symmetry_Int_Tables_number   1
_chemical_formula_structural   TbDy19Rh12
_chemical_formula_sum   'Tb1 Dy19 Rh12'
_cell_volume   755.90770892
_cell_formula_units_Z   1
loop_
 _symmetry_equiv_pos_site_id
 _symmetry_equiv_pos_as_xyz
  1  'x, y, z'
loop_
 _atom_site_type_symbol
 _atom_site_label
 _atom_site_symmetry_multiplicity
 _atom_site_fract_x
 _atom_site_fract_y
 _atom_site_fract_z
 _atom_site_occupancy
  Tb  Tb0  1  0.290152  0.089686  0.378739  1
  Dy  Dy1  1  0.291355  0.910417  0.879640  1
  Dy  Dy2  1  0.709199  0.088983  0.879409  1
  Dy  Dy3  1  0.708988  0.910614  0.379358  1
  Dy  Dy4  1  0.589416  0.790870  0.879198  1
  Dy  Dy5  1  0.589555  0.208920  0.379452  1
  Dy  Dy6  1  0.410891  0.790941  0.379440  1
  Dy  Dy7  1  0.411237  0.208874  0.879551  1
  Dy  Dy8  1  0.209090  0.410917  0.620641  1
  Dy  Dy9  1  0.209080  0.589062  0.120381  1
  Dy  Dy10  1  0.790819  0.411208  0.120508  1
  Dy  Dy11  1  0.791021  0.588979  0.620232  1
  Dy  Dy12  1  0.911078  0.708983  0.120433  1
  Dy  Dy13  1  0.910984  0.290905  0.620311  1
  Dy  Dy14  1  0.089119  0.708959  0.620637  1
  Dy  Dy15  1  0.088375  0.291619  0.120197  1
  Dy  Dy16  1  0.999441  0.999687  0.500674  1
  Dy  Dy17  1  0.000112  0.999982  0.000646  1
  Dy  Dy18  1  0.500096  0.500182  0.000108  1
  Dy  Dy19  1  0.500203  0.499886  0.500297  1
  Rh  Rh20  1  0.845720  0.154154  0.250151  1
  Rh  Rh21  1  0.845612  0.845893  0.750201  1
  Rh  Rh22  1  0.153641  0.154362  0.751367  1
  Rh  Rh23  1  0.153389  0.844747  0.249240  1
  Rh  Rh24  1  0.654336  0.345632  0.750392  1
  Rh  Rh25  1  0.654292  0.654227  0.250089  1
  Rh  Rh26  1  0.345909  0.347078  0.249145  1
  Rh  Rh27  1  0.345715  0.654361  0.749702  1
  Rh  Rh28  1  0.500672  0.999727  0.125192  1
  Rh  Rh29  1  0.500605  0.999899  0.625720  1
  Rh  Rh30  1  0.000063  0.500033  0.874282  1
  Rh  Rh31  1  0.999838  0.500213  0.374672  1
