# generated using pymatgen
data_Pd(Rh2Se3)4
_symmetry_space_group_name_H-M   'P 1'
_cell_length_a   8.01346773
_cell_length_b   8.00775649
_cell_length_c   6.64467868
_cell_angle_alpha   77.37250559
_cell_angle_beta   77.33807596
_cell_angle_gamma   92.42947897
_symmetry_Int_Tables_number   1
_chemical_formula_structural   Pd(Rh2Se3)4
_chemical_formula_sum   'Pd1 Rh8 Se12'
_cell_volume   404.12571168
_cell_formula_units_Z   1
loop_
 _symmetry_equiv_pos_site_id
 _symmetry_equiv_pos_as_xyz
  1  'x, y, z'
loop_
 _atom_site_type_symbol
 _atom_site_label
 _atom_site_symmetry_multiplicity
 _atom_site_fract_x
 _atom_site_fract_y
 _atom_site_fract_z
 _atom_site_occupancy
  Pd  Pd0  1  0.771014  0.487671  0.454275  1
  Rh  Rh1  1  0.162692  0.839996  0.999862  1
  Rh  Rh2  1  0.839416  0.160378  0.999559  1
  Rh  Rh3  1  0.003031  0.001508  0.499051  1
  Rh  Rh4  1  0.350427  0.350471  0.939867  1
  Rh  Rh5  1  0.647673  0.646300  0.060975  1
  Rh  Rh6  1  0.510110  0.221310  0.547158  1
  Rh  Rh7  1  0.222328  0.513772  0.546223  1
  Rh  Rh8  1  0.486559  0.777733  0.454619  1
  Se  Se9  1  0.851343  0.435454  0.098925  1
  Se  Se10  1  0.563972  0.148990  0.895716  1
  Se  Se11  1  0.151141  0.565032  0.893742  1
  Se  Se12  1  0.436001  0.849154  0.106533  1
  Se  Se13  1  0.116025  0.116007  0.108177  1
  Se  Se14  1  0.885142  0.883758  0.891221  1
  Se  Se15  1  0.033898  0.717227  0.388865  1
  Se  Se16  1  0.289688  0.972000  0.609313  1
  Se  Se17  1  0.974185  0.284291  0.611051  1
  Se  Se18  1  0.578252  0.586122  0.736787  1
  Se  Se19  1  0.412797  0.413874  0.268377  1
  Se  Se20  1  0.714306  0.028947  0.389705  1
