# generated using pymatgen
data_Tb3Y(Al3Co)6
_symmetry_space_group_name_H-M   'P 1'
_cell_length_a   7.38691583
_cell_length_b   7.38727700
_cell_length_c   9.33078700
_cell_angle_alpha   90.00000000
_cell_angle_beta   90.00000000
_cell_angle_gamma   119.19530176
_symmetry_Int_Tables_number   1
_chemical_formula_structural   Tb3Y(Al3Co)6
_chemical_formula_sum   'Tb3 Y1 Al18 Co6'
_cell_volume   444.48917496
_cell_formula_units_Z   1
loop_
 _symmetry_equiv_pos_site_id
 _symmetry_equiv_pos_as_xyz
  1  'x, y, z'
loop_
 _atom_site_type_symbol
 _atom_site_label
 _atom_site_symmetry_multiplicity
 _atom_site_fract_x
 _atom_site_fract_y
 _atom_site_fract_z
 _atom_site_occupancy
  Tb  Tb0  1  0.993036  0.671960  0.250000  1
  Tb  Tb1  1  0.007035  0.328046  0.750000  1
  Tb  Tb2  1  0.671933  0.993007  0.250000  1
  Y  Y3  1  0.328055  0.007018  0.750000  1
  Al  Al4  1  0.125423  0.125409  0.250000  1
  Al  Al5  1  0.874711  0.874665  0.750000  1
  Al  Al6  1  0.332252  0.332200  0.541870  1
  Al  Al7  1  0.667748  0.667744  0.041849  1
  Al  Al8  1  0.332252  0.332200  0.958130  1
  Al  Al9  1  0.667748  0.667744  0.458151  1
  Al  Al10  1  0.338788  0.553150  0.250000  1
  Al  Al11  1  0.661150  0.446743  0.750000  1
  Al  Al12  1  0.553125  0.338776  0.250000  1
  Al  Al13  1  0.446817  0.661261  0.750000  1
  Al  Al14  1  0.998292  0.335163  0.070779  1
  Al  Al15  1  0.001766  0.664914  0.570783  1
  Al  Al16  1  0.335161  0.998280  0.429274  1
  Al  Al17  1  0.664772  0.001707  0.929216  1
  Al  Al18  1  0.001766  0.664914  0.929217  1
  Al  Al19  1  0.998292  0.335163  0.429221  1
  Al  Al20  1  0.664772  0.001707  0.570784  1
  Al  Al21  1  0.335161  0.998280  0.070726  1
  Co  Co22  1  0.000009  0.000007  0.999983  1
  Co  Co23  1  0.000009  0.000007  0.500017  1
  Co  Co24  1  0.670902  0.329052  0.999962  1
  Co  Co25  1  0.329062  0.670915  0.500036  1
  Co  Co26  1  0.329062  0.670915  0.999964  1
  Co  Co27  1  0.670902  0.329052  0.500038  1
