# generated using pymatgen
data_Lu13Th3(MgCo)4
_symmetry_space_group_name_H-M   'P 1'
_cell_length_a   9.49724451
_cell_length_b   9.48632183
_cell_length_c   9.48632200
_cell_angle_alpha   59.99999942
_cell_angle_beta   60.03803678
_cell_angle_gamma   60.03803534
_symmetry_Int_Tables_number   1
_chemical_formula_structural   Lu13Th3(MgCo)4
_chemical_formula_sum   'Lu13 Th3 Mg4 Co4'
_cell_volume   604.68302825
_cell_formula_units_Z   1
loop_
 _symmetry_equiv_pos_site_id
 _symmetry_equiv_pos_as_xyz
  1  'x, y, z'
loop_
 _atom_site_type_symbol
 _atom_site_label
 _atom_site_symmetry_multiplicity
 _atom_site_fract_x
 _atom_site_fract_y
 _atom_site_fract_z
 _atom_site_occupancy
  Lu  Lu0  1  0.959900  0.346700  0.346700  1
  Lu  Lu1  1  0.815104  0.185707  0.185707  1
  Lu  Lu2  1  0.184806  0.815347  0.815347  1
  Lu  Lu3  1  0.184806  0.815347  0.184499  1
  Lu  Lu4  1  0.815104  0.185707  0.813482  1
  Lu  Lu5  1  0.184806  0.184499  0.815347  1
  Lu  Lu6  1  0.815104  0.813482  0.185707  1
  Lu  Lu7  1  0.933238  0.565635  0.565635  1
  Lu  Lu8  1  0.565050  0.934785  0.934785  1
  Lu  Lu9  1  0.565050  0.934785  0.565380  1
  Lu  Lu10  1  0.933238  0.565635  0.935492  1
  Lu  Lu11  1  0.565050  0.565380  0.934785  1
  Lu  Lu12  1  0.933238  0.935492  0.565635  1
  Th  Th13  1  0.341267  0.347261  0.347261  1
  Th  Th14  1  0.341267  0.347261  0.964213  1
  Th  Th15  1  0.341267  0.964213  0.347261  1
  Mg  Mg16  1  0.583015  0.579395  0.579395  1
  Mg  Mg17  1  0.583015  0.579395  0.258195  1
  Mg  Mg18  1  0.583015  0.258195  0.579395  1
  Mg  Mg19  1  0.254748  0.581751  0.581751  1
  Co  Co20  1  0.149314  0.139416  0.139416  1
  Co  Co21  1  0.149314  0.139416  0.571854  1
  Co  Co22  1  0.149314  0.571854  0.139416  1
  Co  Co23  1  0.569963  0.143346  0.143346  1
