# generated using pymatgen
data_CaYb6Dy(Si4Mo3)4
_symmetry_space_group_name_H-M   'P 1'
_cell_length_a   6.73551715
_cell_length_b   6.93353678
_cell_length_c   13.05516493
_cell_angle_alpha   89.93992717
_cell_angle_beta   89.97042794
_cell_angle_gamma   90.06093701
_symmetry_Int_Tables_number   1
_chemical_formula_structural   CaYb6Dy(Si4Mo3)4
_chemical_formula_sum   'Ca1 Yb6 Dy1 Si16 Mo12'
_cell_volume   609.68791940
_cell_formula_units_Z   1
loop_
 _symmetry_equiv_pos_site_id
 _symmetry_equiv_pos_as_xyz
  1  'x, y, z'
loop_
 _atom_site_type_symbol
 _atom_site_label
 _atom_site_symmetry_multiplicity
 _atom_site_fract_x
 _atom_site_fract_y
 _atom_site_fract_z
 _atom_site_occupancy
  Ca  Ca0  1  0.998479  0.166601  0.090751  1
  Yb  Yb1  1  0.498340  0.334307  0.090750  1
  Yb  Yb2  1  0.998222  0.165647  0.409499  1
  Yb  Yb3  1  0.501220  0.668169  0.592841  1
  Yb  Yb4  1  0.001193  0.832892  0.908436  1
  Yb  Yb5  1  0.501269  0.666802  0.908994  1
  Yb  Yb6  1  0.001400  0.832961  0.591732  1
  Dy  Dy7  1  0.499966  0.331151  0.406556  1
  Si  Si8  1  0.658425  0.041911  0.545575  1
  Si  Si9  1  0.157926  0.457199  0.954216  1
  Si  Si10  1  0.341909  0.956935  0.045279  1
  Si  Si11  1  0.841952  0.543503  0.454796  1
  Si  Si12  1  0.341420  0.955878  0.455163  1
  Si  Si13  1  0.842110  0.543707  0.045075  1
  Si  Si14  1  0.658045  0.042741  0.954306  1
  Si  Si15  1  0.159271  0.457680  0.545665  1
  Si  Si16  1  0.535620  0.373658  0.750480  1
  Si  Si17  1  0.035640  0.126628  0.749786  1
  Si  Si18  1  0.464123  0.628549  0.249467  1
  Si  Si19  1  0.964392  0.871471  0.250601  1
  Si  Si20  1  0.800918  0.630182  0.750092  1
  Si  Si21  1  0.300519  0.869814  0.750396  1
  Si  Si22  1  0.196872  0.369576  0.249325  1
  Si  Si23  1  0.699656  0.129834  0.248856  1
  Mo  Mo24  1  0.833995  0.331079  0.627134  1
  Mo  Mo25  1  0.335216  0.169155  0.872332  1
  Mo  Mo26  1  0.165617  0.669516  0.127659  1
  Mo  Mo27  1  0.665213  0.831721  0.373033  1
  Mo  Mo28  1  0.167362  0.667577  0.372963  1
  Mo  Mo29  1  0.664896  0.830699  0.127909  1
  Mo  Mo30  1  0.834992  0.330965  0.872214  1
  Mo  Mo31  1  0.335855  0.170219  0.627062  1
  Mo  Mo32  1  0.661836  0.009220  0.749851  1
  Mo  Mo33  1  0.161546  0.490437  0.749855  1
  Mo  Mo34  1  0.337487  0.992979  0.250898  1
  Mo  Mo35  1  0.837101  0.508636  0.250454  1
