# generated using pymatgen
data_NdTh3Al5Ga13Ir6
_symmetry_space_group_name_H-M   'P 1'
_cell_length_a   7.67984657
_cell_length_b   7.68313520
_cell_length_c   9.53406076
_cell_angle_alpha   90.06908380
_cell_angle_beta   89.96002339
_cell_angle_gamma   119.70328777
_symmetry_Int_Tables_number   1
_chemical_formula_structural   NdTh3Al5Ga13Ir6
_chemical_formula_sum   'Nd1 Th3 Al5 Ga13 Ir6'
_cell_volume   488.64108779
_cell_formula_units_Z   1
loop_
 _symmetry_equiv_pos_site_id
 _symmetry_equiv_pos_as_xyz
  1  'x, y, z'
loop_
 _atom_site_type_symbol
 _atom_site_label
 _atom_site_symmetry_multiplicity
 _atom_site_fract_x
 _atom_site_fract_y
 _atom_site_fract_z
 _atom_site_occupancy
  Nd  Nd0  1  0.329754  0.002295  0.746778  1
  Th  Th1  1  0.996438  0.668642  0.251584  1
  Th  Th2  1  0.000422  0.330187  0.749647  1
  Th  Th3  1  0.671226  0.997537  0.251754  1
  Al  Al4  1  0.334911  0.004850  0.070200  1
  Al  Al5  1  0.335132  0.332896  0.552400  1
  Al  Al6  1  0.663780  0.663785  0.450235  1
  Al  Al7  1  0.664508  0.664460  0.050203  1
  Al  Al8  1  0.335023  0.333252  0.946582  1
  Ga  Ga9  1  0.135591  0.131979  0.250018  1
  Ga  Ga10  1  0.869945  0.869474  0.750555  1
  Ga  Ga11  1  0.004216  0.335021  0.078138  1
  Ga  Ga12  1  0.001253  0.670004  0.921912  1
  Ga  Ga13  1  0.999333  0.668446  0.579441  1
  Ga  Ga14  1  0.335023  0.003269  0.422942  1
  Ga  Ga15  1  0.005091  0.335215  0.421757  1
  Ga  Ga16  1  0.661743  0.996123  0.579443  1
  Ga  Ga17  1  0.660345  0.996289  0.921952  1
  Ga  Ga18  1  0.347577  0.546606  0.250232  1
  Ga  Ga19  1  0.652832  0.450758  0.750415  1
  Ga  Ga20  1  0.544621  0.343704  0.249907  1
  Ga  Ga21  1  0.452264  0.654530  0.750677  1
  Ir  Ir22  1  0.669770  0.329746  0.001816  1
  Ir  Ir23  1  0.329995  0.671152  0.002778  1
  Ir  Ir24  1  0.329911  0.667650  0.499307  1
  Ir  Ir25  1  0.672901  0.332698  0.498720  1
  Ir  Ir26  1  0.999868  0.999957  0.002572  1
  Ir  Ir27  1  0.996530  0.999474  0.498033  1
