# generated using pymatgen
data_Ti6AlSi5Os12
_symmetry_space_group_name_H-M   'P 1'
_cell_length_a   4.28546800
_cell_length_b   6.06838900
_cell_length_c   12.85021300
_cell_angle_alpha   90.00000000
_cell_angle_beta   90.00024071
_cell_angle_gamma   90.00000000
_symmetry_Int_Tables_number   1
_chemical_formula_structural   Ti6AlSi5Os12
_chemical_formula_sum   'Ti6 Al1 Si5 Os12'
_cell_volume   334.18118555
_cell_formula_units_Z   1
loop_
 _symmetry_equiv_pos_site_id
 _symmetry_equiv_pos_as_xyz
  1  'x, y, z'
loop_
 _atom_site_type_symbol
 _atom_site_label
 _atom_site_symmetry_multiplicity
 _atom_site_fract_x
 _atom_site_fract_y
 _atom_site_fract_z
 _atom_site_occupancy
  Ti  Ti0  1  0.000006  0.000000  0.998878  1
  Ti  Ti1  1  0.499829  0.500001  0.166995  1
  Ti  Ti2  1  0.999814  0.000000  0.333335  1
  Ti  Ti3  1  0.500005  0.500001  0.499673  1
  Ti  Ti4  1  0.000170  0.000000  0.667784  1
  Ti  Ti5  1  0.500181  0.500001  0.833334  1
  Al  Al6  1  0.500129  0.000000  0.833333  1
  Si  Si7  1  0.999997  0.500001  0.999642  1
  Si  Si8  1  0.499912  0.000000  0.166348  1
  Si  Si9  1  0.999921  0.500001  0.333331  1
  Si  Si10  1  0.500010  0.000000  0.500321  1
  Si  Si11  1  0.000090  0.500001  0.667024  1
  Os  Os12  1  0.499995  0.251513  0.002394  1
  Os  Os13  1  0.499995  0.748486  0.002394  1
  Os  Os14  1  0.999865  0.249976  0.167513  1
  Os  Os15  1  0.999865  0.750023  0.167513  1
  Os  Os16  1  0.499835  0.249339  0.333335  1
  Os  Os17  1  0.499835  0.750661  0.333335  1
  Os  Os18  1  0.000003  0.249991  0.499152  1
  Os  Os19  1  0.000003  0.750008  0.499152  1
  Os  Os20  1  0.500130  0.251531  0.664271  1
  Os  Os21  1  0.500130  0.748469  0.664271  1
  Os  Os22  1  0.000144  0.253938  0.833336  1
  Os  Os23  1  0.000144  0.746061  0.833336  1
