# generated using pymatgen
data_TaTi2(NbAs)4
_symmetry_space_group_name_H-M   'P 1'
_cell_length_a   3.52783500
_cell_length_b   7.85829937
_cell_length_c   14.16557822
_cell_angle_alpha   103.74210129
_cell_angle_beta   90.00000000
_cell_angle_gamma   102.97145640
_symmetry_Int_Tables_number   1
_chemical_formula_structural   TaTi2(NbAs)4
_chemical_formula_sum   'Ta2 Ti4 Nb8 As8'
_cell_volume   371.14333623
_cell_formula_units_Z   2
loop_
 _symmetry_equiv_pos_site_id
 _symmetry_equiv_pos_as_xyz
  1  'x, y, z'
loop_
 _atom_site_type_symbol
 _atom_site_label
 _atom_site_symmetry_multiplicity
 _atom_site_fract_x
 _atom_site_fract_y
 _atom_site_fract_z
 _atom_site_occupancy
  Ta  Ta0  1  0.430314  0.860630  0.826338  1
  Ta  Ta1  1  0.569686  0.139370  0.173662  1
  Ti  Ti2  1  0.197104  0.394207  0.307913  1
  Ti  Ti3  1  0.802896  0.605793  0.692087  1
  Ti  Ti4  1  0.211705  0.423410  0.797133  1
  Ti  Ti5  1  0.788295  0.576590  0.202867  1
  Nb  Nb6  1  0.000000  0.000000  0.000000  1
  Nb  Nb7  1  0.500000  0.000000  0.500000  1
  Nb  Nb8  1  0.334322  0.668643  0.029182  1
  Nb  Nb9  1  0.665678  0.331357  0.970818  1
  Nb  Nb10  1  0.000263  0.000525  0.660989  1
  Nb  Nb11  1  0.999737  0.999475  0.339011  1
  Nb  Nb12  1  0.177713  0.355425  0.545419  1
  Nb  Nb13  1  0.822287  0.644575  0.454581  1
  As  As14  1  0.177271  0.354542  0.113645  1
  As  As15  1  0.822729  0.645458  0.886355  1
  As  As16  1  0.368079  0.736160  0.603091  1
  As  As17  1  0.631921  0.263840  0.396909  1
  As  As18  1  0.368605  0.737210  0.332307  1
  As  As19  1  0.631395  0.262790  0.667693  1
  As  As20  1  0.066311  0.132623  0.846814  1
  As  As21  1  0.933689  0.867377  0.153186  1
