# generated using pymatgen
data_Ta2Nb14Ni8CN3
_symmetry_space_group_name_H-M   'P 1'
_cell_length_a   8.26481891
_cell_length_b   8.28065856
_cell_length_c   8.26481938
_cell_angle_alpha   60.08911357
_cell_angle_beta   60.03065062
_cell_angle_gamma   60.08911716
_symmetry_Int_Tables_number   1
_chemical_formula_structural   Ta2Nb14Ni8CN3
_chemical_formula_sum   'Ta2 Nb14 Ni8 C1 N3'
_cell_volume   400.59085685
_cell_formula_units_Z   1
loop_
 _symmetry_equiv_pos_site_id
 _symmetry_equiv_pos_as_xyz
  1  'x, y, z'
loop_
 _atom_site_type_symbol
 _atom_site_label
 _atom_site_symmetry_multiplicity
 _atom_site_fract_x
 _atom_site_fract_y
 _atom_site_fract_z
 _atom_site_occupancy
  Ta  Ta0  1  0.625000  0.625000  0.625000  1
  Ta  Ta1  1  0.625000  0.125000  0.625000  1
  Nb  Nb2  1  0.431823  0.068903  0.067261  1
  Nb  Nb3  1  0.066385  0.433297  0.433972  1
  Nb  Nb4  1  0.066463  0.433157  0.066463  1
  Nb  Nb5  1  0.067261  0.068903  0.431823  1
  Nb  Nb6  1  0.432050  0.068732  0.432050  1
  Nb  Nb7  1  0.433972  0.433297  0.066385  1
  Nb  Nb8  1  0.183537  0.816843  0.183537  1
  Nb  Nb9  1  0.817950  0.181268  0.817950  1
  Nb  Nb10  1  0.818177  0.181097  0.182739  1
  Nb  Nb11  1  0.182739  0.181097  0.818177  1
  Nb  Nb12  1  0.183615  0.816703  0.816028  1
  Nb  Nb13  1  0.816028  0.816703  0.183615  1
  Nb  Nb14  1  0.625000  0.625000  0.125000  1
  Nb  Nb15  1  0.125000  0.625000  0.625000  1
  Ni  Ni16  1  0.829056  0.830851  0.829056  1
  Ni  Ni17  1  0.828836  0.830565  0.510932  1
  Ni  Ni18  1  0.510932  0.830565  0.828836  1
  Ni  Ni19  1  0.829882  0.509485  0.829882  1
  Ni  Ni20  1  0.420944  0.419149  0.420944  1
  Ni  Ni21  1  0.421164  0.419435  0.739068  1
  Ni  Ni22  1  0.420118  0.740515  0.420118  1
  Ni  Ni23  1  0.739068  0.419435  0.421164  1
  C  C24  1  0.125000  0.625000  0.125000  1
  N  N25  1  0.625000  0.125000  0.125000  1
  N  N26  1  0.125000  0.125000  0.625000  1
  N  N27  1  0.125000  0.125000  0.125000  1
