# generated using pymatgen
data_Hf2Ga3Ru6W
_symmetry_space_group_name_H-M   'P 1'
_cell_length_a   4.41154301
_cell_length_b   6.25167601
_cell_length_c   13.19186700
_cell_angle_alpha   89.99842572
_cell_angle_beta   90.00135287
_cell_angle_gamma   89.99443452
_symmetry_Int_Tables_number   1
_chemical_formula_structural   Hf2Ga3Ru6W
_chemical_formula_sum   'Hf4 Ga6 Ru12 W2'
_cell_volume   363.82558959
_cell_formula_units_Z   2
loop_
 _symmetry_equiv_pos_site_id
 _symmetry_equiv_pos_as_xyz
  1  'x, y, z'
loop_
 _atom_site_type_symbol
 _atom_site_label
 _atom_site_symmetry_multiplicity
 _atom_site_fract_x
 _atom_site_fract_y
 _atom_site_fract_z
 _atom_site_occupancy
  Hf  Hf0  1  0.999873  0.999993  0.332748  1
  Hf  Hf1  1  0.500003  0.499994  0.500209  1
  Hf  Hf2  1  0.000144  0.000007  0.666575  1
  Hf  Hf3  1  0.500116  0.500005  0.833908  1
  Ga  Ga4  1  0.000021  0.500009  0.998657  1
  Ga  Ga5  1  0.499840  0.999985  0.167989  1
  Ga  Ga6  1  0.999862  0.500002  0.334110  1
  Ga  Ga7  1  0.500005  0.000003  0.499420  1
  Ga  Ga8  1  0.000142  0.499997  0.667301  1
  Ga  Ga9  1  0.500139  0.000000  0.832561  1
  Ru  Ru10  1  0.500022  0.243039  0.005283  1
  Ru  Ru11  1  0.499969  0.756956  0.005283  1
  Ru  Ru12  1  0.999748  0.256908  0.161237  1
  Ru  Ru13  1  0.999948  0.743073  0.161242  1
  Ru  Ru14  1  0.499965  0.256005  0.325945  1
  Ru  Ru15  1  0.499832  0.744003  0.325947  1
  Ru  Ru16  1  0.000161  0.249138  0.498507  1
  Ru  Ru17  1  0.999844  0.750858  0.498512  1
  Ru  Ru18  1  0.500006  0.250882  0.668275  1
  Ru  Ru19  1  0.500304  0.749130  0.668259  1
  Ru  Ru20  1  0.000027  0.243905  0.840723  1
  Ru  Ru21  1  0.000170  0.756108  0.840711  1
  W  W22  1  0.000006  0.999994  0.998686  1
  W  W23  1  0.499854  0.500002  0.167915  1
