# generated using pymatgen
data_HfZr8CoMo4
_symmetry_space_group_name_H-M   'P 1'
_cell_length_a   8.79542534
_cell_length_b   8.79130558
_cell_length_c   8.46328802
_cell_angle_alpha   90.00000232
_cell_angle_beta   89.99356522
_cell_angle_gamma   119.98449554
_symmetry_Int_Tables_number   1
_chemical_formula_structural   HfZr8CoMo4
_chemical_formula_sum   'Hf2 Zr16 Co2 Mo8'
_cell_volume   566.82343979
_cell_formula_units_Z   2
loop_
 _symmetry_equiv_pos_site_id
 _symmetry_equiv_pos_as_xyz
  1  'x, y, z'
loop_
 _atom_site_type_symbol
 _atom_site_label
 _atom_site_symmetry_multiplicity
 _atom_site_fract_x
 _atom_site_fract_y
 _atom_site_fract_z
 _atom_site_occupancy
  Hf  Hf0  1  0.200330  0.798804  0.441182  1
  Hf  Hf1  1  0.200330  0.401526  0.441182  1
  Zr  Zr2  1  0.200901  0.799039  0.058585  1
  Zr  Zr3  1  0.598355  0.799177  0.057670  1
  Zr  Zr4  1  0.800077  0.598550  0.557505  1
  Zr  Zr5  1  0.200901  0.401861  0.058585  1
  Zr  Zr6  1  0.800077  0.201526  0.557505  1
  Zr  Zr7  1  0.401418  0.200709  0.556982  1
  Zr  Zr8  1  0.798937  0.598024  0.942191  1
  Zr  Zr9  1  0.798937  0.200913  0.942191  1
  Zr  Zr10  1  0.401931  0.200965  0.942335  1
  Zr  Zr11  1  0.596339  0.798169  0.442217  1
  Zr  Zr12  1  0.542246  0.085448  0.250783  1
  Zr  Zr13  1  0.456480  0.914112  0.749658  1
  Zr  Zr14  1  0.915201  0.457601  0.251055  1
  Zr  Zr15  1  0.542246  0.456799  0.250783  1
  Zr  Zr16  1  0.456480  0.542367  0.749658  1
  Zr  Zr17  1  0.086530  0.543264  0.749279  1
  Co  Co18  1  0.666608  0.333304  0.750180  1
  Co  Co19  1  0.332454  0.666228  0.251283  1
  Mo  Mo20  1  0.999971  0.999985  0.000486  1
  Mo  Mo21  1  0.000819  0.000410  0.499595  1
  Mo  Mo22  1  0.890294  0.779333  0.250275  1
  Mo  Mo23  1  0.110583  0.221074  0.749224  1
  Mo  Mo24  1  0.221085  0.110542  0.250309  1
  Mo  Mo25  1  0.890294  0.110960  0.250275  1
  Mo  Mo26  1  0.110583  0.889509  0.749224  1
  Mo  Mo27  1  0.779598  0.889799  0.749807  1
