# generated using pymatgen
data_DyPa(MnAl5)4
_symmetry_space_group_name_H-M   'P 1'
_cell_length_a   6.79137621
_cell_length_b   6.79137637
_cell_length_c   9.00964200
_cell_angle_alpha   90.00000000
_cell_angle_beta   90.00000000
_cell_angle_gamma   97.55116869
_symmetry_Int_Tables_number   1
_chemical_formula_structural   DyPa(MnAl5)4
_chemical_formula_sum   'Dy1 Pa1 Mn4 Al20'
_cell_volume   411.94615308
_cell_formula_units_Z   1
loop_
 _symmetry_equiv_pos_site_id
 _symmetry_equiv_pos_as_xyz
  1  'x, y, z'
loop_
 _atom_site_type_symbol
 _atom_site_label
 _atom_site_symmetry_multiplicity
 _atom_site_fract_x
 _atom_site_fract_y
 _atom_site_fract_z
 _atom_site_occupancy
  Dy  Dy0  1  0.126565  0.873435  0.250000  1
  Pa  Pa1  1  0.871638  0.128362  0.750000  1
  Mn  Mn2  1  0.999079  0.495363  0.502272  1
  Mn  Mn3  1  0.999079  0.495363  0.997728  1
  Mn  Mn4  1  0.504637  0.000921  0.997728  1
  Mn  Mn5  1  0.504637  0.000921  0.502272  1
  Al  Al6  1  0.624199  0.375801  0.548505  1
  Al  Al7  1  0.374452  0.625548  0.456019  1
  Al  Al8  1  0.374452  0.625548  0.043981  1
  Al  Al9  1  0.624199  0.375801  0.951495  1
  Al  Al10  1  0.228482  0.226902  0.499480  1
  Al  Al11  1  0.773098  0.771518  0.499480  1
  Al  Al12  1  0.773098  0.771518  0.000520  1
  Al  Al13  1  0.228482  0.226902  0.000520  1
  Al  Al14  1  0.842037  0.157963  0.097223  1
  Al  Al15  1  0.156353  0.843647  0.902881  1
  Al  Al16  1  0.156353  0.843647  0.597119  1
  Al  Al17  1  0.842037  0.157963  0.402777  1
  Al  Al18  1  0.867123  0.591057  0.750000  1
  Al  Al19  1  0.132424  0.410943  0.250000  1
  Al  Al20  1  0.408943  0.132877  0.750000  1
  Al  Al21  1  0.589057  0.867576  0.250000  1
  Al  Al22  1  0.218136  0.476172  0.750000  1
  Al  Al23  1  0.782039  0.524425  0.250000  1
  Al  Al24  1  0.523828  0.781864  0.750000  1
  Al  Al25  1  0.475575  0.217961  0.250000  1
