# generated using pymatgen
data_LaSm7(SiI6)2
_symmetry_space_group_name_H-M   'P 1'
_cell_length_a   4.30642000
_cell_length_b   14.37001765
_cell_length_c   15.14396136
_cell_angle_alpha   90.30490677
_cell_angle_beta   90.00000000
_cell_angle_gamma   90.00000000
_symmetry_Int_Tables_number   1
_chemical_formula_structural   LaSm7(SiI6)2
_chemical_formula_sum   'La1 Sm7 Si2 I12'
_cell_volume   937.14550973
_cell_formula_units_Z   1
loop_
 _symmetry_equiv_pos_site_id
 _symmetry_equiv_pos_as_xyz
  1  'x, y, z'
loop_
 _atom_site_type_symbol
 _atom_site_label
 _atom_site_symmetry_multiplicity
 _atom_site_fract_x
 _atom_site_fract_y
 _atom_site_fract_z
 _atom_site_occupancy
  La  La0  1  0.000000  0.384684  0.077475  1
  Sm  Sm1  1  0.500000  0.113093  0.348741  1
  Sm  Sm2  1  0.500000  0.885958  0.652167  1
  Sm  Sm3  1  0.500000  0.615881  0.152313  1
  Sm  Sm4  1  0.500000  0.386619  0.846108  1
  Sm  Sm5  1  0.000000  0.111882  0.575197  1
  Sm  Sm6  1  0.000000  0.888052  0.424851  1
  Sm  Sm7  1  0.000000  0.613747  0.923698  1
  Si  Si8  1  0.500000  0.999668  0.500441  1
  Si  Si9  1  0.500000  0.502130  0.998616  1
  I  I10  1  0.500000  0.239026  0.166103  1
  I  I11  1  0.500000  0.755097  0.836775  1
  I  I12  1  0.500000  0.746672  0.337638  1
  I  I13  1  0.500000  0.253725  0.662107  1
  I  I14  1  0.000000  0.256685  0.415131  1
  I  I15  1  0.000000  0.743167  0.584937  1
  I  I16  1  0.000000  0.757931  0.085407  1
  I  I17  1  0.000000  0.241388  0.909544  1
  I  I18  1  0.000000  0.998576  0.242452  1
  I  I19  1  0.000000  0.000844  0.757666  1
  I  I20  1  0.000000  0.504215  0.261576  1
  I  I21  1  0.000000  0.500957  0.741057  1
