# generated using pymatgen
data_Rb2Zn(GaAu2)3
_symmetry_space_group_name_H-M   'P 1'
_cell_length_a   5.80871400
_cell_length_b   7.09783871
_cell_length_c   13.34532500
_cell_angle_alpha   90.00000000
_cell_angle_beta   90.00000000
_cell_angle_gamma   89.75914651
_symmetry_Int_Tables_number   1
_chemical_formula_structural   Rb2Zn(GaAu2)3
_chemical_formula_sum   'Rb4 Zn2 Ga6 Au12'
_cell_volume   550.21374810
_cell_formula_units_Z   2
loop_
 _symmetry_equiv_pos_site_id
 _symmetry_equiv_pos_as_xyz
  1  'x, y, z'
loop_
 _atom_site_type_symbol
 _atom_site_label
 _atom_site_symmetry_multiplicity
 _atom_site_fract_x
 _atom_site_fract_y
 _atom_site_fract_z
 _atom_site_occupancy
  Rb  Rb0  1  0.251948  0.100970  0.073562  1
  Rb  Rb1  1  0.248052  0.399030  0.573562  1
  Rb  Rb2  1  0.750327  0.899248  0.926829  1
  Rb  Rb3  1  0.749673  0.600752  0.426829  1
  Zn  Zn4  1  0.997896  0.905028  0.655257  1
  Zn  Zn5  1  0.502104  0.594972  0.155257  1
  Ga  Ga6  1  0.500888  0.100384  0.341963  1
  Ga  Ga7  1  0.999112  0.399616  0.841963  1
  Ga  Ga8  1  0.006950  0.094786  0.344622  1
  Ga  Ga9  1  0.493050  0.405214  0.844622  1
  Ga  Ga10  1  0.499318  0.900577  0.657330  1
  Ga  Ga11  1  0.000682  0.599423  0.157330  1
  Au  Au12  1  0.251495  0.114714  0.788611  1
  Au  Au13  1  0.248505  0.385286  0.288611  1
  Au  Au14  1  0.751935  0.883492  0.213774  1
  Au  Au15  1  0.748065  0.616508  0.713774  1
  Au  Au16  1  0.242934  0.709122  0.790735  1
  Au  Au17  1  0.257066  0.790878  0.290735  1
  Au  Au18  1  0.756470  0.291820  0.207959  1
  Au  Au19  1  0.743530  0.208180  0.707959  1
  Au  Au20  1  0.242640  0.583343  0.994930  1
  Au  Au21  1  0.257360  0.916657  0.494930  1
  Au  Au22  1  0.748048  0.415956  0.004429  1
  Au  Au23  1  0.751952  0.084044  0.504429  1
