# generated using pymatgen
data_HoHfBiRh5
_symmetry_space_group_name_H-M   'P 1'
_cell_length_a   4.20374800
_cell_length_b   5.77700741
_cell_length_c   11.34436057
_cell_angle_alpha   89.79292752
_cell_angle_beta   90.00000000
_cell_angle_gamma   90.00000000
_symmetry_Int_Tables_number   1
_chemical_formula_structural   HoHfBiRh5
_chemical_formula_sum   'Ho2 Hf2 Bi2 Rh10'
_cell_volume   275.49694260
_cell_formula_units_Z   2
loop_
 _symmetry_equiv_pos_site_id
 _symmetry_equiv_pos_as_xyz
  1  'x, y, z'
loop_
 _atom_site_type_symbol
 _atom_site_label
 _atom_site_symmetry_multiplicity
 _atom_site_fract_x
 _atom_site_fract_y
 _atom_site_fract_z
 _atom_site_occupancy
  Ho  Ho0  1  0.500000  0.181646  0.642940  1
  Ho  Ho1  1  0.500000  0.818354  0.357060  1
  Hf  Hf2  1  0.500000  0.674776  0.856613  1
  Hf  Hf3  1  0.500000  0.325224  0.143387  1
  Bi  Bi4  1  0.000000  0.500000  0.500000  1
  Bi  Bi5  1  0.000000  0.000000  0.000000  1
  Rh  Rh6  1  0.500000  0.211823  0.891151  1
  Rh  Rh7  1  0.500000  0.788177  0.108849  1
  Rh  Rh8  1  0.500000  0.701456  0.623202  1
  Rh  Rh9  1  0.500000  0.298544  0.376798  1
  Rh  Rh10  1  0.000000  0.444730  0.756263  1
  Rh  Rh11  1  0.000000  0.555270  0.243737  1
  Rh  Rh12  1  0.000000  0.000000  0.500000  1
  Rh  Rh13  1  0.000000  0.500000  0.000000  1
  Rh  Rh14  1  0.000000  0.067309  0.243013  1
  Rh  Rh15  1  0.000000  0.932691  0.756987  1
