# generated using pymatgen
data_Ho5Tm7Ir3Os
_symmetry_space_group_name_H-M   'P 1'
_cell_length_a   7.25219028
_cell_length_b   8.95005113
_cell_length_c   6.37974202
_cell_angle_alpha   89.93563091
_cell_angle_beta   89.94206740
_cell_angle_gamma   89.99964432
_symmetry_Int_Tables_number   1
_chemical_formula_structural   Ho5Tm7Ir3Os
_chemical_formula_sum   'Ho5 Tm7 Ir3 Os1'
_cell_volume   414.09246496
_cell_formula_units_Z   1
loop_
 _symmetry_equiv_pos_site_id
 _symmetry_equiv_pos_as_xyz
  1  'x, y, z'
loop_
 _atom_site_type_symbol
 _atom_site_label
 _atom_site_symmetry_multiplicity
 _atom_site_fract_x
 _atom_site_fract_y
 _atom_site_fract_z
 _atom_site_occupancy
  Ho  Ho0  1  0.033950  0.250568  0.624505  1
  Ho  Ho1  1  0.964341  0.749339  0.374936  1
  Ho  Ho2  1  0.465278  0.749739  0.126546  1
  Ho  Ho3  1  0.535335  0.250023  0.874826  1
  Ho  Ho4  1  0.175918  0.062936  0.171313  1
  Tm  Tm5  1  0.823138  0.939522  0.831434  1
  Tm  Tm6  1  0.322875  0.937692  0.671111  1
  Tm  Tm7  1  0.823057  0.559928  0.832014  1
  Tm  Tm8  1  0.678294  0.063582  0.326854  1
  Tm  Tm9  1  0.175467  0.437353  0.170343  1
  Tm  Tm10  1  0.678654  0.436662  0.326622  1
  Tm  Tm11  1  0.323048  0.561725  0.670597  1
  Ir  Ir12  1  0.385503  0.251278  0.461236  1
  Ir  Ir13  1  0.614882  0.750358  0.541897  1
  Ir  Ir14  1  0.115764  0.748498  0.958385  1
  Os  Os15  1  0.884496  0.250798  0.037383  1
