# generated using pymatgen
data_Te3PtCl16
_symmetry_space_group_name_H-M   'P 1'
_cell_length_a   10.40571046
_cell_length_b   10.40571050
_cell_length_c   12.55867200
_cell_angle_alpha   90.00000000
_cell_angle_beta   90.00000000
_cell_angle_gamma   102.10693540
_symmetry_Int_Tables_number   1
_chemical_formula_structural   Te3PtCl16
_chemical_formula_sum   'Te6 Pt2 Cl32'
_cell_volume   1329.59235286
_cell_formula_units_Z   2
loop_
 _symmetry_equiv_pos_site_id
 _symmetry_equiv_pos_as_xyz
  1  'x, y, z'
loop_
 _atom_site_type_symbol
 _atom_site_label
 _atom_site_symmetry_multiplicity
 _atom_site_fract_x
 _atom_site_fract_y
 _atom_site_fract_z
 _atom_site_occupancy
  Te  Te0  1  0.864906  0.864906  0.231933  1
  Te  Te1  1  0.739002  0.460119  0.497144  1
  Te  Te2  1  0.460119  0.739002  0.497144  1
  Te  Te3  1  0.135094  0.135094  0.731933  1
  Te  Te4  1  0.539880  0.260998  0.997144  1
  Te  Te5  1  0.260998  0.539880  0.997144  1
  Pt  Pt6  1  0.335264  0.335264  0.480231  1
  Pt  Pt7  1  0.664736  0.664736  0.980231  1
  Cl  Cl8  1  0.850916  0.645542  0.080018  1
  Cl  Cl9  1  0.645542  0.850916  0.080018  1
  Cl  Cl10  1  0.733939  0.244263  0.089707  1
  Cl  Cl11  1  0.244263  0.733939  0.089707  1
  Cl  Cl12  1  0.003147  0.003147  0.112196  1
  Cl  Cl13  1  0.524952  0.524952  0.106233  1
  Cl  Cl14  1  0.403618  0.107586  0.110435  1
  Cl  Cl15  1  0.107586  0.403618  0.110435  1
  Cl  Cl16  1  0.823314  0.043543  0.333746  1
  Cl  Cl17  1  0.043543  0.823314  0.333746  1
  Cl  Cl18  1  0.203072  0.203072  0.358306  1
  Cl  Cl19  1  0.886788  0.431206  0.362065  1
  Cl  Cl20  1  0.431206  0.886788  0.362065  1
  Cl  Cl21  1  0.519322  0.311984  0.377444  1
  Cl  Cl22  1  0.311984  0.519322  0.377444  1
  Cl  Cl23  1  0.691292  0.691292  0.386835  1
  Cl  Cl24  1  0.354458  0.149084  0.580018  1
  Cl  Cl25  1  0.149084  0.354458  0.580018  1
  Cl  Cl26  1  0.755737  0.266061  0.589707  1
  Cl  Cl27  1  0.266061  0.755737  0.589707  1
  Cl  Cl28  1  0.996854  0.996854  0.612196  1
  Cl  Cl29  1  0.475049  0.475049  0.606233  1
  Cl  Cl30  1  0.892414  0.596382  0.610435  1
  Cl  Cl31  1  0.596382  0.892414  0.610435  1
  Cl  Cl32  1  0.956457  0.176686  0.833746  1
  Cl  Cl33  1  0.176686  0.956457  0.833746  1
  Cl  Cl34  1  0.796927  0.796927  0.858306  1
  Cl  Cl35  1  0.568794  0.113212  0.862065  1
  Cl  Cl36  1  0.113212  0.568794  0.862065  1
  Cl  Cl37  1  0.688016  0.480678  0.877444  1
  Cl  Cl38  1  0.480678  0.688016  0.877444  1
  Cl  Cl39  1  0.308707  0.308707  0.886835  1
