# generated using pymatgen
data_Ho4Ga20Os5Ru
_symmetry_space_group_name_H-M   'P 1'
_cell_length_a   8.91124300
_cell_length_b   8.91124301
_cell_length_c   6.40496400
_cell_angle_alpha   90.00000000
_cell_angle_beta   90.00000000
_cell_angle_gamma   90.00302191
_symmetry_Int_Tables_number   1
_chemical_formula_structural   Ho4Ga20Os5Ru
_chemical_formula_sum   'Ho4 Ga20 Os5 Ru1'
_cell_volume   508.61980384
_cell_formula_units_Z   1
loop_
 _symmetry_equiv_pos_site_id
 _symmetry_equiv_pos_as_xyz
  1  'x, y, z'
loop_
 _atom_site_type_symbol
 _atom_site_label
 _atom_site_symmetry_multiplicity
 _atom_site_fract_x
 _atom_site_fract_y
 _atom_site_fract_z
 _atom_site_occupancy
  Ho  Ho0  1  0.683226  0.183226  0.000000  1
  Ho  Ho1  1  0.316947  0.816947  0.000000  1
  Ho  Ho2  1  0.816680  0.683192  0.000000  1
  Ho  Ho3  1  0.183192  0.316680  0.000000  1
  Ga  Ga4  1  0.938030  0.206830  0.293432  1
  Ga  Ga5  1  0.706830  0.438030  0.293432  1
  Ga  Ga6  1  0.500657  0.000657  0.284866  1
  Ga  Ga7  1  0.561397  0.706863  0.707088  1
  Ga  Ga8  1  0.293524  0.561065  0.707049  1
  Ga  Ga9  1  0.792681  0.939124  0.293104  1
  Ga  Ga10  1  0.938030  0.206830  0.706568  1
  Ga  Ga11  1  0.293524  0.561065  0.292951  1
  Ga  Ga12  1  0.061065  0.793524  0.292951  1
  Ga  Ga13  1  0.706830  0.438030  0.706568  1
  Ga  Ga14  1  0.439124  0.292681  0.706896  1
  Ga  Ga15  1  0.061065  0.793524  0.707049  1
  Ga  Ga16  1  0.206863  0.061397  0.707088  1
  Ga  Ga17  1  0.792681  0.939124  0.706896  1
  Ga  Ga18  1  0.206863  0.061397  0.292912  1
  Ga  Ga19  1  0.999877  0.499877  0.715192  1
  Ga  Ga20  1  0.999877  0.499877  0.284808  1
  Ga  Ga21  1  0.561397  0.706863  0.292912  1
  Ga  Ga22  1  0.439124  0.292681  0.293104  1
  Ga  Ga23  1  0.500657  0.000657  0.715134  1
  Os  Os24  1  0.821748  0.678334  0.500000  1
  Os  Os25  1  0.178334  0.321748  0.500000  1
  Os  Os26  1  0.000245  0.999812  0.000000  1
  Os  Os27  1  0.321643  0.821643  0.500000  1
  Os  Os28  1  0.499812  0.500245  0.000000  1
  Ru  Ru29  1  0.678078  0.178078  0.500000  1
