# generated using pymatgen
data_Tb3Sm13(PaRh4)4
_symmetry_space_group_name_H-M   'P 1'
_cell_length_a   7.52883932
_cell_length_b   7.57393840
_cell_length_c   14.62465562
_cell_angle_alpha   89.86462579
_cell_angle_beta   89.80183980
_cell_angle_gamma   89.78025591
_symmetry_Int_Tables_number   1
_chemical_formula_structural   Tb3Sm13(PaRh4)4
_chemical_formula_sum   'Tb3 Sm13 Pa4 Rh16'
_cell_volume   833.92780611
_cell_formula_units_Z   1
loop_
 _symmetry_equiv_pos_site_id
 _symmetry_equiv_pos_as_xyz
  1  'x, y, z'
loop_
 _atom_site_type_symbol
 _atom_site_label
 _atom_site_symmetry_multiplicity
 _atom_site_fract_x
 _atom_site_fract_y
 _atom_site_fract_z
 _atom_site_occupancy
  Tb  Tb0  1  0.662356  0.159981  0.620905  1
  Tb  Tb1  1  0.161091  0.340444  0.880328  1
  Tb  Tb2  1  0.340125  0.841627  0.121063  1
  Sm  Sm3  1  0.163604  0.339904  0.620239  1
  Sm  Sm4  1  0.507035  0.681531  0.593652  1
  Sm  Sm5  1  0.013794  0.822497  0.907326  1
  Sm  Sm6  1  0.489716  0.320501  0.088120  1
  Sm  Sm7  1  0.991018  0.180895  0.407500  1
  Sm  Sm8  1  0.491696  0.319067  0.409463  1
  Sm  Sm9  1  0.992873  0.182753  0.092249  1
  Sm  Sm10  1  0.508352  0.679842  0.907060  1
  Sm  Sm11  1  0.007236  0.818932  0.592127  1
  Sm  Sm12  1  0.824937  0.513785  0.749403  1
  Sm  Sm13  1  0.312061  0.990209  0.748452  1
  Sm  Sm14  1  0.191434  0.480591  0.249162  1
  Sm  Sm15  1  0.680846  0.021781  0.247173  1
  Pa  Pa16  1  0.837908  0.657411  0.377121  1
  Pa  Pa17  1  0.340250  0.844337  0.376527  1
  Pa  Pa18  1  0.841800  0.655593  0.121189  1
  Pa  Pa19  1  0.661596  0.156252  0.876767  1
  Rh  Rh20  1  0.680672  0.943314  0.453762  1
  Rh  Rh21  1  0.156171  0.544530  0.047114  1
  Rh  Rh22  1  0.352090  0.045091  0.954223  1
  Rh  Rh23  1  0.813561  0.473525  0.528440  1
  Rh  Rh24  1  0.317463  0.025315  0.529366  1
  Rh  Rh25  1  0.802363  0.455626  0.969447  1
  Rh  Rh26  1  0.704005  0.949765  0.034760  1
  Rh  Rh27  1  0.176065  0.562356  0.452877  1
  Rh  Rh28  1  0.470734  0.367869  0.759988  1
  Rh  Rh29  1  0.938767  0.127523  0.760125  1
  Rh  Rh30  1  0.546605  0.643669  0.258330  1
  Rh  Rh31  1  0.030678  0.855546  0.252630  1
  Rh  Rh32  1  0.679162  0.866011  0.755288  1
  Rh  Rh33  1  0.207194  0.632155  0.750417  1
  Rh  Rh34  1  0.294846  0.112978  0.258887  1
  Rh  Rh35  1  0.809900  0.386793  0.248520  1
