# generated using pymatgen
data_YbEr2(GeRh2)3
_symmetry_space_group_name_H-M   'P 1'
_cell_length_a   5.60900600
_cell_length_b   5.60900627
_cell_length_c   15.45274900
_cell_angle_alpha   90.00000000
_cell_angle_beta   90.00000000
_cell_angle_gamma   119.99999840
_symmetry_Int_Tables_number   1
_chemical_formula_structural   YbEr2(GeRh2)3
_chemical_formula_sum   'Yb2 Er4 Ge6 Rh12'
_cell_volume   421.02532455
_cell_formula_units_Z   2
loop_
 _symmetry_equiv_pos_site_id
 _symmetry_equiv_pos_as_xyz
  1  'x, y, z'
loop_
 _atom_site_type_symbol
 _atom_site_label
 _atom_site_symmetry_multiplicity
 _atom_site_fract_x
 _atom_site_fract_y
 _atom_site_fract_z
 _atom_site_occupancy
  Yb  Yb0  1  0.333333  0.666667  0.750000  1
  Yb  Yb1  1  0.666667  0.333333  0.250000  1
  Er  Er2  1  0.333333  0.666667  0.541454  1
  Er  Er3  1  0.666667  0.333333  0.458546  1
  Er  Er4  1  0.666667  0.333333  0.041454  1
  Er  Er5  1  0.333333  0.666667  0.958546  1
  Ge  Ge6  1  0.000000  0.000000  0.250000  1
  Ge  Ge7  1  0.000000  0.000000  0.750000  1
  Ge  Ge8  1  0.333333  0.666667  0.250000  1
  Ge  Ge9  1  0.666667  0.333333  0.750000  1
  Ge  Ge10  1  0.000000  0.000000  0.000000  1
  Ge  Ge11  1  0.000000  0.000000  0.500000  1
  Rh  Rh12  1  0.168778  0.337556  0.125735  1
  Rh  Rh13  1  0.831222  0.662444  0.874265  1
  Rh  Rh14  1  0.662444  0.831222  0.125735  1
  Rh  Rh15  1  0.831222  0.662444  0.625735  1
  Rh  Rh16  1  0.337556  0.168778  0.874265  1
  Rh  Rh17  1  0.168778  0.337556  0.374265  1
  Rh  Rh18  1  0.168778  0.831222  0.125735  1
  Rh  Rh19  1  0.337556  0.168778  0.625735  1
  Rh  Rh20  1  0.831222  0.168778  0.874265  1
  Rh  Rh21  1  0.662444  0.831222  0.374265  1
  Rh  Rh22  1  0.831222  0.168778  0.625735  1
  Rh  Rh23  1  0.168778  0.831222  0.374265  1
