# generated using pymatgen
data_Tm7Lu9Cd3AgIr4
_symmetry_space_group_name_H-M   'P 1'
_cell_length_a   9.49664213
_cell_length_b   9.49664142
_cell_length_c   9.49977077
_cell_angle_alpha   59.43346811
_cell_angle_beta   59.43346405
_cell_angle_gamma   59.47436861
_symmetry_Int_Tables_number   1
_chemical_formula_structural   Tm7Lu9Cd3AgIr4
_chemical_formula_sum   'Tm7 Lu9 Cd3 Ag1 Ir4'
_cell_volume   598.19212390
_cell_formula_units_Z   1
loop_
 _symmetry_equiv_pos_site_id
 _symmetry_equiv_pos_as_xyz
  1  'x, y, z'
loop_
 _atom_site_type_symbol
 _atom_site_label
 _atom_site_symmetry_multiplicity
 _atom_site_fract_x
 _atom_site_fract_y
 _atom_site_fract_z
 _atom_site_occupancy
  Tm  Tm0  1  0.059805  0.059805  0.436540  1
  Tm  Tm1  1  0.187884  0.809701  0.810635  1
  Tm  Tm2  1  0.810556  0.186809  0.186564  1
  Tm  Tm3  1  0.809701  0.187884  0.810635  1
  Tm  Tm4  1  0.186809  0.810556  0.186564  1
  Tm  Tm5  1  0.809619  0.809619  0.188543  1
  Tm  Tm6  1  0.186446  0.186446  0.811232  1
  Lu  Lu7  1  0.600575  0.600575  0.600919  1
  Lu  Lu8  1  0.600181  0.600181  0.202644  1
  Lu  Lu9  1  0.599461  0.203739  0.600078  1
  Lu  Lu10  1  0.203739  0.599461  0.600078  1
  Lu  Lu11  1  0.060166  0.439158  0.439082  1
  Lu  Lu12  1  0.436624  0.059887  0.059678  1
  Lu  Lu13  1  0.439158  0.060166  0.439082  1
  Lu  Lu14  1  0.059887  0.436624  0.059678  1
  Lu  Lu15  1  0.438726  0.438726  0.060473  1
  Cd  Cd16  1  0.832132  0.832132  0.507389  1
  Cd  Cd17  1  0.832075  0.507388  0.831843  1
  Cd  Cd18  1  0.507388  0.832075  0.831843  1
  Ag  Ag19  1  0.833358  0.833358  0.832381  1
  Ir  Ir20  1  0.391753  0.391753  0.392389  1
  Ir  Ir21  1  0.393875  0.393875  0.825186  1
  Ir  Ir22  1  0.395179  0.824898  0.393268  1
  Ir  Ir23  1  0.824898  0.395179  0.393268  1
