# generated using pymatgen
data_Ca13Pr7Si15P
_symmetry_space_group_name_H-M   'P 1'
_cell_length_a   7.96339301
_cell_length_b   7.99079210
_cell_length_c   15.14427800
_cell_angle_alpha   90.21015260
_cell_angle_beta   89.99663998
_cell_angle_gamma   90.13851253
_symmetry_Int_Tables_number   1
_chemical_formula_structural   Ca13Pr7Si15P
_chemical_formula_sum   'Ca13 Pr7 Si15 P1'
_cell_volume   963.67892983
_cell_formula_units_Z   1
loop_
 _symmetry_equiv_pos_site_id
 _symmetry_equiv_pos_as_xyz
  1  'x, y, z'
loop_
 _atom_site_type_symbol
 _atom_site_label
 _atom_site_symmetry_multiplicity
 _atom_site_fract_x
 _atom_site_fract_y
 _atom_site_fract_z
 _atom_site_occupancy
  Ca  Ca0  1  0.306433  0.307451  0.999124  1
  Ca  Ca1  1  0.187909  0.809320  0.249025  1
  Ca  Ca2  1  0.815535  0.187254  0.752423  1
  Ca  Ca3  1  0.690282  0.689366  0.500518  1
  Ca  Ca4  1  0.378256  0.006360  0.447277  1
  Ca  Ca5  1  0.494839  0.877030  0.703120  1
  Ca  Ca6  1  0.509002  0.123640  0.200105  1
  Ca  Ca7  1  0.873218  0.489265  0.297451  1
  Ca  Ca8  1  0.124200  0.511774  0.799709  1
  Ca  Ca9  1  0.624224  0.986944  0.951074  1
  Ca  Ca10  1  0.007450  0.378060  0.549252  1
  Ca  Ca11  1  0.990294  0.624973  0.047282  1
  Ca  Ca12  1  0.131721  0.984244  0.875345  1
  Pr  Pr13  1  0.511197  0.627962  0.123561  1
  Pr  Pr14  1  0.485675  0.368451  0.627043  1
  Pr  Pr15  1  0.627513  0.513443  0.873027  1
  Pr  Pr16  1  0.370622  0.487671  0.375266  1
  Pr  Pr17  1  0.872801  0.012457  0.375868  1
  Pr  Pr18  1  0.985863  0.127252  0.123202  1
  Pr  Pr19  1  0.016386  0.876937  0.626459  1
  Si  Si20  1  0.344462  0.705829  0.945981  1
  Si  Si21  1  0.656821  0.294167  0.448001  1
  Si  Si22  1  0.703408  0.341598  0.051005  1
  Si  Si23  1  0.295402  0.658390  0.555292  1
  Si  Si24  1  0.794242  0.841991  0.197712  1
  Si  Si25  1  0.157206  0.204660  0.302257  1
  Si  Si26  1  0.839282  0.798802  0.801909  1
  Si  Si27  1  0.277413  0.914207  0.057134  1
  Si  Si28  1  0.583722  0.777777  0.307854  1
  Si  Si29  1  0.414707  0.219245  0.807892  1
  Si  Si30  1  0.781657  0.584623  0.690879  1
  Si  Si31  1  0.219871  0.415061  0.192682  1
  Si  Si32  1  0.721711  0.084976  0.558855  1
  Si  Si33  1  0.917837  0.284563  0.941099  1
  Si  Si34  1  0.084380  0.722166  0.444104  1
  P  P35  1  0.204460  0.162092  0.701217  1
