# generated using pymatgen
data_Dy2Ga7Ni2Pd
_symmetry_space_group_name_H-M   'P 1'
_cell_length_a   4.11719990
_cell_length_b   6.45308394
_cell_length_c   7.90564295
_cell_angle_alpha   90.83166097
_cell_angle_beta   105.09357382
_cell_angle_gamma   90.00000145
_symmetry_Int_Tables_number   1
_chemical_formula_structural   Dy2Ga7Ni2Pd
_chemical_formula_sum   'Dy2 Ga7 Ni2 Pd1'
_cell_volume   202.77316969
_cell_formula_units_Z   1
loop_
 _symmetry_equiv_pos_site_id
 _symmetry_equiv_pos_as_xyz
  1  'x, y, z'
loop_
 _atom_site_type_symbol
 _atom_site_label
 _atom_site_symmetry_multiplicity
 _atom_site_fract_x
 _atom_site_fract_y
 _atom_site_fract_z
 _atom_site_occupancy
  Dy  Dy0  1  0.375303  0.762685  0.750606  1
  Dy  Dy1  1  0.624697  0.237315  0.249394  1
  Ga  Ga2  1  0.000000  0.000000  0.000000  1
  Ga  Ga3  1  0.566363  0.718322  0.132727  1
  Ga  Ga4  1  0.433637  0.281678  0.867273  1
  Ga  Ga5  1  0.180624  0.545242  0.361248  1
  Ga  Ga6  1  0.819376  0.454758  0.638752  1
  Ga  Ga7  1  0.185246  0.945244  0.370492  1
  Ga  Ga8  1  0.814754  0.054756  0.629508  1
  Ni  Ni9  1  0.721600  0.747840  0.443200  1
  Ni  Ni10  1  0.278400  0.252160  0.556800  1
  Pd  Pd11  1  0.000000  0.500000  0.000000  1
