# generated using pymatgen
data_CePa2(ZnPd)3
_symmetry_space_group_name_H-M   'P 1'
_cell_length_a   7.23658000
_cell_length_b   7.27045080
_cell_length_c   3.96874000
_cell_angle_alpha   90.00000000
_cell_angle_beta   90.00000000
_cell_angle_gamma   119.84600187
_symmetry_Int_Tables_number   1
_chemical_formula_structural   CePa2(ZnPd)3
_chemical_formula_sum   'Ce1 Pa2 Zn3 Pd3'
_cell_volume   181.11308601
_cell_formula_units_Z   1
loop_
 _symmetry_equiv_pos_site_id
 _symmetry_equiv_pos_as_xyz
  1  'x, y, z'
loop_
 _atom_site_type_symbol
 _atom_site_label
 _atom_site_symmetry_multiplicity
 _atom_site_fract_x
 _atom_site_fract_y
 _atom_site_fract_z
 _atom_site_occupancy
  Ce  Ce0  1  0.411036  0.000000  0.000000  1
  Pa  Pa1  1  0.000925  0.412110  0.000000  1
  Pa  Pa2  1  0.588815  0.587890  0.000000  1
  Zn  Zn3  1  0.001585  0.755739  0.500000  1
  Zn  Zn4  1  0.245845  0.244261  0.500000  1
  Zn  Zn5  1  0.751574  0.000000  0.500000  1
  Pd  Pd6  1  0.991455  0.000000  0.000000  1
  Pd  Pd7  1  0.676948  0.345130  0.500000  1
  Pd  Pd8  1  0.331818  0.654870  0.500000  1
