# generated using pymatgen
data_CaSm(As2Rh3)2
_symmetry_space_group_name_H-M   'P 1'
_cell_length_a   4.07392300
_cell_length_b   11.62322344
_cell_length_c   13.27507300
_cell_angle_alpha   90.13536207
_cell_angle_beta   90.00000000
_cell_angle_gamma   90.00000000
_symmetry_Int_Tables_number   1
_chemical_formula_structural   CaSm(As2Rh3)2
_chemical_formula_sum   'Ca3 Sm3 As12 Rh18'
_cell_volume   628.60105954
_cell_formula_units_Z   3
loop_
 _symmetry_equiv_pos_site_id
 _symmetry_equiv_pos_as_xyz
  1  'x, y, z'
loop_
 _atom_site_type_symbol
 _atom_site_label
 _atom_site_symmetry_multiplicity
 _atom_site_fract_x
 _atom_site_fract_y
 _atom_site_fract_z
 _atom_site_occupancy
  Ca  Ca0  1  0.000000  0.499125  0.520837  1
  Ca  Ca1  1  0.500000  0.000377  0.478412  1
  Ca  Ca2  1  0.500000  0.816504  0.205194  1
  Sm  Sm3  1  0.500000  0.183731  0.204610  1
  Sm  Sm4  1  0.000000  0.684022  0.794431  1
  Sm  Sm5  1  0.000000  0.314035  0.796289  1
  As  As6  1  0.500000  0.501040  0.878143  1
  As  As7  1  0.000000  0.998326  0.122660  1
  As  As8  1  0.500000  0.500615  0.346512  1
  As  As9  1  0.000000  0.000493  0.653614  1
  As  As10  1  0.500000  0.314522  0.618126  1
  As  As11  1  0.500000  0.688620  0.617224  1
  As  As12  1  0.000000  0.187463  0.381848  1
  As  As13  1  0.000000  0.813695  0.380597  1
  As  As14  1  0.500000  0.847537  0.892325  1
  As  As15  1  0.500000  0.149223  0.891757  1
  As  As16  1  0.000000  0.652043  0.109884  1
  As  As17  1  0.000000  0.349204  0.108101  1
  Rh  Rh18  1  0.500000  0.493699  0.162948  1
  Rh  Rh19  1  0.000000  0.004050  0.837300  1
  Rh  Rh20  1  0.500000  0.502143  0.698645  1
  Rh  Rh21  1  0.000000  0.001393  0.301611  1
  Rh  Rh22  1  0.000000  0.500009  0.979809  1
  Rh  Rh23  1  0.500000  0.999458  0.020230  1
  Rh  Rh24  1  0.500000  0.332778  0.990911  1
  Rh  Rh25  1  0.500000  0.666154  0.994799  1
  Rh  Rh26  1  0.000000  0.166625  0.009176  1
  Rh  Rh27  1  0.000000  0.832707  0.004924  1
  Rh  Rh28  1  0.500000  0.293379  0.430092  1
  Rh  Rh29  1  0.500000  0.706967  0.430157  1
  Rh  Rh30  1  0.000000  0.207734  0.569608  1
  Rh  Rh31  1  0.000000  0.793709  0.568694  1
  Rh  Rh32  1  0.500000  0.876091  0.708968  1
  Rh  Rh33  1  0.500000  0.125115  0.707533  1
  Rh  Rh34  1  0.000000  0.622997  0.293236  1
  Rh  Rh35  1  0.000000  0.374414  0.290794  1
