# generated using pymatgen
data_Er3In3HgIr2
_symmetry_space_group_name_H-M   'P 1'
_cell_length_a   7.79074800
_cell_length_b   7.79074654
_cell_length_c   3.82036400
_cell_angle_alpha   90.00000000
_cell_angle_beta   90.00000000
_cell_angle_gamma   120.00000619
_symmetry_Int_Tables_number   1
_chemical_formula_structural   Er3In3HgIr2
_chemical_formula_sum   'Er3 In3 Hg1 Ir2'
_cell_volume   200.81381235
_cell_formula_units_Z   1
loop_
 _symmetry_equiv_pos_site_id
 _symmetry_equiv_pos_as_xyz
  1  'x, y, z'
loop_
 _atom_site_type_symbol
 _atom_site_label
 _atom_site_symmetry_multiplicity
 _atom_site_fract_x
 _atom_site_fract_y
 _atom_site_fract_z
 _atom_site_occupancy
  Er  Er0  1  0.616877  0.031879  0.500000  1
  Er  Er1  1  0.415002  0.383123  0.500000  1
  Er  Er2  1  0.968121  0.584998  0.500000  1
  In  In3  1  0.998348  0.256575  0.000000  1
  In  In4  1  0.743425  0.741774  0.000000  1
  In  In5  1  0.258226  0.001652  0.000000  1
  Hg  Hg6  1  0.333333  0.666667  0.000000  1
  Ir  Ir7  1  0.666667  0.333333  0.000000  1
  Ir  Ir8  1  0.000000  0.000000  0.500000  1
