# generated using pymatgen
data_Tm6Lu4Sn5Sb
_symmetry_space_group_name_H-M   'P 1'
_cell_length_a   8.81796004
_cell_length_b   8.81796061
_cell_length_c   6.37177200
_cell_angle_alpha   90.00000000
_cell_angle_beta   90.00000000
_cell_angle_gamma   119.98884831
_symmetry_Int_Tables_number   1
_chemical_formula_structural   Tm6Lu4Sn5Sb
_chemical_formula_sum   'Tm6 Lu4 Sn5 Sb1'
_cell_volume   429.11720893
_cell_formula_units_Z   1
loop_
 _symmetry_equiv_pos_site_id
 _symmetry_equiv_pos_as_xyz
  1  'x, y, z'
loop_
 _atom_site_type_symbol
 _atom_site_label
 _atom_site_symmetry_multiplicity
 _atom_site_fract_x
 _atom_site_fract_y
 _atom_site_fract_z
 _atom_site_occupancy
  Tm  Tm0  1  0.761728  0.761728  0.750000  1
  Tm  Tm1  1  0.238410  0.999037  0.750000  1
  Tm  Tm2  1  0.999037  0.238410  0.750000  1
  Tm  Tm3  1  0.238738  0.238738  0.250000  1
  Tm  Tm4  1  0.761398  0.000318  0.250000  1
  Tm  Tm5  1  0.000318  0.761398  0.250000  1
  Lu  Lu6  1  0.667011  0.333168  0.000049  1
  Lu  Lu7  1  0.333168  0.667011  0.000049  1
  Lu  Lu8  1  0.333168  0.667011  0.499951  1
  Lu  Lu9  1  0.667011  0.333168  0.499951  1
  Sn  Sn10  1  0.604089  0.999834  0.750000  1
  Sn  Sn11  1  0.999834  0.604089  0.750000  1
  Sn  Sn12  1  0.604711  0.604711  0.250000  1
  Sn  Sn13  1  0.395780  0.000399  0.250000  1
  Sn  Sn14  1  0.000399  0.395780  0.250000  1
  Sb  Sb15  1  0.395200  0.395200  0.750000  1
