# generated using pymatgen
data_Y5Ho3Si8Pd5Pt3
_symmetry_space_group_name_H-M   'P 1'
_cell_length_a   4.30835900
_cell_length_b   7.47633187
_cell_length_c   14.02341205
_cell_angle_alpha   90.02296961
_cell_angle_beta   90.00000000
_cell_angle_gamma   90.00000000
_symmetry_Int_Tables_number   1
_chemical_formula_structural   Y5Ho3Si8Pd5Pt3
_chemical_formula_sum   'Y5 Ho3 Si8 Pd5 Pt3'
_cell_volume   451.70418607
_cell_formula_units_Z   1
loop_
 _symmetry_equiv_pos_site_id
 _symmetry_equiv_pos_as_xyz
  1  'x, y, z'
loop_
 _atom_site_type_symbol
 _atom_site_label
 _atom_site_symmetry_multiplicity
 _atom_site_fract_x
 _atom_site_fract_y
 _atom_site_fract_z
 _atom_site_occupancy
  Y  Y0  1  0.000000  0.206620  0.249947  1
  Y  Y1  1  0.500000  0.708840  0.999792  1
  Y  Y2  1  0.000000  0.291383  0.500036  1
  Y  Y3  1  0.500000  0.702700  0.500319  1
  Y  Y4  1  0.000000  0.298622  0.999978  1
  Ho  Ho5  1  0.500000  0.793145  0.750089  1
  Ho  Ho6  1  0.000000  0.206832  0.750125  1
  Ho  Ho7  1  0.500000  0.791582  0.250474  1
  Si  Si8  1  0.500000  0.406686  0.643804  1
  Si  Si9  1  0.000000  0.593319  0.856062  1
  Si  Si10  1  0.500000  0.407077  0.356190  1
  Si  Si11  1  0.000000  0.591714  0.144774  1
  Si  Si12  1  0.500000  0.091731  0.093637  1
  Si  Si13  1  0.000000  0.910271  0.406895  1
  Si  Si14  1  0.500000  0.089132  0.908467  1
  Si  Si15  1  0.000000  0.910622  0.592878  1
  Pd  Pd16  1  0.000000  0.922949  0.107084  1
  Pd  Pd17  1  0.500000  0.422282  0.156843  1
  Pd  Pd18  1  0.000000  0.580001  0.342449  1
  Pd  Pd19  1  0.500000  0.420992  0.842871  1
  Pd  Pd20  1  0.000000  0.578792  0.657585  1
  Pt  Pt21  1  0.500000  0.075041  0.609634  1
  Pt  Pt22  1  0.000000  0.925028  0.889754  1
  Pt  Pt23  1  0.500000  0.074641  0.390310  1
