# generated using pymatgen
data_Tb4Dy16IrRu11
_symmetry_space_group_name_H-M   'P 1'
_cell_length_a   10.82865685
_cell_length_b   10.82978109
_cell_length_c   6.38423906
_cell_angle_alpha   89.97012896
_cell_angle_beta   89.97258754
_cell_angle_gamma   90.00631787
_symmetry_Int_Tables_number   1
_chemical_formula_structural   Tb4Dy16IrRu11
_chemical_formula_sum   'Tb4 Dy16 Ir1 Ru11'
_cell_volume   748.69218448
_cell_formula_units_Z   1
loop_
 _symmetry_equiv_pos_site_id
 _symmetry_equiv_pos_as_xyz
  1  'x, y, z'
loop_
 _atom_site_type_symbol
 _atom_site_label
 _atom_site_symmetry_multiplicity
 _atom_site_fract_x
 _atom_site_fract_y
 _atom_site_fract_z
 _atom_site_occupancy
  Tb  Tb0  1  0.291962  0.087119  0.377427  1
  Tb  Tb1  1  0.291946  0.913774  0.877724  1
  Tb  Tb2  1  0.708230  0.087259  0.877476  1
  Tb  Tb3  1  0.708212  0.912843  0.377462  1
  Dy  Dy4  1  0.587173  0.792376  0.877705  1
  Dy  Dy5  1  0.586952  0.207526  0.377430  1
  Dy  Dy6  1  0.413387  0.792773  0.377427  1
  Dy  Dy7  1  0.413023  0.208279  0.877692  1
  Dy  Dy8  1  0.207341  0.412905  0.622407  1
  Dy  Dy9  1  0.206948  0.586561  0.122653  1
  Dy  Dy10  1  0.792753  0.413119  0.122654  1
  Dy  Dy11  1  0.792008  0.586909  0.622415  1
  Dy  Dy12  1  0.913225  0.707625  0.122308  1
  Dy  Dy13  1  0.913060  0.292186  0.622255  1
  Dy  Dy14  1  0.085966  0.707612  0.622054  1
  Dy  Dy15  1  0.086823  0.292222  0.122300  1
  Dy  Dy16  1  0.000071  0.000163  0.500034  1
  Dy  Dy17  1  0.999824  0.999929  0.999980  1
  Dy  Dy18  1  0.501181  0.499429  0.000950  1
  Dy  Dy19  1  0.500569  0.498817  0.499156  1
  Ir  Ir20  1  0.346407  0.653389  0.749860  1
  Ru  Ru21  1  0.847315  0.153098  0.250269  1
  Ru  Ru22  1  0.847272  0.846697  0.750045  1
  Ru  Ru23  1  0.152891  0.153135  0.750485  1
  Ru  Ru24  1  0.153488  0.846124  0.250254  1
  Ru  Ru25  1  0.652681  0.347464  0.749902  1
  Ru  Ru26  1  0.652082  0.652910  0.250133  1
  Ru  Ru27  1  0.346933  0.348056  0.249685  1
  Ru  Ru28  1  0.500039  0.999589  0.124200  1
  Ru  Ru29  1  0.499981  0.000154  0.624756  1
  Ru  Ru30  1  0.999851  0.500002  0.875178  1
  Ru  Ru31  1  0.000404  0.499955  0.375723  1
