# generated using pymatgen
data_Zr4V3Zn3Rh2
_symmetry_space_group_name_H-M   'P 1'
_cell_length_a   5.19632000
_cell_length_b   5.19632126
_cell_length_c   8.58902700
_cell_angle_alpha   90.00000000
_cell_angle_beta   90.00000000
_cell_angle_gamma   120.00000473
_symmetry_Int_Tables_number   1
_chemical_formula_structural   Zr4V3Zn3Rh2
_chemical_formula_sum   'Zr4 V3 Zn3 Rh2'
_cell_volume   200.84751369
_cell_formula_units_Z   1
loop_
 _symmetry_equiv_pos_site_id
 _symmetry_equiv_pos_as_xyz
  1  'x, y, z'
loop_
 _atom_site_type_symbol
 _atom_site_label
 _atom_site_symmetry_multiplicity
 _atom_site_fract_x
 _atom_site_fract_y
 _atom_site_fract_z
 _atom_site_occupancy
  Zr  Zr0  1  0.333333  0.666667  0.445178  1
  Zr  Zr1  1  0.666667  0.333333  0.563832  1
  Zr  Zr2  1  0.666667  0.333333  0.936168  1
  Zr  Zr3  1  0.333333  0.666667  0.054822  1
  V  V4  1  0.173795  0.826205  0.750000  1
  V  V5  1  0.173795  0.347591  0.750000  1
  V  V6  1  0.652409  0.826205  0.750000  1
  Zn  Zn7  1  0.830993  0.169007  0.250000  1
  Zn  Zn8  1  0.830993  0.661985  0.250000  1
  Zn  Zn9  1  0.338015  0.169007  0.250000  1
  Rh  Rh10  1  0.000000  0.000000  0.504429  1
  Rh  Rh11  1  0.000000  0.000000  0.995571  1
