# generated using pymatgen
data_YHo5CoCl10
_symmetry_space_group_name_H-M   'P 1'
_cell_length_a   7.06602057
_cell_length_b   8.70536629
_cell_length_c   8.86719346
_cell_angle_alpha   108.59927156
_cell_angle_beta   96.80558292
_cell_angle_gamma   105.63036183
_symmetry_Int_Tables_number   1
_chemical_formula_structural   YHo5CoCl10
_chemical_formula_sum   'Y1 Ho5 Co1 Cl10'
_cell_volume   485.18882318
_cell_formula_units_Z   1
loop_
 _symmetry_equiv_pos_site_id
 _symmetry_equiv_pos_as_xyz
  1  'x, y, z'
loop_
 _atom_site_type_symbol
 _atom_site_label
 _atom_site_symmetry_multiplicity
 _atom_site_fract_x
 _atom_site_fract_y
 _atom_site_fract_z
 _atom_site_occupancy
  Y  Y0  1  0.366701  0.945388  0.245369  1
  Ho  Ho1  1  0.861921  0.138310  0.187001  1
  Ho  Ho2  1  0.137626  0.861717  0.814054  1
  Ho  Ho3  1  0.530479  0.705125  0.905459  1
  Ho  Ho4  1  0.469331  0.294602  0.093256  1
  Ho  Ho5  1  0.632956  0.054380  0.757392  1
  Co  Co6  1  0.499758  0.999699  0.000195  1
  Cl  Cl7  1  0.742762  0.082883  0.455247  1
  Cl  Cl8  1  0.260379  0.918327  0.548032  1
  Cl  Cl9  1  0.950036  0.824928  0.076282  1
  Cl  Cl10  1  0.048034  0.174268  0.922435  1
  Cl  Cl11  1  0.283214  0.251281  0.338970  1
  Cl  Cl12  1  0.715920  0.751614  0.659691  1
  Cl  Cl13  1  0.589433  0.373222  0.836453  1
  Cl  Cl14  1  0.411921  0.624230  0.160881  1
  Cl  Cl15  1  0.844630  0.451070  0.274976  1
  Cl  Cl16  1  0.154899  0.548958  0.724306  1
