# generated using pymatgen
data_U2Be23Au3
_symmetry_space_group_name_H-M   'P 1'
_cell_length_a   7.43883500
_cell_length_b   7.43862315
_cell_length_c   7.57323543
_cell_angle_alpha   119.41293976
_cell_angle_beta   90.00205923
_cell_angle_gamma   119.99863041
_symmetry_Int_Tables_number   1
_chemical_formula_structural   U2Be23Au3
_chemical_formula_sum   'U2 Be23 Au3'
_cell_volume   298.92515171
_cell_formula_units_Z   1
loop_
 _symmetry_equiv_pos_site_id
 _symmetry_equiv_pos_as_xyz
  1  'x, y, z'
loop_
 _atom_site_type_symbol
 _atom_site_label
 _atom_site_symmetry_multiplicity
 _atom_site_fract_x
 _atom_site_fract_y
 _atom_site_fract_z
 _atom_site_occupancy
  U  U0  1  0.758635  0.517276  0.275924  1
  U  U1  1  0.244976  0.489944  0.734922  1
  Be  Be2  1  0.996622  0.993248  0.989870  1
  Be  Be3  1  0.574298  0.795716  0.233654  1
  Be  Be4  1  0.437961  0.012267  0.233665  1
  Be  Be5  1  0.221406  0.659355  0.233651  1
  Be  Be6  1  0.942550  0.014477  0.310695  1
  Be  Be7  1  0.296223  0.238755  0.310682  1
  Be  Be8  1  0.071926  0.368155  0.310690  1
  Be  Be9  1  0.790613  0.229924  0.444643  1
  Be  Be10  1  0.214713  0.005306  0.444644  1
  Be  Be11  1  0.439336  0.654055  0.444642  1
  Be  Be12  1  0.500869  0.001738  0.502606  1
  Be  Be13  1  0.789673  0.004114  0.564148  1
  Be  Be14  1  0.560044  0.349707  0.564160  1
  Be  Be15  1  0.214441  0.774488  0.564154  1
  Be  Be16  1  0.053196  0.989226  0.692181  1
  Be  Be17  1  0.936022  0.638989  0.692176  1
  Be  Be18  1  0.702947  0.756143  0.692183  1
  Be  Be19  1  0.558747  0.992765  0.767706  1
  Be  Be20  1  0.434002  0.208931  0.767695  1
  Be  Be21  1  0.774935  0.333695  0.767707  1
  Be  Be22  1  0.944055  0.254016  0.932533  1
  Be  Be23  1  0.678522  0.622576  0.932549  1
  Be  Be24  1  0.309955  0.988476  0.932543  1
  Au  Au25  1  0.695112  0.006638  0.053319  1
  Au  Au26  1  0.046686  0.741801  0.053333  1
  Au  Au27  1  0.311535  0.358224  0.053324  1
