# generated using pymatgen
data_Y10Al4SiGeC8
_symmetry_space_group_name_H-M   'P 1'
_cell_length_a   10.78503700
_cell_length_b   10.78503700
_cell_length_c   3.52884200
_cell_angle_alpha   90.00000000
_cell_angle_beta   90.00000000
_cell_angle_gamma   90.00000000
_symmetry_Int_Tables_number   1
_chemical_formula_structural   Y10Al4SiGeC8
_chemical_formula_sum   'Y10 Al4 Si1 Ge1 C8'
_cell_volume   410.46439640
_cell_formula_units_Z   1
loop_
 _symmetry_equiv_pos_site_id
 _symmetry_equiv_pos_as_xyz
  1  'x, y, z'
loop_
 _atom_site_type_symbol
 _atom_site_label
 _atom_site_symmetry_multiplicity
 _atom_site_fract_x
 _atom_site_fract_y
 _atom_site_fract_z
 _atom_site_occupancy
  Y  Y0  1  0.551436  0.725765  0.500000  1
  Y  Y1  1  0.448564  0.274235  0.500000  1
  Y  Y2  1  0.051056  0.775676  0.500000  1
  Y  Y3  1  0.948944  0.224324  0.500000  1
  Y  Y4  1  0.274235  0.551436  0.500000  1
  Y  Y5  1  0.725765  0.448564  0.500000  1
  Y  Y6  1  0.224324  0.051056  0.500000  1
  Y  Y7  1  0.775676  0.948944  0.500000  1
  Y  Y8  1  0.500000  0.000000  0.000000  1
  Y  Y9  1  0.000000  0.500000  0.000000  1
  Al  Al10  1  0.703940  0.203353  0.000000  1
  Al  Al11  1  0.296060  0.796647  0.000000  1
  Al  Al12  1  0.203353  0.296060  0.000000  1
  Al  Al13  1  0.796647  0.703940  0.000000  1
  Si  Si14  1  0.000000  0.000000  0.000000  1
  Ge  Ge15  1  0.500000  0.500000  0.000000  1
  C  C16  1  0.634046  0.134412  0.500000  1
  C  C17  1  0.365954  0.865588  0.500000  1
  C  C18  1  0.134412  0.365954  0.500000  1
  C  C19  1  0.865588  0.634046  0.500000  1
  C  C20  1  0.163426  0.663202  0.000000  1
  C  C21  1  0.836574  0.336798  0.000000  1
  C  C22  1  0.663202  0.836574  0.000000  1
  C  C23  1  0.336798  0.163426  0.000000  1
