# generated using pymatgen
data_Pr16MgCd3Co2IrOs
_symmetry_space_group_name_H-M   'P 1'
_cell_length_a   10.03127772
_cell_length_b   9.98056740
_cell_length_c   9.98056700
_cell_angle_alpha   59.49338937
_cell_angle_beta   59.58028529
_cell_angle_gamma   59.58028489
_symmetry_Int_Tables_number   1
_chemical_formula_structural   Pr16MgCd3Co2IrOs
_chemical_formula_sum   'Pr16 Mg1 Cd3 Co2 Ir1 Os1'
_cell_volume   699.35556572
_cell_formula_units_Z   1
loop_
 _symmetry_equiv_pos_site_id
 _symmetry_equiv_pos_as_xyz
  1  'x, y, z'
loop_
 _atom_site_type_symbol
 _atom_site_label
 _atom_site_symmetry_multiplicity
 _atom_site_fract_x
 _atom_site_fract_y
 _atom_site_fract_z
 _atom_site_occupancy
  Pr  Pr0  1  0.340004  0.350249  0.350249  1
  Pr  Pr1  1  0.343305  0.351155  0.959610  1
  Pr  Pr2  1  0.343305  0.959610  0.351155  1
  Pr  Pr3  1  0.961846  0.348388  0.348388  1
  Pr  Pr4  1  0.810349  0.190918  0.190918  1
  Pr  Pr5  1  0.189917  0.810030  0.810030  1
  Pr  Pr6  1  0.191858  0.805748  0.189283  1
  Pr  Pr7  1  0.816212  0.187521  0.804759  1
  Pr  Pr8  1  0.191858  0.189283  0.805748  1
  Pr  Pr9  1  0.816212  0.804759  0.187521  1
  Pr  Pr10  1  0.936136  0.564075  0.564075  1
  Pr  Pr11  1  0.556127  0.942390  0.942390  1
  Pr  Pr12  1  0.563709  0.939732  0.559060  1
  Pr  Pr13  1  0.940663  0.555261  0.941227  1
  Pr  Pr14  1  0.563709  0.559060  0.939732  1
  Pr  Pr15  1  0.940663  0.941227  0.555261  1
  Mg  Mg16  1  0.575835  0.574828  0.574828  1
  Cd  Cd17  1  0.579718  0.579200  0.260524  1
  Cd  Cd18  1  0.579718  0.260524  0.579200  1
  Cd  Cd19  1  0.259558  0.579697  0.579697  1
  Co  Co20  1  0.140762  0.142398  0.580614  1
  Co  Co21  1  0.140762  0.580614  0.142398  1
  Ir  Ir22  1  0.578069  0.142458  0.142458  1
  Os  Os23  1  0.139703  0.140875  0.140875  1
