# generated using pymatgen
data_TbEr2Zn3(GaCo)6
_symmetry_space_group_name_H-M   'P 1'
_cell_length_a   4.10665000
_cell_length_b   8.87226228
_cell_length_c   8.87208161
_cell_angle_alpha   60.06569934
_cell_angle_beta   90.00000000
_cell_angle_gamma   90.00000000
_symmetry_Int_Tables_number   1
_chemical_formula_structural   TbEr2Zn3(GaCo)6
_chemical_formula_sum   'Tb1 Er2 Zn3 Ga6 Co6'
_cell_volume   280.13370011
_cell_formula_units_Z   1
loop_
 _symmetry_equiv_pos_site_id
 _symmetry_equiv_pos_as_xyz
  1  'x, y, z'
loop_
 _atom_site_type_symbol
 _atom_site_label
 _atom_site_symmetry_multiplicity
 _atom_site_fract_x
 _atom_site_fract_y
 _atom_site_fract_z
 _atom_site_occupancy
  Tb  Tb0  1  0.500000  0.666629  0.666697  1
  Er  Er1  1  0.500000  0.333297  0.333381  1
  Er  Er2  1  0.000000  0.000071  0.999934  1
  Zn  Zn3  1  0.500000  0.293216  0.706523  1
  Zn  Zn4  1  0.500000  0.706464  0.000220  1
  Zn  Zn5  1  0.500000  0.000263  0.293299  1
  Ga  Ga6  1  0.000000  0.493784  0.506060  1
  Ga  Ga7  1  0.000000  0.505967  0.000130  1
  Ga  Ga8  1  0.000000  0.000186  0.493847  1
  Ga  Ga9  1  0.500000  0.716084  0.283722  1
  Ga  Ga10  1  0.500000  0.283756  0.000230  1
  Ga  Ga11  1  0.500000  0.000186  0.716038  1
  Co  Co12  1  0.000000  0.188756  0.178998  1
  Co  Co13  1  0.000000  0.179037  0.632277  1
  Co  Co14  1  0.000000  0.632263  0.188779  1
  Co  Co15  1  0.000000  0.821384  0.811608  1
  Co  Co16  1  0.000000  0.366989  0.821345  1
  Co  Co17  1  0.000000  0.811570  0.367012  1
