# generated using pymatgen
data_Tb3Y5(TmBi)12
_symmetry_space_group_name_H-M   'P 1'
_cell_length_a   8.21919808
_cell_length_b   9.43055200
_cell_length_c   12.01813612
_cell_angle_alpha   90.00000000
_cell_angle_beta   89.98372209
_cell_angle_gamma   90.00000000
_symmetry_Int_Tables_number   1
_chemical_formula_structural   Tb3Y5(TmBi)12
_chemical_formula_sum   'Tb3 Y5 Tm12 Bi12'
_cell_volume   931.54462076
_cell_formula_units_Z   1
loop_
 _symmetry_equiv_pos_site_id
 _symmetry_equiv_pos_as_xyz
  1  'x, y, z'
loop_
 _atom_site_type_symbol
 _atom_site_label
 _atom_site_symmetry_multiplicity
 _atom_site_fract_x
 _atom_site_fract_y
 _atom_site_fract_z
 _atom_site_occupancy
  Tb  Tb0  1  0.186203  0.750000  0.718607  1
  Tb  Tb1  1  0.686404  0.750000  0.781457  1
  Tb  Tb2  1  0.813513  0.250000  0.281540  1
  Y  Y3  1  0.313847  0.250000  0.218583  1
  Y  Y4  1  0.354065  0.750000  0.216157  1
  Y  Y5  1  0.853642  0.750000  0.283900  1
  Y  Y6  1  0.646323  0.250000  0.783873  1
  Y  Y7  1  0.146147  0.250000  0.716173  1
  Tm  Tm8  1  0.024683  0.750000  0.988648  1
  Tm  Tm9  1  0.524833  0.750000  0.511295  1
  Tm  Tm10  1  0.974894  0.250000  0.011325  1
  Tm  Tm11  1  0.475496  0.250000  0.488814  1
  Tm  Tm12  1  0.307420  0.434345  0.940522  1
  Tm  Tm13  1  0.807497  0.065702  0.559251  1
  Tm  Tm14  1  0.692574  0.934216  0.059338  1
  Tm  Tm15  1  0.192575  0.565681  0.440614  1
  Tm  Tm16  1  0.692574  0.565784  0.059338  1
  Tm  Tm17  1  0.192575  0.934319  0.440614  1
  Tm  Tm18  1  0.307420  0.065655  0.940522  1
  Tm  Tm19  1  0.807497  0.434298  0.559251  1
  Bi  Bi20  1  0.433969  0.004349  0.672581  1
  Bi  Bi21  1  0.933961  0.495604  0.827514  1
  Bi  Bi22  1  0.565827  0.504201  0.327461  1
  Bi  Bi23  1  0.066296  0.995871  0.172474  1
  Bi  Bi24  1  0.565827  0.995799  0.327461  1
  Bi  Bi25  1  0.066296  0.504129  0.172474  1
  Bi  Bi26  1  0.433969  0.495651  0.672581  1
  Bi  Bi27  1  0.933961  0.004396  0.827514  1
  Bi  Bi28  1  0.406096  0.750000  0.957778  1
  Bi  Bi29  1  0.906038  0.750000  0.542196  1
  Bi  Bi30  1  0.593369  0.250000  0.042368  1
  Bi  Bi31  1  0.094209  0.250000  0.457776  1
