# generated using pymatgen
data_Ho4TcBr4
_symmetry_space_group_name_H-M   'P 1'
_cell_length_a   8.96786395
_cell_length_b   8.96786330
_cell_length_c   6.57895601
_cell_angle_alpha   89.45841607
_cell_angle_beta   89.45840651
_cell_angle_gamma   89.27224870
_symmetry_Int_Tables_number   1
_chemical_formula_structural   Ho4TcBr4
_chemical_formula_sum   'Ho8 Tc2 Br8'
_cell_volume   529.00724466
_cell_formula_units_Z   2
loop_
 _symmetry_equiv_pos_site_id
 _symmetry_equiv_pos_as_xyz
  1  'x, y, z'
loop_
 _atom_site_type_symbol
 _atom_site_label
 _atom_site_symmetry_multiplicity
 _atom_site_fract_x
 _atom_site_fract_y
 _atom_site_fract_z
 _atom_site_occupancy
  Ho  Ho0  1  0.751891  0.098814  0.988362  1
  Ho  Ho1  1  0.098814  0.751891  0.488362  1
  Ho  Ho2  1  0.096897  0.247257  0.992169  1
  Ho  Ho3  1  0.247257  0.096897  0.492169  1
  Ho  Ho4  1  0.903103  0.752743  0.007831  1
  Ho  Ho5  1  0.901186  0.248109  0.511638  1
  Ho  Ho6  1  0.248109  0.901186  0.011638  1
  Ho  Ho7  1  0.752743  0.903103  0.507831  1
  Tc  Tc8  1  0.994256  0.005744  0.250000  1
  Tc  Tc9  1  0.005744  0.994256  0.750000  1
  Br  Br10  1  0.580100  0.183458  0.590624  1
  Br  Br11  1  0.809843  0.584742  0.407006  1
  Br  Br12  1  0.415258  0.190157  0.092994  1
  Br  Br13  1  0.190157  0.415258  0.592994  1
  Br  Br14  1  0.584742  0.809843  0.907006  1
  Br  Br15  1  0.419900  0.816542  0.409376  1
  Br  Br16  1  0.183458  0.580100  0.090624  1
  Br  Br17  1  0.816542  0.419900  0.909376  1
