# generated using pymatgen
data_U4Cr(SiRu)6
_symmetry_space_group_name_H-M   'P 1'
_cell_length_a   7.06439674
_cell_length_b   7.06439632
_cell_length_c   7.06439560
_cell_angle_alpha   109.64125071
_cell_angle_beta   109.13170283
_cell_angle_gamma   109.64123764
_symmetry_Int_Tables_number   1
_chemical_formula_structural   U4Cr(SiRu)6
_chemical_formula_sum   'U4 Cr1 Si6 Ru6'
_cell_volume   271.38875322
_cell_formula_units_Z   1
loop_
 _symmetry_equiv_pos_site_id
 _symmetry_equiv_pos_as_xyz
  1  'x, y, z'
loop_
 _atom_site_type_symbol
 _atom_site_label
 _atom_site_symmetry_multiplicity
 _atom_site_fract_x
 _atom_site_fract_y
 _atom_site_fract_z
 _atom_site_occupancy
  U  U0  1  0.995335  0.990671  0.495335  1
  U  U1  1  0.504665  0.009329  0.004665  1
  U  U2  1  0.995335  0.500000  0.004665  1
  U  U3  1  0.504665  0.500000  0.495335  1
  Cr  Cr4  1  0.750000  0.500000  0.250000  1
  Si  Si5  1  0.310787  0.000000  0.310787  1
  Si  Si6  1  0.999821  0.313474  0.313295  1
  Si  Si7  1  0.999821  0.686526  0.686346  1
  Si  Si8  1  0.313654  0.313474  0.000179  1
  Si  Si9  1  0.686705  0.686526  0.000179  1
  Si  Si10  1  0.689213  0.000000  0.689213  1
  Ru  Ru11  1  0.500435  0.749431  0.249866  1
  Ru  Ru12  1  0.500435  0.250569  0.751004  1
  Ru  Ru13  1  0.750134  0.250569  0.499565  1
  Ru  Ru14  1  0.248996  0.749431  0.499565  1
  Ru  Ru15  1  0.250000  0.500000  0.750000  1
  Ru  Ru16  1  0.000000  0.000000  0.000000  1
