# generated using pymatgen
data_IrCl12
_symmetry_space_group_name_H-M   'P 1'
_cell_length_a   10.99405809
_cell_length_b   10.88712170
_cell_length_c   7.29441494
_cell_angle_alpha   58.15137458
_cell_angle_beta   39.05468006
_cell_angle_gamma   60.72801017
_symmetry_Int_Tables_number   1
_chemical_formula_structural   IrCl12
_chemical_formula_sum   'Ir1 Cl12'
_cell_volume   462.13951593
_cell_formula_units_Z   1
loop_
 _symmetry_equiv_pos_site_id
 _symmetry_equiv_pos_as_xyz
  1  'x, y, z'
loop_
 _atom_site_type_symbol
 _atom_site_label
 _atom_site_symmetry_multiplicity
 _atom_site_fract_x
 _atom_site_fract_y
 _atom_site_fract_z
 _atom_site_occupancy
  Ir  Ir0  1  0.999998  0.000001  0.000114  1
  Cl  Cl1  1  0.506716  0.642107  0.075180  1
  Cl  Cl2  1  0.726676  0.523747  0.047084  1
  Cl  Cl3  1  0.863634  0.799443  0.204409  1
  Cl  Cl4  1  0.556267  0.865609  0.385116  1
  Cl  Cl5  1  0.740784  0.072705  0.451180  1
  Cl  Cl6  1  0.139685  0.852521  0.187244  1
  Cl  Cl7  1  0.860078  0.147312  0.813288  1
  Cl  Cl8  1  0.259269  0.927347  0.549178  1
  Cl  Cl9  1  0.444056  0.134366  0.615169  1
  Cl  Cl10  1  0.136604  0.200414  0.795631  1
  Cl  Cl11  1  0.272889  0.476477  0.952895  1
  Cl  Cl12  1  0.493338  0.357947  0.923513  1
