# generated using pymatgen
data_LaY15Cd4(CoNi)2
_symmetry_space_group_name_H-M   'P 1'
_cell_length_a   9.59023583
_cell_length_b   9.59023651
_cell_length_c   9.61527106
_cell_angle_alpha   59.81764411
_cell_angle_beta   59.81764287
_cell_angle_gamma   59.95758477
_symmetry_Int_Tables_number   1
_chemical_formula_structural   LaY15Cd4(CoNi)2
_chemical_formula_sum   'La1 Y15 Cd4 Co2 Ni2'
_cell_volume   623.39588959
_cell_formula_units_Z   1
loop_
 _symmetry_equiv_pos_site_id
 _symmetry_equiv_pos_as_xyz
  1  'x, y, z'
loop_
 _atom_site_type_symbol
 _atom_site_label
 _atom_site_symmetry_multiplicity
 _atom_site_fract_x
 _atom_site_fract_y
 _atom_site_fract_z
 _atom_site_occupancy
  La  La0  1  0.591055  0.591055  0.601509  1
  Y  Y1  1  0.598807  0.598807  0.200062  1
  Y  Y2  1  0.597280  0.202902  0.599107  1
  Y  Y3  1  0.202902  0.597280  0.599107  1
  Y  Y4  1  0.066051  0.437847  0.438378  1
  Y  Y5  1  0.438117  0.067108  0.058092  1
  Y  Y6  1  0.437847  0.066051  0.438378  1
  Y  Y7  1  0.067108  0.438117  0.058092  1
  Y  Y8  1  0.437969  0.437969  0.065122  1
  Y  Y9  1  0.062220  0.062220  0.438313  1
  Y  Y10  1  0.185517  0.813474  0.816592  1
  Y  Y11  1  0.811791  0.187674  0.188488  1
  Y  Y12  1  0.813474  0.185517  0.816592  1
  Y  Y13  1  0.187674  0.811791  0.188488  1
  Y  Y14  1  0.813291  0.813291  0.188881  1
  Y  Y15  1  0.188242  0.188242  0.812313  1
  Cd  Cd16  1  0.829701  0.829701  0.829804  1
  Cd  Cd17  1  0.831277  0.831277  0.507518  1
  Cd  Cd18  1  0.832363  0.505669  0.832256  1
  Cd  Cd19  1  0.505669  0.832363  0.832256  1
  Co  Co20  1  0.392987  0.392987  0.391952  1
  Co  Co21  1  0.392992  0.392992  0.822921  1
  Ni  Ni22  1  0.388486  0.827180  0.387890  1
  Ni  Ni23  1  0.827180  0.388486  0.387890  1
