# generated using pymatgen
data_Li(Sc2Ga3)3
_symmetry_space_group_name_H-M   'P 1'
_cell_length_a   5.76219600
_cell_length_b   9.38773200
_cell_length_c   10.91519700
_cell_angle_alpha   90.00000000
_cell_angle_beta   90.00000000
_cell_angle_gamma   90.00000000
_symmetry_Int_Tables_number   1
_chemical_formula_structural   Li(Sc2Ga3)3
_chemical_formula_sum   'Li2 Sc12 Ga18'
_cell_volume   590.44614018
_cell_formula_units_Z   2
loop_
 _symmetry_equiv_pos_site_id
 _symmetry_equiv_pos_as_xyz
  1  'x, y, z'
loop_
 _atom_site_type_symbol
 _atom_site_label
 _atom_site_symmetry_multiplicity
 _atom_site_fract_x
 _atom_site_fract_y
 _atom_site_fract_z
 _atom_site_occupancy
  Li  Li0  1  0.161228  0.750000  0.255565  1
  Li  Li1  1  0.338772  0.750000  0.755565  1
  Sc  Sc2  1  0.842100  0.750000  0.056995  1
  Sc  Sc3  1  0.657900  0.750000  0.556995  1
  Sc  Sc4  1  0.155927  0.250000  0.936240  1
  Sc  Sc5  1  0.344073  0.250000  0.436240  1
  Sc  Sc6  1  0.880273  0.500072  0.358957  1
  Sc  Sc7  1  0.619727  0.999928  0.858957  1
  Sc  Sc8  1  0.101571  0.013751  0.640807  1
  Sc  Sc9  1  0.398429  0.486249  0.140807  1
  Sc  Sc10  1  0.101571  0.486249  0.640807  1
  Sc  Sc11  1  0.398429  0.013751  0.140807  1
  Sc  Sc12  1  0.880273  0.999928  0.358957  1
  Sc  Sc13  1  0.619727  0.500072  0.858957  1
  Ga  Ga14  1  0.892340  0.040348  0.095319  1
  Ga  Ga15  1  0.607660  0.459652  0.595319  1
  Ga  Ga16  1  0.131053  0.547837  0.900651  1
  Ga  Ga17  1  0.368947  0.952163  0.400651  1
  Ga  Ga18  1  0.131053  0.952163  0.900651  1
  Ga  Ga19  1  0.368947  0.547837  0.400651  1
  Ga  Ga20  1  0.892340  0.459652  0.095319  1
  Ga  Ga21  1  0.607660  0.040348  0.595319  1
  Ga  Ga22  1  0.840867  0.250000  0.753250  1
  Ga  Ga23  1  0.659133  0.250000  0.253250  1
  Ga  Ga24  1  0.375148  0.750000  0.010996  1
  Ga  Ga25  1  0.124852  0.750000  0.510996  1
  Ga  Ga26  1  0.625248  0.250000  0.998276  1
  Ga  Ga27  1  0.874752  0.250000  0.498276  1
  Ga  Ga28  1  0.625678  0.750000  0.289828  1
  Ga  Ga29  1  0.874322  0.750000  0.789828  1
  Ga  Ga30  1  0.380532  0.250000  0.707381  1
  Ga  Ga31  1  0.119468  0.250000  0.207381  1
