# generated using pymatgen
data_Tb11Dy3Er6(CoSb2)4
_symmetry_space_group_name_H-M   'P 1'
_cell_length_a   7.89169159
_cell_length_b   8.77964741
_cell_length_c   12.24019919
_cell_angle_alpha   89.96507783
_cell_angle_beta   89.98201201
_cell_angle_gamma   89.99892157
_symmetry_Int_Tables_number   1
_chemical_formula_structural   Tb11Dy3Er6(CoSb2)4
_chemical_formula_sum   'Tb11 Dy3 Er6 Co4 Sb8'
_cell_volume   848.07754168
_cell_formula_units_Z   1
loop_
 _symmetry_equiv_pos_site_id
 _symmetry_equiv_pos_as_xyz
  1  'x, y, z'
loop_
 _atom_site_type_symbol
 _atom_site_label
 _atom_site_symmetry_multiplicity
 _atom_site_fract_x
 _atom_site_fract_y
 _atom_site_fract_z
 _atom_site_occupancy
  Tb  Tb0  1  0.653178  0.250210  0.297229  1
  Tb  Tb1  1  0.847124  0.250110  0.797384  1
  Tb  Tb2  1  0.347065  0.749897  0.702713  1
  Tb  Tb3  1  0.453342  0.749704  0.997712  1
  Tb  Tb4  1  0.953933  0.250299  0.502099  1
  Tb  Tb5  1  0.543831  0.250475  0.002362  1
  Tb  Tb6  1  0.044183  0.749533  0.497674  1
  Tb  Tb7  1  0.623969  0.749881  0.307727  1
  Tb  Tb8  1  0.124137  0.250128  0.192293  1
  Tb  Tb9  1  0.376958  0.250414  0.692403  1
  Tb  Tb10  1  0.876913  0.749586  0.807597  1
  Dy  Dy11  1  0.152881  0.749801  0.202170  1
  Dy  Dy12  1  0.821497  0.965636  0.064938  1
  Dy  Dy13  1  0.321588  0.033856  0.435175  1
  Er  Er14  1  0.176458  0.465346  0.934714  1
  Er  Er15  1  0.676709  0.534683  0.565452  1
  Er  Er16  1  0.176651  0.034420  0.934812  1
  Er  Er17  1  0.676896  0.965563  0.565370  1
  Er  Er18  1  0.823534  0.534525  0.065005  1
  Er  Er19  1  0.323637  0.465874  0.435141  1
  Co  Co20  1  0.439407  0.749652  0.492003  1
  Co  Co21  1  0.938893  0.250361  0.008245  1
  Co  Co22  1  0.563209  0.250635  0.508524  1
  Co  Co23  1  0.063084  0.749369  0.991449  1
  Sb  Sb24  1  0.929578  0.992281  0.326477  1
  Sb  Sb25  1  0.428659  0.007055  0.173398  1
  Sb  Sb26  1  0.070649  0.492521  0.672990  1
  Sb  Sb27  1  0.570638  0.507424  0.827025  1
  Sb  Sb28  1  0.070719  0.007429  0.672975  1
  Sb  Sb29  1  0.570721  0.992637  0.827054  1
  Sb  Sb30  1  0.930472  0.507534  0.326301  1
  Sb  Sb31  1  0.429487  0.493160  0.173592  1
