# generated using pymatgen
data_YHo3HfPd15
_symmetry_space_group_name_H-M   'P 1'
_cell_length_a   4.09923400
_cell_length_b   4.09923400
_cell_length_c   20.49186100
_cell_angle_alpha   90.00000000
_cell_angle_beta   90.00000000
_cell_angle_gamma   90.00000000
_symmetry_Int_Tables_number   1
_chemical_formula_structural   YHo3HfPd15
_chemical_formula_sum   'Y1 Ho3 Hf1 Pd15'
_cell_volume   344.33948196
_cell_formula_units_Z   1
loop_
 _symmetry_equiv_pos_site_id
 _symmetry_equiv_pos_as_xyz
  1  'x, y, z'
loop_
 _atom_site_type_symbol
 _atom_site_label
 _atom_site_symmetry_multiplicity
 _atom_site_fract_x
 _atom_site_fract_y
 _atom_site_fract_z
 _atom_site_occupancy
  Y  Y0  1  0.000000  0.000000  0.198087  1
  Ho  Ho1  1  0.000000  0.000000  0.398903  1
  Ho  Ho2  1  0.000000  0.000000  0.601208  1
  Ho  Ho3  1  0.000000  0.000000  0.801839  1
  Hf  Hf4  1  0.000000  0.000000  0.999830  1
  Pd  Pd5  1  0.500000  0.500000  0.000030  1
  Pd  Pd6  1  0.500000  0.500000  0.196827  1
  Pd  Pd7  1  0.500000  0.500000  0.399217  1
  Pd  Pd8  1  0.500000  0.500000  0.600731  1
  Pd  Pd9  1  0.500000  0.500000  0.803201  1
  Pd  Pd10  1  0.500000  0.000000  0.094238  1
  Pd  Pd11  1  0.500000  0.000000  0.298446  1
  Pd  Pd12  1  0.500000  0.000000  0.499974  1
  Pd  Pd13  1  0.500000  0.000000  0.701930  1
  Pd  Pd14  1  0.500000  0.000000  0.905475  1
  Pd  Pd15  1  0.000000  0.500000  0.094238  1
  Pd  Pd16  1  0.000000  0.500000  0.298446  1
  Pd  Pd17  1  0.000000  0.500000  0.499974  1
  Pd  Pd18  1  0.000000  0.500000  0.701930  1
  Pd  Pd19  1  0.000000  0.500000  0.905475  1
