# generated using pymatgen
data_Li5Nd4Cd29
_symmetry_space_group_name_H-M   'P 1'
_cell_length_a   7.50671730
_cell_length_b   7.50671676
_cell_length_c   15.43348802
_cell_angle_alpha   82.04241669
_cell_angle_beta   82.04240727
_cell_angle_gamma   82.75106575
_symmetry_Int_Tables_number   1
_chemical_formula_structural   Li5Nd4Cd29
_chemical_formula_sum   'Li5 Nd4 Cd29'
_cell_volume   847.92881704
_cell_formula_units_Z   1
loop_
 _symmetry_equiv_pos_site_id
 _symmetry_equiv_pos_as_xyz
  1  'x, y, z'
loop_
 _atom_site_type_symbol
 _atom_site_label
 _atom_site_symmetry_multiplicity
 _atom_site_fract_x
 _atom_site_fract_y
 _atom_site_fract_z
 _atom_site_occupancy
  Li  Li0  1  0.000000  0.000000  0.750000  1
  Li  Li1  1  0.001153  0.500294  0.998559  1
  Li  Li2  1  0.998847  0.499706  0.501441  1
  Li  Li3  1  0.499706  0.998847  0.501441  1
  Li  Li4  1  0.500294  0.001153  0.998559  1
  Nd  Nd5  1  0.663727  0.663727  0.332195  1
  Nd  Nd6  1  0.660735  0.660735  0.832114  1
  Nd  Nd7  1  0.336273  0.336273  0.167805  1
  Nd  Nd8  1  0.339265  0.339265  0.667886  1
  Cd  Cd9  1  0.300186  0.701348  0.998821  1
  Cd  Cd10  1  0.298652  0.699814  0.501179  1
  Cd  Cd11  1  0.697715  0.002509  0.144824  1
  Cd  Cd12  1  0.703292  0.999944  0.649508  1
  Cd  Cd13  1  0.997491  0.302285  0.355176  1
  Cd  Cd14  1  0.000056  0.296708  0.850492  1
  Cd  Cd15  1  0.302285  0.997491  0.355176  1
  Cd  Cd16  1  0.296708  0.000056  0.850492  1
  Cd  Cd17  1  0.002509  0.697715  0.144824  1
  Cd  Cd18  1  0.999944  0.703292  0.649508  1
  Cd  Cd19  1  0.699814  0.298652  0.501179  1
  Cd  Cd20  1  0.701348  0.300186  0.998821  1
  Cd  Cd21  1  0.347843  0.347843  0.429124  1
  Cd  Cd22  1  0.350690  0.350690  0.924272  1
  Cd  Cd23  1  0.356388  0.843301  0.174478  1
  Cd  Cd24  1  0.347720  0.854110  0.675178  1
  Cd  Cd25  1  0.843301  0.356388  0.174478  1
  Cd  Cd26  1  0.854110  0.347720  0.675178  1
  Cd  Cd27  1  0.652157  0.652157  0.070876  1
  Cd  Cd28  1  0.649310  0.649310  0.575728  1
  Cd  Cd29  1  0.643612  0.156699  0.325522  1
  Cd  Cd30  1  0.652280  0.145890  0.824822  1
  Cd  Cd31  1  0.156699  0.643612  0.325522  1
  Cd  Cd32  1  0.145890  0.652280  0.824822  1
  Cd  Cd33  1  0.892156  0.892156  0.450902  1
  Cd  Cd34  1  0.895875  0.895875  0.944491  1
  Cd  Cd35  1  0.107844  0.107844  0.049098  1
  Cd  Cd36  1  0.104125  0.104125  0.555509  1
  Cd  Cd37  1  0.000000  0.000000  0.250000  1
