# generated using pymatgen
data_ZrNb(TcGe)2
_symmetry_space_group_name_H-M   'P 1'
_cell_length_a   3.42926000
_cell_length_b   7.07180713
_cell_length_c   12.13262535
_cell_angle_alpha   89.62173137
_cell_angle_beta   90.00000000
_cell_angle_gamma   90.00000000
_symmetry_Int_Tables_number   1
_chemical_formula_structural   ZrNb(TcGe)2
_chemical_formula_sum   'Zr3 Nb3 Tc6 Ge6'
_cell_volume   294.22267762
_cell_formula_units_Z   3
loop_
 _symmetry_equiv_pos_site_id
 _symmetry_equiv_pos_as_xyz
  1  'x, y, z'
loop_
 _atom_site_type_symbol
 _atom_site_label
 _atom_site_symmetry_multiplicity
 _atom_site_fract_x
 _atom_site_fract_y
 _atom_site_fract_z
 _atom_site_occupancy
  Zr  Zr0  1  0.500000  0.296740  0.299302  1
  Zr  Zr1  1  0.500000  0.296269  0.700536  1
  Zr  Zr2  1  0.500000  0.798932  0.201219  1
  Nb  Nb3  1  0.500000  0.405815  0.999892  1
  Nb  Nb4  1  0.500000  0.901645  0.501811  1
  Nb  Nb5  1  0.500000  0.795812  0.799549  1
  Tc  Tc6  1  0.000000  0.746035  0.996415  1
  Tc  Tc7  1  0.000000  0.243594  0.502173  1
  Tc  Tc8  1  0.000000  0.628999  0.628536  1
  Tc  Tc9  1  0.000000  0.130253  0.125896  1
  Tc  Tc10  1  0.000000  0.129679  0.871074  1
  Tc  Tc11  1  0.000000  0.628803  0.372752  1
  Ge  Ge12  1  0.000000  0.992326  0.667606  1
  Ge  Ge13  1  0.000000  0.498773  0.162255  1
  Ge  Ge14  1  0.000000  0.502463  0.835013  1
  Ge  Ge15  1  0.000000  0.996901  0.338294  1
  Ge  Ge16  1  0.500000  0.004569  0.998079  1
  Ge  Ge17  1  0.500000  0.502589  0.499601  1
