# generated using pymatgen
data_Ta8BeSiSb4
_symmetry_space_group_name_H-M   'P 1'
_cell_length_a   7.78489697
_cell_length_b   7.78489844
_cell_length_c   7.78489774
_cell_angle_alpha   95.55073934
_cell_angle_beta   95.55073366
_cell_angle_gamma   143.75979036
_symmetry_Int_Tables_number   1
_chemical_formula_structural   Ta8BeSiSb4
_chemical_formula_sum   'Ta8 Be1 Si1 Sb4'
_cell_volume   265.08304720
_cell_formula_units_Z   1
loop_
 _symmetry_equiv_pos_site_id
 _symmetry_equiv_pos_as_xyz
  1  'x, y, z'
loop_
 _atom_site_type_symbol
 _atom_site_label
 _atom_site_symmetry_multiplicity
 _atom_site_fract_x
 _atom_site_fract_y
 _atom_site_fract_z
 _atom_site_occupancy
  Ta  Ta0  1  0.921283  0.802984  0.715060  1
  Ta  Ta1  1  0.802984  0.087924  0.881702  1
  Ta  Ta2  1  0.412076  0.697016  0.118298  1
  Ta  Ta3  1  0.578717  0.293777  0.881702  1
  Ta  Ta4  1  0.697016  0.578717  0.284940  1
  Ta  Ta5  1  0.293777  0.412076  0.715060  1
  Ta  Ta6  1  0.206223  0.921283  0.118298  1
  Ta  Ta7  1  0.087924  0.206223  0.284940  1
  Be  Be8  1  0.250000  0.250000  0.000000  1
  Si  Si9  1  0.750000  0.750000  0.000000  1
  Sb  Sb10  1  0.640760  0.859240  0.500000  1
  Sb  Sb11  1  0.140760  0.640760  0.781519  1
  Sb  Sb12  1  0.859240  0.359240  0.218480  1
  Sb  Sb13  1  0.359240  0.140760  0.500000  1
