# generated using pymatgen
data_Tb5AlBi2S
_symmetry_space_group_name_H-M   'P 1'
_cell_length_a   9.10212600
_cell_length_b   9.08129402
_cell_length_c   6.64148200
_cell_angle_alpha   90.00000000
_cell_angle_beta   90.00000000
_cell_angle_gamma   119.92432049
_symmetry_Int_Tables_number   1
_chemical_formula_structural   Tb5AlBi2S
_chemical_formula_sum   'Tb10 Al2 Bi4 S2'
_cell_volume   475.79174005
_cell_formula_units_Z   2
loop_
 _symmetry_equiv_pos_site_id
 _symmetry_equiv_pos_as_xyz
  1  'x, y, z'
loop_
 _atom_site_type_symbol
 _atom_site_label
 _atom_site_symmetry_multiplicity
 _atom_site_fract_x
 _atom_site_fract_y
 _atom_site_fract_z
 _atom_site_occupancy
  Tb  Tb0  1  0.657663  0.326477  0.493489  1
  Tb  Tb1  1  0.342337  0.668814  0.493489  1
  Tb  Tb2  1  0.342337  0.668814  0.006511  1
  Tb  Tb3  1  0.657663  0.326477  0.006511  1
  Tb  Tb4  1  0.746325  0.758866  0.250000  1
  Tb  Tb5  1  0.253675  0.012541  0.250000  1
  Tb  Tb6  1  0.000000  0.241432  0.250000  1
  Tb  Tb7  1  0.243417  0.243786  0.750000  1
  Tb  Tb8  1  0.756583  0.000369  0.750000  1
  Tb  Tb9  1  0.000000  0.756891  0.750000  1
  Al  Al10  1  0.397724  0.397882  0.250000  1
  Al  Al11  1  0.602276  0.000158  0.250000  1
  Bi  Bi12  1  0.000000  0.607539  0.250000  1
  Bi  Bi13  1  0.602492  0.599861  0.750000  1
  Bi  Bi14  1  0.397508  0.997369  0.750000  1
  Bi  Bi15  1  0.000000  0.397117  0.750000  1
  S  S16  1  0.000000  0.997803  0.500601  1
  S  S17  1  0.000000  0.997803  0.999399  1
