# generated using pymatgen
data_Y5Tm15(TcAg3)2
_symmetry_space_group_name_H-M   'P 1'
_cell_length_a   9.40777800
_cell_length_b   9.41008923
_cell_length_c   9.53115900
_cell_angle_alpha   90.00257555
_cell_angle_beta   89.99829473
_cell_angle_gamma   120.00926968
_symmetry_Int_Tables_number   1
_chemical_formula_structural   Y5Tm15(TcAg3)2
_chemical_formula_sum   'Y5 Tm15 Tc2 Ag6'
_cell_volume   730.66208900
_cell_formula_units_Z   1
loop_
 _symmetry_equiv_pos_site_id
 _symmetry_equiv_pos_as_xyz
  1  'x, y, z'
loop_
 _atom_site_type_symbol
 _atom_site_label
 _atom_site_symmetry_multiplicity
 _atom_site_fract_x
 _atom_site_fract_y
 _atom_site_fract_z
 _atom_site_occupancy
  Y  Y0  1  0.539966  0.081339  0.250003  1
  Y  Y1  1  0.918673  0.460049  0.250003  1
  Y  Y2  1  0.459611  0.540396  0.749995  1
  Y  Y3  1  0.459873  0.920045  0.749998  1
  Y  Y4  1  0.079956  0.540132  0.749997  1
  Tm  Tm5  1  0.000054  0.999952  0.499788  1
  Tm  Tm6  1  0.000055  0.999953  0.000215  1
  Tm  Tm7  1  0.209151  0.790842  0.441424  1
  Tm  Tm8  1  0.209494  0.417575  0.441014  1
  Tm  Tm9  1  0.582455  0.790518  0.441016  1
  Tm  Tm10  1  0.791268  0.208742  0.558748  1
  Tm  Tm11  1  0.790304  0.581757  0.557844  1
  Tm  Tm12  1  0.418212  0.209686  0.557852  1
  Tm  Tm13  1  0.791272  0.208737  0.941240  1
  Tm  Tm14  1  0.790302  0.581751  0.942166  1
  Tm  Tm15  1  0.418219  0.209686  0.942154  1
  Tm  Tm16  1  0.209151  0.790851  0.058590  1
  Tm  Tm17  1  0.209495  0.417582  0.058975  1
  Tm  Tm18  1  0.582450  0.790517  0.058980  1
  Tm  Tm19  1  0.539473  0.460532  0.250003  1
  Tc  Tc20  1  0.334046  0.665937  0.250000  1
  Tc  Tc21  1  0.666931  0.333063  0.750000  1
  Ag  Ag22  1  0.885691  0.114313  0.249998  1
  Ag  Ag23  1  0.882990  0.769143  0.250002  1
  Ag  Ag24  1  0.230863  0.117003  0.250002  1
  Ag  Ag25  1  0.114367  0.885596  0.749998  1
  Ag  Ag26  1  0.114139  0.228465  0.749999  1
  Ag  Ag27  1  0.771536  0.885838  0.749998  1
