# generated using pymatgen
data_DyYTi2(Fe4P3)2
_symmetry_space_group_name_H-M   'P 1'
_cell_length_a   3.68465700
_cell_length_b   10.44470300
_cell_length_c   12.27045500
_cell_angle_alpha   90.00000000
_cell_angle_beta   90.00000000
_cell_angle_gamma   90.00000000
_symmetry_Int_Tables_number   1
_chemical_formula_structural   DyYTi2(Fe4P3)2
_chemical_formula_sum   'Dy2 Y2 Ti4 Fe16 P12'
_cell_volume   472.23027697
_cell_formula_units_Z   2
loop_
 _symmetry_equiv_pos_site_id
 _symmetry_equiv_pos_as_xyz
  1  'x, y, z'
loop_
 _atom_site_type_symbol
 _atom_site_label
 _atom_site_symmetry_multiplicity
 _atom_site_fract_x
 _atom_site_fract_y
 _atom_site_fract_z
 _atom_site_occupancy
  Dy  Dy0  1  0.750000  0.418011  0.288275  1
  Dy  Dy1  1  0.750000  0.081989  0.788275  1
  Y  Y2  1  0.250000  0.582230  0.711614  1
  Y  Y3  1  0.250000  0.917770  0.211614  1
  Ti  Ti4  1  0.250000  0.699516  0.991509  1
  Ti  Ti5  1  0.250000  0.800484  0.491509  1
  Ti  Ti6  1  0.750000  0.300579  0.008490  1
  Ti  Ti7  1  0.750000  0.199421  0.508490  1
  Fe  Fe8  1  0.250000  0.415095  0.491730  1
  Fe  Fe9  1  0.250000  0.084905  0.991730  1
  Fe  Fe10  1  0.750000  0.584866  0.508050  1
  Fe  Fe11  1  0.750000  0.915134  0.008050  1
  Fe  Fe12  1  0.250000  0.217636  0.172228  1
  Fe  Fe13  1  0.250000  0.282364  0.672228  1
  Fe  Fe14  1  0.750000  0.782547  0.827827  1
  Fe  Fe15  1  0.750000  0.717453  0.327827  1
  Fe  Fe16  1  0.250000  0.875463  0.699172  1
  Fe  Fe17  1  0.250000  0.624537  0.199172  1
  Fe  Fe18  1  0.750000  0.124788  0.300925  1
  Fe  Fe19  1  0.750000  0.375212  0.800925  1
  Fe  Fe20  1  0.250000  0.463168  0.932673  1
  Fe  Fe21  1  0.250000  0.036832  0.432673  1
  Fe  Fe22  1  0.750000  0.536751  0.067465  1
  Fe  Fe23  1  0.750000  0.963249  0.567465  1
  P  P24  1  0.250000  0.427766  0.112116  1
  P  P25  1  0.250000  0.072234  0.612116  1
  P  P26  1  0.750000  0.572233  0.888091  1
  P  P27  1  0.750000  0.927767  0.388091  1
  P  P28  1  0.250000  0.270121  0.859547  1
  P  P29  1  0.250000  0.229879  0.359547  1
  P  P30  1  0.750000  0.729640  0.140425  1
  P  P31  1  0.750000  0.770360  0.640425  1
  P  P32  1  0.250000  0.599402  0.380381  1
  P  P33  1  0.250000  0.900598  0.880381  1
  P  P34  1  0.750000  0.400419  0.619484  1
  P  P35  1  0.750000  0.099581  0.119484  1
