# generated using pymatgen
data_Zr7U(Co4As3)4
_symmetry_space_group_name_H-M   'P 1'
_cell_length_a   12.60678400
_cell_length_b   12.60678230
_cell_length_c   3.82018800
_cell_angle_alpha   90.00000000
_cell_angle_beta   90.00000000
_cell_angle_gamma   119.96517484
_symmetry_Int_Tables_number   1
_chemical_formula_structural   Zr7U(Co4As3)4
_chemical_formula_sum   'Zr7 U1 Co16 As12'
_cell_volume   525.98847586
_cell_formula_units_Z   1
loop_
 _symmetry_equiv_pos_site_id
 _symmetry_equiv_pos_as_xyz
  1  'x, y, z'
loop_
 _atom_site_type_symbol
 _atom_site_label
 _atom_site_symmetry_multiplicity
 _atom_site_fract_x
 _atom_site_fract_y
 _atom_site_fract_z
 _atom_site_occupancy
  Zr  Zr0  1  0.440096  0.440096  0.000000  1
  Zr  Zr1  1  0.000234  0.179117  0.500000  1
  Zr  Zr2  1  0.558090  0.000332  0.000000  1
  Zr  Zr3  1  0.334851  0.666722  0.000000  1
  Zr  Zr4  1  0.666722  0.334851  0.000000  1
  Zr  Zr5  1  0.000332  0.558090  0.000000  1
  Zr  Zr6  1  0.179117  0.000234  0.500000  1
  U  U7  1  0.827955  0.827955  0.500000  1
  Co  Co8  1  0.624843  0.821389  0.000000  1
  Co  Co9  1  0.372184  0.194218  0.000000  1
  Co  Co10  1  0.002026  0.719209  0.500000  1
  Co  Co11  1  0.277995  0.277995  0.500000  1
  Co  Co12  1  0.876667  0.356989  0.500000  1
  Co  Co13  1  0.719209  0.002026  0.500000  1
  Co  Co14  1  0.821389  0.624843  0.000000  1
  Co  Co15  1  0.182302  0.804535  0.000000  1
  Co  Co16  1  0.356989  0.876667  0.500000  1
  Co  Co17  1  0.123571  0.478528  0.500000  1
  Co  Co18  1  0.643012  0.519827  0.500000  1
  Co  Co19  1  0.995778  0.995778  0.000000  1
  Co  Co20  1  0.519827  0.643012  0.500000  1
  Co  Co21  1  0.478528  0.123571  0.500000  1
  Co  Co22  1  0.194218  0.372184  0.000000  1
  Co  Co23  1  0.804535  0.182302  0.000000  1
  As  As24  1  0.000243  0.347162  0.000000  1
  As  As25  1  0.825290  0.515749  0.500000  1
  As  As26  1  0.689421  0.176225  0.500000  1
  As  As27  1  0.174038  0.174038  0.000000  1
  As  As28  1  0.651272  0.651272  0.000000  1
  As  As29  1  0.822295  0.005533  0.000000  1
  As  As30  1  0.515749  0.825290  0.500000  1
  As  As31  1  0.176225  0.689421  0.500000  1
  As  As32  1  0.347162  0.000243  0.000000  1
  As  As33  1  0.483325  0.308977  0.500000  1
  As  As34  1  0.005533  0.822295  0.000000  1
  As  As35  1  0.308977  0.483325  0.500000  1
