# generated using pymatgen
data_Ce4VTcC4
_symmetry_space_group_name_H-M   'P 1'
_cell_length_a   5.55066000
_cell_length_b   5.54973500
_cell_length_c   10.36171300
_cell_angle_alpha   90.00000000
_cell_angle_beta   90.00000000
_cell_angle_gamma   90.00000000
_symmetry_Int_Tables_number   1
_chemical_formula_structural   Ce4VTcC4
_chemical_formula_sum   'Ce8 V2 Tc2 C8'
_cell_volume   319.18937834
_cell_formula_units_Z   2
loop_
 _symmetry_equiv_pos_site_id
 _symmetry_equiv_pos_as_xyz
  1  'x, y, z'
loop_
 _atom_site_type_symbol
 _atom_site_label
 _atom_site_symmetry_multiplicity
 _atom_site_fract_x
 _atom_site_fract_y
 _atom_site_fract_z
 _atom_site_occupancy
  Ce  Ce0  1  0.185192  0.185555  0.345267  1
  Ce  Ce1  1  0.315942  0.683490  0.845693  1
  Ce  Ce2  1  0.685192  0.314445  0.845267  1
  Ce  Ce3  1  0.685192  0.314445  0.154733  1
  Ce  Ce4  1  0.315942  0.683490  0.154307  1
  Ce  Ce5  1  0.185192  0.185555  0.654733  1
  Ce  Ce6  1  0.815942  0.816510  0.345693  1
  Ce  Ce7  1  0.815942  0.816510  0.654307  1
  V  V8  1  0.324425  0.676119  0.500000  1
  V  V9  1  0.824425  0.823881  0.000000  1
  Tc  Tc10  1  0.179407  0.178791  0.000000  1
  Tc  Tc11  1  0.679407  0.321209  0.500000  1
  C  C12  1  0.998068  0.996390  0.145428  1
  C  C13  1  0.498068  0.503610  0.645428  1
  C  C14  1  0.493360  0.996484  0.500000  1
  C  C15  1  0.498068  0.503610  0.354572  1
  C  C16  1  0.998068  0.996390  0.854572  1
  C  C17  1  0.504405  0.993829  0.000000  1
  C  C18  1  0.993360  0.503516  0.000000  1
  C  C19  1  0.004405  0.506171  0.500000  1
