# generated using pymatgen
data_LuSb16
_symmetry_space_group_name_H-M   'P 1'
_cell_length_a   4.28193823
_cell_length_b   4.28193712
_cell_length_c   32.73622000
_cell_angle_alpha   86.25014867
_cell_angle_beta   86.25014964
_cell_angle_gamma   60.00001360
_symmetry_Int_Tables_number   1
_chemical_formula_structural   LuSb16
_chemical_formula_sum   'Lu1 Sb16'
_cell_volume   518.32000952
_cell_formula_units_Z   1
loop_
 _symmetry_equiv_pos_site_id
 _symmetry_equiv_pos_as_xyz
  1  'x, y, z'
loop_
 _atom_site_type_symbol
 _atom_site_label
 _atom_site_symmetry_multiplicity
 _atom_site_fract_x
 _atom_site_fract_y
 _atom_site_fract_z
 _atom_site_occupancy
  Lu  Lu0  1  0.000000  0.000000  0.000000  1
  Sb  Sb1  1  0.292588  0.292588  0.122237  1
  Sb  Sb2  1  0.707412  0.707412  0.877763  1
  Sb  Sb3  1  0.236426  0.236426  0.290722  1
  Sb  Sb4  1  0.763574  0.763574  0.709278  1
  Sb  Sb5  1  0.469087  0.469087  0.592741  1
  Sb  Sb6  1  0.530913  0.530913  0.407259  1
  Sb  Sb7  1  0.351995  0.351995  0.944015  1
  Sb  Sb8  1  0.648005  0.648005  0.055985  1
  Sb  Sb9  1  0.057804  0.057804  0.826590  1
  Sb  Sb10  1  0.942196  0.942196  0.173410  1
  Sb  Sb11  1  0.413801  0.413801  0.758599  1
  Sb  Sb12  1  0.586199  0.586199  0.241401  1
  Sb  Sb13  1  0.119685  0.119685  0.640942  1
  Sb  Sb14  1  0.880315  0.880315  0.359058  1
  Sb  Sb15  1  0.174654  0.174654  0.476036  1
  Sb  Sb16  1  0.825346  0.825346  0.523964  1
