# generated using pymatgen
data_Eu2YAl3Si2Pd
_symmetry_space_group_name_H-M   'P 1'
_cell_length_a   7.01625106
_cell_length_b   7.01625208
_cell_length_c   4.35779000
_cell_angle_alpha   90.00000000
_cell_angle_beta   90.00000000
_cell_angle_gamma   120.15062131
_symmetry_Int_Tables_number   1
_chemical_formula_structural   Eu2YAl3Si2Pd
_chemical_formula_sum   'Eu2 Y1 Al3 Si2 Pd1'
_cell_volume   185.50092377
_cell_formula_units_Z   1
loop_
 _symmetry_equiv_pos_site_id
 _symmetry_equiv_pos_as_xyz
  1  'x, y, z'
loop_
 _atom_site_type_symbol
 _atom_site_label
 _atom_site_symmetry_multiplicity
 _atom_site_fract_x
 _atom_site_fract_y
 _atom_site_fract_z
 _atom_site_occupancy
  Eu  Eu0  1  0.422846  0.001173  0.000000  1
  Eu  Eu1  1  0.001173  0.422845  0.000000  1
  Y  Y2  1  0.580580  0.580580  0.000000  1
  Al  Al3  1  0.763275  0.996857  0.500000  1
  Al  Al4  1  0.238581  0.238582  0.500000  1
  Al  Al5  1  0.996857  0.763276  0.500000  1
  Si  Si6  1  0.663854  0.340134  0.500000  1
  Si  Si7  1  0.340134  0.663854  0.500000  1
  Pd  Pd8  1  0.992699  0.992699  0.000000  1
