# generated using pymatgen
data_Er12AlCo4Pt
_symmetry_space_group_name_H-M   'P 1'
_cell_length_a   8.20781751
_cell_length_b   8.20781641
_cell_length_c   8.20781796
_cell_angle_alpha   111.07334703
_cell_angle_beta   110.60798664
_cell_angle_gamma   106.76609356
_symmetry_Int_Tables_number   1
_chemical_formula_structural   Er12AlCo4Pt
_chemical_formula_sum   'Er12 Al1 Co4 Pt1'
_cell_volume   424.94353976
_cell_formula_units_Z   1
loop_
 _symmetry_equiv_pos_site_id
 _symmetry_equiv_pos_as_xyz
  1  'x, y, z'
loop_
 _atom_site_type_symbol
 _atom_site_label
 _atom_site_symmetry_multiplicity
 _atom_site_fract_x
 _atom_site_fract_y
 _atom_site_fract_z
 _atom_site_occupancy
  Er  Er0  1  0.186737  0.290267  0.477004  1
  Er  Er1  1  0.813263  0.709733  0.522996  1
  Er  Er2  1  0.186737  0.709733  0.896470  1
  Er  Er3  1  0.813263  0.290267  0.103530  1
  Er  Er4  1  0.316220  0.619456  0.303236  1
  Er  Er5  1  0.683780  0.380544  0.696764  1
  Er  Er6  1  0.316220  0.012986  0.696764  1
  Er  Er7  1  0.683780  0.987014  0.303236  1
  Er  Er8  1  0.416561  0.219039  0.197522  1
  Er  Er9  1  0.583439  0.780961  0.802478  1
  Er  Er10  1  0.021517  0.219039  0.802478  1
  Er  Er11  1  0.978483  0.780961  0.197522  1
  Al  Al12  1  0.500000  0.500000  0.000000  1
  Co  Co13  1  0.112587  0.612587  0.500000  1
  Co  Co14  1  0.887413  0.387413  0.500000  1
  Co  Co15  1  0.377492  0.000000  0.377492  1
  Co  Co16  1  0.622508  0.000000  0.622508  1
  Pt  Pt17  1  0.000000  0.000000  0.000000  1
