# generated using pymatgen
data_Y3Er(RuO4)4
_symmetry_space_group_name_H-M   'P 1'
_cell_length_a   5.34682173
_cell_length_b   7.65397056
_cell_length_c   7.39065400
_cell_angle_alpha   79.72214635
_cell_angle_beta   90.72388614
_cell_angle_gamma   93.84144510
_symmetry_Int_Tables_number   1
_chemical_formula_structural   Y3Er(RuO4)4
_chemical_formula_sum   'Y3 Er1 Ru4 O16'
_cell_volume   296.93626855
_cell_formula_units_Z   1
loop_
 _symmetry_equiv_pos_site_id
 _symmetry_equiv_pos_as_xyz
  1  'x, y, z'
loop_
 _atom_site_type_symbol
 _atom_site_label
 _atom_site_symmetry_multiplicity
 _atom_site_fract_x
 _atom_site_fract_y
 _atom_site_fract_z
 _atom_site_occupancy
  Y  Y0  1  0.263779  0.120896  0.608770  1
  Y  Y1  1  0.737210  0.878227  0.391222  1
  Y  Y2  1  0.194117  0.170803  0.102822  1
  Er  Er3  1  0.807616  0.828850  0.896387  1
  Ru  Ru4  1  0.246263  0.663797  0.204601  1
  Ru  Ru5  1  0.755120  0.336807  0.794305  1
  Ru  Ru6  1  0.715376  0.336927  0.299562  1
  Ru  Ru7  1  0.286421  0.663157  0.701377  1
  O  O8  1  0.070680  0.456007  0.699883  1
  O  O9  1  0.931339  0.543516  0.300587  1
  O  O10  1  0.614204  0.328292  0.550979  1
  O  O11  1  0.385803  0.674768  0.448370  1
  O  O12  1  0.846179  0.327897  0.053815  1
  O  O13  1  0.148801  0.669328  0.946585  1
  O  O14  1  0.403495  0.438968  0.198522  1
  O  O15  1  0.600020  0.563015  0.802070  1
  O  O16  1  0.047923  0.885126  0.172934  1
  O  O17  1  0.947499  0.112446  0.824817  1
  O  O18  1  0.489628  0.107915  0.322940  1
  O  O19  1  0.510662  0.890999  0.682056  1
  O  O20  1  0.452701  0.199353  0.869478  1
  O  O21  1  0.546200  0.803753  0.125856  1
  O  O22  1  0.974360  0.164759  0.380531  1
  O  O23  1  0.024603  0.834393  0.621531  1
