# generated using pymatgen
data_Ce3ErSn3Ru4Pb
_symmetry_space_group_name_H-M   'P 1'
_cell_length_a   6.34686669
_cell_length_b   6.34686671
_cell_length_c   10.08065444
_cell_angle_alpha   77.31570597
_cell_angle_beta   77.31570705
_cell_angle_gamma   44.56577735
_symmetry_Int_Tables_number   1
_chemical_formula_structural   Ce3ErSn3Ru4Pb
_chemical_formula_sum   'Ce3 Er1 Sn3 Ru4 Pb1'
_cell_volume   276.81555266
_cell_formula_units_Z   1
loop_
 _symmetry_equiv_pos_site_id
 _symmetry_equiv_pos_as_xyz
  1  'x, y, z'
loop_
 _atom_site_type_symbol
 _atom_site_label
 _atom_site_symmetry_multiplicity
 _atom_site_fract_x
 _atom_site_fract_y
 _atom_site_fract_z
 _atom_site_occupancy
  Ce  Ce0  1  0.860963  0.860963  0.417835  1
  Ce  Ce1  1  0.864385  0.864385  0.915770  1
  Ce  Ce2  1  0.142571  0.142571  0.088094  1
  Er  Er3  1  0.118111  0.118111  0.595598  1
  Sn  Sn4  1  0.408027  0.408027  0.658787  1
  Sn  Sn5  1  0.584991  0.584991  0.835651  1
  Sn  Sn6  1  0.589172  0.589172  0.364246  1
  Ru  Ru7  1  0.811661  0.811661  0.153438  1
  Ru  Ru8  1  0.192956  0.192956  0.308379  1
  Ru  Ru9  1  0.188353  0.188353  0.845659  1
  Ru  Ru10  1  0.807644  0.807644  0.660831  1
  Pb  Pb11  1  0.431169  0.431169  0.155711  1
