# generated using pymatgen
data_DyYSc3(SiGe)2
_symmetry_space_group_name_H-M   'P 1'
_cell_length_a   7.16526853
_cell_length_b   7.42569408
_cell_length_c   14.08019089
_cell_angle_alpha   89.99953545
_cell_angle_beta   89.95917830
_cell_angle_gamma   90.01653954
_symmetry_Int_Tables_number   1
_chemical_formula_structural   DyYSc3(SiGe)2
_chemical_formula_sum   'Dy4 Y4 Sc12 Si8 Ge8'
_cell_volume   749.16579201
_cell_formula_units_Z   4
loop_
 _symmetry_equiv_pos_site_id
 _symmetry_equiv_pos_as_xyz
  1  'x, y, z'
loop_
 _atom_site_type_symbol
 _atom_site_label
 _atom_site_symmetry_multiplicity
 _atom_site_fract_x
 _atom_site_fract_y
 _atom_site_fract_z
 _atom_site_occupancy
  Dy  Dy0  1  0.507841  0.323257  0.099087  1
  Dy  Dy1  1  0.007877  0.176733  0.401272  1
  Dy  Dy2  1  0.507778  0.323565  0.401312  1
  Dy  Dy3  1  0.492143  0.676519  0.598646  1
  Y  Y4  1  0.007500  0.176669  0.098863  1
  Y  Y5  1  0.992404  0.823259  0.901168  1
  Y  Y6  1  0.492535  0.676429  0.901214  1
  Y  Y7  1  0.992529  0.823489  0.598464  1
  Sc  Sc8  1  0.164242  0.500870  0.749790  1
  Sc  Sc9  1  0.835592  0.499014  0.250246  1
  Sc  Sc10  1  0.335652  0.001126  0.250201  1
  Sc  Sc11  1  0.664163  0.998992  0.749744  1
  Sc  Sc12  1  0.335439  0.173193  0.626472  1
  Sc  Sc13  1  0.664719  0.826766  0.373561  1
  Sc  Sc14  1  0.164705  0.673035  0.373509  1
  Sc  Sc15  1  0.664988  0.826904  0.126827  1
  Sc  Sc16  1  0.835401  0.326957  0.626353  1
  Sc  Sc17  1  0.335125  0.173111  0.873309  1
  Sc  Sc18  1  0.835115  0.327084  0.873259  1
  Sc  Sc19  1  0.165022  0.672964  0.126711  1
  Si  Si20  1  0.036633  0.118142  0.749807  1
  Si  Si21  1  0.963566  0.882068  0.250282  1
  Si  Si22  1  0.463482  0.617790  0.250193  1
  Si  Si23  1  0.536711  0.382003  0.749720  1
  Si  Si24  1  0.289625  0.872374  0.749637  1
  Si  Si25  1  0.710225  0.127938  0.250354  1
  Si  Si26  1  0.210718  0.372293  0.250364  1
  Si  Si27  1  0.789126  0.627396  0.749652  1
  Ge  Ge28  1  0.170531  0.460588  0.540650  1
  Ge  Ge29  1  0.829566  0.538756  0.459135  1
  Ge  Ge30  1  0.329780  0.961171  0.459268  1
  Ge  Ge31  1  0.830018  0.538986  0.040878  1
  Ge  Ge32  1  0.669705  0.039271  0.540624  1
  Ge  Ge33  1  0.169445  0.460562  0.959225  1
  Ge  Ge34  1  0.669211  0.039553  0.959348  1
  Ge  Ge35  1  0.330885  0.961174  0.040856  1
