# generated using pymatgen
data_Th3Zn(CoBi2)2
_symmetry_space_group_name_H-M   'P 1'
_cell_length_a   8.61432427
_cell_length_b   8.62851079
_cell_length_c   8.62851034
_cell_angle_alpha   109.26296759
_cell_angle_beta   109.60524999
_cell_angle_gamma   109.60524872
_symmetry_Int_Tables_number   1
_chemical_formula_structural   Th3Zn(CoBi2)2
_chemical_formula_sum   'Th6 Zn2 Co4 Bi8'
_cell_volume   493.33982204
_cell_formula_units_Z   2
loop_
 _symmetry_equiv_pos_site_id
 _symmetry_equiv_pos_as_xyz
  1  'x, y, z'
loop_
 _atom_site_type_symbol
 _atom_site_label
 _atom_site_symmetry_multiplicity
 _atom_site_fract_x
 _atom_site_fract_y
 _atom_site_fract_z
 _atom_site_occupancy
  Th  Th0  1  0.381184  0.265613  0.638253  1
  Th  Th1  1  0.737876  0.885372  0.105771  1
  Th  Th2  1  0.237876  0.605771  0.385372  1
  Th  Th3  1  0.627577  0.360517  0.240211  1
  Th  Th4  1  0.881184  0.138253  0.765613  1
  Th  Th5  1  0.127577  0.740211  0.860517  1
  Zn  Zn6  1  0.122416  0.872943  0.247060  1
  Zn  Zn7  1  0.622416  0.747060  0.372943  1
  Co  Co8  1  0.874619  0.248485  0.126799  1
  Co  Co9  1  0.254136  0.128295  0.878095  1
  Co  Co10  1  0.754136  0.378095  0.628295  1
  Co  Co11  1  0.374619  0.626799  0.748485  1
  Bi  Bi12  1  0.995743  0.324452  0.501030  1
  Bi  Bi13  1  0.828657  0.493358  0.994122  1
  Bi  Bi14  1  0.495743  0.001030  0.824452  1
  Bi  Bi15  1  0.668942  0.661591  0.670631  1
  Bi  Bi16  1  0.168942  0.170631  0.161591  1
  Bi  Bi17  1  0.328657  0.494122  0.993358  1
  Bi  Bi18  1  0.508850  0.012909  0.344492  1
  Bi  Bi19  1  0.008850  0.844492  0.512909  1
