# generated using pymatgen
data_Rb5SiHS5
_symmetry_space_group_name_H-M   'P 1'
_cell_length_a   7.88773804
_cell_length_b   7.88773697
_cell_length_c   14.27476900
_cell_angle_alpha   81.50300213
_cell_angle_beta   81.50299595
_cell_angle_gamma   110.57781064
_symmetry_Int_Tables_number   1
_chemical_formula_structural   Rb5SiHS5
_chemical_formula_sum   'Rb10 Si2 H2 S10'
_cell_volume   802.98002598
_cell_formula_units_Z   2
loop_
 _symmetry_equiv_pos_site_id
 _symmetry_equiv_pos_as_xyz
  1  'x, y, z'
loop_
 _atom_site_type_symbol
 _atom_site_label
 _atom_site_symmetry_multiplicity
 _atom_site_fract_x
 _atom_site_fract_y
 _atom_site_fract_z
 _atom_site_occupancy
  Rb  Rb0  1  0.262334  0.262334  0.958133  1
  Rb  Rb1  1  0.603074  0.086060  0.802089  1
  Rb  Rb2  1  0.086060  0.603074  0.802089  1
  Rb  Rb3  1  0.813678  0.813678  0.599411  1
  Rb  Rb4  1  0.674965  0.325035  0.500000  1
  Rb  Rb5  1  0.325035  0.674965  0.500000  1
  Rb  Rb6  1  0.186322  0.186322  0.400589  1
  Rb  Rb7  1  0.913940  0.396926  0.197911  1
  Rb  Rb8  1  0.396926  0.913940  0.197911  1
  Rb  Rb9  1  0.737666  0.737666  0.041867  1
  Si  Si10  1  0.167094  0.167094  0.694853  1
  Si  Si11  1  0.832906  0.832906  0.305147  1
  H  H12  1  0.793986  0.206014  0.000000  1
  H  H13  1  0.206014  0.793986  0.000000  1
  S  S14  1  0.689697  0.310303  0.000000  1
  S  S15  1  0.310303  0.689697  0.000000  1
  S  S16  1  0.000586  0.000586  0.833441  1
  S  S17  1  0.401268  0.401268  0.708769  1
  S  S18  1  0.265727  0.993251  0.616700  1
  S  S19  1  0.993251  0.265727  0.616700  1
  S  S20  1  0.006749  0.734273  0.383300  1
  S  S21  1  0.734273  0.006749  0.383300  1
  S  S22  1  0.598732  0.598732  0.291231  1
  S  S23  1  0.999414  0.999414  0.166559  1
