# generated using pymatgen
data_NaYCr3Ni9As7
_symmetry_space_group_name_H-M   'P 1'
_cell_length_a   9.53653500
_cell_length_b   9.53653512
_cell_length_c   3.80128400
_cell_angle_alpha   90.00000000
_cell_angle_beta   90.00000000
_cell_angle_gamma   119.99999612
_symmetry_Int_Tables_number   1
_chemical_formula_structural   NaYCr3Ni9As7
_chemical_formula_sum   'Na1 Y1 Cr3 Ni9 As7'
_cell_volume   299.39337484
_cell_formula_units_Z   1
loop_
 _symmetry_equiv_pos_site_id
 _symmetry_equiv_pos_as_xyz
  1  'x, y, z'
loop_
 _atom_site_type_symbol
 _atom_site_label
 _atom_site_symmetry_multiplicity
 _atom_site_fract_x
 _atom_site_fract_y
 _atom_site_fract_z
 _atom_site_occupancy
  Na  Na0  1  0.666667  0.333333  0.500000  1
  Y  Y1  1  0.333333  0.666667  0.000000  1
  Cr  Cr2  1  0.223852  0.121491  0.500000  1
  Cr  Cr3  1  0.878509  0.102361  0.500000  1
  Cr  Cr4  1  0.897639  0.776148  0.500000  1
  Ni  Ni5  1  0.121715  0.280634  0.000000  1
  Ni  Ni6  1  0.719366  0.841081  0.000000  1
  Ni  Ni7  1  0.158919  0.878285  0.000000  1
  Ni  Ni8  1  0.428899  0.373004  0.000000  1
  Ni  Ni9  1  0.626996  0.055895  0.000000  1
  Ni  Ni10  1  0.944105  0.571101  0.000000  1
  Ni  Ni11  1  0.051392  0.433285  0.500000  1
  Ni  Ni12  1  0.566715  0.618107  0.500000  1
  Ni  Ni13  1  0.381893  0.948608  0.500000  1
  As  As14  1  0.292140  0.409214  0.500000  1
  As  As15  1  0.590786  0.882926  0.500000  1
  As  As16  1  0.117074  0.707860  0.500000  1
  As  As17  1  0.415696  0.118714  0.000000  1
  As  As18  1  0.881286  0.296982  0.000000  1
  As  As19  1  0.703018  0.584304  0.000000  1
  As  As20  1  0.000000  0.000000  0.000000  1
