# generated using pymatgen
data_Yb7Er9(HfIr3)4
_symmetry_space_group_name_H-M   'P 1'
_cell_length_a   10.77979769
_cell_length_b   10.75410432
_cell_length_c   6.25340312
_cell_angle_alpha   90.09434873
_cell_angle_beta   90.00275076
_cell_angle_gamma   90.04081962
_symmetry_Int_Tables_number   1
_chemical_formula_structural   Yb7Er9(HfIr3)4
_chemical_formula_sum   'Yb7 Er9 Hf4 Ir12'
_cell_volume   724.93752715
_cell_formula_units_Z   1
loop_
 _symmetry_equiv_pos_site_id
 _symmetry_equiv_pos_as_xyz
  1  'x, y, z'
loop_
 _atom_site_type_symbol
 _atom_site_label
 _atom_site_symmetry_multiplicity
 _atom_site_fract_x
 _atom_site_fract_y
 _atom_site_fract_z
 _atom_site_occupancy
  Yb  Yb0  1  0.290911  0.084541  0.370524  1
  Yb  Yb1  1  0.291655  0.914260  0.869982  1
  Yb  Yb2  1  0.710051  0.082895  0.870008  1
  Yb  Yb3  1  0.708459  0.917269  0.370343  1
  Yb  Yb4  1  0.583558  0.792985  0.869765  1
  Yb  Yb5  1  0.585069  0.209017  0.370077  1
  Yb  Yb6  1  0.414698  0.792250  0.369877  1
  Er  Er7  1  0.418313  0.204687  0.873217  1
  Er  Er8  1  0.211669  0.415417  0.630477  1
  Er  Er9  1  0.211144  0.583452  0.129019  1
  Er  Er10  1  0.788348  0.416146  0.129069  1
  Er  Er11  1  0.788242  0.584173  0.629473  1
  Er  Er12  1  0.915914  0.711779  0.130732  1
  Er  Er13  1  0.916261  0.288441  0.630407  1
  Er  Er14  1  0.083737  0.711333  0.630305  1
  Er  Er15  1  0.084415  0.288345  0.128774  1
  Hf  Hf16  1  0.000597  0.000015  0.498152  1
  Hf  Hf17  1  0.000791  0.999863  0.997761  1
  Hf  Hf18  1  0.499518  0.500540  0.997647  1
  Hf  Hf19  1  0.499974  0.499258  0.498106  1
  Ir  Ir20  1  0.866800  0.147392  0.249671  1
  Ir  Ir21  1  0.866226  0.852144  0.748620  1
  Ir  Ir22  1  0.137770  0.148067  0.751813  1
  Ir  Ir23  1  0.133886  0.851728  0.249028  1
  Ir  Ir24  1  0.643519  0.362636  0.752444  1
  Ir  Ir25  1  0.647133  0.634783  0.250666  1
  Ir  Ir26  1  0.352763  0.364090  0.243885  1
  Ir  Ir27  1  0.352490  0.634491  0.748042  1
  Ir  Ir28  1  0.498336  0.004316  0.122912  1
  Ir  Ir29  1  0.498702  0.003782  0.623110  1
  Ir  Ir30  1  0.999450  0.500057  0.882939  1
  Ir  Ir31  1  0.999601  0.499850  0.383154  1
