# generated using pymatgen
data_La8Tb11DyPt16
_symmetry_space_group_name_H-M   'P 1'
_cell_length_a   7.71226200
_cell_length_b   7.86089007
_cell_length_c   14.84570600
_cell_angle_alpha   90.00000000
_cell_angle_beta   90.00000000
_cell_angle_gamma   90.00789368
_symmetry_Int_Tables_number   1
_chemical_formula_structural   La8Tb11DyPt16
_chemical_formula_sum   'La8 Tb11 Dy1 Pt16'
_cell_volume   900.02453722
_cell_formula_units_Z   1
loop_
 _symmetry_equiv_pos_site_id
 _symmetry_equiv_pos_as_xyz
  1  'x, y, z'
loop_
 _atom_site_type_symbol
 _atom_site_label
 _atom_site_symmetry_multiplicity
 _atom_site_fract_x
 _atom_site_fract_y
 _atom_site_fract_z
 _atom_site_occupancy
  La  La0  1  0.515962  0.323687  0.901464  1
  La  La1  1  0.015788  0.176352  0.598524  1
  La  La2  1  0.483819  0.676535  0.401495  1
  La  La3  1  0.984345  0.823839  0.098519  1
  La  La4  1  0.483819  0.676535  0.098505  1
  La  La5  1  0.984345  0.823839  0.401481  1
  La  La6  1  0.515962  0.323687  0.598536  1
  La  La7  1  0.015788  0.176352  0.901476  1
  Tb  Tb8  1  0.358321  0.835953  0.877177  1
  Tb  Tb9  1  0.858289  0.664010  0.622841  1
  Tb  Tb10  1  0.641507  0.163842  0.377077  1
  Tb  Tb11  1  0.141797  0.335749  0.122925  1
  Tb  Tb12  1  0.641507  0.163842  0.122923  1
  Tb  Tb13  1  0.141797  0.335749  0.377075  1
  Tb  Tb14  1  0.358321  0.835953  0.622823  1
  Tb  Tb15  1  0.858289  0.664010  0.877159  1
  Tb  Tb16  1  0.198147  0.496424  0.750000  1
  Tb  Tb17  1  0.698120  0.003618  0.750000  1
  Tb  Tb18  1  0.801755  0.503880  0.250000  1
  Dy  Dy19  1  0.301597  0.996570  0.250000  1
  Pt  Pt20  1  0.308008  0.034928  0.044774  1
  Pt  Pt21  1  0.808030  0.464930  0.455377  1
  Pt  Pt22  1  0.691943  0.964953  0.544451  1
  Pt  Pt23  1  0.192065  0.534947  0.955576  1
  Pt  Pt24  1  0.691943  0.964953  0.955549  1
  Pt  Pt25  1  0.192065  0.534947  0.544424  1
  Pt  Pt26  1  0.308008  0.034928  0.455226  1
  Pt  Pt27  1  0.808030  0.464930  0.044623  1
  Pt  Pt28  1  0.563797  0.626828  0.750000  1
  Pt  Pt29  1  0.063792  0.873160  0.750000  1
  Pt  Pt30  1  0.436006  0.372833  0.250000  1
  Pt  Pt31  1  0.936800  0.126322  0.250000  1
  Pt  Pt32  1  0.328582  0.136398  0.750000  1
  Pt  Pt33  1  0.828796  0.363509  0.750000  1
  Pt  Pt34  1  0.670892  0.863749  0.250000  1
  Pt  Pt35  1  0.171965  0.637255  0.250000  1
