# generated using pymatgen
data_Tb4Mn5(Si4Ni5)3
_symmetry_space_group_name_H-M   'P 1'
_cell_length_a   3.71897400
_cell_length_b   10.67978951
_cell_length_c   12.16147735
_cell_angle_alpha   89.94293050
_cell_angle_beta   90.00000000
_cell_angle_gamma   90.00000000
_symmetry_Int_Tables_number   1
_chemical_formula_structural   Tb4Mn5(Si4Ni5)3
_chemical_formula_sum   'Tb4 Mn5 Si12 Ni15'
_cell_volume   483.02760935
_cell_formula_units_Z   1
loop_
 _symmetry_equiv_pos_site_id
 _symmetry_equiv_pos_as_xyz
  1  'x, y, z'
loop_
 _atom_site_type_symbol
 _atom_site_label
 _atom_site_symmetry_multiplicity
 _atom_site_fract_x
 _atom_site_fract_y
 _atom_site_fract_z
 _atom_site_occupancy
  Tb  Tb0  1  0.250000  0.585570  0.705597  1
  Tb  Tb1  1  0.250000  0.914967  0.203464  1
  Tb  Tb2  1  0.750000  0.415286  0.295079  1
  Tb  Tb3  1  0.750000  0.085679  0.795457  1
  Mn  Mn4  1  0.250000  0.705849  0.989541  1
  Mn  Mn5  1  0.250000  0.794136  0.489320  1
  Mn  Mn6  1  0.750000  0.294625  0.011339  1
  Mn  Mn7  1  0.750000  0.208998  0.507885  1
  Mn  Mn8  1  0.250000  0.402084  0.490861  1
  Si  Si9  1  0.250000  0.413113  0.112234  1
  Si  Si10  1  0.250000  0.088903  0.610478  1
  Si  Si11  1  0.750000  0.587514  0.888885  1
  Si  Si12  1  0.750000  0.912639  0.387911  1
  Si  Si13  1  0.250000  0.271794  0.872930  1
  Si  Si14  1  0.250000  0.227818  0.368183  1
  Si  Si15  1  0.750000  0.728536  0.129261  1
  Si  Si16  1  0.750000  0.772144  0.628658  1
  Si  Si17  1  0.250000  0.597557  0.390283  1
  Si  Si18  1  0.250000  0.901785  0.889763  1
  Si  Si19  1  0.750000  0.401001  0.614395  1
  Si  Si20  1  0.750000  0.097899  0.107957  1
  Ni  Ni21  1  0.250000  0.092640  0.989483  1
  Ni  Ni22  1  0.750000  0.592815  0.510508  1
  Ni  Ni23  1  0.750000  0.905850  0.008818  1
  Ni  Ni24  1  0.250000  0.213176  0.175848  1
  Ni  Ni25  1  0.250000  0.284041  0.681270  1
  Ni  Ni26  1  0.750000  0.786177  0.821643  1
  Ni  Ni27  1  0.750000  0.714565  0.321827  1
  Ni  Ni28  1  0.250000  0.886994  0.696356  1
  Ni  Ni29  1  0.250000  0.615278  0.195902  1
  Ni  Ni30  1  0.750000  0.111910  0.301567  1
  Ni  Ni31  1  0.750000  0.387013  0.806473  1
  Ni  Ni32  1  0.250000  0.471143  0.933402  1
  Ni  Ni33  1  0.250000  0.029200  0.431078  1
  Ni  Ni34  1  0.750000  0.529868  0.068746  1
  Ni  Ni35  1  0.750000  0.971431  0.567594  1
