# generated using pymatgen
data_Tm3Sc(Be4Ru5)2
_symmetry_space_group_name_H-M   'P 1'
_cell_length_a   3.22838400
_cell_length_b   8.84415366
_cell_length_c   10.23074219
_cell_angle_alpha   90.03302789
_cell_angle_beta   90.00000000
_cell_angle_gamma   90.00000000
_symmetry_Int_Tables_number   1
_chemical_formula_structural   Tm3Sc(Be4Ru5)2
_chemical_formula_sum   'Tm3 Sc1 Be8 Ru10'
_cell_volume   292.11141877
_cell_formula_units_Z   1
loop_
 _symmetry_equiv_pos_site_id
 _symmetry_equiv_pos_as_xyz
  1  'x, y, z'
loop_
 _atom_site_type_symbol
 _atom_site_label
 _atom_site_symmetry_multiplicity
 _atom_site_fract_x
 _atom_site_fract_y
 _atom_site_fract_z
 _atom_site_occupancy
  Tm  Tm0  1  0.500000  0.838671  0.183415  1
  Tm  Tm1  1  0.500000  0.168585  0.816958  1
  Tm  Tm2  1  0.500000  0.660601  0.681289  1
  Sc  Sc3  1  0.500000  0.326915  0.314642  1
  Be  Be4  1  0.500000  0.968220  0.594155  1
  Be  Be5  1  0.500000  0.036838  0.406039  1
  Be  Be6  1  0.500000  0.834878  0.906516  1
  Be  Be7  1  0.500000  0.159083  0.095922  1
  Be  Be8  1  0.500000  0.664583  0.407418  1
  Be  Be9  1  0.500000  0.342450  0.591903  1
  Be  Be10  1  0.500000  0.466721  0.907499  1
  Be  Be11  1  0.500000  0.532153  0.096899  1
  Ru  Ru12  1  0.000000  0.656754  0.957697  1
  Ru  Ru13  1  0.000000  0.343740  0.048069  1
  Ru  Ru14  1  0.000000  0.845382  0.454736  1
  Ru  Ru15  1  0.000000  0.159732  0.542707  1
  Ru  Ru16  1  0.000000  0.999365  0.997401  1
  Ru  Ru17  1  0.000000  0.412014  0.754321  1
  Ru  Ru18  1  0.000000  0.583397  0.250476  1
  Ru  Ru19  1  0.000000  0.493018  0.488698  1
  Ru  Ru20  1  0.000000  0.910777  0.747220  1
  Ru  Ru21  1  0.000000  0.096122  0.256019  1
