# generated using pymatgen
data_Nd2Zr(SnRh)3
_symmetry_space_group_name_H-M   'P 1'
_cell_length_a   7.52553475
_cell_length_b   7.60828805
_cell_length_c   7.80566100
_cell_angle_alpha   90.00000000
_cell_angle_beta   90.00000000
_cell_angle_gamma   119.58436325
_symmetry_Int_Tables_number   1
_chemical_formula_structural   Nd2Zr(SnRh)3
_chemical_formula_sum   'Nd4 Zr2 Sn6 Rh6'
_cell_volume   388.65867097
_cell_formula_units_Z   2
loop_
 _symmetry_equiv_pos_site_id
 _symmetry_equiv_pos_as_xyz
  1  'x, y, z'
loop_
 _atom_site_type_symbol
 _atom_site_label
 _atom_site_symmetry_multiplicity
 _atom_site_fract_x
 _atom_site_fract_y
 _atom_site_fract_z
 _atom_site_occupancy
  Nd  Nd0  1  0.589815  0.997715  0.750000  1
  Nd  Nd1  1  0.595375  0.000505  0.250000  1
  Nd  Nd2  1  0.410663  0.413900  0.250000  1
  Nd  Nd3  1  0.997255  0.585617  0.250000  1
  Zr  Zr4  1  0.401325  0.397490  0.750000  1
  Zr  Zr5  1  0.004812  0.603257  0.750000  1
  Sn  Sn6  1  0.259241  0.000751  0.001232  1
  Sn  Sn7  1  0.741108  0.738335  0.512183  1
  Sn  Sn8  1  0.001643  0.261467  0.513163  1
  Sn  Sn9  1  0.001643  0.261467  0.986837  1
  Sn  Sn10  1  0.741108  0.738335  0.987817  1
  Sn  Sn11  1  0.259241  0.000751  0.498768  1
  Rh  Rh12  1  0.669049  0.344869  0.968228  1
  Rh  Rh13  1  0.669049  0.344869  0.531772  1
  Rh  Rh14  1  0.324219  0.655242  0.971227  1
  Rh  Rh15  1  0.324219  0.655242  0.528773  1
  Rh  Rh16  1  0.014509  0.999552  0.750000  1
  Rh  Rh17  1  0.995728  0.000638  0.250000  1
