# generated using pymatgen
data_AcCd3P6N13
_symmetry_space_group_name_H-M   'P 1'
_cell_length_a   7.46861862
_cell_length_b   7.37735604
_cell_length_c   7.37735667
_cell_angle_alpha   109.21926973
_cell_angle_beta   109.72201898
_cell_angle_gamma   109.72201462
_symmetry_Int_Tables_number   1
_chemical_formula_structural   AcCd3P6N13
_chemical_formula_sum   'Ac1 Cd3 P6 N13'
_cell_volume   311.93657915
_cell_formula_units_Z   1
loop_
 _symmetry_equiv_pos_site_id
 _symmetry_equiv_pos_as_xyz
  1  'x, y, z'
loop_
 _atom_site_type_symbol
 _atom_site_label
 _atom_site_symmetry_multiplicity
 _atom_site_fract_x
 _atom_site_fract_y
 _atom_site_fract_z
 _atom_site_occupancy
  Ac  Ac0  1  0.708930  0.000000  0.000000  1
  Cd  Cd1  1  0.011020  0.000000  0.699661  1
  Cd  Cd2  1  0.011020  0.699661  0.000000  1
  Cd  Cd3  1  0.311358  0.300339  0.300339  1
  P  P4  1  0.241792  0.748107  0.494634  1
  P  P5  1  0.747159  0.253474  0.505366  1
  P  P6  1  0.747159  0.505366  0.253474  1
  P  P7  1  0.241792  0.494634  0.748107  1
  P  P8  1  0.493685  0.746526  0.251893  1
  P  P9  1  0.493685  0.251893  0.746526  1
  N  N10  1  0.027014  0.000000  0.000000  1
  N  N11  1  0.713992  0.295158  0.295158  1
  N  N12  1  0.277525  0.705502  0.280365  1
  N  N13  1  0.293148  0.579567  0.579567  1
  N  N14  1  0.572023  0.574863  0.294498  1
  N  N15  1  0.418834  0.704842  0.000000  1
  N  N16  1  0.997160  0.719635  0.425137  1
  N  N17  1  0.572023  0.294498  0.574863  1
  N  N18  1  0.713581  0.000000  0.420433  1
  N  N19  1  0.418834  0.000000  0.704842  1
  N  N20  1  0.713581  0.420433  0.000000  1
  N  N21  1  0.277525  0.280365  0.705502  1
  N  N22  1  0.997160  0.425137  0.719635  1
