# generated using pymatgen
data_Lu15Sc5AlBi11
_symmetry_space_group_name_H-M   'P 1'
_cell_length_a   7.97175378
_cell_length_b   9.25589645
_cell_length_c   11.67634656
_cell_angle_alpha   89.96449022
_cell_angle_beta   89.73617357
_cell_angle_gamma   90.00189624
_symmetry_Int_Tables_number   1
_chemical_formula_structural   Lu15Sc5AlBi11
_chemical_formula_sum   'Lu15 Sc5 Al1 Bi11'
_cell_volume   861.53842573
_cell_formula_units_Z   1
loop_
 _symmetry_equiv_pos_site_id
 _symmetry_equiv_pos_as_xyz
  1  'x, y, z'
loop_
 _atom_site_type_symbol
 _atom_site_label
 _atom_site_symmetry_multiplicity
 _atom_site_fract_x
 _atom_site_fract_y
 _atom_site_fract_z
 _atom_site_occupancy
  Lu  Lu0  1  0.354126  0.248987  0.291904  1
  Lu  Lu1  1  0.647015  0.750084  0.717712  1
  Lu  Lu2  1  0.148777  0.749977  0.781957  1
  Lu  Lu3  1  0.853822  0.249618  0.216261  1
  Lu  Lu4  1  0.192097  0.249544  0.776140  1
  Lu  Lu5  1  0.809543  0.749994  0.217607  1
  Lu  Lu6  1  0.312106  0.750392  0.281012  1
  Lu  Lu7  1  0.678812  0.249794  0.712600  1
  Lu  Lu8  1  0.805010  0.933481  0.941737  1
  Lu  Lu9  1  0.305096  0.945491  0.558060  1
  Lu  Lu10  1  0.804735  0.566504  0.941693  1
  Lu  Lu11  1  0.687839  0.072648  0.444770  1
  Lu  Lu12  1  0.195769  0.432004  0.059968  1
  Lu  Lu13  1  0.687888  0.427267  0.444901  1
  Lu  Lu14  1  0.305162  0.554492  0.558136  1
  Sc  Sc15  1  0.036287  0.249946  0.510220  1
  Sc  Sc16  1  0.979033  0.749979  0.489300  1
  Sc  Sc17  1  0.476084  0.750460  0.010726  1
  Sc  Sc18  1  0.523902  0.248952  0.989773  1
  Sc  Sc19  1  0.195918  0.067833  0.060029  1
  Al  Al20  1  0.402731  0.250059  0.542093  1
  Bi  Bi21  1  0.599199  0.749923  0.457358  1
  Bi  Bi22  1  0.101329  0.754475  0.042933  1
  Bi  Bi23  1  0.905782  0.248171  0.955677  1
  Bi  Bi24  1  0.062393  0.002638  0.325798  1
  Bi  Bi25  1  0.935885  0.996979  0.672077  1
  Bi  Bi26  1  0.435407  0.997371  0.829175  1
  Bi  Bi27  1  0.935792  0.502923  0.672302  1
  Bi  Bi28  1  0.560827  0.004409  0.170794  1
  Bi  Bi29  1  0.061874  0.497616  0.327331  1
  Bi  Bi30  1  0.563237  0.495522  0.171623  1
  Bi  Bi31  1  0.436527  0.502469  0.828332  1
