# generated using pymatgen
data_DyY19Si15Pt
_symmetry_space_group_name_H-M   'P 1'
_cell_length_a   7.41419200
_cell_length_b   7.74158964
_cell_length_c   14.67981400
_cell_angle_alpha   90.00000000
_cell_angle_beta   90.00000000
_cell_angle_gamma   90.10057962
_symmetry_Int_Tables_number   1
_chemical_formula_structural   DyY19Si15Pt
_chemical_formula_sum   'Dy1 Y19 Si15 Pt1'
_cell_volume   842.58526362
_cell_formula_units_Z   1
loop_
 _symmetry_equiv_pos_site_id
 _symmetry_equiv_pos_as_xyz
  1  'x, y, z'
loop_
 _atom_site_type_symbol
 _atom_site_label
 _atom_site_symmetry_multiplicity
 _atom_site_fract_x
 _atom_site_fract_y
 _atom_site_fract_z
 _atom_site_occupancy
  Dy  Dy0  1  0.843445  0.508941  0.750000  1
  Y  Y1  1  0.680067  0.178826  0.622630  1
  Y  Y2  1  0.186676  0.323442  0.876898  1
  Y  Y3  1  0.317747  0.820199  0.123249  1
  Y  Y4  1  0.817493  0.677993  0.376528  1
  Y  Y5  1  0.317747  0.820199  0.376751  1
  Y  Y6  1  0.817493  0.677993  0.123472  1
  Y  Y7  1  0.680067  0.178826  0.877370  1
  Y  Y8  1  0.186676  0.323442  0.623102  1
  Y  Y9  1  0.525467  0.681939  0.594164  1
  Y  Y10  1  0.027039  0.817619  0.904189  1
  Y  Y11  1  0.473151  0.316035  0.097601  1
  Y  Y12  1  0.973074  0.183007  0.402399  1
  Y  Y13  1  0.473151  0.316035  0.402399  1
  Y  Y14  1  0.973074  0.183007  0.097601  1
  Y  Y15  1  0.525467  0.681939  0.905836  1
  Y  Y16  1  0.027039  0.817619  0.595811  1
  Y  Y17  1  0.355991  0.984467  0.750000  1
  Y  Y18  1  0.148499  0.485943  0.250000  1
  Y  Y19  1  0.648822  0.012903  0.250000  1
  Si  Si20  1  0.646319  0.971942  0.458938  1
  Si  Si21  1  0.146014  0.527728  0.040319  1
  Si  Si22  1  0.351889  0.025974  0.960405  1
  Si  Si23  1  0.852337  0.472693  0.539715  1
  Si  Si24  1  0.351889  0.025974  0.539595  1
  Si  Si25  1  0.852337  0.472693  0.960285  1
  Si  Si26  1  0.646319  0.971942  0.041062  1
  Si  Si27  1  0.146014  0.527728  0.459681  1
  Si  Si28  1  0.979739  0.101823  0.750000  1
  Si  Si29  1  0.521802  0.603156  0.250000  1
  Si  Si30  1  0.021830  0.895515  0.250000  1
  Si  Si31  1  0.741719  0.875765  0.750000  1
  Si  Si32  1  0.229391  0.631114  0.750000  1
  Si  Si33  1  0.266708  0.126891  0.250000  1
  Si  Si34  1  0.766069  0.373131  0.250000  1
  Pt  Pt35  1  0.481434  0.405555  0.750000  1
