# generated using pymatgen
data_Tm4As6Ir5Rh2
_symmetry_space_group_name_H-M   'P 1'
_cell_length_a   7.26415675
_cell_length_b   7.26415669
_cell_length_c   7.26415619
_cell_angle_alpha   109.54785476
_cell_angle_beta   109.31803980
_cell_angle_gamma   109.54786900
_symmetry_Int_Tables_number   1
_chemical_formula_structural   Tm4As6Ir5Rh2
_chemical_formula_sum   'Tm4 As6 Ir5 Rh2'
_cell_volume   295.07431128
_cell_formula_units_Z   1
loop_
 _symmetry_equiv_pos_site_id
 _symmetry_equiv_pos_as_xyz
  1  'x, y, z'
loop_
 _atom_site_type_symbol
 _atom_site_label
 _atom_site_symmetry_multiplicity
 _atom_site_fract_x
 _atom_site_fract_y
 _atom_site_fract_z
 _atom_site_occupancy
  Tm  Tm0  1  0.500065  0.500000  0.499935  1
  Tm  Tm1  1  0.999935  0.500000  0.000065  1
  Tm  Tm2  1  0.500065  0.000130  0.000065  1
  Tm  Tm3  1  0.999935  0.999870  0.499935  1
  As  As4  1  0.682356  0.000000  0.682356  1
  As  As5  1  0.682899  0.682345  0.000554  1
  As  As6  1  0.318208  0.317655  0.000554  1
  As  As7  1  0.999446  0.682345  0.681792  1
  As  As8  1  0.999446  0.317655  0.317101  1
  As  As9  1  0.317644  0.000000  0.317644  1
  Ir  Ir10  1  0.499360  0.749487  0.248846  1
  Ir  Ir11  1  0.751154  0.250513  0.500640  1
  Ir  Ir12  1  0.250127  0.749487  0.500640  1
  Ir  Ir13  1  0.250000  0.500000  0.750000  1
  Ir  Ir14  1  0.499360  0.250513  0.749873  1
  Rh  Rh15  1  0.000000  0.000000  0.000000  1
  Rh  Rh16  1  0.750000  0.500000  0.250000  1
