# generated using pymatgen
data_Th2In(PO4)3
_symmetry_space_group_name_H-M   'P 1'
_cell_length_a   6.95566906
_cell_length_b   8.25524420
_cell_length_c   9.61730056
_cell_angle_alpha   101.58452073
_cell_angle_beta   111.19989101
_cell_angle_gamma   89.99999959
_symmetry_Int_Tables_number   1
_chemical_formula_structural   Th2In(PO4)3
_chemical_formula_sum   'Th4 In2 P6 O24'
_cell_volume   502.77523354
_cell_formula_units_Z   2
loop_
 _symmetry_equiv_pos_site_id
 _symmetry_equiv_pos_as_xyz
  1  'x, y, z'
loop_
 _atom_site_type_symbol
 _atom_site_label
 _atom_site_symmetry_multiplicity
 _atom_site_fract_x
 _atom_site_fract_y
 _atom_site_fract_z
 _atom_site_occupancy
  Th  Th0  1  0.248064  0.033228  0.309060  1
  Th  Th1  1  0.060997  0.533229  0.309061  1
  Th  Th2  1  0.751937  0.966772  0.690939  1
  Th  Th3  1  0.939003  0.466771  0.690939  1
  In  In4  1  0.405416  0.250000  0.000000  1
  In  In5  1  0.594584  0.750000  0.000000  1
  P  P6  1  0.906995  0.250000  0.000000  1
  P  P7  1  0.093004  0.750000  0.000000  1
  P  P8  1  0.600217  0.682089  0.382994  1
  P  P9  1  0.782777  0.182090  0.382994  1
  P  P10  1  0.217223  0.817911  0.617006  1
  P  P11  1  0.399782  0.317910  0.617006  1
  O  O12  1  0.241612  0.908877  0.055196  1
  O  O13  1  0.813585  0.408877  0.055196  1
  O  O14  1  0.038420  0.742533  0.143000  1
  O  O15  1  0.104580  0.242533  0.143000  1
  O  O16  1  0.738988  0.651083  0.288484  1
  O  O17  1  0.549495  0.151083  0.288484  1
  O  O18  1  0.397701  0.570589  0.309316  1
  O  O19  1  0.911613  0.070589  0.309316  1
  O  O20  1  0.551141  0.869834  0.407677  1
  O  O21  1  0.856535  0.369835  0.407677  1
  O  O22  1  0.172667  0.830357  0.447607  1
  O  O23  1  0.274941  0.330356  0.447607  1
  O  O24  1  0.725059  0.669642  0.552393  1
  O  O25  1  0.827333  0.169643  0.552394  1
  O  O26  1  0.143465  0.630165  0.592323  1
  O  O27  1  0.448859  0.130166  0.592324  1
  O  O28  1  0.088387  0.929411  0.690685  1
  O  O29  1  0.602299  0.429411  0.690685  1
  O  O30  1  0.450505  0.848918  0.711516  1
  O  O31  1  0.261012  0.348917  0.711516  1
  O  O32  1  0.895421  0.757467  0.856999  1
  O  O33  1  0.961579  0.257467  0.856999  1
  O  O34  1  0.758389  0.091123  0.944803  1
  O  O35  1  0.186415  0.591123  0.944804  1
