# generated using pymatgen
data_Dy2ErCdIn4
_symmetry_space_group_name_H-M   'P 1'
_cell_length_a   6.35355920
_cell_length_b   6.35355866
_cell_length_c   10.46298000
_cell_angle_alpha   90.00000000
_cell_angle_beta   90.00000000
_cell_angle_gamma   102.89786676
_symmetry_Int_Tables_number   1
_chemical_formula_structural   Dy2ErCdIn4
_chemical_formula_sum   'Dy4 Er2 Cd2 In8'
_cell_volume   411.71003670
_cell_formula_units_Z   2
loop_
 _symmetry_equiv_pos_site_id
 _symmetry_equiv_pos_as_xyz
  1  'x, y, z'
loop_
 _atom_site_type_symbol
 _atom_site_label
 _atom_site_symmetry_multiplicity
 _atom_site_fract_x
 _atom_site_fract_y
 _atom_site_fract_z
 _atom_site_occupancy
  Dy  Dy0  1  0.204499  0.795501  0.500000  1
  Dy  Dy1  1  0.204499  0.795501  0.000000  1
  Dy  Dy2  1  0.795501  0.204499  0.500000  1
  Dy  Dy3  1  0.795501  0.204499  0.000000  1
  Er  Er4  1  0.618308  0.618308  0.250000  1
  Er  Er5  1  0.381692  0.381692  0.750000  1
  Cd  Cd6  1  0.009809  0.009809  0.250000  1
  Cd  Cd7  1  0.990191  0.990191  0.750000  1
  In  In8  1  0.308086  0.308086  0.043885  1
  In  In9  1  0.691914  0.691914  0.956115  1
  In  In10  1  0.308086  0.308086  0.456115  1
  In  In11  1  0.691914  0.691914  0.543885  1
  In  In12  1  0.512130  0.071921  0.250000  1
  In  In13  1  0.928079  0.487870  0.750000  1
  In  In14  1  0.487870  0.928079  0.750000  1
  In  In15  1  0.071921  0.512130  0.250000  1
