# generated using pymatgen
data_HgAu2(SO4)4
_symmetry_space_group_name_H-M   'P 1'
_cell_length_a   6.51426632
_cell_length_b   6.51426743
_cell_length_c   8.89694100
_cell_angle_alpha   74.02424983
_cell_angle_beta   74.02424703
_cell_angle_gamma   86.87191358
_symmetry_Int_Tables_number   1
_chemical_formula_structural   HgAu2(SO4)4
_chemical_formula_sum   'Hg1 Au2 S4 O16'
_cell_volume   348.85608336
_cell_formula_units_Z   1
loop_
 _symmetry_equiv_pos_site_id
 _symmetry_equiv_pos_as_xyz
  1  'x, y, z'
loop_
 _atom_site_type_symbol
 _atom_site_label
 _atom_site_symmetry_multiplicity
 _atom_site_fract_x
 _atom_site_fract_y
 _atom_site_fract_z
 _atom_site_occupancy
  Hg  Hg0  1  0.000000  0.000000  0.000000  1
  Au  Au1  1  0.000000  0.000000  0.500000  1
  Au  Au2  1  0.500000  0.500000  0.500000  1
  S  S3  1  0.083003  0.584809  0.744153  1
  S  S4  1  0.584809  0.083003  0.744153  1
  S  S5  1  0.916997  0.415191  0.255847  1
  S  S6  1  0.415191  0.916997  0.255847  1
  O  O7  1  0.325746  0.629664  0.678124  1
  O  O8  1  0.629664  0.325746  0.678124  1
  O  O9  1  0.674254  0.370336  0.321876  1
  O  O10  1  0.370336  0.674254  0.321876  1
  O  O11  1  0.011512  0.696689  0.868826  1
  O  O12  1  0.696689  0.011512  0.868826  1
  O  O13  1  0.988488  0.303311  0.131174  1
  O  O14  1  0.303311  0.988488  0.131174  1
  O  O15  1  0.984450  0.677708  0.600417  1
  O  O16  1  0.677708  0.984450  0.600417  1
  O  O17  1  0.015550  0.322292  0.399583  1
  O  O18  1  0.322292  0.015550  0.399583  1
  O  O19  1  0.031655  0.357493  0.790412  1
  O  O20  1  0.357493  0.031655  0.790412  1
  O  O21  1  0.968345  0.642507  0.209588  1
  O  O22  1  0.642507  0.968345  0.209588  1
