# generated using pymatgen
data_Tb5PtRhO12
_symmetry_space_group_name_H-M   'P 1'
_cell_length_a   6.91014757
_cell_length_b   6.91014767
_cell_length_c   7.29314886
_cell_angle_alpha   74.59771973
_cell_angle_beta   74.59772229
_cell_angle_gamma   51.34900638
_symmetry_Int_Tables_number   1
_chemical_formula_structural   Tb5PtRhO12
_chemical_formula_sum   'Tb5 Pt1 Rh1 O12'
_cell_volume   259.89282106
_cell_formula_units_Z   1
loop_
 _symmetry_equiv_pos_site_id
 _symmetry_equiv_pos_as_xyz
  1  'x, y, z'
loop_
 _atom_site_type_symbol
 _atom_site_label
 _atom_site_symmetry_multiplicity
 _atom_site_fract_x
 _atom_site_fract_y
 _atom_site_fract_z
 _atom_site_occupancy
  Tb  Tb0  1  0.694071  0.692432  0.667564  1
  Tb  Tb1  1  0.700897  0.698177  0.139799  1
  Tb  Tb2  1  0.999996  0.000004  0.000000  1
  Tb  Tb3  1  0.301823  0.299103  0.860201  1
  Tb  Tb4  1  0.307568  0.305929  0.332436  1
  Pt  Pt5  1  0.751237  0.248763  0.500000  1
  Rh  Rh6  1  0.245739  0.754261  0.500000  1
  O  O7  1  0.398588  0.903601  0.927517  1
  O  O8  1  0.564954  0.095785  0.586133  1
  O  O9  1  0.904215  0.435046  0.413867  1
  O  O10  1  0.096399  0.601412  0.072483  1
  O  O11  1  0.001844  0.997764  0.319149  1
  O  O12  1  0.499220  0.500625  0.687422  1
  O  O13  1  0.902768  0.402889  0.925481  1
  O  O14  1  0.101568  0.569610  0.584256  1
  O  O15  1  0.430390  0.898432  0.415744  1
  O  O16  1  0.597111  0.097232  0.074519  1
  O  O17  1  0.499375  0.500780  0.312578  1
  O  O18  1  0.002236  0.998156  0.680851  1
