# generated using pymatgen
data_KP8(Pt8Pb)3
_symmetry_space_group_name_H-M   'P 1'
_cell_length_a   8.56852373
_cell_length_b   8.56852373
_cell_length_c   8.56852373
_cell_angle_alpha   89.86021484
_cell_angle_beta   89.86021484
_cell_angle_gamma   89.86021484
_symmetry_Int_Tables_number   1
_chemical_formula_structural   KP8(Pt8Pb)3
_chemical_formula_sum   'K1 P8 Pt24 Pb3'
_cell_volume   629.09196895
_cell_formula_units_Z   1
loop_
 _symmetry_equiv_pos_site_id
 _symmetry_equiv_pos_as_xyz
  1  'x, y, z'
loop_
 _atom_site_type_symbol
 _atom_site_label
 _atom_site_symmetry_multiplicity
 _atom_site_fract_x
 _atom_site_fract_y
 _atom_site_fract_z
 _atom_site_occupancy
  K  K0  1  0.000000  0.000000  0.000000  1
  P  P1  1  0.806324  0.302420  0.191692  1
  P  P2  1  0.191692  0.806324  0.302420  1
  P  P3  1  0.693637  0.693637  0.693637  1
  P  P4  1  0.302420  0.191692  0.806324  1
  P  P5  1  0.193676  0.697580  0.808308  1
  P  P6  1  0.808308  0.193676  0.697580  1
  P  P7  1  0.306363  0.306363  0.306363  1
  P  P8  1  0.697580  0.808308  0.193676  1
  Pt  Pt9  1  0.421519  0.844016  0.158750  1
  Pt  Pt10  1  0.578467  0.344927  0.340830  1
  Pt  Pt11  1  0.077335  0.159658  0.653446  1
  Pt  Pt12  1  0.922963  0.654258  0.838187  1
  Pt  Pt13  1  0.158750  0.421519  0.844016  1
  Pt  Pt14  1  0.340830  0.578467  0.344927  1
  Pt  Pt15  1  0.653446  0.077335  0.159658  1
  Pt  Pt16  1  0.838187  0.922963  0.654258  1
  Pt  Pt17  1  0.844016  0.158750  0.421519  1
  Pt  Pt18  1  0.344927  0.340830  0.578467  1
  Pt  Pt19  1  0.159658  0.653446  0.077335  1
  Pt  Pt20  1  0.654258  0.838187  0.922963  1
  Pt  Pt21  1  0.578481  0.155984  0.841250  1
  Pt  Pt22  1  0.421533  0.655073  0.659170  1
  Pt  Pt23  1  0.922665  0.840342  0.346554  1
  Pt  Pt24  1  0.077037  0.345742  0.161813  1
  Pt  Pt25  1  0.841250  0.578481  0.155984  1
  Pt  Pt26  1  0.659170  0.421533  0.655073  1
  Pt  Pt27  1  0.346554  0.922665  0.840342  1
  Pt  Pt28  1  0.161813  0.077037  0.345742  1
  Pt  Pt29  1  0.155984  0.841250  0.578481  1
  Pt  Pt30  1  0.655073  0.659170  0.421533  1
  Pt  Pt31  1  0.840342  0.346554  0.922665  1
  Pt  Pt32  1  0.345742  0.161813  0.077037  1
  Pb  Pb33  1  0.500000  0.500000  0.000000  1
  Pb  Pb34  1  0.500000  0.000000  0.500000  1
  Pb  Pb35  1  0.000000  0.500000  0.500000  1
