# generated using pymatgen
data_NdPa5(Ni3As2)6
_symmetry_space_group_name_H-M   'P 1'
_cell_length_a   3.93952100
_cell_length_b   10.73736100
_cell_length_c   12.80685200
_cell_angle_alpha   90.00000000
_cell_angle_beta   90.00000000
_cell_angle_gamma   90.00000000
_symmetry_Int_Tables_number   1
_chemical_formula_structural   NdPa5(Ni3As2)6
_chemical_formula_sum   'Nd1 Pa5 Ni18 As12'
_cell_volume   541.73059705
_cell_formula_units_Z   1
loop_
 _symmetry_equiv_pos_site_id
 _symmetry_equiv_pos_as_xyz
  1  'x, y, z'
loop_
 _atom_site_type_symbol
 _atom_site_label
 _atom_site_symmetry_multiplicity
 _atom_site_fract_x
 _atom_site_fract_y
 _atom_site_fract_z
 _atom_site_occupancy
  Nd  Nd0  1  0.500000  0.000000  0.481324  1
  Pa  Pa1  1  0.000000  0.500000  0.518882  1
  Pa  Pa2  1  0.500000  0.814663  0.206758  1
  Pa  Pa3  1  0.500000  0.185337  0.206758  1
  Pa  Pa4  1  0.000000  0.685541  0.792888  1
  Pa  Pa5  1  0.000000  0.314459  0.792888  1
  Ni  Ni6  1  0.500000  0.500000  0.150130  1
  Ni  Ni7  1  0.000000  0.000000  0.848248  1
  Ni  Ni8  1  0.500000  0.500000  0.697184  1
  Ni  Ni9  1  0.000000  0.000000  0.298103  1
  Ni  Ni10  1  0.000000  0.500000  0.973964  1
  Ni  Ni11  1  0.500000  0.000000  0.025254  1
  Ni  Ni12  1  0.500000  0.329543  0.998083  1
  Ni  Ni13  1  0.500000  0.670457  0.998083  1
  Ni  Ni14  1  0.000000  0.171346  0.000887  1
  Ni  Ni15  1  0.000000  0.828654  0.000887  1
  Ni  Ni16  1  0.500000  0.307618  0.424860  1
  Ni  Ni17  1  0.500000  0.692382  0.424860  1
  Ni  Ni18  1  0.000000  0.198027  0.578115  1
  Ni  Ni19  1  0.000000  0.801973  0.578115  1
  Ni  Ni20  1  0.500000  0.876389  0.708941  1
  Ni  Ni21  1  0.500000  0.123611  0.708941  1
  Ni  Ni22  1  0.000000  0.621816  0.294587  1
  Ni  Ni23  1  0.000000  0.378184  0.294587  1
  As  As24  1  0.500000  0.500000  0.875694  1
  As  As25  1  0.000000  0.000000  0.121577  1
  As  As26  1  0.500000  0.500000  0.335131  1
  As  As27  1  0.000000  0.000000  0.663801  1
  As  As28  1  0.500000  0.312585  0.610078  1
  As  As29  1  0.500000  0.687415  0.610078  1
  As  As30  1  0.000000  0.188773  0.389175  1
  As  As31  1  0.000000  0.811227  0.389175  1
  As  As32  1  0.500000  0.852029  0.892599  1
  As  As33  1  0.500000  0.147971  0.892599  1
  As  As34  1  0.000000  0.647743  0.108384  1
  As  As35  1  0.000000  0.352257  0.108384  1
