# generated using pymatgen
data_DyEr3(TiIr)4
_symmetry_space_group_name_H-M   'P 1'
_cell_length_a   4.32705000
_cell_length_b   6.89155546
_cell_length_c   8.10281824
_cell_angle_alpha   89.88165261
_cell_angle_beta   90.00000000
_cell_angle_gamma   90.00000000
_symmetry_Int_Tables_number   1
_chemical_formula_structural   DyEr3(TiIr)4
_chemical_formula_sum   'Dy1 Er3 Ti4 Ir4'
_cell_volume   241.62637555
_cell_formula_units_Z   1
loop_
 _symmetry_equiv_pos_site_id
 _symmetry_equiv_pos_as_xyz
  1  'x, y, z'
loop_
 _atom_site_type_symbol
 _atom_site_label
 _atom_site_symmetry_multiplicity
 _atom_site_fract_x
 _atom_site_fract_y
 _atom_site_fract_z
 _atom_site_occupancy
  Dy  Dy0  1  0.250000  0.984444  0.317871  1
  Er  Er1  1  0.250000  0.483318  0.181670  1
  Er  Er2  1  0.750000  0.016761  0.682915  1
  Er  Er3  1  0.750000  0.516413  0.817831  1
  Ti  Ti4  1  0.250000  0.360187  0.567842  1
  Ti  Ti5  1  0.250000  0.859481  0.932179  1
  Ti  Ti6  1  0.750000  0.639701  0.433535  1
  Ti  Ti7  1  0.750000  0.139768  0.065503  1
  Ir  Ir8  1  0.250000  0.222318  0.904540  1
  Ir  Ir9  1  0.250000  0.721822  0.596151  1
  Ir  Ir10  1  0.750000  0.777164  0.094173  1
  Ir  Ir11  1  0.750000  0.278622  0.405790  1
