# generated using pymatgen
data_Ba8Cd(Si4Hg)3
_symmetry_space_group_name_H-M   'P 1'
_cell_length_a   12.70138063
_cell_length_b   11.06234498
_cell_length_c   8.70500427
_cell_angle_alpha   78.95557806
_cell_angle_beta   58.72295999
_cell_angle_gamma   42.81528213
_symmetry_Int_Tables_number   1
_chemical_formula_structural   Ba8Cd(Si4Hg)3
_chemical_formula_sum   'Ba8 Cd1 Si12 Hg3'
_cell_volume   671.68756096
_cell_formula_units_Z   1
loop_
 _symmetry_equiv_pos_site_id
 _symmetry_equiv_pos_as_xyz
  1  'x, y, z'
loop_
 _atom_site_type_symbol
 _atom_site_label
 _atom_site_symmetry_multiplicity
 _atom_site_fract_x
 _atom_site_fract_y
 _atom_site_fract_z
 _atom_site_occupancy
  Ba  Ba0  1  0.874591  0.876120  0.123876  1
  Ba  Ba1  1  0.122592  0.123885  0.875832  1
  Ba  Ba2  1  0.375387  0.372342  0.125322  1
  Ba  Ba3  1  0.127198  0.128769  0.373683  1
  Ba  Ba4  1  0.622255  0.622033  0.378015  1
  Ba  Ba5  1  0.377117  0.376820  0.623133  1
  Ba  Ba6  1  0.629413  0.627350  0.870411  1
  Ba  Ba7  1  0.871241  0.873206  0.629559  1
  Cd  Cd8  1  0.167699  0.833219  0.168790  1
  Si  Si9  1  0.651153  0.335616  0.191142  1
  Si  Si10  1  0.820091  0.184464  0.337902  1
  Si  Si11  1  0.185337  0.821138  0.656856  1
  Si  Si12  1  0.335881  0.650432  0.821412  1
  Si  Si13  1  0.589225  0.905564  0.592235  1
  Si  Si14  1  0.905774  0.589641  0.912761  1
  Si  Si15  1  0.660674  0.344731  0.657575  1
  Si  Si16  1  0.344147  0.659973  0.337866  1
  Si  Si17  1  0.914405  0.599642  0.427850  1
  Si  Si18  1  0.065933  0.429495  0.592424  1
  Si  Si19  1  0.429717  0.065828  0.912052  1
  Si  Si20  1  0.597211  0.912643  0.060671  1
  Hg  Hg21  1  0.417258  0.082215  0.419526  1
  Hg  Hg22  1  0.834035  0.168225  0.829332  1
  Hg  Hg23  1  0.081666  0.416650  0.081775  1
