# generated using pymatgen
data_Ho3TlF10
_symmetry_space_group_name_H-M   'P 1'
_cell_length_a   8.21826142
_cell_length_b   8.21826136
_cell_length_c   8.21826100
_cell_angle_alpha   59.99999742
_cell_angle_beta   59.99999768
_cell_angle_gamma   59.99999587
_symmetry_Int_Tables_number   1
_chemical_formula_structural   Ho3TlF10
_chemical_formula_sum   'Ho6 Tl2 F20'
_cell_volume   392.48657196
_cell_formula_units_Z   2
loop_
 _symmetry_equiv_pos_site_id
 _symmetry_equiv_pos_as_xyz
  1  'x, y, z'
loop_
 _atom_site_type_symbol
 _atom_site_label
 _atom_site_symmetry_multiplicity
 _atom_site_fract_x
 _atom_site_fract_y
 _atom_site_fract_z
 _atom_site_occupancy
  Ho  Ho0  1  0.759461  0.240539  0.240539  1
  Ho  Ho1  1  0.240539  0.759461  0.759461  1
  Ho  Ho2  1  0.240539  0.759461  0.240539  1
  Ho  Ho3  1  0.759461  0.240539  0.759461  1
  Ho  Ho4  1  0.240539  0.240539  0.759461  1
  Ho  Ho5  1  0.759461  0.759461  0.240539  1
  Tl  Tl6  1  0.250000  0.250000  0.250000  1
  Tl  Tl7  1  0.750000  0.750000  0.750000  1
  F  F8  1  0.829496  0.500000  0.500000  1
  F  F9  1  0.170504  0.500000  0.500000  1
  F  F10  1  0.500000  0.829496  0.170504  1
  F  F11  1  0.500000  0.170504  0.829496  1
  F  F12  1  0.500000  0.829496  0.500000  1
  F  F13  1  0.170504  0.500000  0.829496  1
  F  F14  1  0.500000  0.170504  0.500000  1
  F  F15  1  0.829496  0.500000  0.170504  1
  F  F16  1  0.500000  0.500000  0.829496  1
  F  F17  1  0.500000  0.500000  0.170504  1
  F  F18  1  0.170504  0.829496  0.500000  1
  F  F19  1  0.829496  0.170504  0.500000  1
  F  F20  1  0.110651  0.110651  0.110651  1
  F  F21  1  0.889349  0.889349  0.889349  1
  F  F22  1  0.110651  0.110651  0.668047  1
  F  F23  1  0.110651  0.668047  0.110651  1
  F  F24  1  0.889349  0.889349  0.331953  1
  F  F25  1  0.889349  0.331953  0.889349  1
  F  F26  1  0.668047  0.110651  0.110651  1
  F  F27  1  0.331953  0.889349  0.889349  1
