# generated using pymatgen
data_Tb20Si12Br
_symmetry_space_group_name_H-M   'P 1'
_cell_length_a   14.88363000
_cell_length_b   6.42950904
_cell_length_c   8.54262611
_cell_angle_alpha   90.01516129
_cell_angle_beta   90.00000000
_cell_angle_gamma   90.00000000
_symmetry_Int_Tables_number   1
_chemical_formula_structural   Tb20Si12Br
_chemical_formula_sum   'Tb20 Si12 Br1'
_cell_volume   817.48173801
_cell_formula_units_Z   1
loop_
 _symmetry_equiv_pos_site_id
 _symmetry_equiv_pos_as_xyz
  1  'x, y, z'
loop_
 _atom_site_type_symbol
 _atom_site_label
 _atom_site_symmetry_multiplicity
 _atom_site_fract_x
 _atom_site_fract_y
 _atom_site_fract_z
 _atom_site_occupancy
  Tb  Tb0  1  0.668340  0.500000  0.500000  1
  Tb  Tb1  1  0.167440  0.500000  0.000000  1
  Tb  Tb2  1  0.832560  0.500000  0.000000  1
  Tb  Tb3  1  0.331660  0.500000  0.500000  1
  Tb  Tb4  1  0.828497  0.000000  0.000000  1
  Tb  Tb5  1  0.338528  0.000000  0.500000  1
  Tb  Tb6  1  0.661472  0.000000  0.500000  1
  Tb  Tb7  1  0.171503  0.000000  0.000000  1
  Tb  Tb8  1  0.500000  0.254524  0.756647  1
  Tb  Tb9  1  0.000000  0.229170  0.238926  1
  Tb  Tb10  1  0.620051  0.250055  0.123497  1
  Tb  Tb11  1  0.129707  0.228790  0.630604  1
  Tb  Tb12  1  0.870293  0.228790  0.630604  1
  Tb  Tb13  1  0.379949  0.250055  0.123497  1
  Tb  Tb14  1  0.000000  0.770830  0.761074  1
  Tb  Tb15  1  0.500000  0.745476  0.243353  1
  Tb  Tb16  1  0.870293  0.771210  0.369396  1
  Tb  Tb17  1  0.379949  0.749945  0.876503  1
  Tb  Tb18  1  0.620051  0.749945  0.876503  1
  Tb  Tb19  1  0.129707  0.771210  0.369396  1
  Si  Si20  1  0.000000  0.242046  0.890952  1
  Si  Si21  1  0.500000  0.257701  0.394420  1
  Si  Si22  1  0.802165  0.243533  0.303410  1
  Si  Si23  1  0.304663  0.249880  0.804272  1
  Si  Si24  1  0.695337  0.249880  0.804272  1
  Si  Si25  1  0.197835  0.243533  0.303410  1
  Si  Si26  1  0.500000  0.742299  0.605580  1
  Si  Si27  1  0.000000  0.757954  0.109048  1
  Si  Si28  1  0.695337  0.750120  0.195728  1
  Si  Si29  1  0.197835  0.756467  0.696590  1
  Si  Si30  1  0.802165  0.756467  0.696590  1
  Si  Si31  1  0.304663  0.750120  0.195728  1
  Br  Br32  1  0.000000  0.500000  0.500000  1
