# generated using pymatgen
data_Ca20CdGa8BiPb2
_symmetry_space_group_name_H-M   'P 1'
_cell_length_a   8.17592900
_cell_length_b   8.17592900
_cell_length_c   14.61908400
_cell_angle_alpha   90.00000000
_cell_angle_beta   90.00000000
_cell_angle_gamma   90.00000000
_symmetry_Int_Tables_number   1
_chemical_formula_structural   Ca20CdGa8BiPb2
_chemical_formula_sum   'Ca20 Cd1 Ga8 Bi1 Pb2'
_cell_volume   977.22458472
_cell_formula_units_Z   1
loop_
 _symmetry_equiv_pos_site_id
 _symmetry_equiv_pos_as_xyz
  1  'x, y, z'
loop_
 _atom_site_type_symbol
 _atom_site_label
 _atom_site_symmetry_multiplicity
 _atom_site_fract_x
 _atom_site_fract_y
 _atom_site_fract_z
 _atom_site_occupancy
  Ca  Ca0  1  0.671648  0.176139  0.111557  1
  Ca  Ca1  1  0.177841  0.670356  0.611433  1
  Ca  Ca2  1  0.328352  0.823861  0.111557  1
  Ca  Ca3  1  0.822159  0.329644  0.611433  1
  Ca  Ca4  1  0.823861  0.671648  0.111557  1
  Ca  Ca5  1  0.329644  0.177841  0.611433  1
  Ca  Ca6  1  0.176139  0.328352  0.111557  1
  Ca  Ca7  1  0.670356  0.822159  0.611433  1
  Ca  Ca8  1  0.823861  0.328352  0.888443  1
  Ca  Ca9  1  0.329644  0.822159  0.388567  1
  Ca  Ca10  1  0.176139  0.671648  0.888443  1
  Ca  Ca11  1  0.670356  0.177841  0.388567  1
  Ca  Ca12  1  0.671648  0.823861  0.888443  1
  Ca  Ca13  1  0.177841  0.329644  0.388567  1
  Ca  Ca14  1  0.328352  0.176139  0.888443  1
  Ca  Ca15  1  0.822159  0.670356  0.388567  1
  Ca  Ca16  1  0.500000  0.500000  0.751337  1
  Ca  Ca17  1  0.000000  0.000000  0.248753  1
  Ca  Ca18  1  0.000000  0.000000  0.751247  1
  Ca  Ca19  1  0.500000  0.500000  0.248663  1
  Cd  Cd20  1  0.000000  0.000000  0.500000  1
  Ga  Ga21  1  0.614590  0.111320  0.750670  1
  Ga  Ga22  1  0.111320  0.614590  0.249330  1
  Ga  Ga23  1  0.888680  0.385410  0.249330  1
  Ga  Ga24  1  0.385410  0.888680  0.750670  1
  Ga  Ga25  1  0.888680  0.614590  0.750670  1
  Ga  Ga26  1  0.385410  0.111320  0.249330  1
  Ga  Ga27  1  0.111320  0.385410  0.750670  1
  Ga  Ga28  1  0.614590  0.888680  0.249330  1
  Bi  Bi29  1  0.000000  0.000000  0.000000  1
  Pb  Pb30  1  0.500000  0.500000  0.500000  1
  Pb  Pb31  1  0.500000  0.500000  0.000000  1
