# generated using pymatgen
data_Yb2B5OsRu2
_symmetry_space_group_name_H-M   'P 1'
_cell_length_a   5.52893485
_cell_length_b   5.54317068
_cell_length_c   7.93172422
_cell_angle_alpha   59.18797741
_cell_angle_beta   59.23384043
_cell_angle_gamma   43.23326125
_symmetry_Int_Tables_number   1
_chemical_formula_structural   Yb2B5OsRu2
_chemical_formula_sum   'Yb2 B5 Os1 Ru2'
_cell_volume   138.99653122
_cell_formula_units_Z   1
loop_
 _symmetry_equiv_pos_site_id
 _symmetry_equiv_pos_as_xyz
  1  'x, y, z'
loop_
 _atom_site_type_symbol
 _atom_site_label
 _atom_site_symmetry_multiplicity
 _atom_site_fract_x
 _atom_site_fract_y
 _atom_site_fract_z
 _atom_site_occupancy
  Yb  Yb0  1  0.395875  0.919308  0.742249  1
  Yb  Yb1  1  0.080123  0.605272  0.259930  1
  B  B2  1  0.735683  0.262426  0.999991  1
  B  B3  1  0.539575  0.533562  0.378437  1
  B  B4  1  0.468526  0.463055  0.621942  1
  B  B5  1  0.078007  0.625083  0.810578  1
  B  B6  1  0.372316  0.919584  0.187974  1
  Os  Os7  1  0.878782  0.391089  0.097556  1
  Ru  Ru8  1  0.007691  0.994705  0.499921  1
  Ru  Ru9  1  0.609694  0.119646  0.901421  1
