# generated using pymatgen
data_Gd3YS4
_symmetry_space_group_name_H-M   'P 1'
_cell_length_a   6.79604950
_cell_length_b   6.79604924
_cell_length_c   6.84141118
_cell_angle_alpha   80.96252717
_cell_angle_beta   80.96252896
_cell_angle_gamma   33.84160768
_symmetry_Int_Tables_number   1
_chemical_formula_structural   Gd3YS4
_chemical_formula_sum   'Gd3 Y1 S4'
_cell_volume   173.58050561
_cell_formula_units_Z   1
loop_
 _symmetry_equiv_pos_site_id
 _symmetry_equiv_pos_as_xyz
  1  'x, y, z'
loop_
 _atom_site_type_symbol
 _atom_site_label
 _atom_site_symmetry_multiplicity
 _atom_site_fract_x
 _atom_site_fract_y
 _atom_site_fract_z
 _atom_site_occupancy
  Gd  Gd0  1  0.250907  0.250907  0.249575  1
  Gd  Gd1  1  0.500000  0.500000  0.500000  1
  Gd  Gd2  1  0.749093  0.749093  0.750425  1
  Y  Y3  1  0.000000  0.000000  0.000000  1
  S  S4  1  0.624253  0.624253  0.124317  1
  S  S5  1  0.875355  0.875355  0.374320  1
  S  S6  1  0.124645  0.124645  0.625680  1
  S  S7  1  0.375747  0.375747  0.875683  1
