# generated using pymatgen
data_Tb11Dy2Er7(CoSb2)4
_symmetry_space_group_name_H-M   'P 1'
_cell_length_a   7.87082323
_cell_length_b   8.76969434
_cell_length_c   12.21095447
_cell_angle_alpha   89.97924333
_cell_angle_beta   90.04110234
_cell_angle_gamma   90.02418763
_symmetry_Int_Tables_number   1
_chemical_formula_structural   Tb11Dy2Er7(CoSb2)4
_chemical_formula_sum   'Tb11 Dy2 Er7 Co4 Sb8'
_cell_volume   842.85729203
_cell_formula_units_Z   1
loop_
 _symmetry_equiv_pos_site_id
 _symmetry_equiv_pos_as_xyz
  1  'x, y, z'
loop_
 _atom_site_type_symbol
 _atom_site_label
 _atom_site_symmetry_multiplicity
 _atom_site_fract_x
 _atom_site_fract_y
 _atom_site_fract_z
 _atom_site_occupancy
  Tb  Tb0  1  0.653264  0.250093  0.297020  1
  Tb  Tb1  1  0.847011  0.250130  0.797009  1
  Tb  Tb2  1  0.346953  0.749960  0.702908  1
  Tb  Tb3  1  0.453154  0.749775  0.997754  1
  Tb  Tb4  1  0.953950  0.250023  0.501865  1
  Tb  Tb5  1  0.545367  0.250317  0.002496  1
  Tb  Tb6  1  0.046349  0.749941  0.497695  1
  Tb  Tb7  1  0.622517  0.750043  0.307800  1
  Tb  Tb8  1  0.123175  0.250257  0.192540  1
  Tb  Tb9  1  0.377348  0.250034  0.692276  1
  Tb  Tb10  1  0.877454  0.749623  0.807341  1
  Dy  Dy11  1  0.153498  0.749735  0.202815  1
  Dy  Dy12  1  0.821031  0.964701  0.065309  1
  Er  Er13  1  0.323276  0.034824  0.434952  1
  Er  Er14  1  0.176652  0.464751  0.935156  1
  Er  Er15  1  0.676926  0.535126  0.565043  1
  Er  Er16  1  0.177097  0.035180  0.935008  1
  Er  Er17  1  0.676867  0.964842  0.565019  1
  Er  Er18  1  0.823141  0.535461  0.065092  1
  Er  Er19  1  0.323318  0.465101  0.434965  1
  Co  Co20  1  0.437025  0.749984  0.491597  1
  Co  Co21  1  0.937068  0.250534  0.008693  1
  Co  Co22  1  0.563481  0.250008  0.508329  1
  Co  Co23  1  0.064388  0.749297  0.991057  1
  Sb  Sb24  1  0.929736  0.992186  0.326946  1
  Sb  Sb25  1  0.427923  0.007744  0.173467  1
  Sb  Sb26  1  0.070909  0.492288  0.672885  1
  Sb  Sb27  1  0.570906  0.507569  0.827078  1
  Sb  Sb28  1  0.070854  0.007736  0.672972  1
  Sb  Sb29  1  0.571091  0.992455  0.827075  1
  Sb  Sb30  1  0.929531  0.507853  0.326597  1
  Sb  Sb31  1  0.428741  0.492430  0.173241  1
