# generated using pymatgen
data_Pr20Ga4Si7As
_symmetry_space_group_name_H-M   'P 1'
_cell_length_a   7.86810594
_cell_length_b   7.86018590
_cell_length_c   14.52088734
_cell_angle_alpha   89.96957142
_cell_angle_beta   90.06475928
_cell_angle_gamma   89.92487000
_symmetry_Int_Tables_number   1
_chemical_formula_structural   Pr20Ga4Si7As
_chemical_formula_sum   'Pr20 Ga4 Si7 As1'
_cell_volume   898.03954300
_cell_formula_units_Z   1
loop_
 _symmetry_equiv_pos_site_id
 _symmetry_equiv_pos_as_xyz
  1  'x, y, z'
loop_
 _atom_site_type_symbol
 _atom_site_label
 _atom_site_symmetry_multiplicity
 _atom_site_fract_x
 _atom_site_fract_y
 _atom_site_fract_z
 _atom_site_occupancy
  Pr  Pr0  1  0.818754  0.825579  0.607132  1
  Pr  Pr1  1  0.185549  0.834241  0.106822  1
  Pr  Pr2  1  0.165804  0.807792  0.393292  1
  Pr  Pr3  1  0.000244  0.498487  0.743193  1
  Pr  Pr4  1  0.834877  0.190809  0.394042  1
  Pr  Pr5  1  0.687862  0.663949  0.393184  1
  Pr  Pr6  1  0.672589  0.318900  0.606566  1
  Pr  Pr7  1  0.325089  0.680280  0.606850  1
  Pr  Pr8  1  0.998991  0.504232  0.216904  1
  Pr  Pr9  1  0.664795  0.685025  0.107346  1
  Pr  Pr10  1  0.681760  0.330507  0.891593  1
  Pr  Pr11  1  0.830770  0.817389  0.891034  1
  Pr  Pr12  1  0.315629  0.339915  0.395113  1
  Pr  Pr13  1  0.179176  0.172492  0.606403  1
  Pr  Pr14  1  0.812423  0.165474  0.107774  1
  Pr  Pr15  1  0.317261  0.667066  0.891506  1
  Pr  Pr16  1  0.338524  0.318382  0.105717  1
  Pr  Pr17  1  0.504319  0.999809  0.274008  1
  Pr  Pr18  1  0.168037  0.181333  0.891874  1
  Pr  Pr19  1  0.499352  0.999888  0.772422  1
  Ga  Ga20  1  0.499457  0.999529  0.494022  1
  Ga  Ga21  1  0.499239  0.998987  0.994467  1
  Ga  Ga22  1  0.118604  0.119250  0.251846  1
  Ga  Ga23  1  0.999355  0.499267  0.999424  1
  Si  Si24  1  0.615496  0.385811  0.251539  1
  Si  Si25  1  0.114655  0.885837  0.747191  1
  Si  Si26  1  0.385745  0.383864  0.746833  1
  Si  Si27  1  0.385582  0.615646  0.250918  1
  Si  Si28  1  0.883676  0.882741  0.251858  1
  Si  Si29  1  0.613116  0.614858  0.746738  1
  Si  Si30  1  0.884186  0.112965  0.747071  1
  As  As31  1  0.999081  0.499692  0.515318  1
