# generated using pymatgen
data_Tb11Y5Cd4Os3Pd
_symmetry_space_group_name_H-M   'P 1'
_cell_length_a   9.67362222
_cell_length_b   9.77354372
_cell_length_c   9.77354202
_cell_angle_alpha   59.84073051
_cell_angle_beta   59.39291325
_cell_angle_gamma   59.39291205
_symmetry_Int_Tables_number   1
_chemical_formula_structural   Tb11Y5Cd4Os3Pd
_chemical_formula_sum   'Tb11 Y5 Cd4 Os3 Pd1'
_cell_volume   646.57037264
_cell_formula_units_Z   1
loop_
 _symmetry_equiv_pos_site_id
 _symmetry_equiv_pos_as_xyz
  1  'x, y, z'
loop_
 _atom_site_type_symbol
 _atom_site_label
 _atom_site_symmetry_multiplicity
 _atom_site_fract_x
 _atom_site_fract_y
 _atom_site_fract_z
 _atom_site_occupancy
  Tb  Tb0  1  0.347420  0.350939  0.350939  1
  Tb  Tb1  1  0.345164  0.352800  0.952557  1
  Tb  Tb2  1  0.345164  0.952557  0.352800  1
  Tb  Tb3  1  0.968611  0.343213  0.343213  1
  Tb  Tb4  1  0.814298  0.190315  0.190315  1
  Tb  Tb5  1  0.184317  0.810497  0.810497  1
  Tb  Tb6  1  0.186898  0.810558  0.191705  1
  Tb  Tb7  1  0.814455  0.190311  0.803024  1
  Tb  Tb8  1  0.186898  0.191705  0.810558  1
  Tb  Tb9  1  0.814455  0.803024  0.190311  1
  Tb  Tb10  1  0.938206  0.559852  0.559852  1
  Y  Y11  1  0.553469  0.940310  0.940310  1
  Y  Y12  1  0.554031  0.939503  0.567397  1
  Y  Y13  1  0.935296  0.562065  0.939244  1
  Y  Y14  1  0.554031  0.567397  0.939503  1
  Y  Y15  1  0.935296  0.939244  0.562065  1
  Cd  Cd16  1  0.580306  0.579729  0.579729  1
  Cd  Cd17  1  0.581367  0.579464  0.258724  1
  Cd  Cd18  1  0.581367  0.258724  0.579464  1
  Cd  Cd19  1  0.255628  0.581558  0.581558  1
  Os  Os20  1  0.149110  0.136412  0.136412  1
  Os  Os21  1  0.149093  0.139189  0.578622  1
  Os  Os22  1  0.149093  0.578622  0.139189  1
  Pd  Pd23  1  0.576029  0.142011  0.142011  1
