# generated using pymatgen
data_Ac3InGa2Pt3
_symmetry_space_group_name_H-M   'P 1'
_cell_length_a   7.74779400
_cell_length_b   7.74779353
_cell_length_c   4.27164700
_cell_angle_alpha   90.00000000
_cell_angle_beta   90.00000000
_cell_angle_gamma   119.30398402
_symmetry_Int_Tables_number   1
_chemical_formula_structural   Ac3InGa2Pt3
_chemical_formula_sum   'Ac3 In1 Ga2 Pt3'
_cell_volume   223.60705222
_cell_formula_units_Z   1
loop_
 _symmetry_equiv_pos_site_id
 _symmetry_equiv_pos_as_xyz
  1  'x, y, z'
loop_
 _atom_site_type_symbol
 _atom_site_label
 _atom_site_symmetry_multiplicity
 _atom_site_fract_x
 _atom_site_fract_y
 _atom_site_fract_z
 _atom_site_occupancy
  Ac  Ac0  1  0.419228  0.995824  0.500000  1
  Ac  Ac1  1  0.592619  0.592619  0.500000  1
  Ac  Ac2  1  0.995824  0.419228  0.500000  1
  In  In3  1  0.235546  0.235546  0.000000  1
  Ga  Ga4  1  0.002069  0.769422  0.000000  1
  Ga  Ga5  1  0.769422  0.002069  0.000000  1
  Pt  Pt6  1  0.985518  0.985518  0.500000  1
  Pt  Pt7  1  0.668130  0.331643  0.000000  1
  Pt  Pt8  1  0.331643  0.668130  0.000000  1
