# generated using pymatgen
data_Ho4UCo5Ru2
_symmetry_space_group_name_H-M   'P 1'
_cell_length_a   5.37264430
_cell_length_b   5.02584487
_cell_length_c   8.94731500
_cell_angle_alpha   90.00000000
_cell_angle_beta   90.00000000
_cell_angle_gamma   122.23557509
_symmetry_Int_Tables_number   1
_chemical_formula_structural   Ho4UCo5Ru2
_chemical_formula_sum   'Ho4 U1 Co5 Ru2'
_cell_volume   204.35698274
_cell_formula_units_Z   1
loop_
 _symmetry_equiv_pos_site_id
 _symmetry_equiv_pos_as_xyz
  1  'x, y, z'
loop_
 _atom_site_type_symbol
 _atom_site_label
 _atom_site_symmetry_multiplicity
 _atom_site_fract_x
 _atom_site_fract_y
 _atom_site_fract_z
 _atom_site_occupancy
  Ho  Ho0  1  0.673198  0.346011  0.551327  1
  Ho  Ho1  1  0.340911  0.682712  0.424048  1
  Ho  Ho2  1  0.340911  0.682712  0.075952  1
  Ho  Ho3  1  0.673198  0.346011  0.948673  1
  U  U4  1  0.139168  0.277639  0.750000  1
  Co  Co5  1  0.145293  0.777078  0.750000  1
  Co  Co6  1  0.632622  0.777907  0.750000  1
  Co  Co7  1  0.836958  0.674385  0.250000  1
  Co  Co8  1  0.845210  0.189077  0.250000  1
  Co  Co9  1  0.343893  0.189453  0.250000  1
  Ru  Ru10  1  0.014320  0.028507  0.497396  1
  Ru  Ru11  1  0.014320  0.028507  0.002604  1
