# generated using pymatgen
data_Nd8Al(Si4Pt)3
_symmetry_space_group_name_H-M   'P 1'
_cell_length_a   8.24359500
_cell_length_b   8.24359639
_cell_length_c   8.59777600
_cell_angle_alpha   90.00000000
_cell_angle_beta   90.00000000
_cell_angle_gamma   119.99999845
_symmetry_Int_Tables_number   1
_chemical_formula_structural   Nd8Al(Si4Pt)3
_chemical_formula_sum   'Nd8 Al1 Si12 Pt3'
_cell_volume   505.99955154
_cell_formula_units_Z   1
loop_
 _symmetry_equiv_pos_site_id
 _symmetry_equiv_pos_as_xyz
  1  'x, y, z'
loop_
 _atom_site_type_symbol
 _atom_site_label
 _atom_site_symmetry_multiplicity
 _atom_site_fract_x
 _atom_site_fract_y
 _atom_site_fract_z
 _atom_site_occupancy
  Nd  Nd0  1  0.498795  0.501205  0.749012  1
  Nd  Nd1  1  0.499875  0.500125  0.250831  1
  Nd  Nd2  1  0.002409  0.501205  0.749012  1
  Nd  Nd3  1  0.000251  0.500125  0.250831  1
  Nd  Nd4  1  0.498795  0.997591  0.749012  1
  Nd  Nd5  1  0.499875  0.999749  0.250831  1
  Nd  Nd6  1  0.000000  0.000000  0.749417  1
  Nd  Nd7  1  0.000000  0.000000  0.251070  1
  Al  Al8  1  0.666667  0.333333  0.996127  1
  Si  Si9  1  0.837164  0.162836  0.001178  1
  Si  Si10  1  0.168016  0.831984  0.999320  1
  Si  Si11  1  0.325674  0.162836  0.001178  1
  Si  Si12  1  0.166328  0.833672  0.499255  1
  Si  Si13  1  0.663968  0.831984  0.999320  1
  Si  Si14  1  0.833898  0.166102  0.500798  1
  Si  Si15  1  0.837164  0.674326  0.001178  1
  Si  Si16  1  0.667343  0.833672  0.499255  1
  Si  Si17  1  0.168016  0.336032  0.999320  1
  Si  Si18  1  0.332205  0.166102  0.500798  1
  Si  Si19  1  0.166328  0.332657  0.499255  1
  Si  Si20  1  0.833898  0.667795  0.500798  1
  Pt  Pt21  1  0.333333  0.666667  0.001888  1
  Pt  Pt22  1  0.333333  0.666667  0.499247  1
  Pt  Pt23  1  0.666667  0.333333  0.501068  1
