# generated using pymatgen
data_Nd(Al3Ni)3
_symmetry_space_group_name_H-M   'P 1'
_cell_length_a   10.13517835
_cell_length_b   10.13517830
_cell_length_c   10.13517699
_cell_angle_alpha   42.35563589
_cell_angle_beta   42.35563310
_cell_angle_gamma   42.35563859
_symmetry_Int_Tables_number   1
_chemical_formula_structural   Nd(Al3Ni)3
_chemical_formula_sum   'Nd2 Al18 Ni6'
_cell_volume   427.77872075
_cell_formula_units_Z   2
loop_
 _symmetry_equiv_pos_site_id
 _symmetry_equiv_pos_as_xyz
  1  'x, y, z'
loop_
 _atom_site_type_symbol
 _atom_site_label
 _atom_site_symmetry_multiplicity
 _atom_site_fract_x
 _atom_site_fract_y
 _atom_site_fract_z
 _atom_site_occupancy
  Nd  Nd0  1  0.166879  0.166879  0.166879  1
  Nd  Nd1  1  0.833121  0.833121  0.833121  1
  Al  Al2  1  0.051473  0.051473  0.051473  1
  Al  Al3  1  0.705517  0.500000  0.294483  1
  Al  Al4  1  0.665415  0.334585  0.000000  1
  Al  Al5  1  0.102592  0.430188  0.758191  1
  Al  Al6  1  0.430188  0.758191  0.102592  1
  Al  Al7  1  0.386455  0.386455  0.386455  1
  Al  Al8  1  0.334585  0.000000  0.665415  1
  Al  Al9  1  0.613545  0.613545  0.613545  1
  Al  Al10  1  0.241809  0.569812  0.897408  1
  Al  Al11  1  0.569812  0.897408  0.241809  1
  Al  Al12  1  0.500000  0.294483  0.705517  1
  Al  Al13  1  0.758191  0.102592  0.430188  1
  Al  Al14  1  0.948527  0.948527  0.948527  1
  Al  Al15  1  0.294483  0.705517  0.500000  1
  Al  Al16  1  0.000000  0.665415  0.334585  1
  Al  Al17  1  0.717785  0.717785  0.717785  1
  Al  Al18  1  0.282215  0.282215  0.282215  1
  Al  Al19  1  0.897408  0.241809  0.569812  1
  Ni  Ni20  1  0.243650  0.921249  0.582373  1
  Ni  Ni21  1  0.921249  0.582373  0.243650  1
  Ni  Ni22  1  0.756350  0.417627  0.078751  1
  Ni  Ni23  1  0.078751  0.756350  0.417627  1
  Ni  Ni24  1  0.417627  0.078751  0.756350  1
  Ni  Ni25  1  0.582373  0.243650  0.921249  1
