# generated using pymatgen
data_KPaRhS3
_symmetry_space_group_name_H-M   'P 1'
_cell_length_a   7.67895445
_cell_length_b   7.67895447
_cell_length_c   10.19519000
_cell_angle_alpha   90.00000000
_cell_angle_beta   90.00000000
_cell_angle_gamma   151.70697549
_symmetry_Int_Tables_number   1
_chemical_formula_structural   KPaRhS3
_chemical_formula_sum   'K2 Pa2 Rh2 S6'
_cell_volume   284.94461332
_cell_formula_units_Z   2
loop_
 _symmetry_equiv_pos_site_id
 _symmetry_equiv_pos_as_xyz
  1  'x, y, z'
loop_
 _atom_site_type_symbol
 _atom_site_label
 _atom_site_symmetry_multiplicity
 _atom_site_fract_x
 _atom_site_fract_y
 _atom_site_fract_z
 _atom_site_occupancy
  K  K0  1  0.253355  0.746646  0.250000  1
  K  K1  1  0.746646  0.253355  0.750000  1
  Pa  Pa2  1  0.000000  0.000000  0.000000  1
  Pa  Pa3  1  0.000000  0.000000  0.500000  1
  Rh  Rh4  1  0.529011  0.470990  0.250000  1
  Rh  Rh5  1  0.470990  0.529011  0.750000  1
  S  S6  1  0.626522  0.373479  0.057234  1
  S  S7  1  0.933587  0.066414  0.250000  1
  S  S8  1  0.626522  0.373479  0.442766  1
  S  S9  1  0.373479  0.626522  0.557234  1
  S  S10  1  0.066414  0.933587  0.750000  1
  S  S11  1  0.373479  0.626522  0.942766  1
