# generated using pymatgen
data_Ga2PbCl8
_symmetry_space_group_name_H-M   'P 1'
_cell_length_a   7.15066300
_cell_length_b   7.59879570
_cell_length_c   12.99641516
_cell_angle_alpha   85.61580987
_cell_angle_beta   90.00000000
_cell_angle_gamma   90.00000000
_symmetry_Int_Tables_number   1
_chemical_formula_structural   Ga2PbCl8
_chemical_formula_sum   'Ga4 Pb2 Cl16'
_cell_volume   704.11240553
_cell_formula_units_Z   2
loop_
 _symmetry_equiv_pos_site_id
 _symmetry_equiv_pos_as_xyz
  1  'x, y, z'
loop_
 _atom_site_type_symbol
 _atom_site_label
 _atom_site_symmetry_multiplicity
 _atom_site_fract_x
 _atom_site_fract_y
 _atom_site_fract_z
 _atom_site_occupancy
  Ga  Ga0  1  0.261365  0.325795  0.918608  1
  Ga  Ga1  1  0.738635  0.674205  0.081392  1
  Ga  Ga2  1  0.261365  0.674205  0.581392  1
  Ga  Ga3  1  0.738635  0.325795  0.418608  1
  Pb  Pb4  1  0.842077  0.500000  0.750000  1
  Pb  Pb5  1  0.157923  0.500000  0.250000  1
  Cl  Cl6  1  0.307365  0.265659  0.085762  1
  Cl  Cl7  1  0.176511  0.602850  0.882385  1
  Cl  Cl8  1  0.025670  0.171135  0.861857  1
  Cl  Cl9  1  0.823489  0.602850  0.382385  1
  Cl  Cl10  1  0.525416  0.741518  0.656789  1
  Cl  Cl11  1  0.474584  0.741518  0.156789  1
  Cl  Cl12  1  0.692635  0.265659  0.585762  1
  Cl  Cl13  1  0.307365  0.734341  0.414238  1
  Cl  Cl14  1  0.525416  0.258482  0.843211  1
  Cl  Cl15  1  0.474584  0.258482  0.343211  1
  Cl  Cl16  1  0.176511  0.397150  0.617615  1
  Cl  Cl17  1  0.823489  0.397150  0.117615  1
  Cl  Cl18  1  0.692635  0.734341  0.914238  1
  Cl  Cl19  1  0.974330  0.828865  0.138143  1
  Cl  Cl20  1  0.974330  0.171135  0.361857  1
  Cl  Cl21  1  0.025670  0.828865  0.638143  1
