# generated using pymatgen
data_K6Rb2ZrSnSe8
_symmetry_space_group_name_H-M   'P 1'
_cell_length_a   8.46288788
_cell_length_b   10.41065800
_cell_length_c   15.41417175
_cell_angle_alpha   90.00000000
_cell_angle_beta   90.47971385
_cell_angle_gamma   90.00000000
_symmetry_Int_Tables_number   1
_chemical_formula_structural   K6Rb2ZrSnSe8
_chemical_formula_sum   'K12 Rb4 Zr2 Sn2 Se16'
_cell_volume   1358.00615566
_cell_formula_units_Z   2
loop_
 _symmetry_equiv_pos_site_id
 _symmetry_equiv_pos_as_xyz
  1  'x, y, z'
loop_
 _atom_site_type_symbol
 _atom_site_label
 _atom_site_symmetry_multiplicity
 _atom_site_fract_x
 _atom_site_fract_y
 _atom_site_fract_z
 _atom_site_occupancy
  K  K0  1  0.979776  0.750000  0.430707  1
  K  K1  1  0.472697  0.250000  0.074862  1
  K  K2  1  0.020224  0.250000  0.569293  1
  K  K3  1  0.527303  0.750000  0.925138  1
  K  K4  1  0.835500  0.050547  0.268959  1
  K  K5  1  0.339295  0.943224  0.228644  1
  K  K6  1  0.164500  0.550547  0.731041  1
  K  K7  1  0.660705  0.443224  0.771356  1
  K  K8  1  0.164500  0.949453  0.731041  1
  K  K9  1  0.660705  0.056776  0.771356  1
  K  K10  1  0.835500  0.449453  0.268959  1
  K  K11  1  0.339295  0.556776  0.228644  1
  Rb  Rb12  1  0.000000  0.000000  0.000000  1
  Rb  Rb13  1  0.500000  0.000000  0.500000  1
  Rb  Rb14  1  0.000000  0.500000  0.000000  1
  Rb  Rb15  1  0.500000  0.500000  0.500000  1
  Zr  Zr16  1  0.764579  0.750000  0.671718  1
  Zr  Zr17  1  0.235421  0.250000  0.328282  1
  Sn  Sn18  1  0.732294  0.750000  0.167813  1
  Sn  Sn19  1  0.267706  0.250000  0.832187  1
  Se  Se20  1  0.964351  0.250000  0.823596  1
  Se  Se21  1  0.537224  0.250000  0.321499  1
  Se  Se22  1  0.462776  0.750000  0.678501  1
  Se  Se23  1  0.035649  0.750000  0.176404  1
  Se  Se24  1  0.632948  0.550734  0.088511  1
  Se  Se25  1  0.141310  0.451696  0.404493  1
  Se  Se26  1  0.367052  0.050734  0.911489  1
  Se  Se27  1  0.858690  0.951696  0.595507  1
  Se  Se28  1  0.367052  0.449266  0.911489  1
  Se  Se29  1  0.858690  0.548304  0.595507  1
  Se  Se30  1  0.632948  0.949266  0.088511  1
  Se  Se31  1  0.141310  0.048304  0.404493  1
  Se  Se32  1  0.621136  0.750000  0.324287  1
  Se  Se33  1  0.117136  0.250000  0.174583  1
  Se  Se34  1  0.378864  0.250000  0.675713  1
  Se  Se35  1  0.882864  0.750000  0.825417  1
