# generated using pymatgen
data_La7Sm(Tm3Sn4)4
_symmetry_space_group_name_H-M   'P 1'
_cell_length_a   8.14504778
_cell_length_b   8.34789840
_cell_length_c   15.70119900
_cell_angle_alpha   89.97191457
_cell_angle_beta   90.12942661
_cell_angle_gamma   90.27966900
_symmetry_Int_Tables_number   1
_chemical_formula_structural   La7Sm(Tm3Sn4)4
_chemical_formula_sum   'La7 Sm1 Tm12 Sn16'
_cell_volume   1067.57225323
_cell_formula_units_Z   1
loop_
 _symmetry_equiv_pos_site_id
 _symmetry_equiv_pos_as_xyz
  1  'x, y, z'
loop_
 _atom_site_type_symbol
 _atom_site_label
 _atom_site_symmetry_multiplicity
 _atom_site_fract_x
 _atom_site_fract_y
 _atom_site_fract_z
 _atom_site_occupancy
  La  La0  1  0.507291  0.321332  0.904307  1
  La  La1  1  0.006937  0.176295  0.595859  1
  La  La2  1  0.492302  0.677024  0.404158  1
  La  La3  1  0.991220  0.823750  0.095137  1
  La  La4  1  0.493248  0.678342  0.094944  1
  La  La5  1  0.993049  0.823354  0.404118  1
  La  La6  1  0.507903  0.322694  0.597532  1
  Sm  Sm7  1  0.010622  0.177210  0.902360  1
  Tm  Tm8  1  0.349234  0.836836  0.876514  1
  Tm  Tm9  1  0.848325  0.664051  0.626255  1
  Tm  Tm10  1  0.651131  0.165191  0.375546  1
  Tm  Tm11  1  0.149932  0.334988  0.124596  1
  Tm  Tm12  1  0.650343  0.163463  0.123145  1
  Tm  Tm13  1  0.152280  0.335728  0.375049  1
  Tm  Tm14  1  0.348220  0.835101  0.625161  1
  Tm  Tm15  1  0.849343  0.665065  0.874680  1
  Tm  Tm16  1  0.181289  0.502346  0.750755  1
  Tm  Tm17  1  0.682283  0.998219  0.751136  1
  Tm  Tm18  1  0.818336  0.497050  0.249713  1
  Tm  Tm19  1  0.317297  0.002301  0.249275  1
  Sn  Sn20  1  0.309097  0.044084  0.041332  1
  Sn  Sn21  1  0.815875  0.458740  0.457862  1
  Sn  Sn22  1  0.683955  0.956829  0.542958  1
  Sn  Sn23  1  0.182733  0.539132  0.956991  1
  Sn  Sn24  1  0.691918  0.961062  0.955837  1
  Sn  Sn25  1  0.183940  0.541137  0.543051  1
  Sn  Sn26  1  0.315725  0.042578  0.457618  1
  Sn  Sn27  1  0.816737  0.456840  0.041064  1
  Sn  Sn28  1  0.545307  0.627417  0.750910  1
  Sn  Sn29  1  0.046580  0.874965  0.750488  1
  Sn  Sn30  1  0.454355  0.372383  0.248872  1
  Sn  Sn31  1  0.953031  0.126808  0.250131  1
  Sn  Sn32  1  0.313285  0.141762  0.751165  1
  Sn  Sn33  1  0.818353  0.355110  0.751831  1
  Sn  Sn34  1  0.684277  0.858277  0.249845  1
  Sn  Sn35  1  0.184246  0.642535  0.249803  1
