# generated using pymatgen
data_Pa4Tc7Ge6
_symmetry_space_group_name_H-M   'P 1'
_cell_length_a   7.31029563
_cell_length_b   7.31856870
_cell_length_c   7.31856715
_cell_angle_alpha   109.49411105
_cell_angle_beta   109.44832161
_cell_angle_gamma   109.44832331
_symmetry_Int_Tables_number   1
_chemical_formula_structural   Pa4Tc7Ge6
_chemical_formula_sum   'Pa4 Tc7 Ge6'
_cell_volume   301.50040939
_cell_formula_units_Z   1
loop_
 _symmetry_equiv_pos_site_id
 _symmetry_equiv_pos_as_xyz
  1  'x, y, z'
loop_
 _atom_site_type_symbol
 _atom_site_label
 _atom_site_symmetry_multiplicity
 _atom_site_fract_x
 _atom_site_fract_y
 _atom_site_fract_z
 _atom_site_occupancy
  Pa  Pa0  1  0.500000  0.000000  0.000000  1
  Pa  Pa1  1  0.500000  0.500000  0.500000  1
  Pa  Pa2  1  0.000000  0.000000  0.500000  1
  Pa  Pa3  1  0.000000  0.500000  0.000000  1
  Tc  Tc4  1  0.749891  0.249891  0.499781  1
  Tc  Tc5  1  0.500000  0.249891  0.750109  1
  Tc  Tc6  1  0.500000  0.750109  0.249891  1
  Tc  Tc7  1  0.250109  0.500219  0.750109  1
  Tc  Tc8  1  0.749891  0.499781  0.249891  1
  Tc  Tc9  1  0.250109  0.750109  0.500219  1
  Tc  Tc10  1  0.000000  0.000000  0.000000  1
  Ge  Ge11  1  0.311404  0.311774  0.000000  1
  Ge  Ge12  1  0.000370  0.311774  0.311774  1
  Ge  Ge13  1  0.999630  0.688226  0.688226  1
  Ge  Ge14  1  0.688596  0.000000  0.688226  1
  Ge  Ge15  1  0.311404  0.000000  0.311774  1
  Ge  Ge16  1  0.688596  0.688226  0.000000  1
