# generated using pymatgen
data_LiPrP7Ru12
_symmetry_space_group_name_H-M   'P 1'
_cell_length_a   9.45645000
_cell_length_b   9.45644906
_cell_length_c   3.91831800
_cell_angle_alpha   90.00000000
_cell_angle_beta   90.00000000
_cell_angle_gamma   120.00000141
_symmetry_Int_Tables_number   1
_chemical_formula_structural   LiPrP7Ru12
_chemical_formula_sum   'Li1 Pr1 P7 Ru12'
_cell_volume   303.44956752
_cell_formula_units_Z   1
loop_
 _symmetry_equiv_pos_site_id
 _symmetry_equiv_pos_as_xyz
  1  'x, y, z'
loop_
 _atom_site_type_symbol
 _atom_site_label
 _atom_site_symmetry_multiplicity
 _atom_site_fract_x
 _atom_site_fract_y
 _atom_site_fract_z
 _atom_site_occupancy
  Li  Li0  1  0.666667  0.333333  0.500000  1
  Pr  Pr1  1  0.333333  0.666667  0.000000  1
  P  P2  1  0.605255  0.710972  0.500000  1
  P  P3  1  0.000000  0.000000  0.000000  1
  P  P4  1  0.289028  0.894283  0.500000  1
  P  P5  1  0.105717  0.394745  0.500000  1
  P  P6  1  0.895312  0.586335  0.000000  1
  P  P7  1  0.413665  0.308977  0.000000  1
  P  P8  1  0.691023  0.104688  0.000000  1
  Ru  Ru9  1  0.560849  0.953353  0.500000  1
  Ru  Ru10  1  0.392505  0.439151  0.500000  1
  Ru  Ru11  1  0.910548  0.116484  0.500000  1
  Ru  Ru12  1  0.205935  0.089452  0.500000  1
  Ru  Ru13  1  0.883516  0.794065  0.500000  1
  Ru  Ru14  1  0.726075  0.879442  0.000000  1
  Ru  Ru15  1  0.120558  0.846632  0.000000  1
  Ru  Ru16  1  0.153368  0.273925  0.000000  1
  Ru  Ru17  1  0.434640  0.079605  0.000000  1
  Ru  Ru18  1  0.920395  0.355036  0.000000  1
  Ru  Ru19  1  0.644964  0.565360  0.000000  1
  Ru  Ru20  1  0.046647  0.607495  0.500000  1
