# generated using pymatgen
data_La7Pr3(Si2Sn)2
_symmetry_space_group_name_H-M   'P 1'
_cell_length_a   8.07385063
_cell_length_b   9.24838943
_cell_length_c   8.07424514
_cell_angle_alpha   115.72117347
_cell_angle_beta   90.35205655
_cell_angle_gamma   115.67394785
_symmetry_Int_Tables_number   1
_chemical_formula_structural   La7Pr3(Si2Sn)2
_chemical_formula_sum   'La7 Pr3 Si4 Sn2'
_cell_volume   475.33892844
_cell_formula_units_Z   1
loop_
 _symmetry_equiv_pos_site_id
 _symmetry_equiv_pos_as_xyz
  1  'x, y, z'
loop_
 _atom_site_type_symbol
 _atom_site_label
 _atom_site_symmetry_multiplicity
 _atom_site_fract_x
 _atom_site_fract_y
 _atom_site_fract_z
 _atom_site_occupancy
  La  La0  1  0.999373  0.999489  0.999829  1
  La  La1  1  0.499703  0.999537  0.500084  1
  La  La2  1  0.535594  0.720217  0.684611  1
  La  La3  1  0.684112  0.718894  0.183717  1
  La  La4  1  0.035133  0.718856  0.534750  1
  La  La5  1  0.316612  0.281132  0.816636  1
  La  La6  1  0.964528  0.281231  0.464548  1
  Pr  Pr7  1  0.185861  0.722812  0.036978  1
  Pr  Pr8  1  0.464317  0.279495  0.315101  1
  Pr  Pr9  1  0.813761  0.277368  0.963650  1
  Si  Si10  1  0.884752  0.000586  0.615823  1
  Si  Si11  1  0.117145  0.000916  0.383752  1
  Si  Si12  1  0.613886  0.001352  0.115489  1
  Si  Si13  1  0.385858  0.001348  0.887407  1
  Sn  Sn14  1  0.751461  0.498409  0.750697  1
  Sn  Sn15  1  0.247905  0.498357  0.246928  1
