# generated using pymatgen
data_HfSc6Co8Si14Mo
_symmetry_space_group_name_H-M   'P 1'
_cell_length_a   9.45481684
_cell_length_b   9.45484044
_cell_length_c   9.43954298
_cell_angle_alpha   94.09956101
_cell_angle_beta   94.03566987
_cell_angle_gamma   149.13148013
_symmetry_Int_Tables_number   1
_chemical_formula_structural   HfSc6Co8Si14Mo
_chemical_formula_sum   'Hf1 Sc6 Co8 Si14 Mo1'
_cell_volume   417.28511548
_cell_formula_units_Z   1
loop_
 _symmetry_equiv_pos_site_id
 _symmetry_equiv_pos_as_xyz
  1  'x, y, z'
loop_
 _atom_site_type_symbol
 _atom_site_label
 _atom_site_symmetry_multiplicity
 _atom_site_fract_x
 _atom_site_fract_y
 _atom_site_fract_z
 _atom_site_occupancy
  Hf  Hf0  1  0.501060  0.304466  0.805527  1
  Sc  Sc1  1  0.862906  0.863306  0.726099  1
  Sc  Sc2  1  0.138737  0.860305  0.999102  1
  Sc  Sc3  1  0.860166  0.137754  0.997951  1
  Sc  Sc4  1  0.303609  0.500746  0.804315  1
  Sc  Sc5  1  0.696674  0.501692  0.198421  1
  Sc  Sc6  1  0.501780  0.695227  0.196958  1
  Co  Co7  1  0.103098  0.602656  0.206398  1
  Co  Co8  1  0.396683  0.898221  0.794680  1
  Co  Co9  1  0.898434  0.102719  0.498341  1
  Co  Co10  1  0.600169  0.396057  0.499365  1
  Co  Co11  1  0.603734  0.103303  0.206450  1
  Co  Co12  1  0.896435  0.397977  0.794676  1
  Co  Co13  1  0.103293  0.899232  0.499314  1
  Co  Co14  1  0.395604  0.599857  0.498313  1
  Si  Si15  1  0.286288  0.286685  0.572996  1
  Si  Si16  1  0.710072  0.710122  0.420187  1
  Si  Si17  1  0.290619  0.709599  0.000023  1
  Si  Si18  1  0.709832  0.290635  0.000681  1
  Si  Si19  1  0.091469  0.500466  0.591858  1
  Si  Si20  1  0.908437  0.500321  0.408701  1
  Si  Si21  1  0.500308  0.907524  0.407887  1
  Si  Si22  1  0.500154  0.091167  0.591450  1
  Si  Si23  1  0.251497  0.250646  0.006973  1
  Si  Si24  1  0.756340  0.755487  0.006977  1
  Si  Si25  1  0.298232  0.002406  0.300658  1
  Si  Si26  1  0.696819  0.999855  0.696663  1
  Si  Si27  1  0.999282  0.699645  0.698887  1
  Si  Si28  1  0.002446  0.297104  0.299593  1
  Mo  Mo29  1  0.135822  0.134821  0.270555  1
