# generated using pymatgen
data_LiCe3Hg3Pd2
_symmetry_space_group_name_H-M   'P 1'
_cell_length_a   8.03786300
_cell_length_b   8.03786177
_cell_length_c   3.73134500
_cell_angle_alpha   90.00000000
_cell_angle_beta   90.00000000
_cell_angle_gamma   119.99999270
_symmetry_Int_Tables_number   1
_chemical_formula_structural   LiCe3Hg3Pd2
_chemical_formula_sum   'Li1 Ce3 Hg3 Pd2'
_cell_volume   208.77437991
_cell_formula_units_Z   1
loop_
 _symmetry_equiv_pos_site_id
 _symmetry_equiv_pos_as_xyz
  1  'x, y, z'
loop_
 _atom_site_type_symbol
 _atom_site_label
 _atom_site_symmetry_multiplicity
 _atom_site_fract_x
 _atom_site_fract_y
 _atom_site_fract_z
 _atom_site_occupancy
  Li  Li0  1  0.000000  0.000000  0.500000  1
  Ce  Ce1  1  0.413501  0.413501  0.500000  1
  Ce  Ce2  1  0.586499  0.000000  0.500000  1
  Ce  Ce3  1  0.000000  0.586499  0.500000  1
  Hg  Hg4  1  0.744447  0.744447  0.000000  1
  Hg  Hg5  1  0.255553  0.000000  0.000000  1
  Hg  Hg6  1  0.000000  0.255553  0.000000  1
  Pd  Pd7  1  0.666667  0.333333  0.000000  1
  Pd  Pd8  1  0.333333  0.666667  0.000000  1
