# generated using pymatgen
data_Dy4Y12Cd4TcNi3
_symmetry_space_group_name_H-M   'P 1'
_cell_length_a   9.64111318
_cell_length_b   9.64111369
_cell_length_c   9.64111309
_cell_angle_alpha   59.40188400
_cell_angle_beta   59.40188383
_cell_angle_gamma   59.40187463
_symmetry_Int_Tables_number   1
_chemical_formula_structural   Dy4Y12Cd4TcNi3
_chemical_formula_sum   'Dy4 Y12 Cd4 Tc1 Ni3'
_cell_volume   625.05009799
_cell_formula_units_Z   1
loop_
 _symmetry_equiv_pos_site_id
 _symmetry_equiv_pos_as_xyz
  1  'x, y, z'
loop_
 _atom_site_type_symbol
 _atom_site_label
 _atom_site_symmetry_multiplicity
 _atom_site_fract_x
 _atom_site_fract_y
 _atom_site_fract_z
 _atom_site_occupancy
  Dy  Dy0  1  0.597052  0.597052  0.597052  1
  Dy  Dy1  1  0.601345  0.601345  0.204753  1
  Dy  Dy2  1  0.601345  0.204753  0.601345  1
  Dy  Dy3  1  0.204753  0.601345  0.601345  1
  Y  Y4  1  0.060802  0.437987  0.437987  1
  Y  Y5  1  0.437875  0.060291  0.060291  1
  Y  Y6  1  0.437987  0.060802  0.437987  1
  Y  Y7  1  0.060291  0.437875  0.060291  1
  Y  Y8  1  0.437987  0.437987  0.060802  1
  Y  Y9  1  0.060291  0.060291  0.437875  1
  Y  Y10  1  0.186678  0.814817  0.814817  1
  Y  Y11  1  0.805405  0.189519  0.189519  1
  Y  Y12  1  0.814817  0.186678  0.814817  1
  Y  Y13  1  0.189519  0.805405  0.189519  1
  Y  Y14  1  0.814817  0.814817  0.186678  1
  Y  Y15  1  0.189519  0.189519  0.805405  1
  Cd  Cd16  1  0.829564  0.829564  0.829564  1
  Cd  Cd17  1  0.829448  0.829448  0.506224  1
  Cd  Cd18  1  0.829448  0.506224  0.829448  1
  Cd  Cd19  1  0.506224  0.829448  0.829448  1
  Tc  Tc20  1  0.395151  0.395151  0.395151  1
  Ni  Ni21  1  0.393166  0.393166  0.823342  1
  Ni  Ni22  1  0.393166  0.823342  0.393166  1
  Ni  Ni23  1  0.823342  0.393166  0.393166  1
