# generated using pymatgen
data_La12Nd2PdRh5
_symmetry_space_group_name_H-M   'P 1'
_cell_length_a   10.21491500
_cell_length_b   10.21494420
_cell_length_c   6.55164621
_cell_angle_alpha   89.75713844
_cell_angle_beta   90.00000000
_cell_angle_gamma   119.99990869
_symmetry_Int_Tables_number   1
_chemical_formula_structural   La12Nd2PdRh5
_chemical_formula_sum   'La12 Nd2 Pd1 Rh5'
_cell_volume   592.03450941
_cell_formula_units_Z   1
loop_
 _symmetry_equiv_pos_site_id
 _symmetry_equiv_pos_as_xyz
  1  'x, y, z'
loop_
 _atom_site_type_symbol
 _atom_site_label
 _atom_site_symmetry_multiplicity
 _atom_site_fract_x
 _atom_site_fract_y
 _atom_site_fract_z
 _atom_site_occupancy
  La  La0  1  0.125093  0.876731  0.242252  1
  La  La1  1  0.751637  0.876731  0.242252  1
  La  La2  1  0.124163  0.248325  0.233643  1
  La  La3  1  0.867120  0.120153  0.741504  1
  La  La4  1  0.253033  0.120153  0.741504  1
  La  La5  1  0.875724  0.751447  0.744123  1
  La  La6  1  0.540859  0.462362  0.438597  1
  La  La7  1  0.921503  0.462362  0.438597  1
  La  La8  1  0.538942  0.077883  0.432713  1
  La  La9  1  0.468654  0.543067  0.940531  1
  La  La10  1  0.074414  0.543067  0.940531  1
  La  La11  1  0.459074  0.918147  0.938972  1
  Nd  Nd12  1  0.335366  0.670733  0.465576  1
  Nd  Nd13  1  0.666290  0.332577  0.970957  1
  Pd  Pd14  1  0.187918  0.375836  0.692050  1
  Rh  Rh15  1  0.813782  0.188496  0.197010  1
  Rh  Rh16  1  0.374714  0.188496  0.197010  1
  Rh  Rh17  1  0.811427  0.622853  0.194234  1
  Rh  Rh18  1  0.187084  0.810289  0.696866  1
  Rh  Rh19  1  0.623205  0.810289  0.696866  1
