# generated using pymatgen
data_Pr8Er2Si5Hg
_symmetry_space_group_name_H-M   'P 1'
_cell_length_a   7.66079765
_cell_length_b   7.66079765
_cell_length_c   9.23503318
_cell_angle_alpha   114.50471762
_cell_angle_beta   114.50472265
_cell_angle_gamma   90.00000555
_symmetry_Int_Tables_number   1
_chemical_formula_structural   Pr8Er2Si5Hg
_chemical_formula_sum   'Pr8 Er2 Si5 Hg1'
_cell_volume   438.95168965
_cell_formula_units_Z   1
loop_
 _symmetry_equiv_pos_site_id
 _symmetry_equiv_pos_as_xyz
  1  'x, y, z'
loop_
 _atom_site_type_symbol
 _atom_site_label
 _atom_site_symmetry_multiplicity
 _atom_site_fract_x
 _atom_site_fract_y
 _atom_site_fract_z
 _atom_site_occupancy
  Pr  Pr0  1  0.971029  0.826031  0.282392  1
  Pr  Pr1  1  0.311364  0.456360  0.282392  1
  Pr  Pr2  1  0.826031  0.311364  0.282392  1
  Pr  Pr3  1  0.456360  0.971029  0.282392  1
  Pr  Pr4  1  0.043640  0.188636  0.717608  1
  Pr  Pr5  1  0.673969  0.528971  0.717608  1
  Pr  Pr6  1  0.188636  0.673969  0.717608  1
  Pr  Pr7  1  0.528971  0.043640  0.717608  1
  Er  Er8  1  0.506399  0.506399  0.012798  1
  Er  Er9  1  0.993601  0.993601  0.987202  1
  Si  Si10  1  0.250000  0.250000  0.500000  1
  Si  Si11  1  0.618774  0.881226  0.000000  1
  Si  Si12  1  0.381226  0.118774  0.000000  1
  Si  Si13  1  0.881226  0.381226  0.000000  1
  Si  Si14  1  0.118774  0.618774  0.000000  1
  Hg  Hg15  1  0.750000  0.750000  0.500000  1
