# generated using pymatgen
data_U4TcMo3C8
_symmetry_space_group_name_H-M   'P 1'
_cell_length_a   3.20452100
_cell_length_b   5.62926024
_cell_length_c   11.08182048
_cell_angle_alpha   90.03358701
_cell_angle_beta   90.00000000
_cell_angle_gamma   90.00000000
_symmetry_Int_Tables_number   1
_chemical_formula_structural   U4TcMo3C8
_chemical_formula_sum   'U4 Tc1 Mo3 C8'
_cell_volume   199.90584124
_cell_formula_units_Z   1
loop_
 _symmetry_equiv_pos_site_id
 _symmetry_equiv_pos_as_xyz
  1  'x, y, z'
loop_
 _atom_site_type_symbol
 _atom_site_label
 _atom_site_symmetry_multiplicity
 _atom_site_fract_x
 _atom_site_fract_y
 _atom_site_fract_z
 _atom_site_occupancy
  U  U0  1  0.250000  0.081130  0.857145  1
  U  U1  1  0.250000  0.580106  0.642435  1
  U  U2  1  0.750000  0.920314  0.141746  1
  U  U3  1  0.750000  0.417110  0.358279  1
  Tc  Tc4  1  0.750000  0.079011  0.601339  1
  Mo  Mo5  1  0.250000  0.422684  0.101085  1
  Mo  Mo6  1  0.250000  0.918711  0.399596  1
  Mo  Mo7  1  0.750000  0.578917  0.898653  1
  C  C8  1  0.250000  0.161840  0.243978  1
  C  C9  1  0.250000  0.662185  0.257383  1
  C  C10  1  0.750000  0.840812  0.754563  1
  C  C11  1  0.750000  0.338064  0.743092  1
  C  C12  1  0.250000  0.751064  0.992646  1
  C  C13  1  0.250000  0.247173  0.507457  1
  C  C14  1  0.750000  0.250921  0.006656  1
  C  C15  1  0.750000  0.749958  0.493947  1
