# generated using pymatgen
data_Tb3Fe(P3Rh4)2
_symmetry_space_group_name_H-M   'P 1'
_cell_length_a   3.87609600
_cell_length_b   11.24841300
_cell_length_c   12.70727500
_cell_angle_alpha   90.00000000
_cell_angle_beta   90.00000000
_cell_angle_gamma   90.00000000
_symmetry_Int_Tables_number   1
_chemical_formula_structural   Tb3Fe(P3Rh4)2
_chemical_formula_sum   'Tb6 Fe2 P12 Rh16'
_cell_volume   554.03628315
_cell_formula_units_Z   2
loop_
 _symmetry_equiv_pos_site_id
 _symmetry_equiv_pos_as_xyz
  1  'x, y, z'
loop_
 _atom_site_type_symbol
 _atom_site_label
 _atom_site_symmetry_multiplicity
 _atom_site_fract_x
 _atom_site_fract_y
 _atom_site_fract_z
 _atom_site_occupancy
  Tb  Tb0  1  0.000000  0.500000  0.520249  1
  Tb  Tb1  1  0.500000  0.000000  0.479751  1
  Tb  Tb2  1  0.500000  0.819144  0.201656  1
  Tb  Tb3  1  0.500000  0.180856  0.201656  1
  Tb  Tb4  1  0.000000  0.680856  0.798344  1
  Tb  Tb5  1  0.000000  0.319144  0.798344  1
  Fe  Fe6  1  0.000000  0.500000  0.988682  1
  Fe  Fe7  1  0.500000  0.000000  0.011318  1
  P  P8  1  0.500000  0.500000  0.886061  1
  P  P9  1  0.000000  0.000000  0.113939  1
  P  P10  1  0.500000  0.500000  0.348382  1
  P  P11  1  0.000000  0.000000  0.651618  1
  P  P12  1  0.500000  0.314016  0.620180  1
  P  P13  1  0.500000  0.685984  0.620180  1
  P  P14  1  0.000000  0.185984  0.379820  1
  P  P15  1  0.000000  0.814016  0.379820  1
  P  P16  1  0.500000  0.850856  0.896432  1
  P  P17  1  0.500000  0.149144  0.896432  1
  P  P18  1  0.000000  0.649144  0.103568  1
  P  P19  1  0.000000  0.350856  0.103568  1
  Rh  Rh20  1  0.500000  0.500000  0.161789  1
  Rh  Rh21  1  0.000000  0.000000  0.838211  1
  Rh  Rh22  1  0.500000  0.500000  0.703065  1
  Rh  Rh23  1  0.000000  0.000000  0.296935  1
  Rh  Rh24  1  0.500000  0.334919  0.993368  1
  Rh  Rh25  1  0.500000  0.665081  0.993368  1
  Rh  Rh26  1  0.000000  0.165081  0.006632  1
  Rh  Rh27  1  0.000000  0.834919  0.006632  1
  Rh  Rh28  1  0.500000  0.294063  0.430361  1
  Rh  Rh29  1  0.500000  0.705937  0.430361  1
  Rh  Rh30  1  0.000000  0.205937  0.569639  1
  Rh  Rh31  1  0.000000  0.794063  0.569639  1
  Rh  Rh32  1  0.500000  0.874024  0.713187  1
  Rh  Rh33  1  0.500000  0.125976  0.713187  1
  Rh  Rh34  1  0.000000  0.625976  0.286813  1
  Rh  Rh35  1  0.000000  0.374024  0.286813  1
