# generated using pymatgen
data_Y5Co6Ni(PRu)12
_symmetry_space_group_name_H-M   'P 1'
_cell_length_a   12.36497700
_cell_length_b   12.36497744
_cell_length_c   3.83086400
_cell_angle_alpha   90.00000000
_cell_angle_beta   90.00000000
_cell_angle_gamma   119.99999614
_symmetry_Int_Tables_number   1
_chemical_formula_structural   Y5Co6Ni(PRu)12
_chemical_formula_sum   'Y5 Co6 Ni1 P12 Ru12'
_cell_volume   507.24061943
_cell_formula_units_Z   1
loop_
 _symmetry_equiv_pos_site_id
 _symmetry_equiv_pos_as_xyz
  1  'x, y, z'
loop_
 _atom_site_type_symbol
 _atom_site_label
 _atom_site_symmetry_multiplicity
 _atom_site_fract_x
 _atom_site_fract_y
 _atom_site_fract_z
 _atom_site_occupancy
  Y  Y0  1  0.333333  0.666667  0.500000  1
  Y  Y1  1  0.666667  0.333333  0.500000  1
  Y  Y2  1  0.001874  0.186104  0.000000  1
  Y  Y3  1  0.813896  0.815769  0.000000  1
  Y  Y4  1  0.184231  0.998126  0.000000  1
  Co  Co5  1  0.491939  0.130822  0.000000  1
  Co  Co6  1  0.638884  0.508061  0.000000  1
  Co  Co7  1  0.869178  0.361116  0.000000  1
  Co  Co8  1  0.994511  0.713986  0.000000  1
  Co  Co9  1  0.286014  0.280525  0.000000  1
  Co  Co10  1  0.719475  0.005489  0.000000  1
  Ni  Ni11  1  0.000000  0.000000  0.500000  1
  P  P12  1  0.002022  0.367917  0.500000  1
  P  P13  1  0.632083  0.634106  0.500000  1
  P  P14  1  0.365894  0.997978  0.500000  1
  P  P15  1  0.524294  0.836753  0.000000  1
  P  P16  1  0.163247  0.687541  0.000000  1
  P  P17  1  0.312459  0.475706  0.000000  1
  P  P18  1  0.480933  0.312851  0.000000  1
  P  P19  1  0.831918  0.519067  0.000000  1
  P  P20  1  0.687149  0.168082  0.000000  1
  P  P21  1  0.995770  0.818244  0.500000  1
  P  P22  1  0.181756  0.177526  0.500000  1
  P  P23  1  0.822474  0.004230  0.500000  1
  Ru  Ru24  1  0.626663  0.827249  0.500000  1
  Ru  Ru25  1  0.172751  0.799413  0.500000  1
  Ru  Ru26  1  0.200587  0.373337  0.500000  1
  Ru  Ru27  1  0.377026  0.191522  0.500000  1
  Ru  Ru28  1  0.814496  0.622974  0.500000  1
  Ru  Ru29  1  0.808478  0.185504  0.500000  1
  Ru  Ru30  1  0.987698  0.546085  0.500000  1
  Ru  Ru31  1  0.453915  0.441613  0.500000  1
  Ru  Ru32  1  0.558387  0.012302  0.500000  1
  Ru  Ru33  1  0.516037  0.636583  0.000000  1
  Ru  Ru34  1  0.363417  0.879453  0.000000  1
  Ru  Ru35  1  0.120547  0.483963  0.000000  1
