# generated using pymatgen
data_Ho12FeCo3SnRh
_symmetry_space_group_name_H-M   'P 1'
_cell_length_a   8.26345905
_cell_length_b   8.26346098
_cell_length_c   8.26652653
_cell_angle_alpha   111.41402916
_cell_angle_beta   110.78400441
_cell_angle_gamma   106.24720423
_symmetry_Int_Tables_number   1
_chemical_formula_structural   Ho12FeCo3SnRh
_chemical_formula_sum   'Ho12 Fe1 Co3 Sn1 Rh1'
_cell_volume   433.58732527
_cell_formula_units_Z   1
loop_
 _symmetry_equiv_pos_site_id
 _symmetry_equiv_pos_as_xyz
  1  'x, y, z'
loop_
 _atom_site_type_symbol
 _atom_site_label
 _atom_site_symmetry_multiplicity
 _atom_site_fract_x
 _atom_site_fract_y
 _atom_site_fract_z
 _atom_site_occupancy
  Ho  Ho0  1  0.408354  0.211616  0.196818  1
  Ho  Ho1  1  0.591760  0.787935  0.803835  1
  Ho  Ho2  1  0.015899  0.212075  0.803835  1
  Ho  Ho3  1  0.985202  0.788464  0.196818  1
  Ho  Ho4  1  0.187381  0.289732  0.477112  1
  Ho  Ho5  1  0.812297  0.708842  0.521141  1
  Ho  Ho6  1  0.187432  0.710391  0.897823  1
  Ho  Ho7  1  0.812261  0.291197  0.103460  1
  Ho  Ho8  1  0.310953  0.617758  0.303528  1
  Ho  Ho9  1  0.685674  0.382066  0.693162  1
  Ho  Ho10  1  0.311096  0.007488  0.693162  1
  Ho  Ho11  1  0.685770  0.992576  0.303528  1
  Fe  Fe12  1  0.386844  0.998878  0.385722  1
  Co  Co13  1  0.622892  0.000067  0.622959  1
  Co  Co14  1  0.110147  0.611302  0.498964  1
  Co  Co15  1  0.887662  0.388816  0.498964  1
  Sn  Sn16  1  0.499071  0.500074  0.999145  1
  Rh  Rh17  1  0.999303  0.000723  0.000025  1
