# generated using pymatgen
data_Ca2AlNiF10
_symmetry_space_group_name_H-M   'P 1'
_cell_length_a   5.51922617
_cell_length_b   5.47936702
_cell_length_c   7.57051153
_cell_angle_alpha   70.11956613
_cell_angle_beta   69.55118705
_cell_angle_gamma   71.42229676
_symmetry_Int_Tables_number   1
_chemical_formula_structural   Ca2AlNiF10
_chemical_formula_sum   'Ca2 Al1 Ni1 F10'
_cell_volume   196.48107405
_cell_formula_units_Z   1
loop_
 _symmetry_equiv_pos_site_id
 _symmetry_equiv_pos_as_xyz
  1  'x, y, z'
loop_
 _atom_site_type_symbol
 _atom_site_label
 _atom_site_symmetry_multiplicity
 _atom_site_fract_x
 _atom_site_fract_y
 _atom_site_fract_z
 _atom_site_occupancy
  Ca  Ca0  1  0.551433  0.461833  0.243064  1
  Ca  Ca1  1  0.448567  0.538167  0.756936  1
  Al  Al2  1  0.000000  0.000000  0.000000  1
  Ni  Ni3  1  0.000000  0.000000  0.500000  1
  F  F4  1  0.753746  0.788919  0.617184  1
  F  F5  1  0.203219  0.237544  0.887546  1
  F  F6  1  0.246254  0.211081  0.382816  1
  F  F7  1  0.796781  0.762456  0.112454  1
  F  F8  1  0.067074  0.931995  0.758217  1
  F  F9  1  0.932926  0.068005  0.241783  1
  F  F10  1  0.294527  0.726442  0.029427  1
  F  F11  1  0.283462  0.693003  0.476070  1
  F  F12  1  0.705473  0.273558  0.970573  1
  F  F13  1  0.716538  0.306997  0.523930  1
