# generated using pymatgen
data_Nd10B2I15
_symmetry_space_group_name_H-M   'P 1'
_cell_length_a   9.91901572
_cell_length_b   10.68357289
_cell_length_c   11.62261187
_cell_angle_alpha   91.59510773
_cell_angle_beta   114.41230327
_cell_angle_gamma   110.49298381
_symmetry_Int_Tables_number   1
_chemical_formula_structural   Nd10B2I15
_chemical_formula_sum   'Nd10 B2 I15'
_cell_volume   1028.84644444
_cell_formula_units_Z   1
loop_
 _symmetry_equiv_pos_site_id
 _symmetry_equiv_pos_as_xyz
  1  'x, y, z'
loop_
 _atom_site_type_symbol
 _atom_site_label
 _atom_site_symmetry_multiplicity
 _atom_site_fract_x
 _atom_site_fract_y
 _atom_site_fract_z
 _atom_site_occupancy
  Nd  Nd0  1  0.790212  0.399234  0.270681  1
  Nd  Nd1  1  0.209788  0.600766  0.729319  1
  Nd  Nd2  1  0.666601  0.749641  0.823609  1
  Nd  Nd3  1  0.333399  0.250359  0.176391  1
  Nd  Nd4  1  0.523704  0.709138  0.088594  1
  Nd  Nd5  1  0.476296  0.290862  0.911406  1
  Nd  Nd6  1  0.582977  0.042954  0.315195  1
  Nd  Nd7  1  0.417023  0.957046  0.684805  1
  Nd  Nd8  1  0.713339  0.071680  0.046427  1
  Nd  Nd9  1  0.286661  0.928320  0.953573  1
  B  B10  1  0.467184  0.819433  0.877168  1
  B  B11  1  0.532816  0.180567  0.122832  1
  I  I12  1  0.000000  0.000000  0.000000  1
  I  I13  1  0.639564  0.882927  0.581908  1
  I  I14  1  0.360436  0.117073  0.418092  1
  I  I15  1  0.885890  0.299211  0.532068  1
  I  I16  1  0.114110  0.700789  0.467932  1
  I  I17  1  0.285478  0.759556  0.179542  1
  I  I18  1  0.714522  0.240444  0.820458  1
  I  I19  1  0.057186  0.341857  0.226424  1
  I  I20  1  0.159478  0.056966  0.700992  1
  I  I21  1  0.840522  0.943034  0.299008  1
  I  I22  1  0.226422  0.408775  0.942262  1
  I  I23  1  0.773578  0.591225  0.057738  1
  I  I24  1  0.408082  0.459502  0.657663  1
  I  I25  1  0.591918  0.540498  0.342337  1
  I  I26  1  0.942814  0.658143  0.773576  1
