# generated using pymatgen
data_ErLuPa2(ZnRh)4
_symmetry_space_group_name_H-M   'P 1'
_cell_length_a   3.78553700
_cell_length_b   7.12473278
_cell_length_c   8.40469403
_cell_angle_alpha   91.49707074
_cell_angle_beta   90.00000000
_cell_angle_gamma   90.00000000
_symmetry_Int_Tables_number   1
_chemical_formula_structural   ErLuPa2(ZnRh)4
_chemical_formula_sum   'Er1 Lu1 Pa2 Zn4 Rh4'
_cell_volume   226.60511914
_cell_formula_units_Z   1
loop_
 _symmetry_equiv_pos_site_id
 _symmetry_equiv_pos_as_xyz
  1  'x, y, z'
loop_
 _atom_site_type_symbol
 _atom_site_label
 _atom_site_symmetry_multiplicity
 _atom_site_fract_x
 _atom_site_fract_y
 _atom_site_fract_z
 _atom_site_occupancy
  Er  Er0  1  0.750000  0.939366  0.683185  1
  Lu  Lu1  1  0.250000  0.061271  0.315926  1
  Pa  Pa2  1  0.250000  0.556542  0.189370  1
  Pa  Pa3  1  0.750000  0.443440  0.810942  1
  Zn  Zn4  1  0.250000  0.627951  0.557754  1
  Zn  Zn5  1  0.750000  0.370149  0.441131  1
  Zn  Zn6  1  0.750000  0.887657  0.061951  1
  Zn  Zn7  1  0.250000  0.113096  0.939425  1
  Rh  Rh8  1  0.250000  0.714560  0.877645  1
  Rh  Rh9  1  0.750000  0.283968  0.123474  1
  Rh  Rh10  1  0.750000  0.753699  0.357129  1
  Rh  Rh11  1  0.250000  0.248303  0.642066  1
