# generated using pymatgen
data_Er5Tm11(InRh)4
_symmetry_space_group_name_H-M   'P 1'
_cell_length_a   9.54244372
_cell_length_b   9.54128077
_cell_length_c   9.54128009
_cell_angle_alpha   60.00930765
_cell_angle_beta   59.99523014
_cell_angle_gamma   59.99523282
_symmetry_Int_Tables_number   1
_chemical_formula_structural   Er5Tm11(InRh)4
_chemical_formula_sum   'Er5 Tm11 In4 Rh4'
_cell_volume   614.26696542
_cell_formula_units_Z   1
loop_
 _symmetry_equiv_pos_site_id
 _symmetry_equiv_pos_as_xyz
  1  'x, y, z'
loop_
 _atom_site_type_symbol
 _atom_site_label
 _atom_site_symmetry_multiplicity
 _atom_site_fract_x
 _atom_site_fract_y
 _atom_site_fract_z
 _atom_site_occupancy
  Er  Er0  1  0.061826  0.061957  0.438104  1
  Er  Er1  1  0.438189  0.061782  0.438213  1
  Er  Er2  1  0.061826  0.438104  0.061957  1
  Er  Er3  1  0.049628  0.650097  0.650097  1
  Er  Er4  1  0.438189  0.438213  0.061782  1
  Tm  Tm5  1  0.650189  0.049308  0.650303  1
  Tm  Tm6  1  0.188627  0.811453  0.188467  1
  Tm  Tm7  1  0.188627  0.188467  0.811453  1
  Tm  Tm8  1  0.811381  0.811387  0.188611  1
  Tm  Tm9  1  0.438443  0.061558  0.061558  1
  Tm  Tm10  1  0.811407  0.188582  0.188582  1
  Tm  Tm11  1  0.061575  0.438351  0.438351  1
  Tm  Tm12  1  0.811381  0.188611  0.811387  1
  Tm  Tm13  1  0.188569  0.811498  0.811498  1
  Tm  Tm14  1  0.650189  0.650303  0.049308  1
  Tm  Tm15  1  0.650310  0.650197  0.650197  1
  In  In16  1  0.416714  0.416715  0.416715  1
  In  In17  1  0.749862  0.416751  0.416751  1
  In  In18  1  0.416833  0.749849  0.416599  1
  In  In19  1  0.416833  0.416599  0.749849  1
  Rh  Rh20  1  0.857293  0.857536  0.427444  1
  Rh  Rh21  1  0.857058  0.857737  0.857737  1
  Rh  Rh22  1  0.427757  0.857497  0.857497  1
  Rh  Rh23  1  0.857293  0.427444  0.857536  1
