# generated using pymatgen
data_Lu5Ga3Si4Ni3
_symmetry_space_group_name_H-M   'P 1'
_cell_length_a   4.14167400
_cell_length_b   18.84002600
_cell_length_c   6.79966600
_cell_angle_alpha   90.00000000
_cell_angle_beta   90.00000000
_cell_angle_gamma   90.00000000
_symmetry_Int_Tables_number   1
_chemical_formula_structural   Lu5Ga3Si4Ni3
_chemical_formula_sum   'Lu10 Ga6 Si8 Ni6'
_cell_volume   530.57280997
_cell_formula_units_Z   2
loop_
 _symmetry_equiv_pos_site_id
 _symmetry_equiv_pos_as_xyz
  1  'x, y, z'
loop_
 _atom_site_type_symbol
 _atom_site_label
 _atom_site_symmetry_multiplicity
 _atom_site_fract_x
 _atom_site_fract_y
 _atom_site_fract_z
 _atom_site_occupancy
  Lu  Lu0  1  0.249998  0.571575  0.497118  1
  Lu  Lu1  1  0.249998  0.928425  0.497118  1
  Lu  Lu2  1  0.750000  0.428425  0.502882  1
  Lu  Lu3  1  0.750000  0.071575  0.502882  1
  Lu  Lu4  1  0.249998  0.620481  0.997273  1
  Lu  Lu5  1  0.249998  0.879518  0.997273  1
  Lu  Lu6  1  0.750000  0.379519  0.002727  1
  Lu  Lu7  1  0.750000  0.120482  0.002727  1
  Lu  Lu8  1  0.249998  0.750000  0.614295  1
  Lu  Lu9  1  0.750000  0.250000  0.385705  1
  Ga  Ga10  1  0.249998  0.250000  0.036658  1
  Ga  Ga11  1  0.750000  0.750000  0.963343  1
  Ga  Ga12  1  0.249998  0.174718  0.680463  1
  Ga  Ga13  1  0.249998  0.325282  0.680463  1
  Ga  Ga14  1  0.750000  0.825281  0.319537  1
  Ga  Ga15  1  0.750000  0.674718  0.319537  1
  Si  Si16  1  0.249998  0.143289  0.287385  1
  Si  Si17  1  0.249998  0.356711  0.287385  1
  Si  Si18  1  0.750000  0.856711  0.712616  1
  Si  Si19  1  0.750000  0.643289  0.712616  1
  Si  Si20  1  0.249998  0.035988  0.801480  1
  Si  Si21  1  0.249998  0.464012  0.801480  1
  Si  Si22  1  0.750000  0.964013  0.198520  1
  Si  Si23  1  0.750000  0.535988  0.198520  1
  Ni  Ni24  1  0.249998  0.750000  0.207387  1
  Ni  Ni25  1  0.750000  0.250000  0.792613  1
  Ni  Ni26  1  0.249998  0.025410  0.161631  1
  Ni  Ni27  1  0.249998  0.474590  0.161631  1
  Ni  Ni28  1  0.750000  0.974590  0.838369  1
  Ni  Ni29  1  0.750000  0.525410  0.838369  1
