# generated using pymatgen
data_La8Pr8Cd4CoPd3
_symmetry_space_group_name_H-M   'P 1'
_cell_length_a   10.10218395
_cell_length_b   10.10218440
_cell_length_c   10.13233828
_cell_angle_alpha   59.86813761
_cell_angle_beta   59.86814227
_cell_angle_gamma   60.10595668
_symmetry_Int_Tables_number   1
_chemical_formula_structural   La8Pr8Cd4CoPd3
_chemical_formula_sum   'La8 Pr8 Cd4 Co1 Pd3'
_cell_volume   730.30109999
_cell_formula_units_Z   1
loop_
 _symmetry_equiv_pos_site_id
 _symmetry_equiv_pos_as_xyz
  1  'x, y, z'
loop_
 _atom_site_type_symbol
 _atom_site_label
 _atom_site_symmetry_multiplicity
 _atom_site_fract_x
 _atom_site_fract_y
 _atom_site_fract_z
 _atom_site_occupancy
  La  La0  1  0.350942  0.350942  0.352058  1
  La  La1  1  0.342485  0.342485  0.954606  1
  La  La2  1  0.344940  0.953691  0.343243  1
  La  La3  1  0.953691  0.344940  0.343243  1
  La  La4  1  0.823696  0.189233  0.189026  1
  La  La5  1  0.191726  0.806904  0.807538  1
  La  La6  1  0.189233  0.823696  0.189026  1
  La  La7  1  0.806904  0.191726  0.807538  1
  Pr  Pr8  1  0.191788  0.191788  0.817155  1
  Pr  Pr9  1  0.805374  0.805374  0.193664  1
  Pr  Pr10  1  0.937132  0.564275  0.564095  1
  Pr  Pr11  1  0.563393  0.933749  0.933519  1
  Pr  Pr12  1  0.564275  0.937132  0.564095  1
  Pr  Pr13  1  0.933749  0.563393  0.933519  1
  Pr  Pr14  1  0.563473  0.563473  0.937847  1
  Pr  Pr15  1  0.934638  0.934638  0.562734  1
  Cd  Cd16  1  0.580357  0.580357  0.579089  1
  Cd  Cd17  1  0.581532  0.581532  0.258302  1
  Cd  Cd18  1  0.580215  0.258595  0.581610  1
  Cd  Cd19  1  0.258595  0.580215  0.581610  1
  Co  Co20  1  0.139778  0.139778  0.148909  1
  Pd  Pd21  1  0.143043  0.143043  0.571690  1
  Pd  Pd22  1  0.146631  0.572409  0.142942  1
  Pd  Pd23  1  0.572409  0.146631  0.142942  1
