# generated using pymatgen
data_La6Tb3Dy(Sn5Ir2)4
_symmetry_space_group_name_H-M   'P 1'
_cell_length_a   14.19193405
_cell_length_b   14.19193405
_cell_length_c   4.66269700
_cell_angle_alpha   90.00000000
_cell_angle_beta   90.00000000
_cell_angle_gamma   89.99028648
_symmetry_Int_Tables_number   1
_chemical_formula_structural   La6Tb3Dy(Sn5Ir2)4
_chemical_formula_sum   'La6 Tb3 Dy1 Sn20 Ir8'
_cell_volume   939.11841517
_cell_formula_units_Z   1
loop_
 _symmetry_equiv_pos_site_id
 _symmetry_equiv_pos_as_xyz
  1  'x, y, z'
loop_
 _atom_site_type_symbol
 _atom_site_label
 _atom_site_symmetry_multiplicity
 _atom_site_fract_x
 _atom_site_fract_y
 _atom_site_fract_z
 _atom_site_occupancy
  La  La0  1  0.500002  0.500014  0.000000  1
  La  La1  1  0.000014  0.000002  0.000000  1
  La  La2  1  0.886966  0.386966  0.500000  1
  La  La3  1  0.113027  0.613027  0.500000  1
  La  La4  1  0.386985  0.113019  0.500000  1
  La  La5  1  0.613019  0.886985  0.500000  1
  Tb  Tb6  1  0.324351  0.824351  0.500000  1
  Tb  Tb7  1  0.175667  0.324360  0.500000  1
  Tb  Tb8  1  0.824360  0.675667  0.500000  1
  Dy  Dy9  1  0.675569  0.175569  0.500000  1
  Sn  Sn10  1  0.570119  0.070119  0.000000  1
  Sn  Sn11  1  0.429992  0.929992  0.000000  1
  Sn  Sn12  1  0.070018  0.429976  0.000000  1
  Sn  Sn13  1  0.929976  0.570018  0.000000  1
  Sn  Sn14  1  0.655491  0.698345  0.000000  1
  Sn  Sn15  1  0.344515  0.301640  0.000000  1
  Sn  Sn16  1  0.155494  0.801662  0.000000  1
  Sn  Sn17  1  0.844425  0.198320  0.000000  1
  Sn  Sn18  1  0.301662  0.655494  0.000000  1
  Sn  Sn19  1  0.698320  0.344425  0.000000  1
  Sn  Sn20  1  0.198345  0.155491  0.000000  1
  Sn  Sn21  1  0.801640  0.844515  0.000000  1
  Sn  Sn22  1  0.663488  0.506203  0.500000  1
  Sn  Sn23  1  0.336487  0.493823  0.500000  1
  Sn  Sn24  1  0.163490  0.993810  0.500000  1
  Sn  Sn25  1  0.836473  0.006244  0.500000  1
  Sn  Sn26  1  0.493810  0.663490  0.500000  1
  Sn  Sn27  1  0.506244  0.336473  0.500000  1
  Sn  Sn28  1  0.006203  0.163488  0.500000  1
  Sn  Sn29  1  0.993823  0.836487  0.500000  1
  Ir  Ir30  1  0.747205  0.529294  0.000000  1
  Ir  Ir31  1  0.252790  0.470658  0.000000  1
  Ir  Ir32  1  0.247208  0.970682  0.000000  1
  Ir  Ir33  1  0.752716  0.029469  0.000000  1
  Ir  Ir34  1  0.470682  0.747208  0.000000  1
  Ir  Ir35  1  0.529469  0.252716  0.000000  1
  Ir  Ir36  1  0.029294  0.247205  0.000000  1
  Ir  Ir37  1  0.970658  0.752790  0.000000  1
