# generated using pymatgen
data_La9Nd(SiC)4
_symmetry_space_group_name_H-M   'P 1'
_cell_length_a   8.14906376
_cell_length_b   12.93010877
_cell_length_c   4.29044000
_cell_angle_alpha   90.00000000
_cell_angle_beta   90.00000000
_cell_angle_gamma   89.92486804
_symmetry_Int_Tables_number   1
_chemical_formula_structural   La9Nd(SiC)4
_chemical_formula_sum   'La9 Nd1 Si4 C4'
_cell_volume   452.07589781
_cell_formula_units_Z   1
loop_
 _symmetry_equiv_pos_site_id
 _symmetry_equiv_pos_as_xyz
  1  'x, y, z'
loop_
 _atom_site_type_symbol
 _atom_site_label
 _atom_site_symmetry_multiplicity
 _atom_site_fract_x
 _atom_site_fract_y
 _atom_site_fract_z
 _atom_site_occupancy
  La  La0  1  0.177802  0.212244  0.000000  1
  La  La1  1  0.676935  0.286355  0.000000  1
  La  La2  1  0.000000  0.500000  0.000000  1
  La  La3  1  0.323066  0.713645  0.000000  1
  La  La4  1  0.822198  0.787756  0.000000  1
  La  La5  1  0.831497  0.061185  0.499998  1
  La  La6  1  0.331959  0.439054  0.499998  1
  La  La7  1  0.668042  0.560946  0.499998  1
  La  La8  1  0.168504  0.938815  0.499998  1
  Nd  Nd9  1  0.500000  0.000000  0.000000  1
  Si  Si10  1  0.458253  0.167229  0.499998  1
  Si  Si11  1  0.956491  0.329376  0.499998  1
  Si  Si12  1  0.043508  0.670624  0.499998  1
  Si  Si13  1  0.541748  0.832771  0.499998  1
  C  C14  1  0.040940  0.046506  0.000000  1
  C  C15  1  0.541383  0.453471  0.000000  1
  C  C16  1  0.458616  0.546529  0.000000  1
  C  C17  1  0.959061  0.953494  0.000000  1
