# generated using pymatgen
data_DyY9(IrPt2)2
_symmetry_space_group_name_H-M   'P 1'
_cell_length_a   11.10743800
_cell_length_b   11.10743800
_cell_length_c   6.35204700
_cell_angle_alpha   90.00000000
_cell_angle_beta   90.00000000
_cell_angle_gamma   90.00000000
_symmetry_Int_Tables_number   1
_chemical_formula_structural   DyY9(IrPt2)2
_chemical_formula_sum   'Dy2 Y18 Ir4 Pt8'
_cell_volume   783.68493516
_cell_formula_units_Z   2
loop_
 _symmetry_equiv_pos_site_id
 _symmetry_equiv_pos_as_xyz
  1  'x, y, z'
loop_
 _atom_site_type_symbol
 _atom_site_label
 _atom_site_symmetry_multiplicity
 _atom_site_fract_x
 _atom_site_fract_y
 _atom_site_fract_z
 _atom_site_occupancy
  Dy  Dy0  1  0.500000  0.500000  0.000000  1
  Dy  Dy1  1  0.500000  0.500000  0.500000  1
  Y  Y2  1  0.294603  0.088241  0.373386  1
  Y  Y3  1  0.294603  0.911759  0.873386  1
  Y  Y4  1  0.705397  0.088241  0.873386  1
  Y  Y5  1  0.705397  0.911759  0.373386  1
  Y  Y6  1  0.588151  0.795303  0.873550  1
  Y  Y7  1  0.588151  0.204697  0.373550  1
  Y  Y8  1  0.411849  0.795303  0.373550  1
  Y  Y9  1  0.411849  0.204697  0.873550  1
  Y  Y10  1  0.204697  0.411849  0.626450  1
  Y  Y11  1  0.204697  0.588151  0.126450  1
  Y  Y12  1  0.795303  0.411849  0.126450  1
  Y  Y13  1  0.795303  0.588151  0.626450  1
  Y  Y14  1  0.911759  0.705397  0.126614  1
  Y  Y15  1  0.911759  0.294603  0.626614  1
  Y  Y16  1  0.088241  0.705397  0.626614  1
  Y  Y17  1  0.088241  0.294603  0.126614  1
  Y  Y18  1  0.000000  0.000000  0.500000  1
  Y  Y19  1  0.000000  0.000000  0.000000  1
  Ir  Ir20  1  0.500000  0.000000  0.121854  1
  Ir  Ir21  1  0.500000  0.000000  0.621854  1
  Ir  Ir22  1  0.000000  0.500000  0.878146  1
  Ir  Ir23  1  0.000000  0.500000  0.378146  1
  Pt  Pt24  1  0.845681  0.154319  0.250000  1
  Pt  Pt25  1  0.845681  0.845681  0.750000  1
  Pt  Pt26  1  0.154319  0.154319  0.750000  1
  Pt  Pt27  1  0.154319  0.845681  0.250000  1
  Pt  Pt28  1  0.652237  0.347763  0.750000  1
  Pt  Pt29  1  0.652237  0.652237  0.250000  1
  Pt  Pt30  1  0.347763  0.347763  0.250000  1
  Pt  Pt31  1  0.347763  0.652237  0.750000  1
