# generated using pymatgen
data_TaTi9CuSn7
_symmetry_space_group_name_H-M   'P 1'
_cell_length_a   5.59888800
_cell_length_b   8.30498495
_cell_length_c   8.30461901
_cell_angle_alpha   120.00224848
_cell_angle_beta   90.00131367
_cell_angle_gamma   90.00047911
_symmetry_Int_Tables_number   1
_chemical_formula_structural   TaTi9CuSn7
_chemical_formula_sum   'Ta1 Ti9 Cu1 Sn7'
_cell_volume   334.41144659
_cell_formula_units_Z   1
loop_
 _symmetry_equiv_pos_site_id
 _symmetry_equiv_pos_as_xyz
  1  'x, y, z'
loop_
 _atom_site_type_symbol
 _atom_site_label
 _atom_site_symmetry_multiplicity
 _atom_site_fract_x
 _atom_site_fract_y
 _atom_site_fract_z
 _atom_site_occupancy
  Ta  Ta0  1  0.500001  0.333338  0.666657  1
  Ti  Ti1  1  0.499997  0.666660  0.333340  1
  Ti  Ti2  1  0.999997  0.666664  0.333338  1
  Ti  Ti3  1  0.999997  0.333350  0.666670  1
  Ti  Ti4  1  0.735264  0.275353  0.997117  1
  Ti  Ti5  1  0.735275  0.721783  0.724670  1
  Ti  Ti6  1  0.735265  0.002889  0.278231  1
  Ti  Ti7  1  0.264732  0.721769  0.997111  1
  Ti  Ti8  1  0.264723  0.275335  0.278213  1
  Ti  Ti9  1  0.264736  0.002885  0.724658  1
  Cu  Cu10  1  0.500003  0.999996  0.999998  1
  Sn  Sn11  1  0.755502  0.618098  0.003519  1
  Sn  Sn12  1  0.755501  0.385448  0.381922  1
  Sn  Sn13  1  0.755492  0.996452  0.614569  1
  Sn  Sn14  1  0.244498  0.385432  0.003528  1
  Sn  Sn15  1  0.244521  0.618081  0.614565  1
  Sn  Sn16  1  0.244505  0.996472  0.381904  1
  Sn  Sn17  1  0.999988  0.999996  0.999991  1
