# generated using pymatgen
data_Ho16In6TcAu
_symmetry_space_group_name_H-M   'P 1'
_cell_length_a   10.46411900
_cell_length_b   10.46411935
_cell_length_c   6.97559400
_cell_angle_alpha   90.00000000
_cell_angle_beta   90.00000000
_cell_angle_gamma   120.00000205
_symmetry_Int_Tables_number   1
_chemical_formula_structural   Ho16In6TcAu
_chemical_formula_sum   'Ho16 In6 Tc1 Au1'
_cell_volume   661.48069277
_cell_formula_units_Z   1
loop_
 _symmetry_equiv_pos_site_id
 _symmetry_equiv_pos_as_xyz
  1  'x, y, z'
loop_
 _atom_site_type_symbol
 _atom_site_label
 _atom_site_symmetry_multiplicity
 _atom_site_fract_x
 _atom_site_fract_y
 _atom_site_fract_z
 _atom_site_occupancy
  Ho  Ho0  1  0.525697  0.051393  0.512251  1
  Ho  Ho1  1  0.948607  0.474303  0.512251  1
  Ho  Ho2  1  0.525697  0.474303  0.512251  1
  Ho  Ho3  1  0.465905  0.931811  0.009683  1
  Ho  Ho4  1  0.068189  0.534095  0.009683  1
  Ho  Ho5  1  0.465905  0.534095  0.009683  1
  Ho  Ho6  1  0.175878  0.351755  0.717329  1
  Ho  Ho7  1  0.648245  0.824122  0.717329  1
  Ho  Ho8  1  0.175878  0.824122  0.717329  1
  Ho  Ho9  1  0.826826  0.653653  0.214125  1
  Ho  Ho10  1  0.346347  0.173174  0.214125  1
  Ho  Ho11  1  0.826826  0.173174  0.214125  1
  Ho  Ho12  1  0.666667  0.333333  0.872968  1
  Ho  Ho13  1  0.333333  0.666667  0.382567  1
  Ho  Ho14  1  0.000000  0.000000  0.488997  1
  Ho  Ho15  1  0.000000  0.000000  0.992898  1
  In  In16  1  0.837149  0.674298  0.748983  1
  In  In17  1  0.325702  0.162851  0.748983  1
  In  In18  1  0.837149  0.162851  0.748983  1
  In  In19  1  0.162893  0.325786  0.250738  1
  In  In20  1  0.674214  0.837107  0.250738  1
  In  In21  1  0.162893  0.837107  0.250738  1
  Tc  Tc22  1  0.333333  0.666667  0.779903  1
  Au  Au23  1  0.666667  0.333333  0.281382  1
