# generated using pymatgen
data_Y13Th3TlCd2HgIr4
_symmetry_space_group_name_H-M   'P 1'
_cell_length_a   9.73275354
_cell_length_b   9.74143811
_cell_length_c   9.76169000
_cell_angle_alpha   59.93120527
_cell_angle_beta   59.90160176
_cell_angle_gamma   59.87505272
_symmetry_Int_Tables_number   1
_chemical_formula_structural   Y13Th3TlCd2HgIr4
_chemical_formula_sum   'Y13 Th3 Tl1 Cd2 Hg1 Ir4'
_cell_volume   652.99236248
_cell_formula_units_Z   1
loop_
 _symmetry_equiv_pos_site_id
 _symmetry_equiv_pos_as_xyz
  1  'x, y, z'
loop_
 _atom_site_type_symbol
 _atom_site_label
 _atom_site_symmetry_multiplicity
 _atom_site_fract_x
 _atom_site_fract_y
 _atom_site_fract_z
 _atom_site_occupancy
  Y  Y0  1  0.942808  0.353362  0.351571  1
  Y  Y1  1  0.811127  0.188797  0.190349  1
  Y  Y2  1  0.187739  0.812139  0.812510  1
  Y  Y3  1  0.186519  0.812672  0.187586  1
  Y  Y4  1  0.811058  0.189070  0.809802  1
  Y  Y5  1  0.187238  0.187591  0.812430  1
  Y  Y6  1  0.811186  0.810201  0.189427  1
  Y  Y7  1  0.940852  0.563117  0.562714  1
  Y  Y8  1  0.563996  0.937629  0.936230  1
  Y  Y9  1  0.563657  0.939630  0.564017  1
  Y  Y10  1  0.939439  0.563535  0.936248  1
  Y  Y11  1  0.563852  0.564679  0.939265  1
  Y  Y12  1  0.939735  0.937398  0.562251  1
  Th  Th13  1  0.347357  0.349419  0.349251  1
  Th  Th14  1  0.346811  0.349281  0.954665  1
  Th  Th15  1  0.349636  0.949039  0.350192  1
  Tl  Tl16  1  0.585691  0.582158  0.585821  1
  Cd  Cd17  1  0.580951  0.251667  0.582709  1
  Cd  Cd18  1  0.251524  0.579799  0.583616  1
  Hg  Hg19  1  0.586885  0.584234  0.238209  1
  Ir  Ir20  1  0.144454  0.140948  0.143802  1
  Ir  Ir21  1  0.144804  0.140847  0.570272  1
  Ir  Ir22  1  0.143878  0.570096  0.143008  1
  Ir  Ir23  1  0.568806  0.142690  0.144054  1
