# generated using pymatgen
data_Np6Sb8(IrAu)3
_symmetry_space_group_name_H-M   'P 1'
_cell_length_a   8.51205415
_cell_length_b   8.51205472
_cell_length_c   8.55046900
_cell_angle_alpha   109.56266298
_cell_angle_beta   109.56266433
_cell_angle_gamma   109.37962386
_symmetry_Int_Tables_number   1
_chemical_formula_structural   Np6Sb8(IrAu)3
_chemical_formula_sum   'Np6 Sb8 Ir3 Au3'
_cell_volume   476.37116671
_cell_formula_units_Z   1
loop_
 _symmetry_equiv_pos_site_id
 _symmetry_equiv_pos_as_xyz
  1  'x, y, z'
loop_
 _atom_site_type_symbol
 _atom_site_label
 _atom_site_symmetry_multiplicity
 _atom_site_fract_x
 _atom_site_fract_y
 _atom_site_fract_z
 _atom_site_occupancy
  Np  Np0  1  0.616557  0.758905  0.384149  1
  Np  Np1  1  0.741095  0.357652  0.625243  1
  Np  Np2  1  0.244391  0.127017  0.863102  1
  Np  Np3  1  0.372983  0.617373  0.736085  1
  Np  Np4  1  0.142348  0.883443  0.267592  1
  Np  Np5  1  0.882627  0.255609  0.118712  1
  Sb  Sb6  1  0.176622  0.495379  0.003695  1
  Sb  Sb7  1  0.318757  0.323378  0.327072  1
  Sb  Sb8  1  0.004621  0.181243  0.508315  1
  Sb  Sb9  1  0.822638  0.832653  0.821581  1
  Sb  Sb10  1  0.500000  0.000000  0.681404  1
  Sb  Sb11  1  0.010016  0.677362  0.498943  1
  Sb  Sb12  1  0.500000  0.000000  0.173899  1
  Sb  Sb13  1  0.667347  0.489984  0.988928  1
  Ir  Ir14  1  0.371175  0.243126  0.620130  1
  Ir  Ir15  1  0.871950  0.128825  0.748955  1
  Ir  Ir16  1  0.256874  0.628050  0.377004  1
  Au  Au17  1  0.755765  0.874858  0.128605  1
  Au  Au18  1  0.119093  0.744235  0.872840  1
  Au  Au19  1  0.625142  0.380907  0.253747  1
