# generated using pymatgen
data_Re2Sb7W
_symmetry_space_group_name_H-M   'P 1'
_cell_length_a   8.29884002
_cell_length_b   8.29714318
_cell_length_c   8.29883982
_cell_angle_alpha   109.57620363
_cell_angle_beta   109.26978019
_cell_angle_gamma   109.57620317
_symmetry_Int_Tables_number   1
_chemical_formula_structural   Re2Sb7W
_chemical_formula_sum   'Re4 Sb14 W2'
_cell_volume   439.83791654
_cell_formula_units_Z   2
loop_
 _symmetry_equiv_pos_site_id
 _symmetry_equiv_pos_as_xyz
  1  'x, y, z'
loop_
 _atom_site_type_symbol
 _atom_site_label
 _atom_site_symmetry_multiplicity
 _atom_site_fract_x
 _atom_site_fract_y
 _atom_site_fract_z
 _atom_site_occupancy
  Re  Re0  1  0.000108  0.660696  0.660589  1
  Re  Re1  1  0.658245  0.000319  0.658245  1
  Re  Re2  1  0.342073  0.000319  0.342073  1
  Re  Re3  1  0.660589  0.660696  0.000108  1
  Sb  Sb4  1  0.749747  0.249180  0.499433  1
  Sb  Sb5  1  0.499433  0.249180  0.749747  1
  Sb  Sb6  1  0.499530  0.750653  0.251123  1
  Sb  Sb7  1  0.249445  0.498890  0.749445  1
  Sb  Sb8  1  0.749445  0.498890  0.249445  1
  Sb  Sb9  1  0.251123  0.750653  0.499530  1
  Sb  Sb10  1  0.326757  0.326400  0.326757  1
  Sb  Sb11  1  0.999716  0.999331  0.326741  1
  Sb  Sb12  1  0.326741  0.999331  0.999716  1
  Sb  Sb13  1  0.999642  0.326400  0.999642  1
  Sb  Sb14  1  0.672590  0.999331  0.999615  1
  Sb  Sb15  1  0.999637  0.672448  0.999637  1
  Sb  Sb16  1  0.999615  0.999331  0.672590  1
  Sb  Sb17  1  0.672811  0.672448  0.672811  1
  W  W18  1  0.342560  0.342751  0.000191  1
  W  W19  1  0.000191  0.342751  0.342560  1
