# generated using pymatgen
data_Ho2AlZn13Cu3
_symmetry_space_group_name_H-M   'P 1'
_cell_length_a   8.89194300
_cell_length_b   8.89200197
_cell_length_c   8.63882900
_cell_angle_alpha   89.99957467
_cell_angle_beta   89.99974512
_cell_angle_gamma   120.00049096
_symmetry_Int_Tables_number   1
_chemical_formula_structural   Ho2AlZn13Cu3
_chemical_formula_sum   'Ho4 Al2 Zn26 Cu6'
_cell_volume   591.53382165
_cell_formula_units_Z   2
loop_
 _symmetry_equiv_pos_site_id
 _symmetry_equiv_pos_as_xyz
  1  'x, y, z'
loop_
 _atom_site_type_symbol
 _atom_site_label
 _atom_site_symmetry_multiplicity
 _atom_site_fract_x
 _atom_site_fract_y
 _atom_site_fract_z
 _atom_site_occupancy
  Ho  Ho0  1  0.999991  0.000009  0.750162  1
  Ho  Ho1  1  0.000009  0.999991  0.249838  1
  Ho  Ho2  1  0.666683  0.333309  0.249001  1
  Ho  Ho3  1  0.333317  0.666691  0.750999  1
  Al  Al4  1  0.666676  0.333322  0.597427  1
  Al  Al5  1  0.333324  0.666678  0.402573  1
  Zn  Zn6  1  0.333318  0.666671  0.096003  1
  Zn  Zn7  1  0.666682  0.333329  0.903997  1
  Zn  Zn8  1  0.667025  0.035165  0.750165  1
  Zn  Zn9  1  0.368146  0.332956  0.750170  1
  Zn  Zn10  1  0.964844  0.631892  0.750171  1
  Zn  Zn11  1  0.368104  0.035156  0.750166  1
  Zn  Zn12  1  0.964836  0.332979  0.750171  1
  Zn  Zn13  1  0.667044  0.631854  0.750169  1
  Zn  Zn14  1  0.332975  0.964835  0.249835  1
  Zn  Zn15  1  0.631854  0.667044  0.249830  1
  Zn  Zn16  1  0.035156  0.368108  0.249829  1
  Zn  Zn17  1  0.631896  0.964844  0.249834  1
  Zn  Zn18  1  0.035164  0.667021  0.249829  1
  Zn  Zn19  1  0.332956  0.368146  0.249831  1
  Zn  Zn20  1  0.835416  0.670843  0.480089  1
  Zn  Zn21  1  0.835442  0.164557  0.480118  1
  Zn  Zn22  1  0.329156  0.164583  0.480088  1
  Zn  Zn23  1  0.164584  0.329157  0.519911  1
  Zn  Zn24  1  0.164558  0.835443  0.519882  1
  Zn  Zn25  1  0.670844  0.835417  0.519912  1
  Zn  Zn26  1  0.165129  0.330251  0.980278  1
  Zn  Zn27  1  0.165096  0.834893  0.980305  1
  Zn  Zn28  1  0.669753  0.834868  0.980278  1
  Zn  Zn29  1  0.834871  0.669749  0.019722  1
  Zn  Zn30  1  0.834904  0.165107  0.019695  1
  Zn  Zn31  1  0.330247  0.165132  0.019722  1
  Cu  Cu32  1  0.500000  0.000000  0.500000  1
  Cu  Cu33  1  0.500000  0.500000  0.500000  1
  Cu  Cu34  1  0.000000  0.500000  0.500000  1
  Cu  Cu35  1  0.500000  0.000000  0.000000  1
  Cu  Cu36  1  0.500000  0.500000  0.000000  1
  Cu  Cu37  1  0.000000  0.500000  0.000000  1
