# generated using pymatgen
data_Cs2Ta6PbBr18
_symmetry_space_group_name_H-M   'P 1'
_cell_length_a   11.02596547
_cell_length_b   11.02596559
_cell_length_c   11.02596453
_cell_angle_alpha   54.92816939
_cell_angle_beta   54.92816838
_cell_angle_gamma   54.92816877
_symmetry_Int_Tables_number   1
_chemical_formula_structural   Cs2Ta6PbBr18
_chemical_formula_sum   'Cs2 Ta6 Pb1 Br18'
_cell_volume   835.95584648
_cell_formula_units_Z   1
loop_
 _symmetry_equiv_pos_site_id
 _symmetry_equiv_pos_as_xyz
  1  'x, y, z'
loop_
 _atom_site_type_symbol
 _atom_site_label
 _atom_site_symmetry_multiplicity
 _atom_site_fract_x
 _atom_site_fract_y
 _atom_site_fract_z
 _atom_site_occupancy
  Cs  Cs0  1  0.276669  0.276669  0.276669  1
  Cs  Cs1  1  0.723331  0.723331  0.723331  1
  Ta  Ta2  1  0.423694  0.310482  0.638181  1
  Ta  Ta3  1  0.361819  0.576306  0.689518  1
  Ta  Ta4  1  0.689518  0.361819  0.576306  1
  Ta  Ta5  1  0.638181  0.423694  0.310482  1
  Ta  Ta6  1  0.576306  0.689518  0.361819  1
  Ta  Ta7  1  0.310482  0.638181  0.423694  1
  Pb  Pb8  1  0.000000  0.000000  0.000000  1
  Br  Br9  1  0.639740  0.093930  0.767743  1
  Br  Br10  1  0.767743  0.639740  0.093930  1
  Br  Br11  1  0.093930  0.767743  0.639740  1
  Br  Br12  1  0.825765  0.322487  0.044109  1
  Br  Br13  1  0.169007  0.435378  0.577402  1
  Br  Br14  1  0.677513  0.955891  0.174235  1
  Br  Br15  1  0.906070  0.232257  0.360260  1
  Br  Br16  1  0.564622  0.422598  0.830993  1
  Br  Br17  1  0.422598  0.830993  0.564622  1
  Br  Br18  1  0.955891  0.174235  0.677513  1
  Br  Br19  1  0.174235  0.677513  0.955891  1
  Br  Br20  1  0.044109  0.825765  0.322487  1
  Br  Br21  1  0.322487  0.044109  0.825765  1
  Br  Br22  1  0.232257  0.360260  0.906070  1
  Br  Br23  1  0.577402  0.169007  0.435378  1
  Br  Br24  1  0.435378  0.577402  0.169007  1
  Br  Br25  1  0.360260  0.906070  0.232257  1
  Br  Br26  1  0.830993  0.564622  0.422598  1
