# generated using pymatgen
data_SrEuGd2F10
_symmetry_space_group_name_H-M   'P 1'
_cell_length_a   8.40412350
_cell_length_b   8.40412173
_cell_length_c   5.91636200
_cell_angle_alpha   89.05978613
_cell_angle_beta   89.05979315
_cell_angle_gamma   149.43395023
_symmetry_Int_Tables_number   1
_chemical_formula_structural   SrEuGd2F10
_chemical_formula_sum   'Sr1 Eu1 Gd2 F10'
_cell_volume   212.08698561
_cell_formula_units_Z   1
loop_
 _symmetry_equiv_pos_site_id
 _symmetry_equiv_pos_as_xyz
  1  'x, y, z'
loop_
 _atom_site_type_symbol
 _atom_site_label
 _atom_site_symmetry_multiplicity
 _atom_site_fract_x
 _atom_site_fract_y
 _atom_site_fract_z
 _atom_site_occupancy
  Sr  Sr0  1  0.676823  0.323177  0.250000  1
  Eu  Eu1  1  0.322282  0.677718  0.750000  1
  Gd  Gd2  1  0.075278  0.924722  0.750000  1
  Gd  Gd3  1  0.924515  0.075485  0.250000  1
  F  F4  1  0.726616  0.808717  0.605377  1
  F  F5  1  0.810722  0.729092  0.104205  1
  F  F6  1  0.803701  0.184316  0.000001  1
  F  F7  1  0.621579  0.378421  0.750000  1
  F  F8  1  0.815684  0.196299  0.499999  1
  F  F9  1  0.185290  0.802485  0.504198  1
  F  F10  1  0.377804  0.622196  0.250000  1
  F  F11  1  0.197515  0.814710  0.995802  1
  F  F12  1  0.191283  0.273384  0.894623  1
  F  F13  1  0.270908  0.189278  0.395795  1
