# generated using pymatgen
data_Ho7Er9Cd4(IrPt)2
_symmetry_space_group_name_H-M   'P 1'
_cell_length_a   9.59205165
_cell_length_b   9.59205221
_cell_length_c   9.57210100
_cell_angle_alpha   60.06878458
_cell_angle_beta   60.06878264
_cell_angle_gamma   60.25276279
_symmetry_Int_Tables_number   1
_chemical_formula_structural   Ho7Er9Cd4(IrPt)2
_chemical_formula_sum   'Ho7 Er9 Cd4 Ir2 Pt2'
_cell_volume   624.58354103
_cell_formula_units_Z   1
loop_
 _symmetry_equiv_pos_site_id
 _symmetry_equiv_pos_as_xyz
  1  'x, y, z'
loop_
 _atom_site_type_symbol
 _atom_site_label
 _atom_site_symmetry_multiplicity
 _atom_site_fract_x
 _atom_site_fract_y
 _atom_site_fract_z
 _atom_site_occupancy
  Ho  Ho0  1  0.061771  0.061771  0.438229  1
  Ho  Ho1  1  0.188041  0.814361  0.811622  1
  Ho  Ho2  1  0.814361  0.188041  0.185975  1
  Ho  Ho3  1  0.814361  0.188041  0.811622  1
  Ho  Ho4  1  0.188041  0.814361  0.185975  1
  Ho  Ho5  1  0.813935  0.813935  0.186065  1
  Ho  Ho6  1  0.187566  0.187566  0.812434  1
  Er  Er7  1  0.600690  0.600690  0.596311  1
  Er  Er8  1  0.600690  0.600690  0.202310  1
  Er  Er9  1  0.606226  0.193363  0.600206  1
  Er  Er10  1  0.193363  0.606226  0.600206  1
  Er  Er11  1  0.056999  0.440226  0.440092  1
  Er  Er12  1  0.440226  0.056999  0.062684  1
  Er  Er13  1  0.440226  0.056999  0.440092  1
  Er  Er14  1  0.056999  0.440226  0.062684  1
  Er  Er15  1  0.440781  0.440781  0.059219  1
  Cd  Cd16  1  0.831098  0.831098  0.832020  1
  Cd  Cd17  1  0.831098  0.831098  0.505782  1
  Cd  Cd18  1  0.830824  0.505378  0.831899  1
  Cd  Cd19  1  0.505378  0.830824  0.831899  1
  Ir  Ir20  1  0.391117  0.822861  0.393012  1
  Ir  Ir21  1  0.822861  0.391117  0.393012  1
  Pt  Pt22  1  0.391676  0.391676  0.395561  1
  Pt  Pt23  1  0.391676  0.391676  0.821088  1
