# generated using pymatgen
data_La6TbGdSb20
_symmetry_space_group_name_H-M   'P 1'
_cell_length_a   4.32305700
_cell_length_b   13.70189277
_cell_length_c   15.34194800
_cell_angle_alpha   78.17714015
_cell_angle_beta   90.00000000
_cell_angle_gamma   90.00000000
_symmetry_Int_Tables_number   1
_chemical_formula_structural   La6TbGdSb20
_chemical_formula_sum   'La6 Tb1 Gd1 Sb20'
_cell_volume   889.48710792
_cell_formula_units_Z   1
loop_
 _symmetry_equiv_pos_site_id
 _symmetry_equiv_pos_as_xyz
  1  'x, y, z'
loop_
 _atom_site_type_symbol
 _atom_site_label
 _atom_site_symmetry_multiplicity
 _atom_site_fract_x
 _atom_site_fract_y
 _atom_site_fract_z
 _atom_site_occupancy
  La  La0  1  0.750000  0.332939  0.143201  1
  La  La1  1  0.250000  0.946754  0.364925  1
  La  La2  1  0.250000  0.667556  0.858553  1
  La  La3  1  0.250000  0.667298  0.576919  1
  La  La4  1  0.750000  0.052514  0.634427  1
  La  La5  1  0.750000  0.333153  0.421814  1
  Tb  Tb6  1  0.750000  0.602258  0.228352  1
  Gd  Gd7  1  0.250000  0.397439  0.771623  1
  Sb  Sb8  1  0.750000  0.856812  0.816591  1
  Sb  Sb9  1  0.250000  0.862852  0.675551  1
  Sb  Sb10  1  0.250000  0.145393  0.474663  1
  Sb  Sb11  1  0.750000  0.288923  0.933841  1
  Sb  Sb12  1  0.250000  0.149118  0.778300  1
  Sb  Sb13  1  0.750000  0.575558  0.439496  1
  Sb  Sb14  1  0.750000  0.136338  0.324816  1
  Sb  Sb15  1  0.250000  0.702575  0.351946  1
  Sb  Sb16  1  0.750000  0.297252  0.646675  1
  Sb  Sb17  1  0.750000  0.850096  0.220820  1
  Sb  Sb18  1  0.250000  0.420611  0.971751  1
  Sb  Sb19  1  0.250000  0.424389  0.559509  1
  Sb  Sb20  1  0.750000  0.572827  0.738173  1
  Sb  Sb21  1  0.250000  0.428714  0.261925  1
  Sb  Sb22  1  0.750000  0.854689  0.525120  1
  Sb  Sb23  1  0.750000  0.037608  0.883843  1
  Sb  Sb24  1  0.250000  0.711440  0.068279  1
  Sb  Sb25  1  0.250000  0.962310  0.115636  1
  Sb  Sb26  1  0.250000  0.142748  0.183648  1
  Sb  Sb27  1  0.750000  0.579841  0.029605  1
