# generated using pymatgen
data_Zr(Zn2Cu)4
_symmetry_space_group_name_H-M   'P 1'
_cell_length_a   6.57692881
_cell_length_b   6.57720230
_cell_length_c   6.57692849
_cell_angle_alpha   98.01403606
_cell_angle_beta   98.01143426
_cell_angle_gamma   136.15182159
_symmetry_Int_Tables_number   1
_chemical_formula_structural   Zr(Zn2Cu)4
_chemical_formula_sum   'Zr1 Zn8 Cu4'
_cell_volume   182.83981417
_cell_formula_units_Z   1
loop_
 _symmetry_equiv_pos_site_id
 _symmetry_equiv_pos_as_xyz
  1  'x, y, z'
loop_
 _atom_site_type_symbol
 _atom_site_label
 _atom_site_symmetry_multiplicity
 _atom_site_fract_x
 _atom_site_fract_y
 _atom_site_fract_z
 _atom_site_occupancy
  Zr  Zr0  1  0.000000  0.000000  0.000000  1
  Zn  Zn1  1  0.714002  0.500000  0.214002  1
  Zn  Zn2  1  0.500012  0.714014  0.214002  1
  Zn  Zn3  1  0.344267  0.000000  0.344267  1
  Zn  Zn4  1  0.999981  0.344248  0.344267  1
  Zn  Zn5  1  0.655733  0.000000  0.655733  1
  Zn  Zn6  1  0.000019  0.655752  0.655733  1
  Zn  Zn7  1  0.499988  0.285986  0.785998  1
  Zn  Zn8  1  0.285998  0.500000  0.785998  1
  Cu  Cu9  1  0.500000  0.000000  0.000000  1
  Cu  Cu10  1  0.000000  0.500000  0.000000  1
  Cu  Cu11  1  0.000000  0.000000  0.499999  1
  Cu  Cu12  1  0.500000  0.500000  0.499999  1
