# generated using pymatgen
data_Tb4GaReRu6
_symmetry_space_group_name_H-M   'P 1'
_cell_length_a   5.19751577
_cell_length_b   5.45458751
_cell_length_c   8.91755300
_cell_angle_alpha   90.00000000
_cell_angle_beta   90.00000000
_cell_angle_gamma   119.94401768
_symmetry_Int_Tables_number   1
_chemical_formula_structural   Tb4GaReRu6
_chemical_formula_sum   'Tb4 Ga1 Re1 Ru6'
_cell_volume   219.06791565
_cell_formula_units_Z   1
loop_
 _symmetry_equiv_pos_site_id
 _symmetry_equiv_pos_as_xyz
  1  'x, y, z'
loop_
 _atom_site_type_symbol
 _atom_site_label
 _atom_site_symmetry_multiplicity
 _atom_site_fract_x
 _atom_site_fract_y
 _atom_site_fract_z
 _atom_site_occupancy
  Tb  Tb0  1  0.334404  0.669194  0.436615  1
  Tb  Tb1  1  0.660753  0.327801  0.565223  1
  Tb  Tb2  1  0.660753  0.327801  0.934777  1
  Tb  Tb3  1  0.334404  0.669194  0.063385  1
  Ga  Ga4  1  0.834281  0.169202  0.250000  1
  Re  Re5  1  0.665938  0.833874  0.750000  1
  Ru  Ru6  1  0.989129  0.988043  0.500343  1
  Ru  Ru7  1  0.989129  0.988043  0.999657  1
  Ru  Ru8  1  0.826457  0.660891  0.250000  1
  Ru  Ru9  1  0.348207  0.182364  0.250000  1
  Ru  Ru10  1  0.174880  0.833933  0.750000  1
  Ru  Ru11  1  0.181666  0.349656  0.750000  1
