# generated using pymatgen
data_Na3Np2PbSe6
_symmetry_space_group_name_H-M   'P 1'
_cell_length_a   7.33109650
_cell_length_b   7.33109670
_cell_length_c   7.35625600
_cell_angle_alpha   80.45621611
_cell_angle_beta   80.45620792
_cell_angle_gamma   119.99180733
_symmetry_Int_Tables_number   1
_chemical_formula_structural   Na3Np2PbSe6
_chemical_formula_sum   'Na3 Np2 Pb1 Se6'
_cell_volume   323.05206856
_cell_formula_units_Z   1
loop_
 _symmetry_equiv_pos_site_id
 _symmetry_equiv_pos_as_xyz
  1  'x, y, z'
loop_
 _atom_site_type_symbol
 _atom_site_label
 _atom_site_symmetry_multiplicity
 _atom_site_fract_x
 _atom_site_fract_y
 _atom_site_fract_z
 _atom_site_occupancy
  Na  Na0  1  0.500000  0.500000  0.500000  1
  Na  Na1  1  0.837870  0.162130  0.500000  1
  Na  Na2  1  0.162130  0.837870  0.500000  1
  Np  Np3  1  0.667144  0.332856  0.000000  1
  Np  Np4  1  0.332856  0.667144  0.000000  1
  Pb  Pb5  1  0.000000  0.000000  0.000000  1
  Se  Se6  1  0.274143  0.274143  0.235623  1
  Se  Se7  1  0.433033  0.078675  0.765904  1
  Se  Se8  1  0.078675  0.433033  0.765904  1
  Se  Se9  1  0.725857  0.725857  0.764377  1
  Se  Se10  1  0.566967  0.921325  0.234096  1
  Se  Se11  1  0.921325  0.566967  0.234096  1
