# generated using pymatgen
data_Sc8Ti9Si9Ge7Mo3
_symmetry_space_group_name_H-M   'P 1'
_cell_length_a   6.68860733
_cell_length_b   6.82453561
_cell_length_c   13.12426360
_cell_angle_alpha   89.96847510
_cell_angle_beta   90.07912755
_cell_angle_gamma   90.03018390
_symmetry_Int_Tables_number   1
_chemical_formula_structural   Sc8Ti9Si9Ge7Mo3
_chemical_formula_sum   'Sc8 Ti9 Si9 Ge7 Mo3'
_cell_volume   599.07777609
_cell_formula_units_Z   1
loop_
 _symmetry_equiv_pos_site_id
 _symmetry_equiv_pos_as_xyz
  1  'x, y, z'
loop_
 _atom_site_type_symbol
 _atom_site_label
 _atom_site_symmetry_multiplicity
 _atom_site_fract_x
 _atom_site_fract_y
 _atom_site_fract_z
 _atom_site_occupancy
  Sc  Sc0  1  0.497578  0.322526  0.099265  1
  Sc  Sc1  1  0.998572  0.178422  0.402238  1
  Sc  Sc2  1  0.497299  0.671895  0.596630  1
  Sc  Sc3  1  0.003536  0.822134  0.901970  1
  Sc  Sc4  1  0.500896  0.674756  0.902037  1
  Sc  Sc5  1  0.003635  0.820894  0.597402  1
  Sc  Sc6  1  0.496358  0.324270  0.402156  1
  Sc  Sc7  1  0.996908  0.177433  0.098902  1
  Ti  Ti8  1  0.843477  0.331190  0.629520  1
  Ti  Ti9  1  0.336636  0.171184  0.870208  1
  Ti  Ti10  1  0.162783  0.670283  0.129529  1
  Ti  Ti11  1  0.662652  0.830687  0.371354  1
  Ti  Ti12  1  0.164628  0.668244  0.371936  1
  Ti  Ti13  1  0.662626  0.831583  0.129434  1
  Ti  Ti14  1  0.842137  0.331630  0.869920  1
  Ti  Ti15  1  0.333803  0.174905  0.628046  1
  Ti  Ti16  1  0.661965  0.008416  0.749761  1
  Si  Si17  1  0.171179  0.461855  0.540286  1
  Si  Si18  1  0.538312  0.384601  0.749577  1
  Si  Si19  1  0.037794  0.114249  0.749853  1
  Si  Si20  1  0.463016  0.614859  0.250191  1
  Si  Si21  1  0.963066  0.884596  0.250910  1
  Si  Si22  1  0.796408  0.640145  0.749682  1
  Si  Si23  1  0.297776  0.862526  0.749335  1
  Si  Si24  1  0.201938  0.360693  0.250326  1
  Si  Si25  1  0.702665  0.138915  0.250737  1
  Ge  Ge26  1  0.676500  0.035766  0.541254  1
  Ge  Ge27  1  0.177725  0.461013  0.960229  1
  Ge  Ge28  1  0.322937  0.962724  0.039695  1
  Ge  Ge29  1  0.825826  0.537562  0.460528  1
  Ge  Ge30  1  0.323611  0.963199  0.460021  1
  Ge  Ge31  1  0.821567  0.538386  0.039964  1
  Ge  Ge32  1  0.677406  0.036805  0.959168  1
  Mo  Mo33  1  0.161949  0.492208  0.747501  1
  Mo  Mo34  1  0.337117  0.990573  0.250113  1
  Mo  Mo35  1  0.837715  0.508875  0.250322  1
