# generated using pymatgen
data_Er16CdCo4AgHg2
_symmetry_space_group_name_H-M   'P 1'
_cell_length_a   9.36298011
_cell_length_b   9.37456543
_cell_length_c   9.37456713
_cell_angle_alpha   59.91888046
_cell_angle_beta   59.88171887
_cell_angle_gamma   59.88172321
_symmetry_Int_Tables_number   1
_chemical_formula_structural   Er16CdCo4AgHg2
_chemical_formula_sum   'Er16 Cd1 Co4 Ag1 Hg2'
_cell_volume   580.43918886
_cell_formula_units_Z   1
loop_
 _symmetry_equiv_pos_site_id
 _symmetry_equiv_pos_as_xyz
  1  'x, y, z'
loop_
 _atom_site_type_symbol
 _atom_site_label
 _atom_site_symmetry_multiplicity
 _atom_site_fract_x
 _atom_site_fract_y
 _atom_site_fract_z
 _atom_site_occupancy
  Er  Er0  1  0.599104  0.598284  0.598284  1
  Er  Er1  1  0.596409  0.596474  0.210769  1
  Er  Er2  1  0.596409  0.210769  0.596474  1
  Er  Er3  1  0.206667  0.597449  0.597449  1
  Er  Er4  1  0.061147  0.438712  0.438712  1
  Er  Er5  1  0.435673  0.062624  0.062624  1
  Er  Er6  1  0.437083  0.062183  0.438506  1
  Er  Er7  1  0.061184  0.437839  0.061345  1
  Er  Er8  1  0.437083  0.438506  0.062183  1
  Er  Er9  1  0.061184  0.061345  0.437839  1
  Er  Er10  1  0.187016  0.810459  0.810459  1
  Er  Er11  1  0.811473  0.186718  0.186718  1
  Er  Er12  1  0.811707  0.186011  0.810852  1
  Er  Er13  1  0.187035  0.810886  0.186775  1
  Er  Er14  1  0.811707  0.810852  0.186011  1
  Er  Er15  1  0.187035  0.186775  0.810886  1
  Cd  Cd16  1  0.513214  0.830388  0.830388  1
  Co  Co17  1  0.390112  0.391798  0.391798  1
  Co  Co18  1  0.391425  0.394087  0.826201  1
  Co  Co19  1  0.391425  0.826201  0.394087  1
  Co  Co20  1  0.826109  0.392999  0.392999  1
  Ag  Ag21  1  0.831748  0.833886  0.833886  1
  Hg  Hg22  1  0.834022  0.835944  0.498809  1
  Hg  Hg23  1  0.834022  0.498809  0.835944  1
