# generated using pymatgen
data_Ho3Sn3PdRuPt
_symmetry_space_group_name_H-M   'P 1'
_cell_length_a   7.73722000
_cell_length_b   7.73721820
_cell_length_c   3.72801600
_cell_angle_alpha   90.00000000
_cell_angle_beta   90.00000000
_cell_angle_gamma   120.00000768
_symmetry_Int_Tables_number   1
_chemical_formula_structural   Ho3Sn3PdRuPt
_chemical_formula_sum   'Ho3 Sn3 Pd1 Ru1 Pt1'
_cell_volume   193.27610119
_cell_formula_units_Z   1
loop_
 _symmetry_equiv_pos_site_id
 _symmetry_equiv_pos_as_xyz
  1  'x, y, z'
loop_
 _atom_site_type_symbol
 _atom_site_label
 _atom_site_symmetry_multiplicity
 _atom_site_fract_x
 _atom_site_fract_y
 _atom_site_fract_z
 _atom_site_occupancy
  Ho  Ho0  1  0.394410  0.401342  0.500000  1
  Ho  Ho1  1  0.598658  0.993069  0.500000  1
  Ho  Ho2  1  0.006931  0.605590  0.500000  1
  Sn  Sn3  1  0.994296  0.260012  0.000000  1
  Sn  Sn4  1  0.739988  0.734284  0.000000  1
  Sn  Sn5  1  0.265716  0.005704  0.000000  1
  Pd  Pd6  1  0.666667  0.333333  0.000000  1
  Ru  Ru7  1  0.000000  0.000000  0.500000  1
  Pt  Pt8  1  0.333333  0.666667  0.000000  1
