# generated using pymatgen
data_Y2Ho5CoI12
_symmetry_space_group_name_H-M   'P 1'
_cell_length_a   9.72277414
_cell_length_b   9.72153366
_cell_length_c   9.72939162
_cell_angle_alpha   106.82884359
_cell_angle_beta   106.80749595
_cell_angle_gamma   106.81683833
_symmetry_Int_Tables_number   1
_chemical_formula_structural   Y2Ho5CoI12
_chemical_formula_sum   'Y2 Ho5 Co1 I12'
_cell_volume   769.64864048
_cell_formula_units_Z   1
loop_
 _symmetry_equiv_pos_site_id
 _symmetry_equiv_pos_as_xyz
  1  'x, y, z'
loop_
 _atom_site_type_symbol
 _atom_site_label
 _atom_site_symmetry_multiplicity
 _atom_site_fract_x
 _atom_site_fract_y
 _atom_site_fract_z
 _atom_site_occupancy
  Y  Y0  1  0.499958  0.499945  0.500008  1
  Y  Y1  1  0.907850  0.978262  0.711504  1
  Ho  Ho2  1  0.286540  0.091378  0.021807  1
  Ho  Ho3  1  0.021623  0.286555  0.091734  1
  Ho  Ho4  1  0.091400  0.021474  0.286425  1
  Ho  Ho5  1  0.713677  0.908653  0.978772  1
  Ho  Ho6  1  0.978603  0.713558  0.908998  1
  Co  Co7  1  0.000166  0.000011  0.000676  1
  I  I8  1  0.462821  0.160131  0.385938  1
  I  I9  1  0.385977  0.462765  0.160090  1
  I  I10  1  0.160119  0.386051  0.462754  1
  I  I11  1  0.536891  0.839978  0.614111  1
  I  I12  1  0.614005  0.537239  0.839835  1
  I  I13  1  0.840064  0.613734  0.537209  1
  I  I14  1  0.323371  0.775823  0.929384  1
  I  I15  1  0.929459  0.323731  0.776051  1
  I  I16  1  0.775676  0.929387  0.323353  1
  I  I17  1  0.676601  0.224145  0.070556  1
  I  I18  1  0.070539  0.676496  0.224090  1
  I  I19  1  0.224659  0.070684  0.676709  1
