# generated using pymatgen
data_Rb6LuAlSb4
_symmetry_space_group_name_H-M   'P 1'
_cell_length_a   10.02341380
_cell_length_b   10.02341456
_cell_length_c   10.02341382
_cell_angle_alpha   127.19293276
_cell_angle_beta   70.20987893
_cell_angle_gamma   137.22909642
_symmetry_Int_Tables_number   1
_chemical_formula_structural   Rb6LuAlSb4
_chemical_formula_sum   'Rb6 Lu1 Al1 Sb4'
_cell_volume   534.36251917
_cell_formula_units_Z   1
loop_
 _symmetry_equiv_pos_site_id
 _symmetry_equiv_pos_as_xyz
  1  'x, y, z'
loop_
 _atom_site_type_symbol
 _atom_site_label
 _atom_site_symmetry_multiplicity
 _atom_site_fract_x
 _atom_site_fract_y
 _atom_site_fract_z
 _atom_site_occupancy
  Rb  Rb0  1  0.811536  0.185162  0.009589  1
  Rb  Rb1  1  0.688464  0.698053  0.373625  1
  Rb  Rb2  1  0.750000  0.250000  0.500000  1
  Rb  Rb3  1  0.250000  0.750000  0.500000  1
  Rb  Rb4  1  0.324428  0.314838  0.626375  1
  Rb  Rb5  1  0.175572  0.801947  0.990411  1
  Lu  Lu6  1  0.250000  0.250000  0.000000  1
  Al  Al7  1  0.750000  0.750000  0.000000  1
  Sb  Sb8  1  0.421270  0.701148  0.090234  1
  Sb  Sb9  1  0.078730  0.168965  0.279877  1
  Sb  Sb10  1  0.889086  0.798852  0.720123  1
  Sb  Sb11  1  0.610914  0.331035  0.909766  1
