# generated using pymatgen
data_Ta9Nb3Al4(AuN)4
_symmetry_space_group_name_H-M   'P 1'
_cell_length_a   7.10121900
_cell_length_b   7.09420665
_cell_length_c   7.09400365
_cell_angle_alpha   90.04932487
_cell_angle_beta   90.06062241
_cell_angle_gamma   90.08599058
_symmetry_Int_Tables_number   1
_chemical_formula_structural   Ta9Nb3Al4(AuN)4
_chemical_formula_sum   'Ta9 Nb3 Al4 Au4 N4'
_cell_volume   357.37754028
_cell_formula_units_Z   1
loop_
 _symmetry_equiv_pos_site_id
 _symmetry_equiv_pos_as_xyz
  1  'x, y, z'
loop_
 _atom_site_type_symbol
 _atom_site_label
 _atom_site_symmetry_multiplicity
 _atom_site_fract_x
 _atom_site_fract_y
 _atom_site_fract_z
 _atom_site_occupancy
  Ta  Ta0  1  0.786349  0.956908  0.376256  1
  Ta  Ta1  1  0.713207  0.043054  0.877134  1
  Ta  Ta2  1  0.213075  0.456642  0.122920  1
  Ta  Ta3  1  0.287203  0.542943  0.622368  1
  Ta  Ta4  1  0.956388  0.375827  0.785586  1
  Ta  Ta5  1  0.044440  0.874690  0.714347  1
  Ta  Ta6  1  0.455137  0.125456  0.214834  1
  Ta  Ta7  1  0.544741  0.624564  0.285433  1
  Ta  Ta8  1  0.376080  0.786187  0.955683  1
  Nb  Nb9  1  0.876347  0.714605  0.044545  1
  Nb  Nb10  1  0.123631  0.214019  0.455485  1
  Nb  Nb11  1  0.623973  0.285700  0.544756  1
  Al  Al12  1  0.571928  0.428476  0.927865  1
  Al  Al13  1  0.427966  0.928183  0.572074  1
  Al  Al14  1  0.927931  0.571734  0.428112  1
  Al  Al15  1  0.071632  0.071567  0.072230  1
  Au  Au16  1  0.180471  0.819652  0.321144  1
  Au  Au17  1  0.319965  0.179443  0.822197  1
  Au  Au18  1  0.819654  0.319567  0.178082  1
  Au  Au19  1  0.679639  0.680577  0.678999  1
  N  N20  1  0.877519  0.119739  0.625960  1
  N  N21  1  0.619850  0.878937  0.124306  1
  N  N22  1  0.125426  0.621231  0.875600  1
  N  N23  1  0.377447  0.380298  0.374083  1
