# generated using pymatgen
data_Rb3RhO5
_symmetry_space_group_name_H-M   'P 1'
_cell_length_a   8.48701000
_cell_length_b   8.76177500
_cell_length_c   9.60280000
_cell_angle_alpha   90.00000000
_cell_angle_beta   90.00000000
_cell_angle_gamma   90.00000000
_symmetry_Int_Tables_number   1
_chemical_formula_structural   Rb3RhO5
_chemical_formula_sum   'Rb12 Rh4 O20'
_cell_volume   714.07642317
_cell_formula_units_Z   4
loop_
 _symmetry_equiv_pos_site_id
 _symmetry_equiv_pos_as_xyz
  1  'x, y, z'
loop_
 _atom_site_type_symbol
 _atom_site_label
 _atom_site_symmetry_multiplicity
 _atom_site_fract_x
 _atom_site_fract_y
 _atom_site_fract_z
 _atom_site_occupancy
  Rb  Rb0  1  0.250000  0.000000  0.474972  1
  Rb  Rb1  1  0.750000  0.000000  0.525028  1
  Rb  Rb2  1  0.250000  0.500000  0.025028  1
  Rb  Rb3  1  0.750000  0.500000  0.974972  1
  Rb  Rb4  1  0.250000  0.000000  0.020926  1
  Rb  Rb5  1  0.750000  0.000000  0.979074  1
  Rb  Rb6  1  0.250000  0.500000  0.479074  1
  Rb  Rb7  1  0.750000  0.500000  0.520926  1
  Rb  Rb8  1  0.563892  0.250000  0.250000  1
  Rb  Rb9  1  0.436108  0.750000  0.750000  1
  Rb  Rb10  1  0.936108  0.750000  0.250000  1
  Rb  Rb11  1  0.063892  0.250000  0.750000  1
  Rh  Rh12  1  0.015551  0.250000  0.250000  1
  Rh  Rh13  1  0.984449  0.750000  0.750000  1
  Rh  Rh14  1  0.484449  0.750000  0.250000  1
  Rh  Rh15  1  0.515551  0.250000  0.750000  1
  O  O16  1  0.233014  0.250000  0.250000  1
  O  O17  1  0.766986  0.750000  0.750000  1
  O  O18  1  0.266986  0.750000  0.250000  1
  O  O19  1  0.733014  0.250000  0.750000  1
  O  O20  1  0.592708  0.569332  0.246096  1
  O  O21  1  0.407292  0.430668  0.753904  1
  O  O22  1  0.907292  0.430668  0.246096  1
  O  O23  1  0.907292  0.069332  0.253904  1
  O  O24  1  0.092708  0.569332  0.753904  1
  O  O25  1  0.092708  0.930668  0.746096  1
  O  O26  1  0.592708  0.930668  0.253904  1
  O  O27  1  0.407292  0.069332  0.746096  1
  O  O28  1  0.516978  0.254631  0.549715  1
  O  O29  1  0.483022  0.745369  0.450285  1
  O  O30  1  0.983022  0.745369  0.549715  1
  O  O31  1  0.983022  0.754631  0.950285  1
  O  O32  1  0.016978  0.254631  0.450285  1
  O  O33  1  0.016978  0.245369  0.049715  1
  O  O34  1  0.516978  0.245369  0.950285  1
  O  O35  1  0.483022  0.754631  0.049715  1
