# generated using pymatgen
data_PrAl3Au
_symmetry_space_group_name_H-M   'P 1'
_cell_length_a   4.34696905
_cell_length_b   4.34696940
_cell_length_c   6.27045490
_cell_angle_alpha   110.28091995
_cell_angle_beta   110.28092119
_cell_angle_gamma   89.99999056
_symmetry_Int_Tables_number   1
_chemical_formula_structural   PrAl3Au
_chemical_formula_sum   'Pr1 Al3 Au1'
_cell_volume   103.27484584
_cell_formula_units_Z   1
loop_
 _symmetry_equiv_pos_site_id
 _symmetry_equiv_pos_as_xyz
  1  'x, y, z'
loop_
 _atom_site_type_symbol
 _atom_site_label
 _atom_site_symmetry_multiplicity
 _atom_site_fract_x
 _atom_site_fract_y
 _atom_site_fract_z
 _atom_site_occupancy
  Pr  Pr0  1  0.986408  0.986408  0.972816  1
  Al  Al1  1  0.747565  0.247566  0.495132  1
  Al  Al2  1  0.247566  0.747565  0.495132  1
  Al  Al3  1  0.395030  0.395030  0.790060  1
  Au  Au4  1  0.623430  0.623430  0.246861  1
