# generated using pymatgen
data_La5Pr3(SiI6)2
_symmetry_space_group_name_H-M   'P 1'
_cell_length_a   4.42926300
_cell_length_b   14.63844667
_cell_length_c   15.46433550
_cell_angle_alpha   89.83246440
_cell_angle_beta   90.00000000
_cell_angle_gamma   90.00000000
_symmetry_Int_Tables_number   1
_chemical_formula_structural   La5Pr3(SiI6)2
_chemical_formula_sum   'La5 Pr3 Si2 I12'
_cell_volume   1002.66503384
_cell_formula_units_Z   1
loop_
 _symmetry_equiv_pos_site_id
 _symmetry_equiv_pos_as_xyz
  1  'x, y, z'
loop_
 _atom_site_type_symbol
 _atom_site_label
 _atom_site_symmetry_multiplicity
 _atom_site_fract_x
 _atom_site_fract_y
 _atom_site_fract_z
 _atom_site_occupancy
  La  La0  1  0.500000  0.115909  0.343699  1
  La  La1  1  0.500000  0.882762  0.655492  1
  La  La2  1  0.500000  0.616339  0.155745  1
  La  La3  1  0.500000  0.384228  0.844828  1
  La  La4  1  0.000000  0.113980  0.576224  1
  Pr  Pr5  1  0.000000  0.887059  0.424401  1
  Pr  Pr6  1  0.000000  0.612270  0.924721  1
  Pr  Pr7  1  0.000000  0.387570  0.075316  1
  Si  Si8  1  0.500000  0.999791  0.499882  1
  Si  Si9  1  0.500000  0.500125  0.000221  1
  I  I10  1  0.500000  0.245150  0.161454  1
  I  I11  1  0.500000  0.754764  0.838508  1
  I  I12  1  0.500000  0.744797  0.338290  1
  I  I13  1  0.500000  0.256839  0.662235  1
  I  I14  1  0.000000  0.259618  0.414179  1
  I  I15  1  0.000000  0.740559  0.584112  1
  I  I16  1  0.000000  0.758901  0.083984  1
  I  I17  1  0.000000  0.241100  0.915907  1
  I  I18  1  0.000000  0.996928  0.240437  1
  I  I19  1  0.000000  0.001303  0.760362  1
  I  I20  1  0.000000  0.496932  0.259228  1
  I  I21  1  0.000000  0.503076  0.740772  1
