# generated using pymatgen
data_Y2Ho4MnB14Os
_symmetry_space_group_name_H-M   'P 1'
_cell_length_a   8.02382816
_cell_length_b   8.02382854
_cell_length_c   9.29982800
_cell_angle_alpha   90.00000000
_cell_angle_beta   90.00000000
_cell_angle_gamma   154.95131685
_symmetry_Int_Tables_number   1
_chemical_formula_structural   Y2Ho4MnB14Os
_chemical_formula_sum   'Y2 Ho4 Mn1 B14 Os1'
_cell_volume   253.49938292
_cell_formula_units_Z   1
loop_
 _symmetry_equiv_pos_site_id
 _symmetry_equiv_pos_as_xyz
  1  'x, y, z'
loop_
 _atom_site_type_symbol
 _atom_site_label
 _atom_site_symmetry_multiplicity
 _atom_site_fract_x
 _atom_site_fract_y
 _atom_site_fract_z
 _atom_site_occupancy
  Y  Y0  1  0.244709  0.755291  0.250000  1
  Y  Y1  1  0.758719  0.241281  0.750000  1
  Ho  Ho2  1  0.894826  0.105174  0.442967  1
  Ho  Ho3  1  0.104605  0.895395  0.563227  1
  Ho  Ho4  1  0.894826  0.105174  0.057033  1
  Ho  Ho5  1  0.104605  0.895395  0.936773  1
  Mn  Mn6  1  0.947240  0.052760  0.750000  1
  B  B7  1  0.727110  0.272890  0.466615  1
  B  B8  1  0.272336  0.727664  0.533821  1
  B  B9  1  0.727110  0.272890  0.033385  1
  B  B10  1  0.272336  0.727664  0.966179  1
  B  B11  1  0.631699  0.368301  0.150001  1
  B  B12  1  0.370178  0.629822  0.846552  1
  B  B13  1  0.631699  0.368301  0.349999  1
  B  B14  1  0.370178  0.629822  0.653448  1
  B  B15  1  0.520197  0.479803  0.095451  1
  B  B16  1  0.478524  0.521476  0.901666  1
  B  B17  1  0.520197  0.479803  0.404549  1
  B  B18  1  0.478524  0.521476  0.598334  1
  B  B19  1  0.455922  0.544078  0.250000  1
  B  B20  1  0.540875  0.459125  0.750000  1
  Os  Os21  1  0.053583  0.946417  0.250000  1
