# generated using pymatgen
data_Ac7PbSe16
_symmetry_space_group_name_H-M   'P 1'
_cell_length_a   8.68338274
_cell_length_b   8.77918704
_cell_length_c   9.07105702
_cell_angle_alpha   90.38456797
_cell_angle_beta   90.03783890
_cell_angle_gamma   89.73068879
_symmetry_Int_Tables_number   1
_chemical_formula_structural   Ac7PbSe16
_chemical_formula_sum   'Ac7 Pb1 Se16'
_cell_volume   691.49091125
_cell_formula_units_Z   1
loop_
 _symmetry_equiv_pos_site_id
 _symmetry_equiv_pos_as_xyz
  1  'x, y, z'
loop_
 _atom_site_type_symbol
 _atom_site_label
 _atom_site_symmetry_multiplicity
 _atom_site_fract_x
 _atom_site_fract_y
 _atom_site_fract_z
 _atom_site_occupancy
  Ac  Ac0  1  0.252950  0.490758  0.719519  1
  Ac  Ac1  1  0.252832  0.989723  0.718176  1
  Ac  Ac2  1  0.751399  0.509997  0.720848  1
  Ac  Ac3  1  0.752343  0.009410  0.721596  1
  Ac  Ac4  1  0.498185  0.238007  0.279778  1
  Ac  Ac5  1  0.997203  0.761881  0.281796  1
  Ac  Ac6  1  0.497719  0.739199  0.278557  1
  Pb  Pb7  1  0.996459  0.267245  0.306170  1
  Se  Se8  1  0.500342  0.246823  0.632537  1
  Se  Se9  1  0.999647  0.752596  0.633536  1
  Se  Se10  1  0.500021  0.745331  0.634335  1
  Se  Se11  1  0.000189  0.252997  0.631857  1
  Se  Se12  1  0.749583  0.502926  0.367266  1
  Se  Se13  1  0.744620  0.997358  0.369203  1
  Se  Se14  1  0.250961  0.499045  0.367721  1
  Se  Se15  1  0.254438  0.992669  0.366431  1
  Se  Se16  1  0.234451  0.717757  0.995729  1
  Se  Se17  1  0.240826  0.213952  0.992433  1
  Se  Se18  1  0.743678  0.284500  0.994104  1
  Se  Se19  1  0.741072  0.784010  0.996678  1
  Se  Se20  1  0.009860  0.540663  0.997877  1
  Se  Se21  1  0.508160  0.962335  0.999450  1
  Se  Se22  1  0.509442  0.456223  0.997476  1
  Se  Se23  1  0.013617  0.044596  0.996925  1
