# generated using pymatgen
data_Yb10Er5Tm5Sn16
_symmetry_space_group_name_H-M   'P 1'
_cell_length_a   7.80321401
_cell_length_b   8.39920602
_cell_length_c   15.81566103
_cell_angle_alpha   90.00596263
_cell_angle_beta   89.99528450
_cell_angle_gamma   90.00511343
_symmetry_Int_Tables_number   1
_chemical_formula_structural   Yb10Er5Tm5Sn16
_chemical_formula_sum   'Yb10 Er5 Tm5 Sn16'
_cell_volume   1036.57109707
_cell_formula_units_Z   1
loop_
 _symmetry_equiv_pos_site_id
 _symmetry_equiv_pos_as_xyz
  1  'x, y, z'
loop_
 _atom_site_type_symbol
 _atom_site_label
 _atom_site_symmetry_multiplicity
 _atom_site_fract_x
 _atom_site_fract_y
 _atom_site_fract_z
 _atom_site_occupancy
  Yb  Yb0  1  0.502134  0.684336  0.593592  1
  Yb  Yb1  1  0.002134  0.815677  0.906411  1
  Yb  Yb2  1  0.495972  0.312090  0.091107  1
  Yb  Yb3  1  0.995982  0.187881  0.408888  1
  Yb  Yb4  1  0.496027  0.312102  0.408909  1
  Yb  Yb5  1  0.996061  0.187872  0.091098  1
  Yb  Yb6  1  0.502078  0.684332  0.906422  1
  Yb  Yb7  1  0.002098  0.815674  0.593595  1
  Yb  Yb8  1  0.164225  0.489156  0.249978  1
  Yb  Yb9  1  0.664166  0.010856  0.249984  1
  Er  Er10  1  0.826356  0.664882  0.378499  1
  Er  Er11  1  0.326339  0.835090  0.378505  1
  Er  Er12  1  0.826365  0.664927  0.121499  1
  Er  Er13  1  0.675545  0.162066  0.876097  1
  Er  Er14  1  0.175546  0.337950  0.623920  1
  Tm  Tm15  1  0.675487  0.161988  0.623889  1
  Tm  Tm16  1  0.175487  0.338019  0.876111  1
  Tm  Tm17  1  0.326336  0.835125  0.121495  1
  Tm  Tm18  1  0.838057  0.508849  0.750001  1
  Tm  Tm19  1  0.338036  0.991148  0.749993  1
  Sn  Sn20  1  0.672411  0.962451  0.460261  1
  Sn  Sn21  1  0.172540  0.537684  0.039780  1
  Sn  Sn22  1  0.327879  0.035659  0.955967  1
  Sn  Sn23  1  0.827901  0.464240  0.544128  1
  Sn  Sn24  1  0.328200  0.035685  0.544120  1
  Sn  Sn25  1  0.828193  0.464336  0.955887  1
  Sn  Sn26  1  0.672212  0.962299  0.039879  1
  Sn  Sn27  1  0.172389  0.537663  0.460164  1
  Sn  Sn28  1  0.476471  0.370329  0.750004  1
  Sn  Sn29  1  0.976470  0.129656  0.750003  1
  Sn  Sn30  1  0.527721  0.627904  0.249956  1
  Sn  Sn31  1  0.027925  0.872173  0.249927  1
  Sn  Sn32  1  0.711272  0.861295  0.749957  1
  Sn  Sn33  1  0.211282  0.638701  0.750044  1
  Sn  Sn34  1  0.281380  0.127551  0.249943  1
  Sn  Sn35  1  0.781324  0.372354  0.249985  1
