# generated using pymatgen
data_Rb3SrTbUTe6
_symmetry_space_group_name_H-M   'P 1'
_cell_length_a   8.05557332
_cell_length_b   8.05557311
_cell_length_c   8.97698374
_cell_angle_alpha   81.39751302
_cell_angle_beta   81.39751102
_cell_angle_gamma   119.98377911
_symmetry_Int_Tables_number   1
_chemical_formula_structural   Rb3SrTbUTe6
_chemical_formula_sum   'Rb3 Sr1 Tb1 U1 Te6'
_cell_volume   481.47821925
_cell_formula_units_Z   1
loop_
 _symmetry_equiv_pos_site_id
 _symmetry_equiv_pos_as_xyz
  1  'x, y, z'
loop_
 _atom_site_type_symbol
 _atom_site_label
 _atom_site_symmetry_multiplicity
 _atom_site_fract_x
 _atom_site_fract_y
 _atom_site_fract_z
 _atom_site_occupancy
  Rb  Rb0  1  0.658361  0.341639  0.500000  1
  Rb  Rb1  1  0.341659  0.658341  0.500000  1
  Rb  Rb2  1  0.999946  0.000054  0.500000  1
  Sr  Sr3  1  0.500046  0.499954  0.000000  1
  Tb  Tb4  1  0.832121  0.167879  0.000000  1
  U  U5  1  0.167791  0.832209  0.000000  1
  Te  Te6  1  0.790113  0.786174  0.200542  1
  Te  Te7  1  0.213826  0.209887  0.799458  1
  Te  Te8  1  0.427258  0.073789  0.204077  1
  Te  Te9  1  0.564676  0.922009  0.795809  1
  Te  Te10  1  0.926211  0.572742  0.795923  1
  Te  Te11  1  0.077991  0.435324  0.204191  1
