# generated using pymatgen
data_Sc12Ir(RuBr8)2
_symmetry_space_group_name_H-M   'P 1'
_cell_length_a   9.04005839
_cell_length_b   11.11635035
_cell_length_c   11.84250446
_cell_angle_alpha   116.88024007
_cell_angle_beta   101.74088613
_cell_angle_gamma   101.42078186
_symmetry_Int_Tables_number   1
_chemical_formula_structural   Sc12Ir(RuBr8)2
_chemical_formula_sum   'Sc12 Ir1 Ru2 Br16'
_cell_volume   980.30604490
_cell_formula_units_Z   1
loop_
 _symmetry_equiv_pos_site_id
 _symmetry_equiv_pos_as_xyz
  1  'x, y, z'
loop_
 _atom_site_type_symbol
 _atom_site_label
 _atom_site_symmetry_multiplicity
 _atom_site_fract_x
 _atom_site_fract_y
 _atom_site_fract_z
 _atom_site_occupancy
  Sc  Sc0  1  0.081855  0.259492  0.352138  1
  Sc  Sc1  1  0.918100  0.740473  0.647880  1
  Sc  Sc2  1  0.779856  0.536850  0.321766  1
  Sc  Sc3  1  0.220105  0.463105  0.678187  1
  Sc  Sc4  1  0.278984  0.740927  0.648137  1
  Sc  Sc5  1  0.720983  0.259107  0.351844  1
  Sc  Sc6  1  0.139693  0.536548  0.322314  1
  Sc  Sc7  1  0.860312  0.463491  0.677737  1
  Sc  Sc8  1  0.401367  0.352236  0.263419  1
  Sc  Sc9  1  0.598763  0.647763  0.736587  1
  Sc  Sc10  1  0.457741  0.303789  0.521560  1
  Sc  Sc11  1  0.542365  0.696210  0.478443  1
  Ir  Ir12  1  0.000081  0.500000  0.499998  1
  Ru  Ru13  1  0.337652  0.500110  0.499466  1
  Ru  Ru14  1  0.662215  0.499901  0.500536  1
  Br  Br15  1  0.397364  0.741770  0.884188  1
  Br  Br16  1  0.602608  0.258179  0.115735  1
  Br  Br17  1  0.189717  0.967719  0.784050  1
  Br  Br18  1  0.810246  0.032280  0.215950  1
  Br  Br19  1  0.337934  0.093428  0.250670  1
  Br  Br20  1  0.662052  0.906571  0.749331  1
  Br  Br21  1  0.555010  0.437291  0.799446  1
  Br  Br22  1  0.444939  0.562713  0.200550  1
  Br  Br23  1  0.310764  0.826941  0.463038  1
  Br  Br24  1  0.689238  0.173041  0.536962  1
  Br  Br25  1  0.168710  0.171179  0.532665  1
  Br  Br26  1  0.831310  0.828836  0.467334  1
  Br  Br27  1  0.926495  0.576946  0.160115  1
  Br  Br28  1  0.073494  0.423054  0.839886  1
  Br  Br29  1  0.923081  0.740246  0.884281  1
  Br  Br30  1  0.076966  0.259802  0.115788  1
