# generated using pymatgen
data_LiDy19(Cd3Ru)2
_symmetry_space_group_name_H-M   'P 1'
_cell_length_a   9.54827200
_cell_length_b   9.54827190
_cell_length_c   9.75866700
_cell_angle_alpha   90.00000000
_cell_angle_beta   90.00000000
_cell_angle_gamma   120.00000034
_symmetry_Int_Tables_number   1
_chemical_formula_structural   LiDy19(Cd3Ru)2
_chemical_formula_sum   'Li1 Dy19 Cd6 Ru2'
_cell_volume   770.49653264
_cell_formula_units_Z   1
loop_
 _symmetry_equiv_pos_site_id
 _symmetry_equiv_pos_as_xyz
  1  'x, y, z'
loop_
 _atom_site_type_symbol
 _atom_site_label
 _atom_site_symmetry_multiplicity
 _atom_site_fract_x
 _atom_site_fract_y
 _atom_site_fract_z
 _atom_site_occupancy
  Li  Li0  1  0.000000  0.000000  0.500000  1
  Dy  Dy1  1  0.000000  0.000000  0.000000  1
  Dy  Dy2  1  0.208264  0.791736  0.440301  1
  Dy  Dy3  1  0.208264  0.416529  0.440301  1
  Dy  Dy4  1  0.583471  0.791736  0.440301  1
  Dy  Dy5  1  0.791736  0.208264  0.559699  1
  Dy  Dy6  1  0.791736  0.583471  0.559699  1
  Dy  Dy7  1  0.416529  0.208264  0.559699  1
  Dy  Dy8  1  0.789328  0.210672  0.941202  1
  Dy  Dy9  1  0.789328  0.578655  0.941202  1
  Dy  Dy10  1  0.421345  0.210672  0.941202  1
  Dy  Dy11  1  0.210672  0.789328  0.058798  1
  Dy  Dy12  1  0.210672  0.421345  0.058798  1
  Dy  Dy13  1  0.578655  0.789328  0.058798  1
  Dy  Dy14  1  0.541676  0.458324  0.252008  1
  Dy  Dy15  1  0.541676  0.083350  0.252008  1
  Dy  Dy16  1  0.916650  0.458324  0.252008  1
  Dy  Dy17  1  0.458324  0.541676  0.747992  1
  Dy  Dy18  1  0.458324  0.916650  0.747992  1
  Dy  Dy19  1  0.083350  0.541676  0.747992  1
  Cd  Cd20  1  0.888282  0.111718  0.258107  1
  Cd  Cd21  1  0.888282  0.776565  0.258107  1
  Cd  Cd22  1  0.223435  0.111718  0.258107  1
  Cd  Cd23  1  0.111718  0.888282  0.741893  1
  Cd  Cd24  1  0.111718  0.223435  0.741893  1
  Cd  Cd25  1  0.776565  0.888282  0.741893  1
  Ru  Ru26  1  0.333333  0.666667  0.250445  1
  Ru  Ru27  1  0.666667  0.333333  0.749555  1
