# generated using pymatgen
data_LiTm9(IrPb3)2
_symmetry_space_group_name_H-M   'P 1'
_cell_length_a   9.23479300
_cell_length_b   9.23479246
_cell_length_c   6.38390700
_cell_angle_alpha   90.00000000
_cell_angle_beta   90.00000000
_cell_angle_gamma   119.99999836
_symmetry_Int_Tables_number   1
_chemical_formula_structural   LiTm9(IrPb3)2
_chemical_formula_sum   'Li1 Tm9 Ir2 Pb6'
_cell_volume   471.48892427
_cell_formula_units_Z   1
loop_
 _symmetry_equiv_pos_site_id
 _symmetry_equiv_pos_as_xyz
  1  'x, y, z'
loop_
 _atom_site_type_symbol
 _atom_site_label
 _atom_site_symmetry_multiplicity
 _atom_site_fract_x
 _atom_site_fract_y
 _atom_site_fract_z
 _atom_site_occupancy
  Li  Li0  1  0.333333  0.666667  0.500000  1
  Tm  Tm1  1  0.756755  0.758037  0.250803  1
  Tm  Tm2  1  0.001282  0.758037  0.749197  1
  Tm  Tm3  1  0.241963  0.998718  0.250803  1
  Tm  Tm4  1  0.241963  0.243245  0.749197  1
  Tm  Tm5  1  0.001282  0.243245  0.250803  1
  Tm  Tm6  1  0.666667  0.333333  0.500000  1
  Tm  Tm7  1  0.756755  0.998718  0.749197  1
  Tm  Tm8  1  0.333333  0.666667  0.000000  1
  Tm  Tm9  1  0.666667  0.333333  0.000000  1
  Ir  Ir10  1  0.000000  0.000000  0.000000  1
  Ir  Ir11  1  0.000000  0.000000  0.500000  1
  Pb  Pb12  1  0.401204  0.996425  0.748270  1
  Pb  Pb13  1  0.595221  0.996425  0.251730  1
  Pb  Pb14  1  0.401204  0.404779  0.251730  1
  Pb  Pb15  1  0.003575  0.598796  0.251730  1
  Pb  Pb16  1  0.003575  0.404779  0.748270  1
  Pb  Pb17  1  0.595221  0.598796  0.748270  1
