# generated using pymatgen
data_Ta2TiMnOs4
_symmetry_space_group_name_H-M   'P 1'
_cell_length_a   4.43877400
_cell_length_b   4.44240335
_cell_length_c   7.66439428
_cell_angle_alpha   73.12392454
_cell_angle_beta   89.99985896
_cell_angle_gamma   119.97312476
_symmetry_Int_Tables_number   1
_chemical_formula_structural   Ta2TiMnOs4
_chemical_formula_sum   'Ta2 Ti1 Mn1 Os4'
_cell_volume   123.34975225
_cell_formula_units_Z   1
loop_
 _symmetry_equiv_pos_site_id
 _symmetry_equiv_pos_as_xyz
  1  'x, y, z'
loop_
 _atom_site_type_symbol
 _atom_site_label
 _atom_site_symmetry_multiplicity
 _atom_site_fract_x
 _atom_site_fract_y
 _atom_site_fract_z
 _atom_site_occupancy
  Ta  Ta0  1  0.622022  0.244043  0.133640  1
  Ta  Ta1  1  0.127983  0.255962  0.616359  1
  Ti  Ti2  1  0.375001  0.750002  0.874999  1
  Mn  Mn3  1  0.874983  0.749985  0.375007  1
  Os  Os4  1  0.001679  0.003351  0.995027  1
  Os  Os5  1  0.748328  0.496653  0.754974  1
  Os  Os6  1  0.497435  0.994863  0.507487  1
  Os  Os7  1  0.252574  0.505142  0.242507  1
