# generated using pymatgen
data_Ho5Tm3B24(MoRh)2
_symmetry_space_group_name_H-M   'P 1'
_cell_length_a   3.65003100
_cell_length_b   9.14931866
_cell_length_c   11.55683304
_cell_angle_alpha   90.39690622
_cell_angle_beta   90.00000000
_cell_angle_gamma   90.00000000
_symmetry_Int_Tables_number   1
_chemical_formula_structural   Ho5Tm3B24(MoRh)2
_chemical_formula_sum   'Ho5 Tm3 B24 Mo2 Rh2'
_cell_volume   385.93460824
_cell_formula_units_Z   1
loop_
 _symmetry_equiv_pos_site_id
 _symmetry_equiv_pos_as_xyz
  1  'x, y, z'
loop_
 _atom_site_type_symbol
 _atom_site_label
 _atom_site_symmetry_multiplicity
 _atom_site_fract_x
 _atom_site_fract_y
 _atom_site_fract_z
 _atom_site_occupancy
  Ho  Ho0  1  0.500000  0.318823  0.412221  1
  Ho  Ho1  1  0.500000  0.681181  0.587922  1
  Ho  Ho2  1  0.500000  0.174909  0.916664  1
  Ho  Ho3  1  0.500000  0.824998  0.083070  1
  Ho  Ho4  1  0.500000  0.443461  0.126847  1
  Tm  Tm5  1  0.500000  0.556676  0.872665  1
  Tm  Tm6  1  0.500000  0.054967  0.628169  1
  Tm  Tm7  1  0.500000  0.945081  0.372104  1
  B  B8  1  0.000000  0.105178  0.472413  1
  B  B9  1  0.000000  0.894835  0.527819  1
  B  B10  1  0.000000  0.395543  0.969836  1
  B  B11  1  0.000000  0.605078  0.028992  1
  B  B12  1  0.000000  0.131866  0.318014  1
  B  B13  1  0.000000  0.867988  0.682172  1
  B  B14  1  0.000000  0.368774  0.815679  1
  B  B15  1  0.000000  0.632000  0.184338  1
  B  B16  1  0.000000  0.051595  0.066200  1
  B  B17  1  0.000000  0.947923  0.933689  1
  B  B18  1  0.000000  0.445811  0.565722  1
  B  B19  1  0.000000  0.554393  0.434466  1
  B  B20  1  0.000000  0.483688  0.288568  1
  B  B21  1  0.000000  0.516599  0.711807  1
  B  B22  1  0.000000  0.020485  0.785939  1
  B  B23  1  0.000000  0.979395  0.214177  1
  B  B24  1  0.000000  0.249904  0.079657  1
  B  B25  1  0.000000  0.749313  0.920072  1
  B  B26  1  0.000000  0.249914  0.579420  1
  B  B27  1  0.000000  0.750249  0.420743  1
  B  B28  1  0.000000  0.295263  0.236987  1
  B  B29  1  0.000000  0.704163  0.763239  1
  B  B30  1  0.000000  0.208797  0.734068  1
  B  B31  1  0.000000  0.791497  0.266042  1
  Mo  Mo32  1  0.500000  0.138962  0.181708  1
  Mo  Mo33  1  0.500000  0.860547  0.818250  1
  Rh  Rh34  1  0.500000  0.361435  0.678155  1
  Rh  Rh35  1  0.500000  0.638705  0.322165  1
