# generated using pymatgen
data_Tb2SmPtO7
_symmetry_space_group_name_H-M   'P 1'
_cell_length_a   6.52113703
_cell_length_b   6.52113733
_cell_length_c   7.51677600
_cell_angle_alpha   90.00000000
_cell_angle_beta   90.00000000
_cell_angle_gamma   109.32691330
_symmetry_Int_Tables_number   1
_chemical_formula_structural   Tb2SmPtO7
_chemical_formula_sum   'Tb4 Sm2 Pt2 O14'
_cell_volume   301.63879593
_cell_formula_units_Z   2
loop_
 _symmetry_equiv_pos_site_id
 _symmetry_equiv_pos_as_xyz
  1  'x, y, z'
loop_
 _atom_site_type_symbol
 _atom_site_label
 _atom_site_symmetry_multiplicity
 _atom_site_fract_x
 _atom_site_fract_y
 _atom_site_fract_z
 _atom_site_occupancy
  Tb  Tb0  1  0.532827  0.998653  0.750000  1
  Tb  Tb1  1  0.998653  0.532827  0.250000  1
  Tb  Tb2  1  0.467173  0.001347  0.250000  1
  Tb  Tb3  1  0.001347  0.467173  0.750000  1
  Sm  Sm4  1  0.500000  0.500000  0.500000  1
  Sm  Sm5  1  0.500000  0.500000  0.000000  1
  Pt  Pt6  1  0.000000  0.000000  0.500000  1
  Pt  Pt7  1  0.000000  0.000000  0.000000  1
  O  O8  1  0.676296  0.925139  0.473405  1
  O  O9  1  0.925139  0.676296  0.526595  1
  O  O10  1  0.676296  0.925139  0.026595  1
  O  O11  1  0.925139  0.676296  0.973405  1
  O  O12  1  0.323704  0.074861  0.526595  1
  O  O13  1  0.074861  0.323704  0.473405  1
  O  O14  1  0.323704  0.074861  0.973405  1
  O  O15  1  0.074861  0.323704  0.026595  1
  O  O16  1  0.926393  0.073607  0.750000  1
  O  O17  1  0.073607  0.926393  0.250000  1
  O  O18  1  0.365826  0.634174  0.750000  1
  O  O19  1  0.634174  0.365826  0.250000  1
  O  O20  1  0.638628  0.361372  0.750000  1
  O  O21  1  0.361372  0.638628  0.250000  1
