# generated using pymatgen
data_Tm16ZnIn6Au
_symmetry_space_group_name_H-M   'P 1'
_cell_length_a   10.50887900
_cell_length_b   10.50887859
_cell_length_c   6.76128400
_cell_angle_alpha   90.00000000
_cell_angle_beta   90.00000000
_cell_angle_gamma   119.99999813
_symmetry_Int_Tables_number   1
_chemical_formula_structural   Tm16ZnIn6Au
_chemical_formula_sum   'Tm16 Zn1 In6 Au1'
_cell_volume   646.65491767
_cell_formula_units_Z   1
loop_
 _symmetry_equiv_pos_site_id
 _symmetry_equiv_pos_as_xyz
  1  'x, y, z'
loop_
 _atom_site_type_symbol
 _atom_site_label
 _atom_site_symmetry_multiplicity
 _atom_site_fract_x
 _atom_site_fract_y
 _atom_site_fract_z
 _atom_site_occupancy
  Tm  Tm0  1  0.522000  0.044001  0.518107  1
  Tm  Tm1  1  0.955999  0.478000  0.518107  1
  Tm  Tm2  1  0.522000  0.478000  0.518107  1
  Tm  Tm3  1  0.478623  0.957244  0.019273  1
  Tm  Tm4  1  0.042756  0.521377  0.019273  1
  Tm  Tm5  1  0.478623  0.521377  0.019273  1
  Tm  Tm6  1  0.173571  0.347141  0.733607  1
  Tm  Tm7  1  0.652859  0.826429  0.733607  1
  Tm  Tm8  1  0.173571  0.826429  0.733607  1
  Tm  Tm9  1  0.827434  0.654867  0.233962  1
  Tm  Tm10  1  0.345133  0.172566  0.233962  1
  Tm  Tm11  1  0.827434  0.172566  0.233962  1
  Tm  Tm12  1  0.666667  0.333333  0.868802  1
  Tm  Tm13  1  0.333333  0.666667  0.373559  1
  Tm  Tm14  1  0.000000  0.000000  0.497464  1
  Tm  Tm15  1  0.000000  0.000000  0.999096  1
  Zn  Zn16  1  0.666667  0.333333  0.297690  1
  In  In17  1  0.835296  0.670591  0.752930  1
  In  In18  1  0.329409  0.164704  0.752930  1
  In  In19  1  0.835296  0.164704  0.752930  1
  In  In20  1  0.164076  0.328152  0.253213  1
  In  In21  1  0.671848  0.835924  0.253213  1
  In  In22  1  0.164076  0.835924  0.253213  1
  Au  Au23  1  0.333333  0.666667  0.788121  1
