# generated using pymatgen
data_Dy9YPd18
_symmetry_space_group_name_H-M   'P 1'
_cell_length_a   9.79461300
_cell_length_b   9.78713144
_cell_length_c   5.77930400
_cell_angle_alpha   90.00000000
_cell_angle_beta   90.00000000
_cell_angle_gamma   90.01719377
_symmetry_Int_Tables_number   1
_chemical_formula_structural   Dy9YPd18
_chemical_formula_sum   'Dy9 Y1 Pd18'
_cell_volume   554.01078847
_cell_formula_units_Z   1
loop_
 _symmetry_equiv_pos_site_id
 _symmetry_equiv_pos_as_xyz
  1  'x, y, z'
loop_
 _atom_site_type_symbol
 _atom_site_label
 _atom_site_symmetry_multiplicity
 _atom_site_fract_x
 _atom_site_fract_y
 _atom_site_fract_z
 _atom_site_occupancy
  Dy  Dy0  1  0.546551  0.191939  0.000000  1
  Dy  Dy1  1  0.191893  0.546538  0.000000  1
  Dy  Dy2  1  0.807962  0.453444  0.000000  1
  Dy  Dy3  1  0.500052  0.499984  0.500000  1
  Dy  Dy4  1  0.308037  0.046579  0.500000  1
  Dy  Dy5  1  0.691970  0.953355  0.500000  1
  Dy  Dy6  1  0.953461  0.691873  0.500000  1
  Dy  Dy7  1  0.046561  0.308048  0.500000  1
  Dy  Dy8  1  0.000166  0.000005  0.000000  1
  Y  Y9  1  0.453358  0.808463  0.000000  1
  Pd  Pd10  1  0.191256  0.808357  0.250816  1
  Pd  Pd11  1  0.808311  0.191747  0.749442  1
  Pd  Pd12  1  0.808311  0.191747  0.250558  1
  Pd  Pd13  1  0.191256  0.808357  0.749184  1
  Pd  Pd14  1  0.440176  0.780955  0.500000  1
  Pd  Pd15  1  0.559689  0.218848  0.500000  1
  Pd  Pd16  1  0.218905  0.559684  0.500000  1
  Pd  Pd17  1  0.781183  0.440302  0.500000  1
  Pd  Pd18  1  0.308257  0.308340  0.249484  1
  Pd  Pd19  1  0.692025  0.691530  0.750368  1
  Pd  Pd20  1  0.692025  0.691530  0.249632  1
  Pd  Pd21  1  0.308257  0.308340  0.750516  1
  Pd  Pd22  1  0.280743  0.060131  0.000000  1
  Pd  Pd23  1  0.719531  0.940524  0.000000  1
  Pd  Pd24  1  0.940343  0.718797  0.000000  1
  Pd  Pd25  1  0.059626  0.281177  0.000000  1
  Pd  Pd26  1  0.999878  0.000006  0.500000  1
  Pd  Pd27  1  0.500214  0.499402  0.000000  1
