# generated using pymatgen
data_Dy2P7(Ru5Rh)2
_symmetry_space_group_name_H-M   'P 1'
_cell_length_a   9.40665989
_cell_length_b   9.47217704
_cell_length_c   3.94113800
_cell_angle_alpha   90.00000000
_cell_angle_beta   90.00000000
_cell_angle_gamma   120.12916612
_symmetry_Int_Tables_number   1
_chemical_formula_structural   Dy2P7(Ru5Rh)2
_chemical_formula_sum   'Dy2 P7 Ru10 Rh2'
_cell_volume   303.71817914
_cell_formula_units_Z   1
loop_
 _symmetry_equiv_pos_site_id
 _symmetry_equiv_pos_as_xyz
  1  'x, y, z'
loop_
 _atom_site_type_symbol
 _atom_site_label
 _atom_site_symmetry_multiplicity
 _atom_site_fract_x
 _atom_site_fract_y
 _atom_site_fract_z
 _atom_site_occupancy
  Dy  Dy0  1  0.668248  0.332980  0.500000  1
  Dy  Dy1  1  0.329280  0.665098  0.000000  1
  P  P2  1  0.601164  0.715768  0.500000  1
  P  P3  1  0.000045  0.002229  0.000000  1
  P  P4  1  0.279367  0.881250  0.500000  1
  P  P5  1  0.113844  0.401921  0.500000  1
  P  P6  1  0.884981  0.577274  0.000000  1
  P  P7  1  0.423660  0.301948  0.000000  1
  P  P8  1  0.698168  0.118616  0.000000  1
  Ru  Ru9  1  0.913963  0.126264  0.500000  1
  Ru  Ru10  1  0.214878  0.088296  0.500000  1
  Ru  Ru11  1  0.875086  0.790158  0.500000  1
  Ru  Ru12  1  0.725557  0.889919  0.000000  1
  Ru  Ru13  1  0.108612  0.839154  0.000000  1
  Ru  Ru14  1  0.165793  0.273559  0.000000  1
  Ru  Ru15  1  0.430340  0.063834  0.000000  1
  Ru  Ru16  1  0.936225  0.362927  0.000000  1
  Ru  Ru17  1  0.636729  0.570282  0.000000  1
  Ru  Ru18  1  0.051016  0.610106  0.500000  1
  Rh  Rh19  1  0.551954  0.942675  0.500000  1
  Rh  Rh20  1  0.391091  0.445742  0.500000  1
