# generated using pymatgen
data_Dy8Er12Si13Ir3
_symmetry_space_group_name_H-M   'P 1'
_cell_length_a   7.21727825
_cell_length_b   7.79811702
_cell_length_c   14.54133900
_cell_angle_alpha   90.00000000
_cell_angle_beta   90.00000000
_cell_angle_gamma   90.18445108
_symmetry_Int_Tables_number   1
_chemical_formula_structural   Dy8Er12Si13Ir3
_chemical_formula_sum   'Dy8 Er12 Si13 Ir3'
_cell_volume   818.39948215
_cell_formula_units_Z   1
loop_
 _symmetry_equiv_pos_site_id
 _symmetry_equiv_pos_as_xyz
  1  'x, y, z'
loop_
 _atom_site_type_symbol
 _atom_site_label
 _atom_site_symmetry_multiplicity
 _atom_site_fract_x
 _atom_site_fract_y
 _atom_site_fract_z
 _atom_site_occupancy
  Dy  Dy0  1  0.007630  0.179934  0.095816  1
  Dy  Dy1  1  0.990898  0.821579  0.908513  1
  Dy  Dy2  1  0.488847  0.681916  0.906969  1
  Dy  Dy3  1  0.990898  0.821579  0.591487  1
  Dy  Dy4  1  0.508500  0.321932  0.096328  1
  Dy  Dy5  1  0.007630  0.179934  0.404184  1
  Dy  Dy6  1  0.508500  0.321932  0.403672  1
  Dy  Dy7  1  0.488847  0.681916  0.593031  1
  Er  Er8  1  0.157805  0.516480  0.750000  1
  Er  Er9  1  0.828993  0.492350  0.250000  1
  Er  Er10  1  0.327092  0.010450  0.250000  1
  Er  Er11  1  0.673418  0.986239  0.750000  1
  Er  Er12  1  0.318789  0.175645  0.626571  1
  Er  Er13  1  0.680924  0.828254  0.372233  1
  Er  Er14  1  0.181814  0.672373  0.371668  1
  Er  Er15  1  0.680924  0.828254  0.127767  1
  Er  Er16  1  0.832083  0.317327  0.625245  1
  Er  Er17  1  0.318789  0.175645  0.873429  1
  Er  Er18  1  0.832083  0.317327  0.874755  1
  Er  Er19  1  0.181814  0.672373  0.128332  1
  Si  Si20  1  0.531552  0.399180  0.750000  1
  Si  Si21  1  0.277319  0.864446  0.750000  1
  Si  Si22  1  0.723719  0.135764  0.250000  1
  Si  Si23  1  0.220818  0.366925  0.250000  1
  Si  Si24  1  0.770417  0.623479  0.750000  1
  Si  Si25  1  0.158688  0.472291  0.538308  1
  Si  Si26  1  0.843619  0.531040  0.464174  1
  Si  Si27  1  0.342993  0.971414  0.462882  1
  Si  Si28  1  0.843619  0.531040  0.035826  1
  Si  Si29  1  0.651149  0.030509  0.538520  1
  Si  Si30  1  0.158688  0.472291  0.961692  1
  Si  Si31  1  0.651149  0.030509  0.961480  1
  Si  Si32  1  0.342993  0.971414  0.037118  1
  Ir  Ir33  1  0.029071  0.096516  0.750000  1
  Ir  Ir34  1  0.972737  0.903889  0.250000  1
  Ir  Ir35  1  0.475193  0.595852  0.250000  1
