# generated using pymatgen
data_Pr4TiMn5(PtO10)2
_symmetry_space_group_name_H-M   'P 1'
_cell_length_a   5.92149800
_cell_length_b   7.70747733
_cell_length_c   8.85088657
_cell_angle_alpha   89.78595777
_cell_angle_beta   90.00000000
_cell_angle_gamma   90.00000000
_symmetry_Int_Tables_number   1
_chemical_formula_structural   Pr4TiMn5(PtO10)2
_chemical_formula_sum   'Pr4 Ti1 Mn5 Pt2 O20'
_cell_volume   403.94997692
_cell_formula_units_Z   1
loop_
 _symmetry_equiv_pos_site_id
 _symmetry_equiv_pos_as_xyz
  1  'x, y, z'
loop_
 _atom_site_type_symbol
 _atom_site_label
 _atom_site_symmetry_multiplicity
 _atom_site_fract_x
 _atom_site_fract_y
 _atom_site_fract_z
 _atom_site_occupancy
  Pr  Pr0  1  0.004933  0.358899  0.672392  1
  Pr  Pr1  1  0.004933  0.641101  0.327608  1
  Pr  Pr2  1  0.997798  0.858813  0.828647  1
  Pr  Pr3  1  0.997798  0.141187  0.171353  1
  Ti  Ti4  1  0.722488  0.500000  0.000000  1
  Mn  Mn5  1  0.494912  0.081647  0.849529  1
  Mn  Mn6  1  0.494912  0.918353  0.150471  1
  Mn  Mn7  1  0.505583  0.589715  0.645610  1
  Mn  Mn8  1  0.505583  0.410285  0.354390  1
  Mn  Mn9  1  0.258306  0.000000  0.500000  1
  Pt  Pt10  1  0.257695  0.500000  0.000000  1
  Pt  Pt11  1  0.746376  0.000000  0.500000  1
  O  O12  1  0.246530  0.904193  0.293649  1
  O  O13  1  0.246530  0.095807  0.706351  1
  O  O14  1  0.749866  0.398749  0.209463  1
  O  O15  1  0.749866  0.601251  0.790537  1
  O  O16  1  0.753344  0.099861  0.713301  1
  O  O17  1  0.753344  0.900139  0.286699  1
  O  O18  1  0.248503  0.600362  0.785840  1
  O  O19  1  0.248503  0.399638  0.214160  1
  O  O20  1  0.509654  0.336793  0.929685  1
  O  O21  1  0.509654  0.663207  0.070315  1
  O  O22  1  0.489056  0.844412  0.564289  1
  O  O23  1  0.489056  0.155588  0.435711  1
  O  O24  1  0.273108  0.000000  0.000000  1
  O  O25  1  0.727816  0.500000  0.500000  1
  O  O26  1  0.717282  0.000000  0.000000  1
  O  O27  1  0.283670  0.500000  0.500000  1
  O  O28  1  0.013092  0.161284  0.446373  1
  O  O29  1  0.013092  0.838716  0.553627  1
  O  O30  1  0.993359  0.659250  0.053199  1
  O  O31  1  0.993359  0.340750  0.946801  1
