# generated using pymatgen
data_Dy3HoFe5Os3
_symmetry_space_group_name_H-M   'P 1'
_cell_length_a   5.25853064
_cell_length_b   5.23710301
_cell_length_c   9.02876074
_cell_angle_alpha   72.81430474
_cell_angle_beta   90.70226122
_cell_angle_gamma   120.18990657
_symmetry_Int_Tables_number   1
_chemical_formula_structural   Dy3HoFe5Os3
_chemical_formula_sum   'Dy3 Ho1 Fe5 Os3'
_cell_volume   202.50846735
_cell_formula_units_Z   1
loop_
 _symmetry_equiv_pos_site_id
 _symmetry_equiv_pos_as_xyz
  1  'x, y, z'
loop_
 _atom_site_type_symbol
 _atom_site_label
 _atom_site_symmetry_multiplicity
 _atom_site_fract_x
 _atom_site_fract_y
 _atom_site_fract_z
 _atom_site_occupancy
  Dy  Dy0  1  0.375973  0.749471  0.873837  1
  Dy  Dy1  1  0.998620  0.999227  0.998857  1
  Dy  Dy2  1  0.499159  0.000470  0.501229  1
  Ho  Ho3  1  0.876445  0.750866  0.375986  1
  Fe  Fe4  1  0.937540  0.875155  0.687134  1
  Fe  Fe5  1  0.184097  0.369955  0.443346  1
  Fe  Fe6  1  0.690835  0.379963  0.931585  1
  Fe  Fe7  1  0.937450  0.374774  0.187911  1
  Fe  Fe8  1  0.437680  0.375324  0.687120  1
  Os  Os9  1  0.437356  0.374559  0.188010  1
  Os  Os10  1  0.937508  0.375532  0.686974  1
  Os  Os11  1  0.437335  0.874703  0.188008  1
