# generated using pymatgen
data_La2SmTa2Bi3O14
_symmetry_space_group_name_H-M   'P 1'
_cell_length_a   6.73275048
_cell_length_b   6.76405089
_cell_length_c   7.72177700
_cell_angle_alpha   90.00000000
_cell_angle_beta   90.00000000
_cell_angle_gamma   111.11922213
_symmetry_Int_Tables_number   1
_chemical_formula_structural   La2SmTa2Bi3O14
_chemical_formula_sum   'La2 Sm1 Ta2 Bi3 O14'
_cell_volume   328.03516790
_cell_formula_units_Z   1
loop_
 _symmetry_equiv_pos_site_id
 _symmetry_equiv_pos_as_xyz
  1  'x, y, z'
loop_
 _atom_site_type_symbol
 _atom_site_label
 _atom_site_symmetry_multiplicity
 _atom_site_fract_x
 _atom_site_fract_y
 _atom_site_fract_z
 _atom_site_occupancy
  La  La0  1  0.001436  0.989009  0.001763  1
  La  La1  1  0.001436  0.989009  0.498237  1
  Sm  Sm2  1  0.054356  0.506798  0.250000  1
  Ta  Ta3  1  0.503529  0.503357  0.000307  1
  Ta  Ta4  1  0.503529  0.503357  0.499693  1
  Bi  Bi5  1  0.488638  0.965425  0.750000  1
  Bi  Bi6  1  0.523077  0.034436  0.250000  1
  Bi  Bi7  1  0.972326  0.474779  0.750000  1
  O  O8  1  0.858194  0.101222  0.750000  1
  O  O9  1  0.165546  0.873045  0.250000  1
  O  O10  1  0.117391  0.835724  0.750000  1
  O  O11  1  0.901999  0.143367  0.250000  1
  O  O12  1  0.433928  0.196280  0.959452  1
  O  O13  1  0.560539  0.820969  0.462963  1
  O  O14  1  0.176733  0.440396  0.531098  1
  O  O15  1  0.804617  0.566667  0.044189  1
  O  O16  1  0.413306  0.455058  0.250000  1
  O  O17  1  0.543601  0.576789  0.750000  1
  O  O18  1  0.176733  0.440396  0.968902  1
  O  O19  1  0.804617  0.566667  0.455811  1
  O  O20  1  0.433928  0.196280  0.540548  1
  O  O21  1  0.560539  0.820969  0.037037  1
