# generated using pymatgen
data_YHo4Co16(TcP4)3
_symmetry_space_group_name_H-M   'P 1'
_cell_length_a   12.01479900
_cell_length_b   12.01479912
_cell_length_c   3.70387800
_cell_angle_alpha   90.00000000
_cell_angle_beta   90.00000000
_cell_angle_gamma   120.00000244
_symmetry_Int_Tables_number   1
_chemical_formula_structural   YHo4Co16(TcP4)3
_chemical_formula_sum   'Y1 Ho4 Co16 Tc3 P12'
_cell_volume   463.04192819
_cell_formula_units_Z   1
loop_
 _symmetry_equiv_pos_site_id
 _symmetry_equiv_pos_as_xyz
  1  'x, y, z'
loop_
 _atom_site_type_symbol
 _atom_site_label
 _atom_site_symmetry_multiplicity
 _atom_site_fract_x
 _atom_site_fract_y
 _atom_site_fract_z
 _atom_site_occupancy
  Y  Y0  1  0.666667  0.333333  0.000000  1
  Ho  Ho1  1  0.333333  0.666667  0.000000  1
  Ho  Ho2  1  0.815267  0.815274  0.500000  1
  Ho  Ho3  1  0.184726  0.999993  0.500000  1
  Ho  Ho4  1  0.000007  0.184733  0.500000  1
  Co  Co5  1  0.874142  0.356708  0.500000  1
  Co  Co6  1  0.643292  0.517435  0.500000  1
  Co  Co7  1  0.482565  0.125858  0.500000  1
  Co  Co8  1  0.356669  0.873790  0.500000  1
  Co  Co9  1  0.517122  0.643331  0.500000  1
  Co  Co10  1  0.126210  0.482878  0.500000  1
  Co  Co11  1  0.803417  0.178941  0.000000  1
  Co  Co12  1  0.821059  0.624475  0.000000  1
  Co  Co13  1  0.375525  0.196583  0.000000  1
  Co  Co14  1  0.179063  0.803330  0.000000  1
  Co  Co15  1  0.624266  0.820937  0.000000  1
  Co  Co16  1  0.196670  0.375734  0.000000  1
  Co  Co17  1  0.281974  0.282025  0.500000  1
  Co  Co18  1  0.717975  0.999949  0.500000  1
  Co  Co19  1  0.000051  0.718026  0.500000  1
  Co  Co20  1  0.000000  0.000000  0.000000  1
  Tc  Tc21  1  0.445512  0.445580  0.000000  1
  Tc  Tc22  1  0.554420  0.999932  0.000000  1
  Tc  Tc23  1  0.000068  0.554488  0.000000  1
  P  P24  1  0.686112  0.164813  0.500000  1
  P  P25  1  0.835187  0.521300  0.500000  1
  P  P26  1  0.478700  0.313888  0.500000  1
  P  P27  1  0.165179  0.686077  0.500000  1
  P  P28  1  0.520898  0.834821  0.500000  1
  P  P29  1  0.313923  0.479102  0.500000  1
  P  P30  1  0.178672  0.178681  0.000000  1
  P  P31  1  0.821319  0.999991  0.000000  1
  P  P32  1  0.000009  0.821328  0.000000  1
  P  P33  1  0.637097  0.637086  0.000000  1
  P  P34  1  0.362914  0.000010  0.000000  1
  P  P35  1  0.999990  0.362903  0.000000  1
