# generated using pymatgen
data_Ho2PaAlGa2Ir3
_symmetry_space_group_name_H-M   'P 1'
_cell_length_a   7.20220948
_cell_length_b   7.20162112
_cell_length_c   3.82293300
_cell_angle_alpha   90.00000000
_cell_angle_beta   90.00000000
_cell_angle_gamma   118.54922037
_symmetry_Int_Tables_number   1
_chemical_formula_structural   Ho2PaAlGa2Ir3
_chemical_formula_sum   'Ho2 Pa1 Al1 Ga2 Ir3'
_cell_volume   174.17604872
_cell_formula_units_Z   1
loop_
 _symmetry_equiv_pos_site_id
 _symmetry_equiv_pos_as_xyz
  1  'x, y, z'
loop_
 _atom_site_type_symbol
 _atom_site_label
 _atom_site_symmetry_multiplicity
 _atom_site_fract_x
 _atom_site_fract_y
 _atom_site_fract_z
 _atom_site_occupancy
  Ho  Ho0  1  0.412637  0.005346  0.000000  1
  Ho  Ho1  1  0.002943  0.404918  0.000000  1
  Pa  Pa2  1  0.581013  0.584288  0.000000  1
  Al  Al3  1  0.007650  0.751937  0.500000  1
  Ga  Ga4  1  0.239375  0.236209  0.500000  1
  Ga  Ga5  1  0.747373  0.009140  0.500000  1
  Ir  Ir6  1  0.986271  0.980157  0.000000  1
  Ir  Ir7  1  0.671060  0.363697  0.500000  1
  Ir  Ir8  1  0.351680  0.664308  0.500000  1
