# generated using pymatgen
data_Tm3Co7(P3Ir)2
_symmetry_space_group_name_H-M   'P 1'
_cell_length_a   3.70943300
_cell_length_b   10.63764900
_cell_length_c   12.34558800
_cell_angle_alpha   90.00000000
_cell_angle_beta   90.00000000
_cell_angle_gamma   90.00000000
_symmetry_Int_Tables_number   1
_chemical_formula_structural   Tm3Co7(P3Ir)2
_chemical_formula_sum   'Tm6 Co14 P12 Ir4'
_cell_volume   487.15253514
_cell_formula_units_Z   2
loop_
 _symmetry_equiv_pos_site_id
 _symmetry_equiv_pos_as_xyz
  1  'x, y, z'
loop_
 _atom_site_type_symbol
 _atom_site_label
 _atom_site_symmetry_multiplicity
 _atom_site_fract_x
 _atom_site_fract_y
 _atom_site_fract_z
 _atom_site_occupancy
  Tm  Tm0  1  0.000000  0.500000  0.520065  1
  Tm  Tm1  1  0.500000  0.000000  0.479935  1
  Tm  Tm2  1  0.500000  0.813531  0.205812  1
  Tm  Tm3  1  0.500000  0.186469  0.205812  1
  Tm  Tm4  1  0.000000  0.686469  0.794188  1
  Tm  Tm5  1  0.000000  0.313531  0.794188  1
  Co  Co6  1  0.000000  0.500000  0.988144  1
  Co  Co7  1  0.500000  0.000000  0.011856  1
  Co  Co8  1  0.500000  0.332253  0.993106  1
  Co  Co9  1  0.500000  0.667747  0.993106  1
  Co  Co10  1  0.000000  0.167747  0.006894  1
  Co  Co11  1  0.000000  0.832253  0.006894  1
  Co  Co12  1  0.500000  0.299774  0.429370  1
  Co  Co13  1  0.500000  0.700226  0.429370  1
  Co  Co14  1  0.000000  0.200226  0.570630  1
  Co  Co15  1  0.000000  0.799774  0.570630  1
  Co  Co16  1  0.500000  0.879898  0.710466  1
  Co  Co17  1  0.500000  0.120102  0.710466  1
  Co  Co18  1  0.000000  0.620102  0.289534  1
  Co  Co19  1  0.000000  0.379898  0.289534  1
  P  P20  1  0.500000  0.500000  0.889071  1
  P  P21  1  0.000000  0.000000  0.110929  1
  P  P22  1  0.500000  0.500000  0.352219  1
  P  P23  1  0.000000  0.000000  0.647781  1
  P  P24  1  0.500000  0.303033  0.613494  1
  P  P25  1  0.500000  0.696967  0.613494  1
  P  P26  1  0.000000  0.196967  0.386506  1
  P  P27  1  0.000000  0.803033  0.386506  1
  P  P28  1  0.500000  0.844230  0.893859  1
  P  P29  1  0.500000  0.155770  0.893859  1
  P  P30  1  0.000000  0.655770  0.106141  1
  P  P31  1  0.000000  0.344230  0.106141  1
  Ir  Ir32  1  0.500000  0.500000  0.161213  1
  Ir  Ir33  1  0.000000  0.000000  0.838787  1
  Ir  Ir34  1  0.500000  0.500000  0.702637  1
  Ir  Ir35  1  0.000000  0.000000  0.297363  1
