# generated using pymatgen
data_Lu5Co19(SiP5)2
_symmetry_space_group_name_H-M   'P 1'
_cell_length_a   11.94780486
_cell_length_b   11.94780517
_cell_length_c   3.64533500
_cell_angle_alpha   90.00000000
_cell_angle_beta   90.00000000
_cell_angle_gamma   120.04354370
_symmetry_Int_Tables_number   1
_chemical_formula_structural   Lu5Co19(SiP5)2
_chemical_formula_sum   'Lu5 Co19 Si2 P10'
_cell_volume   450.45727492
_cell_formula_units_Z   1
loop_
 _symmetry_equiv_pos_site_id
 _symmetry_equiv_pos_as_xyz
  1  'x, y, z'
loop_
 _atom_site_type_symbol
 _atom_site_label
 _atom_site_symmetry_multiplicity
 _atom_site_fract_x
 _atom_site_fract_y
 _atom_site_fract_z
 _atom_site_occupancy
  Lu  Lu0  1  0.332632  0.667490  0.500000  1
  Lu  Lu1  1  0.667490  0.332632  0.500000  1
  Lu  Lu2  1  0.184013  0.000434  0.000000  1
  Lu  Lu3  1  0.000434  0.184013  0.000000  1
  Lu  Lu4  1  0.813293  0.813293  0.000000  1
  Co  Co5  1  0.202891  0.378434  0.500000  1
  Co  Co6  1  0.623450  0.820496  0.500000  1
  Co  Co7  1  0.174548  0.798216  0.500000  1
  Co  Co8  1  0.820496  0.623450  0.500000  1
  Co  Co9  1  0.798216  0.174548  0.500000  1
  Co  Co10  1  0.378434  0.202891  0.500000  1
  Co  Co11  1  0.555105  0.996708  0.500000  1
  Co  Co12  1  0.996708  0.555105  0.500000  1
  Co  Co13  1  0.448888  0.448888  0.500000  1
  Co  Co14  1  0.127545  0.485863  0.000000  1
  Co  Co15  1  0.516535  0.642529  0.000000  1
  Co  Co16  1  0.357017  0.871510  0.000000  1
  Co  Co17  1  0.642529  0.516535  0.000000  1
  Co  Co18  1  0.871510  0.357017  0.000000  1
  Co  Co19  1  0.485863  0.127545  0.000000  1
  Co  Co20  1  0.716066  0.998370  0.000000  1
  Co  Co21  1  0.998370  0.716066  0.000000  1
  Co  Co22  1  0.285782  0.285782  0.000000  1
  Co  Co23  1  0.000662  0.000662  0.500000  1
  Si  Si24  1  0.367391  0.999996  0.500000  1
  Si  Si25  1  0.999996  0.367391  0.500000  1
  P  P26  1  0.633563  0.633563  0.500000  1
  P  P27  1  0.314572  0.482158  0.000000  1
  P  P28  1  0.518954  0.833696  0.000000  1
  P  P29  1  0.165136  0.685444  0.000000  1
  P  P30  1  0.833696  0.518954  0.000000  1
  P  P31  1  0.685444  0.165136  0.000000  1
  P  P32  1  0.482158  0.314572  0.000000  1
  P  P33  1  0.819910  0.999276  0.500000  1
  P  P34  1  0.999276  0.819910  0.500000  1
  P  P35  1  0.181428  0.181428  0.500000  1
