# generated using pymatgen
data_Dy2Y2Ga5Tc3
_symmetry_space_group_name_H-M   'P 1'
_cell_length_a   5.49333927
_cell_length_b   5.56016166
_cell_length_c   8.70201042
_cell_angle_alpha   90.00000170
_cell_angle_beta   90.03069571
_cell_angle_gamma   120.40321987
_symmetry_Int_Tables_number   1
_chemical_formula_structural   Dy2Y2Ga5Tc3
_chemical_formula_sum   'Dy2 Y2 Ga5 Tc3'
_cell_volume   229.24244036
_cell_formula_units_Z   1
loop_
 _symmetry_equiv_pos_site_id
 _symmetry_equiv_pos_as_xyz
  1  'x, y, z'
loop_
 _atom_site_type_symbol
 _atom_site_label
 _atom_site_symmetry_multiplicity
 _atom_site_fract_x
 _atom_site_fract_y
 _atom_site_fract_z
 _atom_site_occupancy
  Dy  Dy0  1  0.334526  0.667263  0.443546  1
  Dy  Dy1  1  0.662586  0.331292  0.552514  1
  Y  Y2  1  0.662614  0.331306  0.947208  1
  Y  Y3  1  0.334045  0.667022  0.057057  1
  Ga  Ga4  1  0.836531  0.163549  0.250073  1
  Ga  Ga5  1  0.836531  0.672982  0.250073  1
  Ga  Ga6  1  0.325900  0.162950  0.250115  1
  Ga  Ga7  1  0.187975  0.840077  0.749956  1
  Ga  Ga8  1  0.187975  0.347898  0.749956  1
  Tc  Tc9  1  0.975623  0.987812  0.510807  1
  Tc  Tc10  1  0.975578  0.987790  0.989047  1
  Tc  Tc11  1  0.680117  0.840058  0.749647  1
