# generated using pymatgen
data_Cs3GaGe2O7
_symmetry_space_group_name_H-M   'P 1'
_cell_length_a   10.14579000
_cell_length_b   10.14579020
_cell_length_c   7.82574898
_cell_angle_alpha   73.14014195
_cell_angle_beta   73.14014261
_cell_angle_gamma   122.01214109
_symmetry_Int_Tables_number   1
_chemical_formula_structural   Cs3GaGe2O7
_chemical_formula_sum   'Cs6 Ga2 Ge4 O14'
_cell_volume   547.29225540
_cell_formula_units_Z   2
loop_
 _symmetry_equiv_pos_site_id
 _symmetry_equiv_pos_as_xyz
  1  'x, y, z'
loop_
 _atom_site_type_symbol
 _atom_site_label
 _atom_site_symmetry_multiplicity
 _atom_site_fract_x
 _atom_site_fract_y
 _atom_site_fract_z
 _atom_site_occupancy
  Cs  Cs0  1  0.594105  0.985033  0.729222  1
  Cs  Cs1  1  0.011212  0.988788  0.750000  1
  Cs  Cs2  1  0.985033  0.594105  0.229222  1
  Cs  Cs3  1  0.988788  0.011212  0.250000  1
  Cs  Cs4  1  0.014967  0.405895  0.770778  1
  Cs  Cs5  1  0.405895  0.014967  0.270778  1
  Ga  Ga6  1  0.443277  0.556723  0.750000  1
  Ga  Ga7  1  0.556723  0.443277  0.250000  1
  Ge  Ge8  1  0.763585  0.563442  0.759831  1
  Ge  Ge9  1  0.436558  0.236415  0.740169  1
  Ge  Ge10  1  0.563442  0.763585  0.259831  1
  Ge  Ge11  1  0.236415  0.436558  0.240169  1
  O  O12  1  0.667587  0.668450  0.730499  1
  O  O13  1  0.668450  0.667587  0.230499  1
  O  O14  1  0.521395  0.273784  0.479603  1
  O  O15  1  0.331550  0.332413  0.769501  1
  O  O16  1  0.003048  0.278335  0.438651  1
  O  O17  1  0.478605  0.726216  0.520397  1
  O  O18  1  0.278335  0.003048  0.938651  1
  O  O19  1  0.273784  0.521395  0.979603  1
  O  O20  1  0.356774  0.643226  0.250000  1
  O  O21  1  0.332413  0.331550  0.269501  1
  O  O22  1  0.721665  0.996952  0.061349  1
  O  O23  1  0.643226  0.356774  0.750000  1
  O  O24  1  0.996952  0.721665  0.561349  1
  O  O25  1  0.726216  0.478605  0.020397  1
