# generated using pymatgen
data_NaSr4FeSi9(Pb3O11)3
_symmetry_space_group_name_H-M   'P 1'
_cell_length_a   9.80117800
_cell_length_b   9.80117738
_cell_length_c   10.29917700
_cell_angle_alpha   90.00000000
_cell_angle_beta   90.00000000
_cell_angle_gamma   119.99999533
_symmetry_Int_Tables_number   1
_chemical_formula_structural   NaSr4FeSi9(Pb3O11)3
_chemical_formula_sum   'Na1 Sr4 Fe1 Si9 Pb9 O33'
_cell_volume   856.82020610
_cell_formula_units_Z   1
loop_
 _symmetry_equiv_pos_site_id
 _symmetry_equiv_pos_as_xyz
  1  'x, y, z'
loop_
 _atom_site_type_symbol
 _atom_site_label
 _atom_site_symmetry_multiplicity
 _atom_site_fract_x
 _atom_site_fract_y
 _atom_site_fract_z
 _atom_site_occupancy
  Na  Na0  1  0.000000  0.000000  0.500000  1
  Sr  Sr1  1  0.000000  0.000000  0.174006  1
  Sr  Sr2  1  0.333333  0.666667  0.173371  1
  Sr  Sr3  1  0.000000  0.000000  0.825994  1
  Sr  Sr4  1  0.333333  0.666667  0.826629  1
  Fe  Fe5  1  0.333333  0.666667  0.500000  1
  Si  Si6  1  0.267667  0.947154  0.357995  1
  Si  Si7  1  0.052846  0.320513  0.357995  1
  Si  Si8  1  0.648385  0.937093  0.000000  1
  Si  Si9  1  0.679487  0.732333  0.642005  1
  Si  Si10  1  0.288709  0.351615  0.000000  1
  Si  Si11  1  0.267667  0.947154  0.642005  1
  Si  Si12  1  0.062907  0.711291  0.000000  1
  Si  Si13  1  0.052846  0.320513  0.642005  1
  Si  Si14  1  0.679487  0.732333  0.357995  1
  Pb  Pb15  1  0.921280  0.586485  0.675787  1
  Pb  Pb16  1  0.413515  0.334795  0.324213  1
  Pb  Pb17  1  0.668518  0.585566  0.000000  1
  Pb  Pb18  1  0.917049  0.331482  0.000000  1
  Pb  Pb19  1  0.665205  0.078720  0.675787  1
  Pb  Pb20  1  0.414434  0.082951  0.000000  1
  Pb  Pb21  1  0.921280  0.586485  0.324213  1
  Pb  Pb22  1  0.413515  0.334795  0.675787  1
  Pb  Pb23  1  0.665205  0.078720  0.324213  1
  O  O24  1  0.190330  0.161505  0.000000  1
  O  O25  1  0.303603  0.043955  0.500000  1
  O  O26  1  0.956045  0.259648  0.500000  1
  O  O27  1  0.408146  0.426334  0.126418  1
  O  O28  1  0.147011  0.223018  0.336900  1
  O  O29  1  0.352594  0.083802  0.753438  1
  O  O30  1  0.170912  0.510690  0.633424  1
  O  O31  1  0.018189  0.591854  0.126418  1
  O  O32  1  0.339778  0.829088  0.366576  1
  O  O33  1  0.170912  0.510690  0.366576  1
  O  O34  1  0.776982  0.923991  0.336900  1
  O  O35  1  0.339778  0.829088  0.633424  1
  O  O36  1  0.916198  0.268793  0.753438  1
  O  O37  1  0.352594  0.083802  0.246562  1
  O  O38  1  0.971175  0.809670  0.000000  1
  O  O39  1  0.731207  0.647406  0.753438  1
  O  O40  1  0.731207  0.647406  0.246562  1
  O  O41  1  0.740352  0.696397  0.500000  1
  O  O42  1  0.562096  0.743011  0.000000  1
  O  O43  1  0.147011  0.223018  0.663100  1
  O  O44  1  0.573666  0.981811  0.873582  1
  O  O45  1  0.076009  0.852989  0.336900  1
  O  O46  1  0.916198  0.268793  0.246562  1
  O  O47  1  0.489310  0.660222  0.633424  1
  O  O48  1  0.076009  0.852989  0.663100  1
  O  O49  1  0.573666  0.981811  0.126418  1
  O  O50  1  0.256989  0.819084  0.000000  1
  O  O51  1  0.180916  0.437904  0.000000  1
  O  O52  1  0.489310  0.660222  0.366576  1
  O  O53  1  0.776982  0.923991  0.663100  1
  O  O54  1  0.838495  0.028825  0.000000  1
  O  O55  1  0.018189  0.591854  0.873582  1
  O  O56  1  0.408146  0.426334  0.873582  1
