# generated using pymatgen
data_Nd2AlIr3
_symmetry_space_group_name_H-M   'P 1'
_cell_length_a   5.24265606
_cell_length_b   5.67878562
_cell_length_c   5.67878600
_cell_angle_alpha   59.99999780
_cell_angle_beta   57.20775945
_cell_angle_gamma   57.20776454
_symmetry_Int_Tables_number   1
_chemical_formula_structural   Nd2AlIr3
_chemical_formula_sum   'Nd2 Al1 Ir3'
_cell_volume   114.25263679
_cell_formula_units_Z   1
loop_
 _symmetry_equiv_pos_site_id
 _symmetry_equiv_pos_as_xyz
  1  'x, y, z'
loop_
 _atom_site_type_symbol
 _atom_site_label
 _atom_site_symmetry_multiplicity
 _atom_site_fract_x
 _atom_site_fract_y
 _atom_site_fract_z
 _atom_site_occupancy
  Nd  Nd0  1  0.004760  0.998413  0.998413  1
  Nd  Nd1  1  0.245240  0.251587  0.251587  1
  Al  Al2  1  0.125000  0.625000  0.625000  1
  Ir  Ir3  1  0.625000  0.625000  0.625000  1
  Ir  Ir4  1  0.625000  0.125000  0.625000  1
  Ir  Ir5  1  0.625000  0.625000  0.125000  1
