# generated using pymatgen
data_YHf(ZrPd6)2
_symmetry_space_group_name_H-M   'P 1'
_cell_length_a   5.76163300
_cell_length_b   5.76163278
_cell_length_c   9.38032500
_cell_angle_alpha   90.00000000
_cell_angle_beta   90.00000000
_cell_angle_gamma   120.00000702
_symmetry_Int_Tables_number   1
_chemical_formula_structural   YHf(ZrPd6)2
_chemical_formula_sum   'Y1 Hf1 Zr2 Pd12'
_cell_volume   269.67435758
_cell_formula_units_Z   1
loop_
 _symmetry_equiv_pos_site_id
 _symmetry_equiv_pos_as_xyz
  1  'x, y, z'
loop_
 _atom_site_type_symbol
 _atom_site_label
 _atom_site_symmetry_multiplicity
 _atom_site_fract_x
 _atom_site_fract_y
 _atom_site_fract_z
 _atom_site_occupancy
  Y  Y0  1  0.666667  0.333333  0.750000  1
  Hf  Hf1  1  0.333333  0.666667  0.250000  1
  Zr  Zr2  1  0.000000  0.000000  0.502265  1
  Zr  Zr3  1  0.000000  0.000000  0.997735  1
  Pd  Pd4  1  0.170648  0.341293  0.750000  1
  Pd  Pd5  1  0.004651  0.502325  0.005781  1
  Pd  Pd6  1  0.831097  0.662194  0.250000  1
  Pd  Pd7  1  0.337806  0.168903  0.250000  1
  Pd  Pd8  1  0.497675  0.502325  0.005781  1
  Pd  Pd9  1  0.831097  0.168903  0.250000  1
  Pd  Pd10  1  0.497675  0.502325  0.494219  1
  Pd  Pd11  1  0.497675  0.995349  0.494219  1
  Pd  Pd12  1  0.170648  0.829352  0.750000  1
  Pd  Pd13  1  0.658707  0.829352  0.750000  1
  Pd  Pd14  1  0.497675  0.995349  0.005781  1
  Pd  Pd15  1  0.004651  0.502325  0.494219  1
