# generated using pymatgen
data_Ho2Lu2CdPt
_symmetry_space_group_name_H-M   'P 1'
_cell_length_a   9.56456467
_cell_length_b   9.55629798
_cell_length_c   9.55629731
_cell_angle_alpha   60.05724177
_cell_angle_beta   59.97138879
_cell_angle_gamma   59.97138952
_symmetry_Int_Tables_number   1
_chemical_formula_structural   Ho2Lu2CdPt
_chemical_formula_sum   'Ho8 Lu8 Cd4 Pt4'
_cell_volume   617.63082330
_cell_formula_units_Z   4
loop_
 _symmetry_equiv_pos_site_id
 _symmetry_equiv_pos_as_xyz
  1  'x, y, z'
loop_
 _atom_site_type_symbol
 _atom_site_label
 _atom_site_symmetry_multiplicity
 _atom_site_fract_x
 _atom_site_fract_y
 _atom_site_fract_z
 _atom_site_occupancy
  Ho  Ho0  1  0.565689  0.934311  0.565689  1
  Ho  Ho1  1  0.934311  0.565688  0.934311  1
  Ho  Ho2  1  0.565689  0.565689  0.934311  1
  Ho  Ho3  1  0.934311  0.934311  0.565688  1
  Ho  Ho4  1  0.353671  0.352860  0.352860  1
  Ho  Ho5  1  0.352860  0.353671  0.940610  1
  Ho  Ho6  1  0.352860  0.940610  0.353671  1
  Ho  Ho7  1  0.940610  0.352860  0.352860  1
  Lu  Lu8  1  0.812198  0.187802  0.187802  1
  Lu  Lu9  1  0.187802  0.812198  0.812198  1
  Lu  Lu10  1  0.187944  0.812056  0.187944  1
  Lu  Lu11  1  0.812056  0.187944  0.812056  1
  Lu  Lu12  1  0.187944  0.187944  0.812056  1
  Lu  Lu13  1  0.812056  0.812056  0.187944  1
  Lu  Lu14  1  0.937570  0.562430  0.562430  1
  Lu  Lu15  1  0.562430  0.937570  0.937570  1
  Cd  Cd16  1  0.583430  0.581725  0.581725  1
  Cd  Cd17  1  0.581725  0.583430  0.253121  1
  Cd  Cd18  1  0.581725  0.253121  0.583430  1
  Cd  Cd19  1  0.253121  0.581725  0.581725  1
  Pt  Pt20  1  0.143549  0.141825  0.141825  1
  Pt  Pt21  1  0.141825  0.143549  0.572801  1
  Pt  Pt22  1  0.141825  0.572801  0.143549  1
  Pt  Pt23  1  0.572801  0.141825  0.141825  1
