# generated using pymatgen
data_Tb3Ho(Pa2Ga5)4
_symmetry_space_group_name_H-M   'P 1'
_cell_length_a   6.08755701
_cell_length_b   9.53317500
_cell_length_c   11.65907701
_cell_angle_alpha   90.00000000
_cell_angle_beta   90.00532670
_cell_angle_gamma   90.00000000
_symmetry_Int_Tables_number   1
_chemical_formula_structural   Tb3Ho(Pa2Ga5)4
_chemical_formula_sum   'Tb3 Ho1 Pa8 Ga20'
_cell_volume   676.61991412
_cell_formula_units_Z   1
loop_
 _symmetry_equiv_pos_site_id
 _symmetry_equiv_pos_as_xyz
  1  'x, y, z'
loop_
 _atom_site_type_symbol
 _atom_site_label
 _atom_site_symmetry_multiplicity
 _atom_site_fract_x
 _atom_site_fract_y
 _atom_site_fract_z
 _atom_site_occupancy
  Tb  Tb0  1  0.642667  0.750000  0.573097  1
  Tb  Tb1  1  0.142665  0.250000  0.926967  1
  Tb  Tb2  1  0.357296  0.250000  0.426918  1
  Ho  Ho3  1  0.857032  0.750000  0.073229  1
  Pa  Pa4  1  0.882604  0.504184  0.352090  1
  Pa  Pa5  1  0.617452  0.995719  0.852354  1
  Pa  Pa6  1  0.117397  0.004128  0.647835  1
  Pa  Pa7  1  0.382723  0.495967  0.147769  1
  Pa  Pa8  1  0.117397  0.495872  0.647835  1
  Pa  Pa9  1  0.382723  0.004033  0.147769  1
  Pa  Pa10  1  0.882604  0.995816  0.352090  1
  Pa  Pa11  1  0.617452  0.504281  0.852354  1
  Ga  Ga12  1  0.872178  0.051987  0.090867  1
  Ga  Ga13  1  0.627877  0.447211  0.591013  1
  Ga  Ga14  1  0.127609  0.552929  0.909230  1
  Ga  Ga15  1  0.372106  0.947209  0.408963  1
  Ga  Ga16  1  0.127609  0.947071  0.909230  1
  Ga  Ga17  1  0.372106  0.552791  0.408963  1
  Ga  Ga18  1  0.872178  0.448013  0.090867  1
  Ga  Ga19  1  0.627877  0.052789  0.591013  1
  Ga  Ga20  1  0.159369  0.750000  0.263300  1
  Ga  Ga21  1  0.339953  0.750000  0.763878  1
  Ga  Ga22  1  0.840049  0.250000  0.736205  1
  Ga  Ga23  1  0.659954  0.250000  0.236174  1
  Ga  Ga24  1  0.388552  0.750000  0.995833  1
  Ga  Ga25  1  0.112282  0.750000  0.495628  1
  Ga  Ga26  1  0.612470  0.250000  0.004411  1
  Ga  Ga27  1  0.887748  0.250000  0.504339  1
  Ga  Ga28  1  0.597895  0.750000  0.293325  1
  Ga  Ga29  1  0.902285  0.750000  0.794050  1
  Ga  Ga30  1  0.402228  0.250000  0.706243  1
  Ga  Ga31  1  0.097661  0.250000  0.206161  1
