# generated using pymatgen
data_Sm2Er8In8Pt3Rh
_symmetry_space_group_name_H-M   'P 1'
_cell_length_a   3.60078000
_cell_length_b   8.14389456
_cell_length_c   18.26545244
_cell_angle_alpha   89.92935942
_cell_angle_beta   90.00000000
_cell_angle_gamma   90.00000000
_symmetry_Int_Tables_number   1
_chemical_formula_structural   Sm2Er8In8Pt3Rh
_chemical_formula_sum   'Sm2 Er8 In8 Pt3 Rh1'
_cell_volume   535.62252702
_cell_formula_units_Z   1
loop_
 _symmetry_equiv_pos_site_id
 _symmetry_equiv_pos_as_xyz
  1  'x, y, z'
loop_
 _atom_site_type_symbol
 _atom_site_label
 _atom_site_symmetry_multiplicity
 _atom_site_fract_x
 _atom_site_fract_y
 _atom_site_fract_z
 _atom_site_occupancy
  Sm  Sm0  1  0.000000  0.999472  0.999746  1
  Sm  Sm1  1  0.000000  0.500430  0.499840  1
  Er  Er2  1  0.000000  0.116776  0.411535  1
  Er  Er3  1  0.000000  0.880495  0.585703  1
  Er  Er4  1  0.000000  0.380884  0.914317  1
  Er  Er5  1  0.000000  0.619508  0.087113  1
  Er  Er6  1  0.000000  0.238338  0.221532  1
  Er  Er7  1  0.000000  0.758316  0.780015  1
  Er  Er8  1  0.000000  0.258018  0.720283  1
  Er  Er9  1  0.000000  0.749673  0.279386  1
  In  In10  1  0.500000  0.422977  0.349632  1
  In  In11  1  0.500000  0.576908  0.650624  1
  In  In12  1  0.500000  0.077453  0.849368  1
  In  In13  1  0.500000  0.927229  0.151464  1
  In  In14  1  0.500000  0.297350  0.067597  1
  In  In15  1  0.500000  0.701744  0.933291  1
  In  In16  1  0.500000  0.202553  0.566761  1
  In  In17  1  0.500000  0.797783  0.430640  1
  Pt  Pt18  1  0.500000  0.975321  0.696136  1
  Pt  Pt19  1  0.500000  0.475111  0.803682  1
  Pt  Pt20  1  0.500000  0.522163  0.196977  1
  Rh  Rh21  1  0.500000  0.021500  0.304357  1
