# generated using pymatgen
data_HfSc(AsRu)2
_symmetry_space_group_name_H-M   'P 1'
_cell_length_a   7.68703091
_cell_length_b   7.68611084
_cell_length_c   7.68703134
_cell_angle_alpha   128.21296796
_cell_angle_beta   120.64832474
_cell_angle_gamma   82.62893394
_symmetry_Int_Tables_number   1
_chemical_formula_structural   HfSc(AsRu)2
_chemical_formula_sum   'Hf3 Sc3 As6 Ru6'
_cell_volume   295.01871368
_cell_formula_units_Z   3
loop_
 _symmetry_equiv_pos_site_id
 _symmetry_equiv_pos_as_xyz
  1  'x, y, z'
loop_
 _atom_site_type_symbol
 _atom_site_label
 _atom_site_symmetry_multiplicity
 _atom_site_fract_x
 _atom_site_fract_y
 _atom_site_fract_z
 _atom_site_occupancy
  Hf  Hf0  1  0.249523  0.832628  0.083103  1
  Hf  Hf1  1  0.052575  0.258429  0.705854  1
  Hf  Hf2  1  0.948411  0.652041  0.203631  1
  Sc  Sc3  1  0.470525  0.699883  0.729359  1
  Sc  Sc4  1  0.529843  0.256845  0.227001  1
  Sc  Sc5  1  0.749446  0.832985  0.583539  1
  As  As6  1  0.279813  0.275593  0.495781  1
  As  As7  1  0.722249  0.222185  0.999935  1
  As  As8  1  0.332343  0.586862  0.252815  1
  As  As9  1  0.669687  0.920318  0.257826  1
  As  As10  1  0.162492  0.920318  0.750631  1
  As  As11  1  0.834048  0.586862  0.754519  1
  Ru  Ru12  1  0.493779  0.495522  0.989968  1
  Ru  Ru13  1  0.005554  0.495522  0.501744  1
  Ru  Ru14  1  0.089098  0.253192  0.097795  1
  Ru  Ru15  1  0.911396  0.008611  0.164790  1
  Ru  Ru16  1  0.343821  0.008611  0.597215  1
  Ru  Ru17  1  0.655397  0.253192  0.664095  1
