# generated using pymatgen
data_NdHo2U(SbSe)4
_symmetry_space_group_name_H-M   'P 1'
_cell_length_a   4.17901400
_cell_length_b   4.18256489
_cell_length_c   17.78187540
_cell_angle_alpha   90.00848078
_cell_angle_beta   90.00000000
_cell_angle_gamma   90.00000000
_symmetry_Int_Tables_number   1
_chemical_formula_structural   NdHo2U(SbSe)4
_chemical_formula_sum   'Nd1 Ho2 U1 Sb4 Se4'
_cell_volume   310.80934778
_cell_formula_units_Z   1
loop_
 _symmetry_equiv_pos_site_id
 _symmetry_equiv_pos_as_xyz
  1  'x, y, z'
loop_
 _atom_site_type_symbol
 _atom_site_label
 _atom_site_symmetry_multiplicity
 _atom_site_fract_x
 _atom_site_fract_y
 _atom_site_fract_z
 _atom_site_occupancy
  Nd  Nd0  1  0.250000  0.741437  0.646355  1
  Ho  Ho1  1  0.750000  0.259852  0.349949  1
  Ho  Ho2  1  0.250000  0.758360  0.146903  1
  U  U3  1  0.750000  0.242341  0.855415  1
  Sb  Sb4  1  0.250000  0.248353  0.497184  1
  Sb  Sb5  1  0.250000  0.249081  0.000286  1
  Sb  Sb6  1  0.750000  0.749980  0.497168  1
  Sb  Sb7  1  0.750000  0.748019  0.000280  1
  Se  Se8  1  0.750000  0.240559  0.689341  1
  Se  Se9  1  0.750000  0.259926  0.186215  1
  Se  Se10  1  0.250000  0.760789  0.311250  1
  Se  Se11  1  0.250000  0.741302  0.819657  1
