# generated using pymatgen
data_Ca2Pr3(Nd5Ir4)3
_symmetry_space_group_name_H-M   'P 1'
_cell_length_a   11.30478110
_cell_length_b   11.30627405
_cell_length_c   6.52980804
_cell_angle_alpha   89.99703686
_cell_angle_beta   90.01178222
_cell_angle_gamma   90.00985224
_symmetry_Int_Tables_number   1
_chemical_formula_structural   Ca2Pr3(Nd5Ir4)3
_chemical_formula_sum   'Ca2 Pr3 Nd15 Ir12'
_cell_volume   834.60707725
_cell_formula_units_Z   1
loop_
 _symmetry_equiv_pos_site_id
 _symmetry_equiv_pos_as_xyz
  1  'x, y, z'
loop_
 _atom_site_type_symbol
 _atom_site_label
 _atom_site_symmetry_multiplicity
 _atom_site_fract_x
 _atom_site_fract_y
 _atom_site_fract_z
 _atom_site_occupancy
  Ca  Ca0  1  0.000002  0.999982  0.499857  1
  Ca  Ca1  1  0.999950  0.999878  0.000026  1
  Pr  Pr2  1  0.911547  0.287993  0.616110  1
  Pr  Pr3  1  0.088309  0.711991  0.616074  1
  Pr  Pr4  1  0.088438  0.287997  0.116183  1
  Nd  Nd5  1  0.288525  0.088121  0.384423  1
  Nd  Nd6  1  0.288504  0.911953  0.884512  1
  Nd  Nd7  1  0.711514  0.088020  0.884438  1
  Nd  Nd8  1  0.711540  0.911795  0.384351  1
  Nd  Nd9  1  0.589439  0.791743  0.882992  1
  Nd  Nd10  1  0.589382  0.208317  0.382949  1
  Nd  Nd11  1  0.410606  0.791708  0.382954  1
  Nd  Nd12  1  0.410593  0.208262  0.882925  1
  Nd  Nd13  1  0.208671  0.410527  0.616990  1
  Nd  Nd14  1  0.208485  0.589460  0.116972  1
  Nd  Nd15  1  0.791397  0.410699  0.117029  1
  Nd  Nd16  1  0.791452  0.589561  0.616919  1
  Nd  Nd17  1  0.911609  0.711632  0.115694  1
  Nd  Nd18  1  0.500017  0.500014  0.999879  1
  Nd  Nd19  1  0.499992  0.499953  0.499838  1
  Ir  Ir20  1  0.841906  0.157422  0.249518  1
  Ir  Ir21  1  0.842010  0.842284  0.750107  1
  Ir  Ir22  1  0.158077  0.157488  0.749412  1
  Ir  Ir23  1  0.157906  0.842457  0.249373  1
  Ir  Ir24  1  0.653897  0.345938  0.750244  1
  Ir  Ir25  1  0.654260  0.654234  0.250002  1
  Ir  Ir26  1  0.346086  0.345863  0.250215  1
  Ir  Ir27  1  0.346085  0.654117  0.750175  1
  Ir  Ir28  1  0.500040  0.999997  0.115346  1
  Ir  Ir29  1  0.499993  0.999996  0.615307  1
  Ir  Ir30  1  0.999814  0.500385  0.884802  1
  Ir  Ir31  1  0.999953  0.500215  0.384380  1
