# generated using pymatgen
data_TbY2ZnSn3Ir2
_symmetry_space_group_name_H-M   'P 1'
_cell_length_a   7.50204431
_cell_length_b   7.50255965
_cell_length_c   4.04639200
_cell_angle_alpha   90.00000000
_cell_angle_beta   90.00000000
_cell_angle_gamma   120.03087000
_symmetry_Int_Tables_number   1
_chemical_formula_structural   TbY2ZnSn3Ir2
_chemical_formula_sum   'Tb1 Y2 Zn1 Sn3 Ir2'
_cell_volume   197.17529031
_cell_formula_units_Z   1
loop_
 _symmetry_equiv_pos_site_id
 _symmetry_equiv_pos_as_xyz
  1  'x, y, z'
loop_
 _atom_site_type_symbol
 _atom_site_label
 _atom_site_symmetry_multiplicity
 _atom_site_fract_x
 _atom_site_fract_y
 _atom_site_fract_z
 _atom_site_occupancy
  Tb  Tb0  1  0.411423  0.395264  0.000000  1
  Y  Y1  1  0.604992  0.016006  0.000000  1
  Y  Y2  1  0.984100  0.588972  0.000000  1
  Zn  Zn3  1  0.333262  0.666701  0.500000  1
  Sn  Sn4  1  0.254902  0.999399  0.500000  1
  Sn  Sn5  1  0.000248  0.255397  0.500000  1
  Sn  Sn6  1  0.744662  0.745014  0.500000  1
  Ir  Ir7  1  0.666413  0.333261  0.500000  1
  Ir  Ir8  1  0.999999  0.999984  0.000000  1
