# generated using pymatgen
data_K3Zn2H9Ru
_symmetry_space_group_name_H-M   'P 1'
_cell_length_a   7.63856146
_cell_length_b   7.63856156
_cell_length_c   7.63856107
_cell_angle_alpha   43.88019702
_cell_angle_beta   43.88020520
_cell_angle_gamma   43.88020318
_symmetry_Int_Tables_number   1
_chemical_formula_structural   K3Zn2H9Ru
_chemical_formula_sum   'K3 Zn2 H9 Ru1'
_cell_volume   194.44654951
_cell_formula_units_Z   1
loop_
 _symmetry_equiv_pos_site_id
 _symmetry_equiv_pos_as_xyz
  1  'x, y, z'
loop_
 _atom_site_type_symbol
 _atom_site_label
 _atom_site_symmetry_multiplicity
 _atom_site_fract_x
 _atom_site_fract_y
 _atom_site_fract_z
 _atom_site_occupancy
  K  K0  1  0.000000  0.000000  0.000000  1
  K  K1  1  0.785358  0.785358  0.785358  1
  K  K2  1  0.214642  0.214642  0.214642  1
  Zn  Zn3  1  0.620679  0.620679  0.620679  1
  Zn  Zn4  1  0.379321  0.379321  0.379321  1
  H  H5  1  0.000000  0.500000  0.500000  1
  H  H6  1  0.500000  0.000000  0.500000  1
  H  H7  1  0.500000  0.500000  0.000000  1
  H  H8  1  0.739312  0.309156  0.309156  1
  H  H9  1  0.309156  0.739312  0.309156  1
  H  H10  1  0.309156  0.309156  0.739312  1
  H  H11  1  0.690844  0.690844  0.260688  1
  H  H12  1  0.690844  0.260688  0.690844  1
  H  H13  1  0.260688  0.690844  0.690844  1
  Ru  Ru14  1  0.500000  0.500000  0.500000  1
