# generated using pymatgen
data_Li5Pr6Zn18P
_symmetry_space_group_name_H-M   'P 1'
_cell_length_a   9.24929269
_cell_length_b   9.24926041
_cell_length_c   9.24929000
_cell_angle_alpha   60.00080259
_cell_angle_beta   60.00026713
_cell_angle_gamma   60.00017127
_symmetry_Int_Tables_number   1
_chemical_formula_structural   Li5Pr6Zn18P
_chemical_formula_sum   'Li5 Pr6 Zn18 P1'
_cell_volume   559.51663304
_cell_formula_units_Z   1
loop_
 _symmetry_equiv_pos_site_id
 _symmetry_equiv_pos_as_xyz
  1  'x, y, z'
loop_
 _atom_site_type_symbol
 _atom_site_label
 _atom_site_symmetry_multiplicity
 _atom_site_fract_x
 _atom_site_fract_y
 _atom_site_fract_z
 _atom_site_occupancy
  Li  Li0  1  0.622632  0.125779  0.125780  1
  Li  Li1  1  0.125793  0.622642  0.125766  1
  Li  Li2  1  0.125801  0.125765  0.622639  1
  Li  Li3  1  0.125795  0.125791  0.125782  1
  Li  Li4  1  0.000008  0.999974  0.999991  1
  Pr  Pr5  1  0.715909  0.284098  0.284086  1
  Pr  Pr6  1  0.715884  0.284058  0.715925  1
  Pr  Pr7  1  0.715893  0.715921  0.284051  1
  Pr  Pr8  1  0.284074  0.715922  0.715940  1
  Pr  Pr9  1  0.284134  0.715928  0.284054  1
  Pr  Pr10  1  0.284128  0.284062  0.715927  1
  Zn  Zn11  1  0.372224  0.875919  0.875922  1
  Zn  Zn12  1  0.875896  0.372247  0.875954  1
  Zn  Zn13  1  0.875898  0.875956  0.372247  1
  Zn  Zn14  1  0.875942  0.875917  0.875909  1
  Zn  Zn15  1  0.500361  0.999637  0.999637  1
  Zn  Zn16  1  0.500369  0.999629  0.500392  1
  Zn  Zn17  1  0.500362  0.500391  0.999633  1
  Zn  Zn18  1  0.999638  0.500363  0.500364  1
  Zn  Zn19  1  0.999614  0.500391  0.999628  1
  Zn  Zn20  1  0.999619  0.999631  0.500390  1
  Zn  Zn21  1  0.024185  0.325274  0.325284  1
  Zn  Zn22  1  0.325302  0.024145  0.325250  1
  Zn  Zn23  1  0.325302  0.325251  0.024144  1
  Zn  Zn24  1  0.325255  0.325289  0.325281  1
  Zn  Zn25  1  0.978469  0.673842  0.673839  1
  Zn  Zn26  1  0.673819  0.978523  0.673839  1
  Zn  Zn27  1  0.673817  0.673837  0.978527  1
  Zn  Zn28  1  0.673856  0.673840  0.673838  1
  P  P29  1  0.500020  0.499981  0.499982  1
