# generated using pymatgen
data_Pr3CdAg3Sn4
_symmetry_space_group_name_H-M   'P 1'
_cell_length_a   9.05582284
_cell_length_b   9.00087986
_cell_length_c   9.00088001
_cell_angle_alpha   149.33606988
_cell_angle_beta   130.73508613
_cell_angle_gamma   59.09711822
_symmetry_Int_Tables_number   1
_chemical_formula_structural   Pr3CdAg3Sn4
_chemical_formula_sum   'Pr3 Cd1 Ag3 Sn4'
_cell_volume   281.35080749
_cell_formula_units_Z   1
loop_
 _symmetry_equiv_pos_site_id
 _symmetry_equiv_pos_as_xyz
  1  'x, y, z'
loop_
 _atom_site_type_symbol
 _atom_site_label
 _atom_site_symmetry_multiplicity
 _atom_site_fract_x
 _atom_site_fract_y
 _atom_site_fract_z
 _atom_site_occupancy
  Pr  Pr0  1  0.501083  0.999915  0.501168  1
  Pr  Pr1  1  0.872568  0.873421  0.999147  1
  Pr  Pr2  1  0.121936  0.127925  0.994012  1
  Cd  Cd3  1  0.475106  0.668859  0.806248  1
  Ag  Ag4  1  0.866236  0.669846  0.196390  1
  Ag  Ag5  1  0.137780  0.329365  0.808415  1
  Ag  Ag6  1  0.524357  0.330777  0.193579  1
  Sn  Sn7  1  0.282354  0.785641  0.496713  1
  Sn  Sn8  1  0.724418  0.217551  0.506868  1
  Sn  Sn9  1  0.805922  0.499899  0.306022  1
  Sn  Sn10  1  0.188239  0.496801  0.691438  1
