# generated using pymatgen
data_CaSi(GeRh2)3
_symmetry_space_group_name_H-M   'P 1'
_cell_length_a   7.20274500
_cell_length_b   7.20274512
_cell_length_c   3.81870200
_cell_angle_alpha   90.00000000
_cell_angle_beta   90.00000000
_cell_angle_gamma   120.00000403
_symmetry_Int_Tables_number   1
_chemical_formula_structural   CaSi(GeRh2)3
_chemical_formula_sum   'Ca1 Si1 Ge3 Rh6'
_cell_volume   171.57044173
_cell_formula_units_Z   1
loop_
 _symmetry_equiv_pos_site_id
 _symmetry_equiv_pos_as_xyz
  1  'x, y, z'
loop_
 _atom_site_type_symbol
 _atom_site_label
 _atom_site_symmetry_multiplicity
 _atom_site_fract_x
 _atom_site_fract_y
 _atom_site_fract_z
 _atom_site_occupancy
  Ca  Ca0  1  0.000000  0.000000  0.000000  1
  Si  Si1  1  0.333333  0.666667  0.000000  1
  Ge  Ge2  1  0.802352  0.197648  0.500000  1
  Ge  Ge3  1  0.395298  0.197648  0.500000  1
  Ge  Ge4  1  0.802352  0.604702  0.500000  1
  Rh  Rh5  1  0.202456  0.797544  0.500000  1
  Rh  Rh6  1  0.202456  0.404913  0.500000  1
  Rh  Rh7  1  0.530771  0.061542  0.000000  1
  Rh  Rh8  1  0.938458  0.469229  0.000000  1
  Rh  Rh9  1  0.530771  0.469229  0.000000  1
  Rh  Rh10  1  0.595087  0.797544  0.500000  1
