# generated using pymatgen
data_Y4Ho3Co6Sn22Hg
_symmetry_space_group_name_H-M   'P 1'
_cell_length_a   9.68410200
_cell_length_b   9.68410034
_cell_length_c   10.00875500
_cell_angle_alpha   90.00000000
_cell_angle_beta   90.00000000
_cell_angle_gamma   119.99999885
_symmetry_Int_Tables_number   1
_chemical_formula_structural   Y4Ho3Co6Sn22Hg
_chemical_formula_sum   'Y4 Ho3 Co6 Sn22 Hg1'
_cell_volume   812.88541374
_cell_formula_units_Z   1
loop_
 _symmetry_equiv_pos_site_id
 _symmetry_equiv_pos_as_xyz
  1  'x, y, z'
loop_
 _atom_site_type_symbol
 _atom_site_label
 _atom_site_symmetry_multiplicity
 _atom_site_fract_x
 _atom_site_fract_y
 _atom_site_fract_z
 _atom_site_occupancy
  Y  Y0  1  0.000000  0.000000  0.000144  1
  Y  Y1  1  0.521178  0.478822  0.693281  1
  Y  Y2  1  0.521178  0.042353  0.693281  1
  Y  Y3  1  0.957647  0.478822  0.693281  1
  Ho  Ho4  1  0.041340  0.520671  0.306225  1
  Ho  Ho5  1  0.479329  0.958660  0.306225  1
  Ho  Ho6  1  0.479329  0.520671  0.306225  1
  Co  Co7  1  0.167956  0.832044  0.803231  1
  Co  Co8  1  0.167956  0.335914  0.803231  1
  Co  Co9  1  0.664086  0.832044  0.803231  1
  Co  Co10  1  0.336408  0.168204  0.197191  1
  Co  Co11  1  0.831796  0.663592  0.197191  1
  Co  Co12  1  0.831796  0.168204  0.197191  1
  Sn  Sn13  1  0.666667  0.333333  0.181435  1
  Sn  Sn14  1  0.666667  0.333333  0.881616  1
  Sn  Sn15  1  0.333333  0.666667  0.120417  1
  Sn  Sn16  1  0.346352  0.346417  0.000205  1
  Sn  Sn17  1  0.000065  0.653648  0.000205  1
  Sn  Sn18  1  0.653583  0.999935  0.000205  1
  Sn  Sn19  1  0.653583  0.653648  0.000205  1
  Sn  Sn20  1  0.333333  0.666667  0.818679  1
  Sn  Sn21  1  0.434817  0.217409  0.452598  1
  Sn  Sn22  1  0.217453  0.782547  0.546082  1
  Sn  Sn23  1  0.217453  0.434907  0.546082  1
  Sn  Sn24  1  0.565093  0.782547  0.546082  1
  Sn  Sn25  1  0.116951  0.883049  0.269966  1
  Sn  Sn26  1  0.782591  0.565183  0.452598  1
  Sn  Sn27  1  0.782591  0.217409  0.452598  1
  Sn  Sn28  1  0.346352  0.999935  0.000205  1
  Sn  Sn29  1  0.116951  0.233901  0.269966  1
  Sn  Sn30  1  0.766099  0.883049  0.269966  1
  Sn  Sn31  1  0.233062  0.116531  0.730297  1
  Sn  Sn32  1  0.883469  0.766938  0.730297  1
  Sn  Sn33  1  0.883469  0.116531  0.730297  1
  Sn  Sn34  1  0.000065  0.346417  0.000205  1
  Hg  Hg35  1  0.000000  0.000000  0.499865  1
