# generated using pymatgen
data_HoLu7(Ta3Si4)4
_symmetry_space_group_name_H-M   'P 1'
_cell_length_a   6.99601606
_cell_length_b   6.99664774
_cell_length_c   12.89150101
_cell_angle_alpha   89.96621463
_cell_angle_beta   90.00562282
_cell_angle_gamma   89.97673055
_symmetry_Int_Tables_number   1
_chemical_formula_structural   HoLu7(Ta3Si4)4
_chemical_formula_sum   'Ho1 Lu7 Ta12 Si16'
_cell_volume   631.02153445
_cell_formula_units_Z   1
loop_
 _symmetry_equiv_pos_site_id
 _symmetry_equiv_pos_as_xyz
  1  'x, y, z'
loop_
 _atom_site_type_symbol
 _atom_site_label
 _atom_site_symmetry_multiplicity
 _atom_site_fract_x
 _atom_site_fract_y
 _atom_site_fract_z
 _atom_site_occupancy
  Ho  Ho0  1  0.996830  0.658096  0.031627  1
  Lu  Lu1  1  0.342264  0.002202  0.468627  1
  Lu  Lu2  1  0.497752  0.842258  0.718382  1
  Lu  Lu3  1  0.501934  0.157961  0.218936  1
  Lu  Lu4  1  0.842235  0.497808  0.281633  1
  Lu  Lu5  1  0.158043  0.501902  0.781090  1
  Lu  Lu6  1  0.657530  0.998008  0.968350  1
  Lu  Lu7  1  0.002188  0.342320  0.531458  1
  Ta  Ta8  1  0.328656  0.328182  0.999925  1
  Ta  Ta9  1  0.171748  0.828910  0.250429  1
  Ta  Ta10  1  0.828534  0.171478  0.749688  1
  Ta  Ta11  1  0.671631  0.671608  0.500061  1
  Ta  Ta12  1  0.152632  0.005447  0.873330  1
  Ta  Ta13  1  0.494250  0.652240  0.124099  1
  Ta  Ta14  1  0.505740  0.347934  0.623706  1
  Ta  Ta15  1  0.651789  0.493407  0.875519  1
  Ta  Ta16  1  0.348001  0.505787  0.376444  1
  Ta  Ta17  1  0.847960  0.994619  0.374241  1
  Ta  Ta18  1  0.005778  0.152353  0.126378  1
  Ta  Ta19  1  0.994432  0.848038  0.625948  1
  Si  Si20  1  0.204100  0.136271  0.680468  1
  Si  Si21  1  0.365025  0.703987  0.930380  1
  Si  Si22  1  0.636299  0.296197  0.430753  1
  Si  Si23  1  0.702841  0.362921  0.069151  1
  Si  Si24  1  0.296142  0.636323  0.569359  1
  Si  Si25  1  0.794984  0.865107  0.181657  1
  Si  Si26  1  0.136274  0.204013  0.319521  1
  Si  Si27  1  0.863622  0.796140  0.818730  1
  Si  Si28  1  0.296644  0.955335  0.064342  1
  Si  Si29  1  0.545148  0.796433  0.314553  1
  Si  Si30  1  0.454496  0.203657  0.814055  1
  Si  Si31  1  0.796273  0.545388  0.685518  1
  Si  Si32  1  0.204675  0.453998  0.186330  1
  Si  Si33  1  0.703712  0.045299  0.564318  1
  Si  Si34  1  0.954596  0.294534  0.935276  1
  Si  Si35  1  0.045243  0.703837  0.435714  1
