# generated using pymatgen
data_Tb6ZrTi(Co4P3)4
_symmetry_space_group_name_H-M   'P 1'
_cell_length_a   3.71774200
_cell_length_b   10.67007100
_cell_length_c   12.37871700
_cell_angle_alpha   90.00000000
_cell_angle_beta   90.00000000
_cell_angle_gamma   90.00000000
_symmetry_Int_Tables_number   1
_chemical_formula_structural   Tb6ZrTi(Co4P3)4
_chemical_formula_sum   'Tb6 Zr1 Ti1 Co16 P12'
_cell_volume   491.04601544
_cell_formula_units_Z   1
loop_
 _symmetry_equiv_pos_site_id
 _symmetry_equiv_pos_as_xyz
  1  'x, y, z'
loop_
 _atom_site_type_symbol
 _atom_site_label
 _atom_site_symmetry_multiplicity
 _atom_site_fract_x
 _atom_site_fract_y
 _atom_site_fract_z
 _atom_site_occupancy
  Tb  Tb0  1  0.000000  0.500000  0.525588  1
  Tb  Tb1  1  0.500000  0.000000  0.470152  1
  Tb  Tb2  1  0.500000  0.819434  0.204487  1
  Tb  Tb3  1  0.500000  0.180566  0.204487  1
  Tb  Tb4  1  0.000000  0.677861  0.795314  1
  Tb  Tb5  1  0.000000  0.322139  0.795314  1
  Zr  Zr6  1  0.000000  0.000000  0.843594  1
  Ti  Ti7  1  0.500000  0.500000  0.155784  1
  Co  Co8  1  0.500000  0.500000  0.703718  1
  Co  Co9  1  0.000000  0.000000  0.296612  1
  Co  Co10  1  0.000000  0.500000  0.989017  1
  Co  Co11  1  0.500000  0.000000  0.014927  1
  Co  Co12  1  0.500000  0.334917  0.996649  1
  Co  Co13  1  0.500000  0.665083  0.996649  1
  Co  Co14  1  0.000000  0.170807  0.009183  1
  Co  Co15  1  0.000000  0.829193  0.009183  1
  Co  Co16  1  0.500000  0.296547  0.431534  1
  Co  Co17  1  0.500000  0.703453  0.431534  1
  Co  Co18  1  0.000000  0.205464  0.565971  1
  Co  Co19  1  0.000000  0.794536  0.565971  1
  Co  Co20  1  0.500000  0.877517  0.701230  1
  Co  Co21  1  0.500000  0.122483  0.701230  1
  Co  Co22  1  0.000000  0.620682  0.294789  1
  Co  Co23  1  0.000000  0.379318  0.294789  1
  P  P24  1  0.500000  0.500000  0.884962  1
  P  P25  1  0.000000  0.000000  0.116495  1
  P  P26  1  0.500000  0.500000  0.353970  1
  P  P27  1  0.000000  0.000000  0.637716  1
  P  P28  1  0.500000  0.310497  0.614676  1
  P  P29  1  0.500000  0.689503  0.614676  1
  P  P30  1  0.000000  0.191353  0.383665  1
  P  P31  1  0.000000  0.808647  0.383665  1
  P  P32  1  0.500000  0.836759  0.896532  1
  P  P33  1  0.500000  0.163241  0.896532  1
  P  P34  1  0.000000  0.655343  0.109704  1
  P  P35  1  0.000000  0.344657  0.109704  1
