# generated using pymatgen
data_NdHoCoNi7B2
_symmetry_space_group_name_H-M   'P 1'
_cell_length_a   4.99369000
_cell_length_b   4.99448729
_cell_length_c   6.97109000
_cell_angle_alpha   90.00000000
_cell_angle_beta   90.00000000
_cell_angle_gamma   119.99471952
_symmetry_Int_Tables_number   1
_chemical_formula_structural   NdHoCoNi7B2
_chemical_formula_sum   'Nd1 Ho1 Co1 Ni7 B2'
_cell_volume   150.57987006
_cell_formula_units_Z   1
loop_
 _symmetry_equiv_pos_site_id
 _symmetry_equiv_pos_as_xyz
  1  'x, y, z'
loop_
 _atom_site_type_symbol
 _atom_site_label
 _atom_site_symmetry_multiplicity
 _atom_site_fract_x
 _atom_site_fract_y
 _atom_site_fract_z
 _atom_site_occupancy
  Nd  Nd0  1  0.000000  0.000000  0.001871  1
  Ho  Ho1  1  0.000000  0.000000  0.498424  1
  Co  Co2  1  0.500000  0.000000  0.298623  1
  Ni  Ni3  1  0.337285  0.674572  0.000594  1
  Ni  Ni4  1  0.662715  0.325428  0.000594  1
  Ni  Ni5  1  0.500000  0.500000  0.293703  1
  Ni  Ni6  1  0.000000  0.500000  0.293703  1
  Ni  Ni7  1  0.500000  0.000000  0.704349  1
  Ni  Ni8  1  0.500000  0.500000  0.705525  1
  Ni  Ni9  1  0.000000  0.500000  0.705525  1
  B  B10  1  0.664743  0.329484  0.498544  1
  B  B11  1  0.335257  0.670516  0.498544  1
