# generated using pymatgen
data_Th5Nb3(Co4P3)4
_symmetry_space_group_name_H-M   'P 1'
_cell_length_a   12.32798900
_cell_length_b   12.32798905
_cell_length_c   3.83331400
_cell_angle_alpha   90.00000000
_cell_angle_beta   90.00000000
_cell_angle_gamma   119.99999718
_symmetry_Int_Tables_number   1
_chemical_formula_structural   Th5Nb3(Co4P3)4
_chemical_formula_sum   'Th5 Nb3 Co16 P12'
_cell_volume   504.53293045
_cell_formula_units_Z   1
loop_
 _symmetry_equiv_pos_site_id
 _symmetry_equiv_pos_as_xyz
  1  'x, y, z'
loop_
 _atom_site_type_symbol
 _atom_site_label
 _atom_site_symmetry_multiplicity
 _atom_site_fract_x
 _atom_site_fract_y
 _atom_site_fract_z
 _atom_site_occupancy
  Th  Th0  1  0.813758  0.000000  0.500000  1
  Th  Th1  1  0.000000  0.813758  0.500000  1
  Th  Th2  1  0.186242  0.186242  0.500000  1
  Th  Th3  1  0.333333  0.666667  0.000000  1
  Th  Th4  1  0.666667  0.333333  0.000000  1
  Nb  Nb5  1  0.438134  0.000000  0.000000  1
  Nb  Nb6  1  0.000000  0.438134  0.000000  1
  Nb  Nb7  1  0.561866  0.561866  0.000000  1
  Co  Co8  1  0.278865  0.000000  0.500000  1
  Co  Co9  1  0.000000  0.278865  0.500000  1
  Co  Co10  1  0.721135  0.721135  0.500000  1
  Co  Co11  1  0.623031  0.804739  0.000000  1
  Co  Co12  1  0.195261  0.818293  0.000000  1
  Co  Co13  1  0.181707  0.376969  0.000000  1
  Co  Co14  1  0.376969  0.181707  0.000000  1
  Co  Co15  1  0.804739  0.623031  0.000000  1
  Co  Co16  1  0.818293  0.195261  0.000000  1
  Co  Co17  1  0.514872  0.874018  0.500000  1
  Co  Co18  1  0.125982  0.640854  0.500000  1
  Co  Co19  1  0.359146  0.485128  0.500000  1
  Co  Co20  1  0.485128  0.359146  0.500000  1
  Co  Co21  1  0.874018  0.514872  0.500000  1
  Co  Co22  1  0.640854  0.125982  0.500000  1
  Co  Co23  1  0.000000  0.000000  0.000000  1
  P  P24  1  0.183387  0.000000  0.000000  1
  P  P25  1  0.000000  0.183387  0.000000  1
  P  P26  1  0.816613  0.816613  0.000000  1
  P  P27  1  0.526731  0.692761  0.500000  1
  P  P28  1  0.307239  0.833970  0.500000  1
  P  P29  1  0.166030  0.473269  0.500000  1
  P  P30  1  0.473269  0.166030  0.500000  1
  P  P31  1  0.692761  0.526731  0.500000  1
  P  P32  1  0.833970  0.307239  0.500000  1
  P  P33  1  0.635021  0.000000  0.000000  1
  P  P34  1  0.000000  0.635021  0.000000  1
  P  P35  1  0.364979  0.364979  0.000000  1
