# generated using pymatgen
data_TbPrHoGa8Ag3
_symmetry_space_group_name_H-M   'P 1'
_cell_length_a   4.36939089
_cell_length_b   8.43269514
_cell_length_c   8.43269545
_cell_angle_alpha   68.99464269
_cell_angle_beta   74.98485497
_cell_angle_gamma   74.98485033
_symmetry_Int_Tables_number   1
_chemical_formula_structural   TbPrHoGa8Ag3
_chemical_formula_sum   'Tb1 Pr1 Ho1 Ga8 Ag3'
_cell_volume   275.35708076
_cell_formula_units_Z   1
loop_
 _symmetry_equiv_pos_site_id
 _symmetry_equiv_pos_as_xyz
  1  'x, y, z'
loop_
 _atom_site_type_symbol
 _atom_site_label
 _atom_site_symmetry_multiplicity
 _atom_site_fract_x
 _atom_site_fract_y
 _atom_site_fract_z
 _atom_site_occupancy
  Tb  Tb0  1  0.199928  0.800072  0.800072  1
  Pr  Pr1  1  0.500109  0.499891  0.499891  1
  Ho  Ho2  1  0.800194  0.199806  0.199806  1
  Ga  Ga3  1  0.355256  0.361054  0.928433  1
  Ga  Ga4  1  0.644765  0.638783  0.071688  1
  Ga  Ga5  1  0.355256  0.928433  0.361054  1
  Ga  Ga6  1  0.644765  0.071688  0.638783  1
  Ga  Ga7  1  0.160446  0.472188  0.206920  1
  Ga  Ga8  1  0.839681  0.527663  0.792976  1
  Ga  Ga9  1  0.160446  0.206920  0.472188  1
  Ga  Ga10  1  0.839681  0.792976  0.527663  1
  Ag  Ag11  1  0.499835  0.000165  0.000165  1
  Ag  Ag12  1  0.999819  0.806814  0.193547  1
  Ag  Ag13  1  0.999819  0.193547  0.806814  1
