# generated using pymatgen
data_Tb12In2CoOs3
_symmetry_space_group_name_H-M   'P 1'
_cell_length_a   8.51710367
_cell_length_b   8.51710402
_cell_length_c   8.51710310
_cell_angle_alpha   112.45280220
_cell_angle_beta   110.80509101
_cell_angle_gamma   105.24148530
_symmetry_Int_Tables_number   1
_chemical_formula_structural   Tb12In2CoOs3
_chemical_formula_sum   'Tb12 In2 Co1 Os3'
_cell_volume   473.58180140
_cell_formula_units_Z   1
loop_
 _symmetry_equiv_pos_site_id
 _symmetry_equiv_pos_as_xyz
  1  'x, y, z'
loop_
 _atom_site_type_symbol
 _atom_site_label
 _atom_site_symmetry_multiplicity
 _atom_site_fract_x
 _atom_site_fract_y
 _atom_site_fract_z
 _atom_site_occupancy
  Tb  Tb0  1  0.445281  0.242513  0.202768  1
  Tb  Tb1  1  0.552969  0.758096  0.794873  1
  Tb  Tb2  1  0.039745  0.242513  0.797232  1
  Tb  Tb3  1  0.963222  0.758096  0.205127  1
  Tb  Tb4  1  0.185663  0.283463  0.466555  1
  Tb  Tb5  1  0.816908  0.719108  0.533445  1
  Tb  Tb6  1  0.185663  0.719108  0.902200  1
  Tb  Tb7  1  0.816908  0.283463  0.097800  1
  Tb  Tb8  1  0.327928  0.642897  0.314969  1
  Tb  Tb9  1  0.673702  0.357922  0.684220  1
  Tb  Tb10  1  0.327928  0.012960  0.685031  1
  Tb  Tb11  1  0.673702  0.989481  0.315780  1
  In  In12  1  0.501562  0.501562  0.000000  1
  In  In13  1  0.998831  0.998831  0.000000  1
  Co  Co14  1  0.878315  0.378315  0.500000  1
  Os  Os15  1  0.331163  0.001724  0.329439  1
  Os  Os16  1  0.672284  0.001724  0.670561  1
  Os  Os17  1  0.108227  0.608227  0.500000  1
