# generated using pymatgen
data_Er3TmScOs7
_symmetry_space_group_name_H-M   'P 1'
_cell_length_a   5.38052203
_cell_length_b   5.38035728
_cell_length_c   8.84152101
_cell_angle_alpha   89.99760777
_cell_angle_beta   90.00438032
_cell_angle_gamma   120.01009667
_symmetry_Int_Tables_number   1
_chemical_formula_structural   Er3TmScOs7
_chemical_formula_sum   'Er3 Tm1 Sc1 Os7'
_cell_volume   221.64041194
_cell_formula_units_Z   1
loop_
 _symmetry_equiv_pos_site_id
 _symmetry_equiv_pos_as_xyz
  1  'x, y, z'
loop_
 _atom_site_type_symbol
 _atom_site_label
 _atom_site_symmetry_multiplicity
 _atom_site_fract_x
 _atom_site_fract_y
 _atom_site_fract_z
 _atom_site_occupancy
  Er  Er0  1  0.666672  0.333331  0.576791  1
  Er  Er1  1  0.333334  0.666654  0.423409  1
  Er  Er2  1  0.333322  0.666639  0.059953  1
  Tm  Tm3  1  0.666649  0.333335  0.939864  1
  Sc  Sc4  1  0.000014  0.000022  0.500010  1
  Os  Os5  1  0.000008  0.999989  0.000015  1
  Os  Os6  1  0.172658  0.345322  0.754967  1
  Os  Os7  1  0.172654  0.827359  0.754963  1
  Os  Os8  1  0.654686  0.827346  0.754964  1
  Os  Os9  1  0.827298  0.654604  0.245018  1
  Os  Os10  1  0.827304  0.172702  0.245023  1
  Os  Os11  1  0.345402  0.172697  0.245023  1
