# generated using pymatgen
data_Dy3Ho5Re3B24Rh
_symmetry_space_group_name_H-M   'P 1'
_cell_length_a   3.67364700
_cell_length_b   9.15239043
_cell_length_c   11.53149900
_cell_angle_alpha   90.16067979
_cell_angle_beta   90.00000000
_cell_angle_gamma   90.00000000
_symmetry_Int_Tables_number   1
_chemical_formula_structural   Dy3Ho5Re3B24Rh
_chemical_formula_sum   'Dy3 Ho5 Re3 B24 Rh1'
_cell_volume   387.71804935
_cell_formula_units_Z   1
loop_
 _symmetry_equiv_pos_site_id
 _symmetry_equiv_pos_as_xyz
  1  'x, y, z'
loop_
 _atom_site_type_symbol
 _atom_site_label
 _atom_site_symmetry_multiplicity
 _atom_site_fract_x
 _atom_site_fract_y
 _atom_site_fract_z
 _atom_site_occupancy
  Dy  Dy0  1  0.000000  0.318535  0.415426  1
  Dy  Dy1  1  0.000000  0.678244  0.590938  1
  Dy  Dy2  1  0.000000  0.826937  0.081484  1
  Ho  Ho3  1  0.000000  0.177165  0.912746  1
  Ho  Ho4  1  0.000000  0.943421  0.370046  1
  Ho  Ho5  1  0.000000  0.055757  0.628851  1
  Ho  Ho6  1  0.000000  0.441365  0.128978  1
  Ho  Ho7  1  0.000000  0.556564  0.871651  1
  Re  Re8  1  0.000000  0.362340  0.677899  1
  Re  Re9  1  0.000000  0.138505  0.179956  1
  Re  Re10  1  0.000000  0.861647  0.820820  1
  B  B11  1  0.500000  0.554155  0.433536  1
  B  B12  1  0.500000  0.446560  0.566805  1
  B  B13  1  0.500000  0.053580  0.066579  1
  B  B14  1  0.500000  0.947096  0.932633  1
  B  B15  1  0.500000  0.749122  0.420125  1
  B  B16  1  0.500000  0.250566  0.581111  1
  B  B17  1  0.500000  0.249286  0.081266  1
  B  B18  1  0.500000  0.751615  0.918740  1
  B  B19  1  0.500000  0.791027  0.265149  1
  B  B20  1  0.500000  0.208298  0.734137  1
  B  B21  1  0.500000  0.291752  0.235083  1
  B  B22  1  0.500000  0.708137  0.765915  1
  B  B23  1  0.500000  0.631871  0.184160  1
  B  B24  1  0.500000  0.369292  0.814166  1
  B  B25  1  0.500000  0.130853  0.314785  1
  B  B26  1  0.500000  0.868464  0.685574  1
  B  B27  1  0.500000  0.983162  0.211968  1
  B  B28  1  0.500000  0.017350  0.787070  1
  B  B29  1  0.500000  0.483433  0.287942  1
  B  B30  1  0.500000  0.517938  0.712485  1
  B  B31  1  0.500000  0.603716  0.029371  1
  B  B32  1  0.500000  0.397296  0.972109  1
  B  B33  1  0.500000  0.101924  0.470974  1
  B  B34  1  0.500000  0.894940  0.528231  1
  Rh  Rh35  1  0.000000  0.638085  0.321295  1
