# generated using pymatgen
data_Dy2Y10Tc3Pt
_symmetry_space_group_name_H-M   'P 1'
_cell_length_a   6.34261252
_cell_length_b   7.43791711
_cell_length_c   9.27393000
_cell_angle_alpha   90.00000000
_cell_angle_beta   90.00000000
_cell_angle_gamma   90.02925744
_symmetry_Int_Tables_number   1
_chemical_formula_structural   Dy2Y10Tc3Pt
_chemical_formula_sum   'Dy2 Y10 Tc3 Pt1'
_cell_volume   437.50525228
_cell_formula_units_Z   1
loop_
 _symmetry_equiv_pos_site_id
 _symmetry_equiv_pos_as_xyz
  1  'x, y, z'
loop_
 _atom_site_type_symbol
 _atom_site_label
 _atom_site_symmetry_multiplicity
 _atom_site_fract_x
 _atom_site_fract_y
 _atom_site_fract_z
 _atom_site_occupancy
  Dy  Dy0  1  0.870704  0.544874  0.250000  1
  Dy  Dy1  1  0.624985  0.039935  0.250000  1
  Y  Y2  1  0.329466  0.675779  0.067745  1
  Y  Y3  1  0.165328  0.177477  0.435400  1
  Y  Y4  1  0.668171  0.319034  0.558934  1
  Y  Y5  1  0.836707  0.826854  0.939651  1
  Y  Y6  1  0.668171  0.319034  0.941066  1
  Y  Y7  1  0.836707  0.826854  0.560349  1
  Y  Y8  1  0.329466  0.675779  0.432255  1
  Y  Y9  1  0.165328  0.177477  0.064600  1
  Y  Y10  1  0.129846  0.455168  0.750000  1
  Y  Y11  1  0.369947  0.964022  0.750000  1
  Tc  Tc12  1  0.034158  0.884129  0.250000  1
  Tc  Tc13  1  0.467558  0.385279  0.250000  1
  Tc  Tc14  1  0.956943  0.114618  0.750000  1
  Pt  Pt15  1  0.546512  0.613687  0.750000  1
