# generated using pymatgen
data_Y2GaGe3(PRh4)3
_symmetry_space_group_name_H-M   'P 1'
_cell_length_a   9.84762200
_cell_length_b   9.84762129
_cell_length_c   3.86573700
_cell_angle_alpha   90.00000000
_cell_angle_beta   90.00000000
_cell_angle_gamma   119.99999656
_symmetry_Int_Tables_number   1
_chemical_formula_structural   Y2GaGe3(PRh4)3
_chemical_formula_sum   'Y2 Ga1 Ge3 P3 Rh12'
_cell_volume   324.65766390
_cell_formula_units_Z   1
loop_
 _symmetry_equiv_pos_site_id
 _symmetry_equiv_pos_as_xyz
  1  'x, y, z'
loop_
 _atom_site_type_symbol
 _atom_site_label
 _atom_site_symmetry_multiplicity
 _atom_site_fract_x
 _atom_site_fract_y
 _atom_site_fract_z
 _atom_site_occupancy
  Y  Y0  1  0.333333  0.666667  0.738234  1
  Y  Y1  1  0.666667  0.333333  0.239062  1
  Ga  Ga2  1  0.000000  0.000000  0.732740  1
  Ge  Ge3  1  0.402075  0.285801  0.738700  1
  Ge  Ge4  1  0.714199  0.116274  0.738700  1
  Ge  Ge5  1  0.883726  0.597925  0.738700  1
  P  P6  1  0.599272  0.711249  0.237994  1
  P  P7  1  0.288751  0.888023  0.237994  1
  P  P8  1  0.111977  0.400728  0.237994  1
  Rh  Rh9  1  0.441240  0.057788  0.738382  1
  Rh  Rh10  1  0.942212  0.383453  0.738382  1
  Rh  Rh11  1  0.616547  0.558760  0.738382  1
  Rh  Rh12  1  0.546979  0.930606  0.238320  1
  Rh  Rh13  1  0.069394  0.616373  0.238320  1
  Rh  Rh14  1  0.383627  0.453021  0.238320  1
  Rh  Rh15  1  0.155071  0.287845  0.738099  1
  Rh  Rh16  1  0.712155  0.867226  0.738099  1
  Rh  Rh17  1  0.132774  0.844929  0.738099  1
  Rh  Rh18  1  0.857393  0.752058  0.238493  1
  Rh  Rh19  1  0.247942  0.105335  0.238493  1
  Rh  Rh20  1  0.894665  0.142607  0.238493  1
