# generated using pymatgen
data_Ca4Al18IrPd5
_symmetry_space_group_name_H-M   'P 1'
_cell_length_a   7.64602552
_cell_length_b   7.64602511
_cell_length_c   9.54764001
_cell_angle_alpha   90.02193391
_cell_angle_beta   90.02193323
_cell_angle_gamma   119.51734174
_symmetry_Int_Tables_number   1
_chemical_formula_structural   Ca4Al18IrPd5
_chemical_formula_sum   'Ca4 Al18 Ir1 Pd5'
_cell_volume   485.72421306
_cell_formula_units_Z   1
loop_
 _symmetry_equiv_pos_site_id
 _symmetry_equiv_pos_as_xyz
  1  'x, y, z'
loop_
 _atom_site_type_symbol
 _atom_site_label
 _atom_site_symmetry_multiplicity
 _atom_site_fract_x
 _atom_site_fract_y
 _atom_site_fract_z
 _atom_site_occupancy
  Ca  Ca0  1  0.996049  0.670722  0.251051  1
  Ca  Ca1  1  0.003951  0.329278  0.748949  1
  Ca  Ca2  1  0.670722  0.996049  0.251051  1
  Ca  Ca3  1  0.329278  0.003951  0.748949  1
  Al  Al4  1  0.129428  0.129428  0.252173  1
  Al  Al5  1  0.870572  0.870572  0.747827  1
  Al  Al6  1  0.001070  0.334957  0.077511  1
  Al  Al7  1  0.998930  0.665043  0.922489  1
  Al  Al8  1  0.000215  0.668994  0.574833  1
  Al  Al9  1  0.331006  0.999785  0.425167  1
  Al  Al10  1  0.999785  0.331006  0.425167  1
  Al  Al11  1  0.668994  0.000215  0.574833  1
  Al  Al12  1  0.665043  0.998930  0.922489  1
  Al  Al13  1  0.334957  0.001070  0.077511  1
  Al  Al14  1  0.329388  0.329388  0.551548  1
  Al  Al15  1  0.670612  0.670612  0.448452  1
  Al  Al16  1  0.666623  0.666623  0.053601  1
  Al  Al17  1  0.333377  0.333377  0.946399  1
  Al  Al18  1  0.339983  0.544625  0.250828  1
  Al  Al19  1  0.660017  0.455375  0.749172  1
  Al  Al20  1  0.544625  0.339983  0.250828  1
  Al  Al21  1  0.455375  0.660017  0.749172  1
  Ir  Ir22  1  0.000000  0.000000  0.500000  1
  Pd  Pd23  1  0.671195  0.328805  0.000000  1
  Pd  Pd24  1  0.328805  0.671195  0.000000  1
  Pd  Pd25  1  0.328995  0.671005  0.500000  1
  Pd  Pd26  1  0.671005  0.328995  0.500000  1
  Pd  Pd27  1  0.000000  0.000000  0.000000  1
