# generated using pymatgen
data_YHo7Sc12Si15Tc
_symmetry_space_group_name_H-M   'P 1'
_cell_length_a   7.06932062
_cell_length_b   7.43091058
_cell_length_c   13.92137603
_cell_angle_alpha   90.00673656
_cell_angle_beta   90.00222018
_cell_angle_gamma   90.21098601
_symmetry_Int_Tables_number   1
_chemical_formula_structural   YHo7Sc12Si15Tc
_chemical_formula_sum   'Y1 Ho7 Sc12 Si15 Tc1'
_cell_volume   731.30565317
_cell_formula_units_Z   1
loop_
 _symmetry_equiv_pos_site_id
 _symmetry_equiv_pos_as_xyz
  1  'x, y, z'
loop_
 _atom_site_type_symbol
 _atom_site_label
 _atom_site_symmetry_multiplicity
 _atom_site_fract_x
 _atom_site_fract_y
 _atom_site_fract_z
 _atom_site_occupancy
  Y  Y0  1  0.011428  0.178349  0.095826  1
  Ho  Ho1  1  0.991263  0.827230  0.903626  1
  Ho  Ho2  1  0.488975  0.676193  0.903982  1
  Ho  Ho3  1  0.991303  0.827314  0.596313  1
  Ho  Ho4  1  0.510742  0.322680  0.096176  1
  Ho  Ho5  1  0.011566  0.178548  0.404008  1
  Ho  Ho6  1  0.510740  0.322615  0.403869  1
  Ho  Ho7  1  0.488921  0.676233  0.596015  1
  Sc  Sc8  1  0.156550  0.499469  0.749986  1
  Sc  Sc9  1  0.838232  0.494955  0.250081  1
  Sc  Sc10  1  0.338887  0.005315  0.250075  1
  Sc  Sc11  1  0.668242  0.998751  0.749990  1
  Sc  Sc12  1  0.316990  0.171864  0.627980  1
  Sc  Sc13  1  0.671550  0.825677  0.374154  1
  Sc  Sc14  1  0.171311  0.677923  0.374065  1
  Sc  Sc15  1  0.671475  0.825625  0.125910  1
  Sc  Sc16  1  0.837460  0.319756  0.627393  1
  Sc  Sc17  1  0.317056  0.171859  0.871975  1
  Sc  Sc18  1  0.837367  0.319853  0.872499  1
  Sc  Sc19  1  0.171316  0.677885  0.125971  1
  Si  Si20  1  0.967980  0.884412  0.250142  1
  Si  Si21  1  0.469803  0.613550  0.250028  1
  Si  Si22  1  0.529694  0.389145  0.749990  1
  Si  Si23  1  0.286798  0.867099  0.749995  1
  Si  Si24  1  0.713005  0.129338  0.250151  1
  Si  Si25  1  0.214482  0.369865  0.250233  1
  Si  Si26  1  0.779956  0.628974  0.749985  1
  Si  Si27  1  0.160426  0.468687  0.536879  1
  Si  Si28  1  0.843915  0.535770  0.461565  1
  Si  Si29  1  0.343903  0.965664  0.460010  1
  Si  Si30  1  0.843737  0.536203  0.038338  1
  Si  Si31  1  0.655737  0.033877  0.538832  1
  Si  Si32  1  0.160521  0.469019  0.962973  1
  Si  Si33  1  0.655631  0.033805  0.961090  1
  Si  Si34  1  0.344410  0.965342  0.039914  1
  Tc  Tc35  1  0.028627  0.111157  0.749982  1
