# generated using pymatgen
data_Rb12Na8Ta(TiP4)3
_symmetry_space_group_name_H-M   'P 1'
_cell_length_a   10.58158449
_cell_length_b   10.58158351
_cell_length_c   15.44939277
_cell_angle_alpha   90.00000744
_cell_angle_beta   90.00000081
_cell_angle_gamma   142.53703410
_symmetry_Int_Tables_number   1
_chemical_formula_structural   Rb12Na8Ta(TiP4)3
_chemical_formula_sum   'Rb12 Na8 Ta1 Ti3 P12'
_cell_volume   1052.18918108
_cell_formula_units_Z   1
loop_
 _symmetry_equiv_pos_site_id
 _symmetry_equiv_pos_as_xyz
  1  'x, y, z'
loop_
 _atom_site_type_symbol
 _atom_site_label
 _atom_site_symmetry_multiplicity
 _atom_site_fract_x
 _atom_site_fract_y
 _atom_site_fract_z
 _atom_site_occupancy
  Rb  Rb0  1  0.944934  0.608533  0.823258  1
  Rb  Rb1  1  0.556943  0.893223  0.324944  1
  Rb  Rb2  1  0.391467  0.055066  0.176742  1
  Rb  Rb3  1  0.060341  0.391928  0.175112  1
  Rb  Rb4  1  0.892749  0.556557  0.325682  1
  Rb  Rb5  1  0.443443  0.107251  0.674318  1
  Rb  Rb6  1  0.608072  0.939659  0.824888  1
  Rb  Rb7  1  0.274999  0.274767  0.316521  1
  Rb  Rb8  1  0.775544  0.778877  0.186028  1
  Rb  Rb9  1  0.221123  0.224456  0.813972  1
  Rb  Rb10  1  0.725233  0.725001  0.683479  1
  Rb  Rb11  1  0.106777  0.443057  0.675056  1
  Na  Na12  1  0.920572  0.079428  0.000000  1
  Na  Na13  1  0.578870  0.421130  0.500000  1
  Na  Na14  1  0.078772  0.921228  0.000000  1
  Na  Na15  1  0.421008  0.578992  0.500000  1
  Na  Na16  1  0.755648  0.244352  0.000000  1
  Na  Na17  1  0.745517  0.254483  0.500000  1
  Na  Na18  1  0.246365  0.753635  0.000000  1
  Na  Na19  1  0.254752  0.745248  0.500000  1
  Ta  Ta20  1  0.581841  0.418159  0.000000  1
  Ti  Ti21  1  0.915623  0.084377  0.500000  1
  Ti  Ti22  1  0.415416  0.584584  0.000000  1
  Ti  Ti23  1  0.084301  0.915699  0.500000  1
  P  P24  1  0.856628  0.553659  0.092289  1
  P  P25  1  0.446341  0.143372  0.907711  1
  P  P26  1  0.640477  0.945898  0.591770  1
  P  P27  1  0.945923  0.640522  0.591600  1
  P  P28  1  0.138507  0.445261  0.906997  1
  P  P29  1  0.554739  0.861493  0.093003  1
  P  P30  1  0.359478  0.054077  0.408400  1
  P  P31  1  0.188451  0.188256  0.582085  1
  P  P32  1  0.694247  0.690945  0.915230  1
  P  P33  1  0.309055  0.305753  0.084770  1
  P  P34  1  0.054102  0.359523  0.408230  1
  P  P35  1  0.811744  0.811549  0.417915  1
