# generated using pymatgen
data_Zr3Al3ZnPt2
_symmetry_space_group_name_H-M   'P 1'
_cell_length_a   6.75939800
_cell_length_b   6.75939817
_cell_length_c   4.07914100
_cell_angle_alpha   90.00000000
_cell_angle_beta   90.00000000
_cell_angle_gamma   120.00000896
_symmetry_Int_Tables_number   1
_chemical_formula_structural   Zr3Al3ZnPt2
_chemical_formula_sum   'Zr3 Al3 Zn1 Pt2'
_cell_volume   161.40439584
_cell_formula_units_Z   1
loop_
 _symmetry_equiv_pos_site_id
 _symmetry_equiv_pos_as_xyz
  1  'x, y, z'
loop_
 _atom_site_type_symbol
 _atom_site_label
 _atom_site_symmetry_multiplicity
 _atom_site_fract_x
 _atom_site_fract_y
 _atom_site_fract_z
 _atom_site_occupancy
  Zr  Zr0  1  0.998016  0.414445  0.500000  1
  Zr  Zr1  1  0.585555  0.583571  0.500000  1
  Zr  Zr2  1  0.416429  0.001984  0.500000  1
  Al  Al3  1  0.995764  0.751194  0.000000  1
  Al  Al4  1  0.248806  0.244570  0.000000  1
  Al  Al5  1  0.755430  0.004236  0.000000  1
  Zn  Zn6  1  0.333333  0.666667  0.000000  1
  Pt  Pt7  1  0.666667  0.333333  0.000000  1
  Pt  Pt8  1  0.000000  0.000000  0.500000  1
