# generated using pymatgen
data_Tb7Dy2HoIn6
_symmetry_space_group_name_H-M   'P 1'
_cell_length_a   6.02979357
_cell_length_b   9.20449436
_cell_length_c   9.20673056
_cell_angle_alpha   83.72480517
_cell_angle_beta   70.80342115
_cell_angle_gamma   70.80174763
_symmetry_Int_Tables_number   1
_chemical_formula_structural   Tb7Dy2HoIn6
_chemical_formula_sum   'Tb7 Dy2 Ho1 In6'
_cell_volume   455.73386366
_cell_formula_units_Z   1
loop_
 _symmetry_equiv_pos_site_id
 _symmetry_equiv_pos_as_xyz
  1  'x, y, z'
loop_
 _atom_site_type_symbol
 _atom_site_label
 _atom_site_symmetry_multiplicity
 _atom_site_fract_x
 _atom_site_fract_y
 _atom_site_fract_z
 _atom_site_occupancy
  Tb  Tb0  1  0.719560  0.862543  0.698016  1
  Tb  Tb1  1  0.280684  0.137297  0.301938  1
  Tb  Tb2  1  0.780422  0.301824  0.137577  1
  Tb  Tb3  1  0.219385  0.698057  0.862654  1
  Tb  Tb4  1  0.580978  0.698413  0.137740  1
  Tb  Tb5  1  0.418744  0.301628  0.862424  1
  Tb  Tb6  1  0.081150  0.137652  0.698523  1
  Dy  Dy7  1  0.918980  0.862577  0.301274  1
  Dy  Dy8  1  0.749927  0.499836  0.500216  1
  Ho  Ho9  1  0.250014  0.500378  0.499656  1
  In  In10  1  0.161932  0.500306  0.176987  1
  In  In11  1  0.838580  0.499981  0.823042  1
  In  In12  1  0.338049  0.823079  0.499702  1
  In  In13  1  0.661700  0.176599  0.499886  1
  In  In14  1  0.249924  0.999446  0.000640  1
  In  In15  1  0.749972  0.000386  0.999725  1
