# generated using pymatgen
data_Tb3Ho4Lu(CdIr)2
_symmetry_space_group_name_H-M   'P 1'
_cell_length_a   9.60251120
_cell_length_b   9.60251134
_cell_length_c   9.59471000
_cell_angle_alpha   60.02687122
_cell_angle_beta   60.02687077
_cell_angle_gamma   59.94625130
_symmetry_Int_Tables_number   1
_chemical_formula_structural   Tb3Ho4Lu(CdIr)2
_chemical_formula_sum   'Tb6 Ho8 Lu2 Cd4 Ir4'
_cell_volume   625.58440101
_cell_formula_units_Z   2
loop_
 _symmetry_equiv_pos_site_id
 _symmetry_equiv_pos_as_xyz
  1  'x, y, z'
loop_
 _atom_site_type_symbol
 _atom_site_label
 _atom_site_symmetry_multiplicity
 _atom_site_fract_x
 _atom_site_fract_y
 _atom_site_fract_z
 _atom_site_occupancy
  Tb  Tb0  1  0.189259  0.810741  0.810741  1
  Tb  Tb1  1  0.810741  0.189259  0.189259  1
  Tb  Tb2  1  0.810741  0.189259  0.810741  1
  Tb  Tb3  1  0.189259  0.810741  0.189259  1
  Tb  Tb4  1  0.810795  0.810795  0.189205  1
  Tb  Tb5  1  0.189205  0.189205  0.810795  1
  Ho  Ho6  1  0.598674  0.598674  0.599430  1
  Ho  Ho7  1  0.598674  0.598674  0.203224  1
  Ho  Ho8  1  0.599430  0.203224  0.598674  1
  Ho  Ho9  1  0.203224  0.599430  0.598674  1
  Ho  Ho10  1  0.062071  0.437929  0.437929  1
  Ho  Ho11  1  0.437929  0.062071  0.062071  1
  Ho  Ho12  1  0.437929  0.062071  0.437929  1
  Ho  Ho13  1  0.062071  0.437929  0.062071  1
  Lu  Lu14  1  0.438170  0.438170  0.061830  1
  Lu  Lu15  1  0.061830  0.061830  0.438170  1
  Cd  Cd16  1  0.830440  0.830440  0.830209  1
  Cd  Cd17  1  0.830440  0.830440  0.508912  1
  Cd  Cd18  1  0.830209  0.508912  0.830440  1
  Cd  Cd19  1  0.508912  0.830209  0.830440  1
  Ir  Ir20  1  0.391989  0.391989  0.390858  1
  Ir  Ir21  1  0.391989  0.391989  0.825165  1
  Ir  Ir22  1  0.390858  0.825165  0.391989  1
  Ir  Ir23  1  0.825165  0.390858  0.391989  1
