# generated using pymatgen
data_Ta5TiAl4(RhC)2
_symmetry_space_group_name_H-M   'P 1'
_cell_length_a   8.29921139
_cell_length_b   8.29921228
_cell_length_c   8.28111400
_cell_angle_alpha   60.07211950
_cell_angle_beta   60.07211597
_cell_angle_gamma   59.85578341
_symmetry_Int_Tables_number   1
_chemical_formula_structural   Ta5TiAl4(RhC)2
_chemical_formula_sum   'Ta10 Ti2 Al8 Rh4 C4'
_cell_volume   403.31410010
_cell_formula_units_Z   2
loop_
 _symmetry_equiv_pos_site_id
 _symmetry_equiv_pos_as_xyz
  1  'x, y, z'
loop_
 _atom_site_type_symbol
 _atom_site_label
 _atom_site_symmetry_multiplicity
 _atom_site_fract_x
 _atom_site_fract_y
 _atom_site_fract_z
 _atom_site_occupancy
  Ta  Ta0  1  0.936520  0.936520  0.563480  1
  Ta  Ta1  1  0.687365  0.313361  0.313044  1
  Ta  Ta2  1  0.313361  0.687365  0.686230  1
  Ta  Ta3  1  0.686520  0.686520  0.313480  1
  Ta  Ta4  1  0.687365  0.313361  0.686230  1
  Ta  Ta5  1  0.313361  0.687365  0.313044  1
  Ta  Ta6  1  0.563770  0.936956  0.562635  1
  Ta  Ta7  1  0.563770  0.936956  0.936639  1
  Ta  Ta8  1  0.936956  0.563770  0.562635  1
  Ta  Ta9  1  0.936956  0.563770  0.936639  1
  Ti  Ti10  1  0.314076  0.314076  0.685924  1
  Ti  Ti11  1  0.564076  0.564076  0.935924  1
  Al  Al12  1  0.915113  0.251110  0.916889  1
  Al  Al13  1  0.333111  0.333111  0.998890  1
  Al  Al14  1  0.000564  0.333467  0.332984  1
  Al  Al15  1  0.333111  0.333111  0.334887  1
  Al  Al16  1  0.251110  0.915113  0.916889  1
  Al  Al17  1  0.917016  0.917016  0.916533  1
  Al  Al18  1  0.917016  0.917016  0.249436  1
  Al  Al19  1  0.333467  0.000564  0.332984  1
  Rh  Rh20  1  0.124727  0.624652  0.125310  1
  Rh  Rh21  1  0.124690  0.124690  0.625348  1
  Rh  Rh22  1  0.624652  0.124727  0.125310  1
  Rh  Rh23  1  0.124690  0.124690  0.125273  1
  C  C24  1  0.620530  0.127790  0.625840  1
  C  C25  1  0.624160  0.624160  0.122210  1
  C  C26  1  0.127790  0.620530  0.625840  1
  C  C27  1  0.624160  0.624160  0.629470  1
