# generated using pymatgen
data_NdSm2Er(WN3)4
_symmetry_space_group_name_H-M   'P 1'
_cell_length_a   7.36657869
_cell_length_b   7.36657740
_cell_length_c   6.31387405
_cell_angle_alpha   74.76634126
_cell_angle_beta   74.76635314
_cell_angle_gamma   82.89125043
_symmetry_Int_Tables_number   1
_chemical_formula_structural   NdSm2Er(WN3)4
_chemical_formula_sum   'Nd1 Sm2 Er1 W4 N12'
_cell_volume   318.42481426
_cell_formula_units_Z   1
loop_
 _symmetry_equiv_pos_site_id
 _symmetry_equiv_pos_as_xyz
  1  'x, y, z'
loop_
 _atom_site_type_symbol
 _atom_site_label
 _atom_site_symmetry_multiplicity
 _atom_site_fract_x
 _atom_site_fract_y
 _atom_site_fract_z
 _atom_site_occupancy
  Nd  Nd0  1  0.700301  0.299699  0.750000  1
  Sm  Sm1  1  0.297318  0.702682  0.250000  1
  Sm  Sm2  1  0.912642  0.087358  0.250000  1
  Er  Er3  1  0.091353  0.908647  0.750000  1
  W  W4  1  0.378566  0.200528  0.243879  1
  W  W5  1  0.618818  0.799849  0.761024  1
  W  W6  1  0.799472  0.621434  0.256121  1
  W  W7  1  0.200151  0.381182  0.738976  1
  N  N8  1  0.618530  0.111578  0.159996  1
  N  N9  1  0.359980  0.356686  0.455642  1
  N  N10  1  0.006462  0.215263  0.843305  1
  N  N11  1  0.377375  0.889893  0.838136  1
  N  N12  1  0.784737  0.993538  0.656695  1
  N  N13  1  0.110107  0.622625  0.661864  1
  N  N14  1  0.888422  0.381470  0.340004  1
  N  N15  1  0.644513  0.652742  0.538804  1
  N  N16  1  0.643314  0.640020  0.044358  1
  N  N17  1  0.347258  0.355487  0.961196  1
  N  N18  1  0.000389  0.779713  0.142589  1
  N  N19  1  0.220287  0.999611  0.357411  1
