# generated using pymatgen
data_Y3ErSi4OsRh3
_symmetry_space_group_name_H-M   'P 1'
_cell_length_a   4.27598700
_cell_length_b   6.92353850
_cell_length_c   7.32974054
_cell_angle_alpha   89.67234379
_cell_angle_beta   90.00000000
_cell_angle_gamma   90.00000000
_symmetry_Int_Tables_number   1
_chemical_formula_structural   Y3ErSi4OsRh3
_chemical_formula_sum   'Y3 Er1 Si4 Os1 Rh3'
_cell_volume   216.99313176
_cell_formula_units_Z   1
loop_
 _symmetry_equiv_pos_site_id
 _symmetry_equiv_pos_as_xyz
  1  'x, y, z'
loop_
 _atom_site_type_symbol
 _atom_site_label
 _atom_site_symmetry_multiplicity
 _atom_site_fract_x
 _atom_site_fract_y
 _atom_site_fract_z
 _atom_site_occupancy
  Y  Y0  1  0.250000  0.496044  0.690383  1
  Y  Y1  1  0.750000  0.506159  0.311182  1
  Y  Y2  1  0.750000  0.000887  0.184305  1
  Er  Er3  1  0.250000  0.996484  0.812128  1
  Si  Si4  1  0.250000  0.298147  0.105337  1
  Si  Si5  1  0.750000  0.704033  0.885910  1
  Si  Si6  1  0.250000  0.799996  0.403866  1
  Si  Si7  1  0.750000  0.197432  0.605230  1
  Os  Os8  1  0.750000  0.845585  0.570193  1
  Rh  Rh9  1  0.250000  0.154903  0.432954  1
  Rh  Rh10  1  0.750000  0.342937  0.930621  1
  Rh  Rh11  1  0.250000  0.657393  0.067890  1
