# generated using pymatgen
data_Y8GeAsBr12
_symmetry_space_group_name_H-M   'P 1'
_cell_length_a   4.08030300
_cell_length_b   13.26123154
_cell_length_c   14.05626276
_cell_angle_alpha   89.88026481
_cell_angle_beta   90.00000000
_cell_angle_gamma   90.00000000
_symmetry_Int_Tables_number   1
_chemical_formula_structural   Y8GeAsBr12
_chemical_formula_sum   'Y8 Ge1 As1 Br12'
_cell_volume   760.58050838
_cell_formula_units_Z   1
loop_
 _symmetry_equiv_pos_site_id
 _symmetry_equiv_pos_as_xyz
  1  'x, y, z'
loop_
 _atom_site_type_symbol
 _atom_site_label
 _atom_site_symmetry_multiplicity
 _atom_site_fract_x
 _atom_site_fract_y
 _atom_site_fract_z
 _atom_site_occupancy
  Y  Y0  1  0.500000  0.118286  0.341132  1
  Y  Y1  1  0.500000  0.881714  0.658868  1
  Y  Y2  1  0.500000  0.619281  0.160286  1
  Y  Y3  1  0.500000  0.380719  0.839714  1
  Y  Y4  1  0.000000  0.116789  0.577418  1
  Y  Y5  1  0.000000  0.883211  0.422582  1
  Y  Y6  1  0.000000  0.619358  0.920693  1
  Y  Y7  1  0.000000  0.380642  0.079307  1
  Ge  Ge8  1  0.500000  0.500000  0.000000  1
  As  As9  1  0.500000  0.000000  0.500000  1
  Br  Br10  1  0.500000  0.243952  0.162879  1
  Br  Br11  1  0.500000  0.756048  0.837121  1
  Br  Br12  1  0.500000  0.744294  0.337372  1
  Br  Br13  1  0.500000  0.255706  0.662628  1
  Br  Br14  1  0.000000  0.254764  0.411569  1
  Br  Br15  1  0.000000  0.745236  0.588431  1
  Br  Br16  1  0.000000  0.755231  0.088611  1
  Br  Br17  1  0.000000  0.244769  0.911389  1
  Br  Br18  1  0.000000  0.001593  0.243913  1
  Br  Br19  1  0.000000  0.998407  0.756087  1
  Br  Br20  1  0.000000  0.501667  0.256753  1
  Br  Br21  1  0.000000  0.498333  0.743247  1
