# generated using pymatgen
data_U2Co4Tc8P7
_symmetry_space_group_name_H-M   'P 1'
_cell_length_a   9.35493722
_cell_length_b   9.43219487
_cell_length_c   3.77531400
_cell_angle_alpha   90.00000000
_cell_angle_beta   90.00000000
_cell_angle_gamma   120.24895527
_symmetry_Int_Tables_number   1
_chemical_formula_structural   U2Co4Tc8P7
_chemical_formula_sum   'U2 Co4 Tc8 P7'
_cell_volume   287.76792740
_cell_formula_units_Z   1
loop_
 _symmetry_equiv_pos_site_id
 _symmetry_equiv_pos_as_xyz
  1  'x, y, z'
loop_
 _atom_site_type_symbol
 _atom_site_label
 _atom_site_symmetry_multiplicity
 _atom_site_fract_x
 _atom_site_fract_y
 _atom_site_fract_z
 _atom_site_occupancy
  U  U0  1  0.002000  0.003367  0.000000  1
  U  U1  1  0.332780  0.661498  0.500000  1
  Co  Co2  1  0.303369  0.906065  0.000000  1
  Co  Co3  1  0.821919  0.606130  0.000000  1
  Co  Co4  1  0.398022  0.211970  0.000000  1
  Co  Co5  1  0.780830  0.181094  0.000000  1
  Tc  Tc6  1  0.101049  0.405412  0.000000  1
  Tc  Tc7  1  0.596629  0.699232  0.000000  1
  Tc  Tc8  1  0.053156  0.773649  0.500000  1
  Tc  Tc9  1  0.224970  0.267584  0.500000  1
  Tc  Tc10  1  0.723711  0.953675  0.500000  1
  Tc  Tc11  1  0.872343  0.425641  0.500000  1
  Tc  Tc12  1  0.573887  0.448781  0.500000  1
  Tc  Tc13  1  0.547599  0.117362  0.500000  1
  P  P14  1  0.780390  0.731623  0.500000  1
  P  P15  1  0.270766  0.043644  0.500000  1
  P  P16  1  0.951076  0.223102  0.500000  1
  P  P17  1  0.668458  0.336156  0.000000  1
  P  P18  1  0.078303  0.640823  0.000000  1
  P  P19  1  0.368466  0.435041  0.000000  1
  P  P20  1  0.550277  0.928146  0.000000  1
