# generated using pymatgen
data_Nb3Fe2ReN
_symmetry_space_group_name_H-M   'P 1'
_cell_length_a   8.14822402
_cell_length_b   8.14822378
_cell_length_c   8.14822400
_cell_angle_alpha   59.99999911
_cell_angle_beta   60.00000007
_cell_angle_gamma   60.00000377
_symmetry_Int_Tables_number   1
_chemical_formula_structural   Nb3Fe2ReN
_chemical_formula_sum   'Nb12 Fe8 Re4 N4'
_cell_volume   382.53738049
_cell_formula_units_Z   4
loop_
 _symmetry_equiv_pos_site_id
 _symmetry_equiv_pos_as_xyz
  1  'x, y, z'
loop_
 _atom_site_type_symbol
 _atom_site_label
 _atom_site_symmetry_multiplicity
 _atom_site_fract_x
 _atom_site_fract_y
 _atom_site_fract_z
 _atom_site_occupancy
  Nb  Nb0  1  0.806147  0.806147  0.193853  1
  Nb  Nb1  1  0.193853  0.193853  0.806147  1
  Nb  Nb2  1  0.806147  0.193853  0.806147  1
  Nb  Nb3  1  0.193853  0.806147  0.193853  1
  Nb  Nb4  1  0.193853  0.806147  0.806147  1
  Nb  Nb5  1  0.806147  0.193853  0.193853  1
  Nb  Nb6  1  0.443853  0.443853  0.056147  1
  Nb  Nb7  1  0.056147  0.056147  0.443853  1
  Nb  Nb8  1  0.443853  0.056147  0.443853  1
  Nb  Nb9  1  0.056147  0.443853  0.056147  1
  Nb  Nb10  1  0.056147  0.443853  0.443853  1
  Nb  Nb11  1  0.443853  0.056147  0.056147  1
  Fe  Fe12  1  0.731180  0.422940  0.422940  1
  Fe  Fe13  1  0.422940  0.731180  0.422940  1
  Fe  Fe14  1  0.422940  0.422940  0.731180  1
  Fe  Fe15  1  0.422940  0.422940  0.422940  1
  Fe  Fe16  1  0.518820  0.827060  0.827060  1
  Fe  Fe17  1  0.827060  0.518820  0.827060  1
  Fe  Fe18  1  0.827060  0.827060  0.518820  1
  Fe  Fe19  1  0.827060  0.827060  0.827060  1
  Re  Re20  1  0.125000  0.625000  0.625000  1
  Re  Re21  1  0.625000  0.125000  0.625000  1
  Re  Re22  1  0.625000  0.625000  0.125000  1
  Re  Re23  1  0.625000  0.625000  0.625000  1
  N  N24  1  0.625000  0.125000  0.125000  1
  N  N25  1  0.125000  0.625000  0.125000  1
  N  N26  1  0.125000  0.125000  0.625000  1
  N  N27  1  0.125000  0.125000  0.125000  1
