# generated using pymatgen
data_TmLu2Al3GeAu2
_symmetry_space_group_name_H-M   'P 1'
_cell_length_a   6.96209784
_cell_length_b   6.96968218
_cell_length_c   4.26912100
_cell_angle_alpha   90.00000000
_cell_angle_beta   90.00000000
_cell_angle_gamma   120.08422566
_symmetry_Int_Tables_number   1
_chemical_formula_structural   TmLu2Al3GeAu2
_chemical_formula_sum   'Tm1 Lu2 Al3 Ge1 Au2'
_cell_volume   179.24744525
_cell_formula_units_Z   1
loop_
 _symmetry_equiv_pos_site_id
 _symmetry_equiv_pos_as_xyz
  1  'x, y, z'
loop_
 _atom_site_type_symbol
 _atom_site_label
 _atom_site_symmetry_multiplicity
 _atom_site_fract_x
 _atom_site_fract_y
 _atom_site_fract_z
 _atom_site_occupancy
  Tm  Tm0  1  0.421988  0.422498  0.500000  1
  Lu  Lu1  1  0.577594  0.998994  0.500000  1
  Lu  Lu2  1  0.001376  0.578861  0.500000  1
  Al  Al3  1  0.751328  0.761798  0.000000  1
  Al  Al4  1  0.238564  0.989593  0.000000  1
  Al  Al5  1  0.010087  0.248838  0.000000  1
  Ge  Ge6  1  0.667134  0.332916  0.000000  1
  Au  Au7  1  0.332920  0.667518  0.000000  1
  Au  Au8  1  0.999008  0.998986  0.500000  1
