# generated using pymatgen
data_Tb3HoTm16(CoSb2)4
_symmetry_space_group_name_H-M   'P 1'
_cell_length_a   7.80178831
_cell_length_b   8.73809300
_cell_length_c   12.08417647
_cell_angle_alpha   90.00000000
_cell_angle_beta   89.96792074
_cell_angle_gamma   90.00000000
_symmetry_Int_Tables_number   1
_chemical_formula_structural   Tb3HoTm16(CoSb2)4
_chemical_formula_sum   'Tb3 Ho1 Tm16 Co4 Sb8'
_cell_volume   823.81143409
_cell_formula_units_Z   1
loop_
 _symmetry_equiv_pos_site_id
 _symmetry_equiv_pos_as_xyz
  1  'x, y, z'
loop_
 _atom_site_type_symbol
 _atom_site_label
 _atom_site_symmetry_multiplicity
 _atom_site_fract_x
 _atom_site_fract_y
 _atom_site_fract_z
 _atom_site_occupancy
  Tb  Tb0  1  0.623347  0.750000  0.307140  1
  Tb  Tb1  1  0.123335  0.250000  0.192778  1
  Tb  Tb2  1  0.376654  0.250000  0.692878  1
  Ho  Ho3  1  0.877467  0.750000  0.807888  1
  Tm  Tm4  1  0.156318  0.750000  0.203923  1
  Tm  Tm5  1  0.656320  0.250000  0.296037  1
  Tm  Tm6  1  0.843726  0.250000  0.796144  1
  Tm  Tm7  1  0.343474  0.750000  0.704025  1
  Tm  Tm8  1  0.449459  0.750000  0.997774  1
  Tm  Tm9  1  0.949353  0.250000  0.502223  1
  Tm  Tm10  1  0.550948  0.250000  0.002095  1
  Tm  Tm11  1  0.050529  0.750000  0.497925  1
  Tm  Tm12  1  0.823323  0.962871  0.065361  1
  Tm  Tm13  1  0.323262  0.036858  0.434267  1
  Tm  Tm14  1  0.176261  0.463988  0.934087  1
  Tm  Tm15  1  0.676795  0.536679  0.565830  1
  Tm  Tm16  1  0.176261  0.036012  0.934087  1
  Tm  Tm17  1  0.676795  0.963321  0.565830  1
  Tm  Tm18  1  0.823323  0.537129  0.065361  1
  Tm  Tm19  1  0.323262  0.463142  0.434267  1
  Co  Co20  1  0.431904  0.750000  0.491663  1
  Co  Co21  1  0.931903  0.250000  0.008243  1
  Co  Co22  1  0.568176  0.250000  0.508357  1
  Co  Co23  1  0.067599  0.750000  0.991218  1
  Sb  Sb24  1  0.931200  0.991568  0.328391  1
  Sb  Sb25  1  0.431288  0.008464  0.171659  1
  Sb  Sb26  1  0.067988  0.492205  0.671937  1
  Sb  Sb27  1  0.569626  0.509036  0.828313  1
  Sb  Sb28  1  0.067988  0.007795  0.671937  1
  Sb  Sb29  1  0.569626  0.990964  0.828313  1
  Sb  Sb30  1  0.931200  0.508432  0.328391  1
  Sb  Sb31  1  0.431288  0.491536  0.171659  1
