# generated using pymatgen
data_Ta3Ni2GeN
_symmetry_space_group_name_H-M   'P 1'
_cell_length_a   8.07075523
_cell_length_b   8.07057056
_cell_length_c   8.07075492
_cell_angle_alpha   59.90203695
_cell_angle_beta   59.96265160
_cell_angle_gamma   59.90204136
_symmetry_Int_Tables_number   1
_chemical_formula_structural   Ta3Ni2GeN
_chemical_formula_sum   'Ta12 Ni8 Ge4 N4'
_cell_volume   371.06549120
_cell_formula_units_Z   4
loop_
 _symmetry_equiv_pos_site_id
 _symmetry_equiv_pos_as_xyz
  1  'x, y, z'
loop_
 _atom_site_type_symbol
 _atom_site_label
 _atom_site_symmetry_multiplicity
 _atom_site_fract_x
 _atom_site_fract_y
 _atom_site_fract_z
 _atom_site_occupancy
  Ta  Ta0  1  0.812290  0.812447  0.187495  1
  Ta  Ta1  1  0.187630  0.187724  0.812278  1
  Ta  Ta2  1  0.812280  0.187904  0.812280  1
  Ta  Ta3  1  0.187623  0.812355  0.187623  1
  Ta  Ta4  1  0.187495  0.812447  0.812290  1
  Ta  Ta5  1  0.812278  0.187724  0.187630  1
  Ta  Ta6  1  0.437710  0.437553  0.062505  1
  Ta  Ta7  1  0.062370  0.062276  0.437722  1
  Ta  Ta8  1  0.437720  0.062096  0.437720  1
  Ta  Ta9  1  0.062377  0.437645  0.062377  1
  Ta  Ta10  1  0.062505  0.437553  0.437710  1
  Ta  Ta11  1  0.437722  0.062276  0.062370  1
  Ni  Ni12  1  0.750148  0.416942  0.416256  1
  Ni  Ni13  1  0.416508  0.749553  0.416508  1
  Ni  Ni14  1  0.416256  0.416942  0.750148  1
  Ni  Ni15  1  0.416825  0.416702  0.416825  1
  Ni  Ni16  1  0.499852  0.833058  0.833744  1
  Ni  Ni17  1  0.833492  0.500447  0.833492  1
  Ni  Ni18  1  0.833744  0.833058  0.499852  1
  Ni  Ni19  1  0.833175  0.833298  0.833175  1
  Ge  Ge20  1  0.125000  0.625000  0.625000  1
  Ge  Ge21  1  0.625000  0.125000  0.625000  1
  Ge  Ge22  1  0.625000  0.625000  0.125000  1
  Ge  Ge23  1  0.625000  0.625000  0.625000  1
  N  N24  1  0.625000  0.125000  0.125000  1
  N  N25  1  0.125000  0.625000  0.125000  1
  N  N26  1  0.125000  0.125000  0.625000  1
  N  N27  1  0.125000  0.125000  0.125000  1
