# generated using pymatgen
data_Tb16In4NiIr2Rh
_symmetry_space_group_name_H-M   'P 1'
_cell_length_a   9.70641457
_cell_length_b   9.68621971
_cell_length_c   9.70856400
_cell_angle_alpha   59.92366190
_cell_angle_beta   59.99267443
_cell_angle_gamma   59.91899052
_symmetry_Int_Tables_number   1
_chemical_formula_structural   Tb16In4NiIr2Rh
_chemical_formula_sum   'Tb16 In4 Ni1 Ir2 Rh1'
_cell_volume   644.63174888
_cell_formula_units_Z   1
loop_
 _symmetry_equiv_pos_site_id
 _symmetry_equiv_pos_as_xyz
  1  'x, y, z'
loop_
 _atom_site_type_symbol
 _atom_site_label
 _atom_site_symmetry_multiplicity
 _atom_site_fract_x
 _atom_site_fract_y
 _atom_site_fract_z
 _atom_site_occupancy
  Tb  Tb0  1  0.809632  0.810635  0.189866  1
  Tb  Tb1  1  0.810890  0.190197  0.810438  1
  Tb  Tb2  1  0.188380  0.190257  0.810682  1
  Tb  Tb3  1  0.650049  0.049670  0.650140  1
  Tb  Tb4  1  0.059702  0.059275  0.440511  1
  Tb  Tb5  1  0.436664  0.438445  0.062446  1
  Tb  Tb6  1  0.652545  0.649164  0.652331  1
  Tb  Tb7  1  0.810890  0.190197  0.188477  1
  Tb  Tb8  1  0.189340  0.811038  0.809561  1
  Tb  Tb9  1  0.047024  0.648927  0.652024  1
  Tb  Tb10  1  0.440244  0.060392  0.060821  1
  Tb  Tb11  1  0.440244  0.060392  0.438544  1
  Tb  Tb12  1  0.061609  0.440089  0.061456  1
  Tb  Tb13  1  0.652545  0.649164  0.045960  1
  Tb  Tb14  1  0.189340  0.811038  0.190060  1
  Tb  Tb15  1  0.061609  0.440089  0.436846  1
  In  In16  1  0.416726  0.418392  0.416523  1
  In  In17  1  0.416726  0.418392  0.748358  1
  In  In18  1  0.417720  0.746400  0.417940  1
  In  In19  1  0.748145  0.418451  0.416702  1
  Ni  Ni20  1  0.858421  0.425085  0.858247  1
  Ir  Ir21  1  0.858003  0.857990  0.857973  1
  Ir  Ir22  1  0.858003  0.857990  0.426033  1
  Rh  Rh23  1  0.425549  0.858330  0.858061  1
