# generated using pymatgen
data_PaP(OF3)2
_symmetry_space_group_name_H-M   'P 1'
_cell_length_a   5.83954412
_cell_length_b   8.18339825
_cell_length_c   8.15945892
_cell_angle_alpha   89.97421801
_cell_angle_beta   77.78606184
_cell_angle_gamma   83.05656027
_symmetry_Int_Tables_number   1
_chemical_formula_structural   PaP(OF3)2
_chemical_formula_sum   'Pa2 P2 O4 F12'
_cell_volume   378.17079072
_cell_formula_units_Z   2
loop_
 _symmetry_equiv_pos_site_id
 _symmetry_equiv_pos_as_xyz
  1  'x, y, z'
loop_
 _atom_site_type_symbol
 _atom_site_label
 _atom_site_symmetry_multiplicity
 _atom_site_fract_x
 _atom_site_fract_y
 _atom_site_fract_z
 _atom_site_occupancy
  Pa  Pa0  1  0.583606  0.236507  0.747857  1
  Pa  Pa1  1  0.416394  0.763493  0.252143  1
  P  P2  1  0.222050  0.196886  0.168020  1
  P  P3  1  0.777950  0.803114  0.831980  1
  O  O4  1  0.595948  0.741119  0.969588  1
  O  O5  1  0.768678  0.986997  0.815360  1
  O  O6  1  0.404052  0.258881  0.030412  1
  O  O7  1  0.231322  0.013003  0.184640  1
  F  F8  1  0.393413  0.453975  0.700992  1
  F  F9  1  0.236686  0.276142  0.337152  1
  F  F10  1  0.026996  0.731263  0.852310  1
  F  F11  1  0.752500  0.186522  0.500282  1
  F  F12  1  0.247500  0.813478  0.499718  1
  F  F13  1  0.606587  0.546025  0.299008  1
  F  F14  1  0.848427  0.360467  0.799373  1
  F  F15  1  0.151573  0.639533  0.200627  1
  F  F16  1  0.312564  0.102831  0.727965  1
  F  F17  1  0.687436  0.897169  0.272035  1
  F  F18  1  0.763314  0.723858  0.662848  1
  F  F19  1  0.973004  0.268737  0.147690  1
