# generated using pymatgen
data_SrTb2Y4RuI12
_symmetry_space_group_name_H-M   'P 1'
_cell_length_a   9.81832993
_cell_length_b   9.88896198
_cell_length_c   9.84378326
_cell_angle_alpha   106.82535349
_cell_angle_beta   106.13697023
_cell_angle_gamma   106.20666272
_symmetry_Int_Tables_number   1
_chemical_formula_structural   SrTb2Y4RuI12
_chemical_formula_sum   'Sr1 Tb2 Y4 Ru1 I12'
_cell_volume   808.82778368
_cell_formula_units_Z   1
loop_
 _symmetry_equiv_pos_site_id
 _symmetry_equiv_pos_as_xyz
  1  'x, y, z'
loop_
 _atom_site_type_symbol
 _atom_site_label
 _atom_site_symmetry_multiplicity
 _atom_site_fract_x
 _atom_site_fract_y
 _atom_site_fract_z
 _atom_site_occupancy
  Sr  Sr0  1  0.500062  0.500156  0.499986  1
  Tb  Tb1  1  0.020144  0.091153  0.291376  1
  Tb  Tb2  1  0.289473  0.019879  0.091863  1
  Y  Y3  1  0.903776  0.697204  0.980388  1
  Y  Y4  1  0.979782  0.908923  0.708139  1
  Y  Y5  1  0.710110  0.979703  0.907786  1
  Y  Y6  1  0.095909  0.302318  0.019516  1
  Ru  Ru7  1  0.000571  0.999880  0.000767  1
  I  I8  1  0.631451  0.863155  0.552620  1
  I  I9  1  0.551499  0.633539  0.864028  1
  I  I10  1  0.865445  0.554217  0.632681  1
  I  I11  1  0.369021  0.137457  0.448289  1
  I  I12  1  0.448331  0.366724  0.135851  1
  I  I13  1  0.134951  0.446652  0.367219  1
  I  I14  1  0.679637  0.074479  0.222733  1
  I  I15  1  0.224361  0.678501  0.074693  1
  I  I16  1  0.074076  0.222722  0.677895  1
  I  I17  1  0.320392  0.925380  0.776341  1
  I  I18  1  0.775192  0.320946  0.925005  1
  I  I19  1  0.925816  0.777010  0.322824  1
