# generated using pymatgen
data_Rb8SnPbI12
_symmetry_space_group_name_H-M   'P 1'
_cell_length_a   10.26935948
_cell_length_b   10.26935945
_cell_length_c   10.26936038
_cell_angle_alpha   89.96600316
_cell_angle_beta   89.96600431
_cell_angle_gamma   89.96600659
_symmetry_Int_Tables_number   1
_chemical_formula_structural   Rb8SnPbI12
_chemical_formula_sum   'Rb8 Sn1 Pb1 I12'
_cell_volume   1083.00354372
_cell_formula_units_Z   1
loop_
 _symmetry_equiv_pos_site_id
 _symmetry_equiv_pos_as_xyz
  1  'x, y, z'
loop_
 _atom_site_type_symbol
 _atom_site_label
 _atom_site_symmetry_multiplicity
 _atom_site_fract_x
 _atom_site_fract_y
 _atom_site_fract_z
 _atom_site_occupancy
  Rb  Rb0  1  0.249679  0.249679  0.249679  1
  Rb  Rb1  1  0.750321  0.750321  0.750321  1
  Rb  Rb2  1  0.869226  0.631287  0.249984  1
  Rb  Rb3  1  0.631287  0.249984  0.869226  1
  Rb  Rb4  1  0.249984  0.869226  0.631287  1
  Rb  Rb5  1  0.130774  0.368713  0.750016  1
  Rb  Rb6  1  0.368713  0.750016  0.130774  1
  Rb  Rb7  1  0.750016  0.130774  0.368713  1
  Sn  Sn8  1  0.000000  0.000000  0.000000  1
  Pb  Pb9  1  0.500000  0.500000  0.500000  1
  I  I10  1  0.197210  0.558240  0.428468  1
  I  I11  1  0.057429  0.700278  0.929592  1
  I  I12  1  0.929592  0.057429  0.700278  1
  I  I13  1  0.802790  0.441760  0.571532  1
  I  I14  1  0.700278  0.929592  0.057429  1
  I  I15  1  0.441760  0.571532  0.802790  1
  I  I16  1  0.571532  0.802790  0.441760  1
  I  I17  1  0.558240  0.428468  0.197210  1
  I  I18  1  0.070408  0.942571  0.299722  1
  I  I19  1  0.942571  0.299722  0.070408  1
  I  I20  1  0.299722  0.070408  0.942571  1
  I  I21  1  0.428468  0.197210  0.558240  1
