# generated using pymatgen
data_Ca3Yb(Si3Ni5)4
_symmetry_space_group_name_H-M   'P 1'
_cell_length_a   18.68378544
_cell_length_b   3.76243600
_cell_length_c   6.67061116
_cell_angle_alpha   90.00000000
_cell_angle_beta   90.02495763
_cell_angle_gamma   90.00000000
_symmetry_Int_Tables_number   1
_chemical_formula_structural   Ca3Yb(Si3Ni5)4
_chemical_formula_sum   'Ca3 Yb1 Si12 Ni20'
_cell_volume   468.92088610
_cell_formula_units_Z   1
loop_
 _symmetry_equiv_pos_site_id
 _symmetry_equiv_pos_as_xyz
  1  'x, y, z'
loop_
 _atom_site_type_symbol
 _atom_site_label
 _atom_site_symmetry_multiplicity
 _atom_site_fract_x
 _atom_site_fract_y
 _atom_site_fract_z
 _atom_site_occupancy
  Ca  Ca0  1  0.643055  0.250000  0.622711  1
  Ca  Ca1  1  0.142677  0.250000  0.877404  1
  Ca  Ca2  1  0.357199  0.750000  0.377257  1
  Yb  Yb3  1  0.856830  0.750000  0.122527  1
  Si  Si4  1  0.914177  0.250000  0.417039  1
  Si  Si5  1  0.414344  0.250000  0.081578  1
  Si  Si6  1  0.085326  0.750000  0.581091  1
  Si  Si7  1  0.585885  0.750000  0.918599  1
  Si  Si8  1  0.738214  0.250000  0.121900  1
  Si  Si9  1  0.237874  0.250000  0.378136  1
  Si  Si10  1  0.262110  0.750000  0.878179  1
  Si  Si11  1  0.762541  0.750000  0.621788  1
  Si  Si12  1  0.925161  0.250000  0.845614  1
  Si  Si13  1  0.425263  0.250000  0.655448  1
  Si  Si14  1  0.074516  0.750000  0.155697  1
  Si  Si15  1  0.574852  0.750000  0.344536  1
  Ni  Ni16  1  0.800789  0.250000  0.815261  1
  Ni  Ni17  1  0.300062  0.250000  0.687158  1
  Ni  Ni18  1  0.199894  0.750000  0.187173  1
  Ni  Ni19  1  0.700397  0.750000  0.312472  1
  Ni  Ni20  1  0.994945  0.250000  0.133027  1
  Ni  Ni21  1  0.495883  0.250000  0.367279  1
  Ni  Ni22  1  0.003644  0.750000  0.867959  1
  Ni  Ni23  1  0.504130  0.750000  0.632842  1
  Ni  Ni24  1  0.514476  0.250000  0.883979  1
  Ni  Ni25  1  0.014027  0.250000  0.615659  1
  Ni  Ni26  1  0.485654  0.750000  0.115958  1
  Ni  Ni27  1  0.984850  0.750000  0.382500  1
  Ni  Ni28  1  0.615287  0.250000  0.140643  1
  Ni  Ni29  1  0.115045  0.250000  0.359297  1
  Ni  Ni30  1  0.384880  0.750000  0.859312  1
  Ni  Ni31  1  0.885006  0.750000  0.641292  1
  Ni  Ni32  1  0.793845  0.250000  0.430762  1
  Ni  Ni33  1  0.293266  0.250000  0.067652  1
  Ni  Ni34  1  0.206576  0.750000  0.567635  1
  Ni  Ni35  1  0.707322  0.750000  0.932636  1
