# generated using pymatgen
data_LaTb4(B3Ru)2
_symmetry_space_group_name_H-M   'P 1'
_cell_length_a   5.53172061
_cell_length_b   5.53171975
_cell_length_c   8.55719654
_cell_angle_alpha   71.14220914
_cell_angle_beta   71.14221113
_cell_angle_gamma   60.00001810
_symmetry_Int_Tables_number   1
_chemical_formula_structural   LaTb4(B3Ru)2
_chemical_formula_sum   'La1 Tb4 B6 Ru2'
_cell_volume   210.38255892
_cell_formula_units_Z   1
loop_
 _symmetry_equiv_pos_site_id
 _symmetry_equiv_pos_as_xyz
  1  'x, y, z'
loop_
 _atom_site_type_symbol
 _atom_site_label
 _atom_site_symmetry_multiplicity
 _atom_site_fract_x
 _atom_site_fract_y
 _atom_site_fract_z
 _atom_site_occupancy
  La  La0  1  0.000000  0.000000  0.000000  1
  Tb  Tb1  1  0.248247  0.248247  0.255260  1
  Tb  Tb2  1  0.751753  0.751753  0.744740  1
  Tb  Tb3  1  0.418503  0.418503  0.744491  1
  Tb  Tb4  1  0.581497  0.581497  0.255509  1
  B  B5  1  0.172098  0.827902  0.500000  1
  B  B6  1  0.827902  0.500000  0.500000  1
  B  B7  1  0.500000  0.172098  0.500000  1
  B  B8  1  0.172098  0.500000  0.500000  1
  B  B9  1  0.500000  0.827902  0.500000  1
  B  B10  1  0.827902  0.172098  0.500000  1
  Ru  Ru11  1  0.112764  0.112764  0.661707  1
  Ru  Ru12  1  0.887236  0.887236  0.338293  1
