# generated using pymatgen
data_Pr2Nd9In9Ni4
_symmetry_space_group_name_H-M   'P 1'
_cell_length_a   13.46229479
_cell_length_b   13.46280439
_cell_length_c   3.76906700
_cell_angle_alpha   90.00000000
_cell_angle_beta   90.00000000
_cell_angle_gamma   111.26080604
_symmetry_Int_Tables_number   1
_chemical_formula_structural   Pr2Nd9In9Ni4
_chemical_formula_sum   'Pr2 Nd9 In9 Ni4'
_cell_volume   636.61403287
_cell_formula_units_Z   1
loop_
 _symmetry_equiv_pos_site_id
 _symmetry_equiv_pos_as_xyz
  1  'x, y, z'
loop_
 _atom_site_type_symbol
 _atom_site_label
 _atom_site_symmetry_multiplicity
 _atom_site_fract_x
 _atom_site_fract_y
 _atom_site_fract_z
 _atom_site_occupancy
  Pr  Pr0  1  0.341552  0.658412  0.500000  1
  Pr  Pr1  1  0.658448  0.341588  0.500000  1
  Nd  Nd2  1  0.500000  0.500000  0.500000  1
  Nd  Nd3  1  0.813274  0.813282  0.500000  1
  Nd  Nd4  1  0.186726  0.186718  0.500000  1
  Nd  Nd5  1  0.577979  0.919927  0.500000  1
  Nd  Nd6  1  0.422021  0.080073  0.500000  1
  Nd  Nd7  1  0.919955  0.577962  0.500000  1
  Nd  Nd8  1  0.080045  0.422038  0.500000  1
  Nd  Nd9  1  0.126148  0.873854  0.500000  1
  Nd  Nd10  1  0.873852  0.126146  0.500000  1
  In  In11  1  0.337602  0.867896  0.000000  1
  In  In12  1  0.662398  0.132104  0.000000  1
  In  In13  1  0.867917  0.337614  0.000000  1
  In  In14  1  0.132083  0.662386  0.000000  1
  In  In15  1  0.580633  0.721648  0.000000  1
  In  In16  1  0.419367  0.278352  0.000000  1
  In  In17  1  0.721694  0.580672  0.000000  1
  In  In18  1  0.278306  0.419328  0.000000  1
  In  In19  1  0.000000  0.000000  0.000000  1
  Ni  Ni20  1  0.746520  0.949600  0.000000  1
  Ni  Ni21  1  0.253480  0.050400  0.000000  1
  Ni  Ni22  1  0.949580  0.746399  0.000000  1
  Ni  Ni23  1  0.050420  0.253601  0.000000  1
