# generated using pymatgen
data_Ho3SnRh3Pb2
_symmetry_space_group_name_H-M   'P 1'
_cell_length_a   7.77454100
_cell_length_b   7.79217447
_cell_length_c   3.72340000
_cell_angle_alpha   90.00000000
_cell_angle_beta   90.00000000
_cell_angle_gamma   119.92516545
_symmetry_Int_Tables_number   1
_chemical_formula_structural   Ho3SnRh3Pb2
_chemical_formula_sum   'Ho3 Sn1 Rh3 Pb2'
_cell_volume   195.49279351
_cell_formula_units_Z   1
loop_
 _symmetry_equiv_pos_site_id
 _symmetry_equiv_pos_as_xyz
  1  'x, y, z'
loop_
 _atom_site_type_symbol
 _atom_site_label
 _atom_site_symmetry_multiplicity
 _atom_site_fract_x
 _atom_site_fract_y
 _atom_site_fract_z
 _atom_site_occupancy
  Ho  Ho0  1  0.995442  0.397863  0.000000  1
  Ho  Ho1  1  0.597579  0.602137  0.000000  1
  Ho  Ho2  1  0.406072  0.000000  0.000000  1
  Sn  Sn3  1  0.732278  0.000000  0.500000  1
  Rh  Rh4  1  0.669255  0.326725  0.500000  1
  Rh  Rh5  1  0.342529  0.673275  0.500000  1
  Rh  Rh6  1  0.987973  0.000000  0.000000  1
  Pb  Pb7  1  0.268367  0.267863  0.500000  1
  Pb  Pb8  1  0.000505  0.732137  0.500000  1
