# generated using pymatgen
data_Pr6Y5Ho5(CdIr)4
_symmetry_space_group_name_H-M   'P 1'
_cell_length_a   9.76585293
_cell_length_b   9.77795872
_cell_length_c   9.77795967
_cell_angle_alpha   60.00673751
_cell_angle_beta   60.04095125
_cell_angle_gamma   60.04094851
_symmetry_Int_Tables_number   1
_chemical_formula_structural   Pr6Y5Ho5(CdIr)4
_chemical_formula_sum   'Pr6 Y5 Ho5 Cd4 Ir4'
_cell_volume   660.66650956
_cell_formula_units_Z   1
loop_
 _symmetry_equiv_pos_site_id
 _symmetry_equiv_pos_as_xyz
  1  'x, y, z'
loop_
 _atom_site_type_symbol
 _atom_site_label
 _atom_site_symmetry_multiplicity
 _atom_site_fract_x
 _atom_site_fract_y
 _atom_site_fract_z
 _atom_site_occupancy
  Pr  Pr0  1  0.940927  0.559073  0.559073  1
  Pr  Pr1  1  0.558790  0.941210  0.941210  1
  Pr  Pr2  1  0.559141  0.941224  0.558479  1
  Pr  Pr3  1  0.941156  0.558479  0.941224  1
  Pr  Pr4  1  0.559141  0.558479  0.941224  1
  Pr  Pr5  1  0.941156  0.941224  0.558479  1
  Y  Y6  1  0.188049  0.811951  0.811951  1
  Y  Y7  1  0.188280  0.811745  0.187685  1
  Y  Y8  1  0.812290  0.187685  0.811745  1
  Y  Y9  1  0.188280  0.187685  0.811745  1
  Y  Y10  1  0.812290  0.811745  0.187685  1
  Ho  Ho11  1  0.346902  0.347039  0.347039  1
  Ho  Ho12  1  0.346956  0.347227  0.958860  1
  Ho  Ho13  1  0.346956  0.958860  0.347227  1
  Ho  Ho14  1  0.959021  0.347039  0.347039  1
  Ho  Ho15  1  0.812172  0.187828  0.187828  1
  Cd  Cd16  1  0.579161  0.579221  0.579221  1
  Cd  Cd17  1  0.579262  0.579367  0.262110  1
  Cd  Cd18  1  0.579262  0.262110  0.579367  1
  Cd  Cd19  1  0.262397  0.579221  0.579221  1
  Ir  Ir20  1  0.140104  0.142596  0.142596  1
  Ir  Ir21  1  0.141802  0.142491  0.573905  1
  Ir  Ir22  1  0.141802  0.573905  0.142491  1
  Ir  Ir23  1  0.574704  0.142596  0.142596  1
