# generated using pymatgen
data_LaNdBe2(GeH)2
_symmetry_space_group_name_H-M   'P 1'
_cell_length_a   4.06364900
_cell_length_b   4.06365591
_cell_length_c   8.63662300
_cell_angle_alpha   90.00001410
_cell_angle_beta   89.99995770
_cell_angle_gamma   60.00016209
_symmetry_Int_Tables_number   1
_chemical_formula_structural   LaNdBe2(GeH)2
_chemical_formula_sum   'La1 Nd1 Be2 Ge2 H2'
_cell_volume   123.51179095
_cell_formula_units_Z   1
loop_
 _symmetry_equiv_pos_site_id
 _symmetry_equiv_pos_as_xyz
  1  'x, y, z'
loop_
 _atom_site_type_symbol
 _atom_site_label
 _atom_site_symmetry_multiplicity
 _atom_site_fract_x
 _atom_site_fract_y
 _atom_site_fract_z
 _atom_site_occupancy
  La  La0  1  0.000000  0.000000  0.000000  1
  Nd  Nd1  1  0.000000  0.000000  0.500000  1
  Be  Be2  1  0.333332  0.333334  0.760955  1
  Be  Be3  1  0.666668  0.666666  0.239045  1
  Ge  Ge4  1  0.333335  0.333333  0.276766  1
  Ge  Ge5  1  0.666665  0.666667  0.723234  1
  H  H6  1  0.333334  0.333333  0.934069  1
  H  H7  1  0.666666  0.666667  0.065931  1
