# generated using pymatgen
data_Dy3Lu7Cd3Co
_symmetry_space_group_name_H-M   'P 1'
_cell_length_a   9.47547400
_cell_length_b   9.47547420
_cell_length_c   9.52614500
_cell_angle_alpha   90.00000000
_cell_angle_beta   90.00000000
_cell_angle_gamma   119.99999234
_symmetry_Int_Tables_number   1
_chemical_formula_structural   Dy3Lu7Cd3Co
_chemical_formula_sum   'Dy6 Lu14 Cd6 Co2'
_cell_volume   740.71263096
_cell_formula_units_Z   2
loop_
 _symmetry_equiv_pos_site_id
 _symmetry_equiv_pos_as_xyz
  1  'x, y, z'
loop_
 _atom_site_type_symbol
 _atom_site_label
 _atom_site_symmetry_multiplicity
 _atom_site_fract_x
 _atom_site_fract_y
 _atom_site_fract_z
 _atom_site_occupancy
  Dy  Dy0  1  0.541468  0.458532  0.250000  1
  Dy  Dy1  1  0.541468  0.082935  0.250000  1
  Dy  Dy2  1  0.917065  0.458532  0.250000  1
  Dy  Dy3  1  0.458532  0.541468  0.750000  1
  Dy  Dy4  1  0.458532  0.917065  0.750000  1
  Dy  Dy5  1  0.082935  0.541468  0.750000  1
  Lu  Lu6  1  0.000000  0.000000  0.500000  1
  Lu  Lu7  1  0.000000  0.000000  0.000000  1
  Lu  Lu8  1  0.211897  0.788103  0.436038  1
  Lu  Lu9  1  0.211897  0.423793  0.436038  1
  Lu  Lu10  1  0.576207  0.788103  0.436038  1
  Lu  Lu11  1  0.788103  0.211897  0.563962  1
  Lu  Lu12  1  0.788103  0.576207  0.563962  1
  Lu  Lu13  1  0.423793  0.211897  0.563962  1
  Lu  Lu14  1  0.788103  0.211897  0.936038  1
  Lu  Lu15  1  0.788103  0.576207  0.936038  1
  Lu  Lu16  1  0.423793  0.211897  0.936038  1
  Lu  Lu17  1  0.211897  0.788103  0.063962  1
  Lu  Lu18  1  0.211897  0.423793  0.063962  1
  Lu  Lu19  1  0.576207  0.788103  0.063962  1
  Cd  Cd20  1  0.885783  0.114217  0.250000  1
  Cd  Cd21  1  0.885783  0.771565  0.250000  1
  Cd  Cd22  1  0.228435  0.114217  0.250000  1
  Cd  Cd23  1  0.114217  0.885783  0.750000  1
  Cd  Cd24  1  0.114217  0.228435  0.750000  1
  Cd  Cd25  1  0.771565  0.885783  0.750000  1
  Co  Co26  1  0.333333  0.666667  0.250000  1
  Co  Co27  1  0.666667  0.333333  0.750000  1
