# generated using pymatgen
data_Ca5DySi24OsRu7
_symmetry_space_group_name_H-M   'P 1'
_cell_length_a   10.18412876
_cell_length_b   10.18605908
_cell_length_c   8.17176504
_cell_angle_alpha   89.92959630
_cell_angle_beta   90.07551725
_cell_angle_gamma   132.69489258
_symmetry_Int_Tables_number   1
_chemical_formula_structural   Ca5DySi24OsRu7
_chemical_formula_sum   'Ca5 Dy1 Si24 Os1 Ru7'
_cell_volume   623.04313388
_cell_formula_units_Z   1
loop_
 _symmetry_equiv_pos_site_id
 _symmetry_equiv_pos_as_xyz
  1  'x, y, z'
loop_
 _atom_site_type_symbol
 _atom_site_label
 _atom_site_symmetry_multiplicity
 _atom_site_fract_x
 _atom_site_fract_y
 _atom_site_fract_z
 _atom_site_occupancy
  Ca  Ca0  1  0.499570  0.499829  0.499828  1
  Ca  Ca1  1  0.999740  0.999634  0.000194  1
  Ca  Ca2  1  0.500935  0.000760  0.750008  1
  Ca  Ca3  1  0.999415  0.499270  0.250040  1
  Ca  Ca4  1  0.498440  0.998457  0.249801  1
  Dy  Dy5  1  0.000101  0.500228  0.750037  1
  Si  Si6  1  0.794363  0.204468  0.498734  1
  Si  Si7  1  0.295144  0.706155  0.000297  1
  Si  Si8  1  0.206253  0.795025  0.499732  1
  Si  Si9  1  0.705113  0.294461  0.001007  1
  Si  Si10  1  0.333160  0.333328  0.832526  1
  Si  Si11  1  0.664656  0.666984  0.167598  1
  Si  Si12  1  0.166971  0.164446  0.332238  1
  Si  Si13  1  0.833612  0.833116  0.667700  1
  Si  Si14  1  0.123522  0.890661  0.729884  1
  Si  Si15  1  0.109489  0.876655  0.269621  1
  Si  Si16  1  0.608514  0.375766  0.229812  1
  Si  Si17  1  0.624410  0.392349  0.771357  1
  Si  Si18  1  0.875140  0.107938  0.268933  1
  Si  Si19  1  0.893037  0.125479  0.730116  1
  Si  Si20  1  0.391007  0.623799  0.770369  1
  Si  Si21  1  0.376219  0.608956  0.230131  1
  Si  Si22  1  0.346497  0.113121  0.507411  1
  Si  Si23  1  0.887933  0.655518  0.493144  1
  Si  Si24  1  0.386355  0.153014  0.007070  1
  Si  Si25  1  0.846033  0.613140  0.991124  1
  Si  Si26  1  0.652691  0.885767  0.491733  1
  Si  Si27  1  0.113683  0.346389  0.509973  1
  Si  Si28  1  0.613407  0.847065  0.992716  1
  Si  Si29  1  0.154674  0.387616  0.006667  1
  Os  Os30  1  0.672035  0.332404  0.501728  1
  Ru  Ru31  1  0.168408  0.829102  0.998743  1
  Ru  Ru32  1  0.329109  0.668230  0.501229  1
  Ru  Ru33  1  0.832113  0.171953  0.998433  1
  Ru  Ru34  1  0.126056  0.125793  0.624908  1
  Ru  Ru35  1  0.872940  0.873750  0.375096  1
  Ru  Ru36  1  0.373255  0.372732  0.124750  1
  Ru  Ru37  1  0.626000  0.626644  0.875309  1
