# generated using pymatgen
data_ThNiPH
_symmetry_space_group_name_H-M   'P 1'
_cell_length_a   3.97049800
_cell_length_b   8.26725600
_cell_length_c   6.90966700
_cell_angle_alpha   90.00000000
_cell_angle_beta   90.00000000
_cell_angle_gamma   90.00000000
_symmetry_Int_Tables_number   1
_chemical_formula_structural   ThNiPH
_chemical_formula_sum   'Th4 Ni4 P4 H4'
_cell_volume   226.81067202
_cell_formula_units_Z   4
loop_
 _symmetry_equiv_pos_site_id
 _symmetry_equiv_pos_as_xyz
  1  'x, y, z'
loop_
 _atom_site_type_symbol
 _atom_site_label
 _atom_site_symmetry_multiplicity
 _atom_site_fract_x
 _atom_site_fract_y
 _atom_site_fract_z
 _atom_site_occupancy
  Th  Th0  1  0.750000  0.504530  0.746596  1
  Th  Th1  1  0.250000  0.495470  0.253404  1
  Th  Th2  1  0.250000  0.995470  0.246596  1
  Th  Th3  1  0.750000  0.004530  0.753404  1
  Ni  Ni4  1  0.750000  0.240472  0.415725  1
  Ni  Ni5  1  0.250000  0.759528  0.584275  1
  Ni  Ni6  1  0.250000  0.259528  0.915725  1
  Ni  Ni7  1  0.750000  0.740472  0.084275  1
  P  P8  1  0.750000  0.230433  0.081578  1
  P  P9  1  0.250000  0.769567  0.918422  1
  P  P10  1  0.250000  0.269567  0.581578  1
  P  P11  1  0.750000  0.730433  0.418422  1
  H  H12  1  0.250000  0.959440  0.580139  1
  H  H13  1  0.750000  0.040560  0.419861  1
  H  H14  1  0.750000  0.540560  0.080139  1
  H  H15  1  0.250000  0.459440  0.919861  1
