# generated using pymatgen
data_ThReI
_symmetry_space_group_name_H-M   'P 1'
_cell_length_a   4.25802900
_cell_length_b   4.25803037
_cell_length_c   12.88608600
_cell_angle_alpha   90.00000000
_cell_angle_beta   90.00000000
_cell_angle_gamma   120.00001266
_symmetry_Int_Tables_number   1
_chemical_formula_structural   ThReI
_chemical_formula_sum   'Th2 Re2 I2'
_cell_volume   202.33404847
_cell_formula_units_Z   2
loop_
 _symmetry_equiv_pos_site_id
 _symmetry_equiv_pos_as_xyz
  1  'x, y, z'
loop_
 _atom_site_type_symbol
 _atom_site_label
 _atom_site_symmetry_multiplicity
 _atom_site_fract_x
 _atom_site_fract_y
 _atom_site_fract_z
 _atom_site_occupancy
  Th  Th0  1  0.000000  0.000000  0.841001  1
  Th  Th1  1  0.000000  0.000000  0.158999  1
  Re  Re2  1  0.333333  0.666667  0.977177  1
  Re  Re3  1  0.666667  0.333333  0.022823  1
  I  I4  1  0.666667  0.333333  0.665242  1
  I  I5  1  0.333333  0.666667  0.334758  1
