# generated using pymatgen
data_YbCeSi3Pd
_symmetry_space_group_name_H-M   'P 1'
_cell_length_a   8.24452290
_cell_length_b   8.24452458
_cell_length_c   4.16594200
_cell_angle_alpha   90.00000000
_cell_angle_beta   90.00000000
_cell_angle_gamma   120.11144257
_symmetry_Int_Tables_number   1
_chemical_formula_structural   YbCeSi3Pd
_chemical_formula_sum   'Yb2 Ce2 Si6 Pd2'
_cell_volume   244.95493921
_cell_formula_units_Z   2
loop_
 _symmetry_equiv_pos_site_id
 _symmetry_equiv_pos_as_xyz
  1  'x, y, z'
loop_
 _atom_site_type_symbol
 _atom_site_label
 _atom_site_symmetry_multiplicity
 _atom_site_fract_x
 _atom_site_fract_y
 _atom_site_fract_z
 _atom_site_occupancy
  Yb  Yb0  1  0.000000  0.500000  0.000000  1
  Yb  Yb1  1  0.500000  0.000000  0.000000  1
  Ce  Ce2  1  0.500000  0.500000  0.000000  1
  Ce  Ce3  1  0.000000  0.000000  0.000000  1
  Si  Si4  1  0.835278  0.670910  0.500000  1
  Si  Si5  1  0.164506  0.835494  0.500000  1
  Si  Si6  1  0.670910  0.835278  0.500000  1
  Si  Si7  1  0.164722  0.329090  0.500000  1
  Si  Si8  1  0.835494  0.164506  0.500000  1
  Si  Si9  1  0.329090  0.164722  0.500000  1
  Pd  Pd10  1  0.332077  0.667923  0.500000  1
  Pd  Pd11  1  0.667923  0.332077  0.500000  1
