# generated using pymatgen
data_TaCo4Si4Mo3
_symmetry_space_group_name_H-M   'P 1'
_cell_length_a   6.10351573
_cell_length_b   3.61817700
_cell_length_c   6.96026147
_cell_angle_alpha   90.00000000
_cell_angle_beta   89.59837082
_cell_angle_gamma   90.00000000
_symmetry_Int_Tables_number   1
_chemical_formula_structural   TaCo4Si4Mo3
_chemical_formula_sum   'Ta1 Co4 Si4 Mo3'
_cell_volume   153.70385563
_cell_formula_units_Z   1
loop_
 _symmetry_equiv_pos_site_id
 _symmetry_equiv_pos_as_xyz
  1  'x, y, z'
loop_
 _atom_site_type_symbol
 _atom_site_label
 _atom_site_symmetry_multiplicity
 _atom_site_fract_x
 _atom_site_fract_y
 _atom_site_fract_z
 _atom_site_occupancy
  Ta  Ta0  1  0.476356  0.750000  0.324857  1
  Co  Co1  1  0.150237  0.250000  0.439198  1
  Co  Co2  1  0.640904  0.250000  0.062594  1
  Co  Co3  1  0.855866  0.750000  0.560417  1
  Co  Co4  1  0.354860  0.750000  0.941372  1
  Si  Si5  1  0.782897  0.250000  0.378923  1
  Si  Si6  1  0.266536  0.250000  0.117673  1
  Si  Si7  1  0.223577  0.750000  0.628493  1
  Si  Si8  1  0.725307  0.750000  0.876856  1
  Mo  Mo9  1  0.023776  0.250000  0.826175  1
  Mo  Mo10  1  0.526796  0.250000  0.671784  1
  Mo  Mo11  1  0.972889  0.750000  0.171657  1
