# generated using pymatgen
data_CuBiRuO5
_symmetry_space_group_name_H-M   'P 1'
_cell_length_a   5.62900300
_cell_length_b   7.93970300
_cell_length_c   8.80639650
_cell_angle_alpha   89.98254363
_cell_angle_beta   90.00148361
_cell_angle_gamma   90.00004661
_symmetry_Int_Tables_number   1
_chemical_formula_structural   CuBiRuO5
_chemical_formula_sum   'Cu4 Bi4 Ru4 O20'
_cell_volume   393.58084381
_cell_formula_units_Z   4
loop_
 _symmetry_equiv_pos_site_id
 _symmetry_equiv_pos_as_xyz
  1  'x, y, z'
loop_
 _atom_site_type_symbol
 _atom_site_label
 _atom_site_symmetry_multiplicity
 _atom_site_fract_x
 _atom_site_fract_y
 _atom_site_fract_z
 _atom_site_occupancy
  Cu  Cu0  1  0.499914  0.573220  0.149852  1
  Cu  Cu1  1  0.500010  0.426847  0.850158  1
  Cu  Cu2  1  0.500154  0.072973  0.350137  1
  Cu  Cu3  1  0.500032  0.927056  0.649814  1
  Bi  Bi4  1  0.000015  0.848052  0.339348  1
  Bi  Bi5  1  0.000009  0.151950  0.660677  1
  Bi  Bi6  1  0.000007  0.348112  0.160609  1
  Bi  Bi7  1  0.000016  0.651856  0.839346  1
  Ru  Ru8  1  0.282507  0.499968  0.500059  1
  Ru  Ru9  1  0.717636  0.999991  0.999979  1
  Ru  Ru10  1  0.717407  0.499981  0.500048  1
  Ru  Ru11  1  0.282362  0.999986  0.999986  1
  O  O12  1  0.999994  0.845254  0.053402  1
  O  O13  1  0.999977  0.154741  0.946566  1
  O  O14  1  0.999972  0.345257  0.446533  1
  O  O15  1  0.999984  0.654711  0.553503  1
  O  O16  1  0.499994  0.828963  0.071433  1
  O  O17  1  0.499975  0.171014  0.928540  1
  O  O18  1  0.499981  0.329058  0.428459  1
  O  O19  1  0.499976  0.670936  0.571558  1
  O  O20  1  0.251837  0.595768  0.293554  1
  O  O21  1  0.251883  0.404221  0.706379  1
  O  O22  1  0.748108  0.095635  0.206548  1
  O  O23  1  0.748003  0.904359  0.793441  1
  O  O24  1  0.748296  0.404224  0.706342  1
  O  O25  1  0.748088  0.595777  0.293583  1
  O  O26  1  0.251862  0.904357  0.793448  1
  O  O27  1  0.251939  0.095644  0.206520  1
  O  O28  1  0.264741  0.500031  0.000055  1
  O  O29  1  0.735106  0.999975  0.500023  1
  O  O30  1  0.735319  0.500068  0.000117  1
  O  O31  1  0.264897  0.000015  0.499986  1
