# generated using pymatgen
data_YbLuSc2(Pt2O7)2
_symmetry_space_group_name_H-M   'P 1'
_cell_length_a   7.09434166
_cell_length_b   7.15741260
_cell_length_c   7.11953486
_cell_angle_alpha   60.24380483
_cell_angle_beta   60.11698780
_cell_angle_gamma   60.29106921
_symmetry_Int_Tables_number   1
_chemical_formula_structural   YbLuSc2(Pt2O7)2
_chemical_formula_sum   'Yb1 Lu1 Sc2 Pt4 O14'
_cell_volume   256.88218575
_cell_formula_units_Z   1
loop_
 _symmetry_equiv_pos_site_id
 _symmetry_equiv_pos_as_xyz
  1  'x, y, z'
loop_
 _atom_site_type_symbol
 _atom_site_label
 _atom_site_symmetry_multiplicity
 _atom_site_fract_x
 _atom_site_fract_y
 _atom_site_fract_z
 _atom_site_occupancy
  Yb  Yb0  1  0.625000  0.125000  0.625000  1
  Lu  Lu1  1  0.625000  0.625000  0.125000  1
  Sc  Sc2  1  0.625000  0.625000  0.625000  1
  Sc  Sc3  1  0.125000  0.625000  0.625000  1
  Pt  Pt4  1  0.625000  0.125000  0.125000  1
  Pt  Pt5  1  0.125000  0.125000  0.125000  1
  Pt  Pt6  1  0.125000  0.625000  0.125000  1
  Pt  Pt7  1  0.125000  0.125000  0.625000  1
  O  O8  1  0.030781  0.469709  0.468728  1
  O  O9  1  0.780786  0.780044  0.222311  1
  O  O10  1  0.783012  0.226110  0.207866  1
  O  O11  1  0.033140  0.469956  0.027689  1
  O  O12  1  0.466923  0.020626  0.467010  1
  O  O13  1  0.761506  0.730792  0.746195  1
  O  O14  1  0.045443  0.020626  0.467010  1
  O  O15  1  0.783077  0.229374  0.782990  1
  O  O16  1  0.488494  0.519208  0.503805  1
  O  O17  1  0.204557  0.229374  0.782990  1
  O  O18  1  0.216860  0.780044  0.222311  1
  O  O19  1  0.466988  0.023890  0.042134  1
  O  O20  1  0.469214  0.469956  0.027689  1
  O  O21  1  0.219219  0.780291  0.781272  1
