# generated using pymatgen
data_Ta8Al6Tc2B
_symmetry_space_group_name_H-M   'P 1'
_cell_length_a   7.74898400
_cell_length_b   7.74898264
_cell_length_c   5.19949000
_cell_angle_alpha   90.00000000
_cell_angle_beta   90.00000000
_cell_angle_gamma   119.99999728
_symmetry_Int_Tables_number   1
_chemical_formula_structural   Ta8Al6Tc2B
_chemical_formula_sum   'Ta8 Al6 Tc2 B1'
_cell_volume   270.38390919
_cell_formula_units_Z   1
loop_
 _symmetry_equiv_pos_site_id
 _symmetry_equiv_pos_as_xyz
  1  'x, y, z'
loop_
 _atom_site_type_symbol
 _atom_site_label
 _atom_site_symmetry_multiplicity
 _atom_site_fract_x
 _atom_site_fract_y
 _atom_site_fract_z
 _atom_site_occupancy
  Ta  Ta0  1  0.666667  0.333333  0.000000  1
  Ta  Ta1  1  0.333333  0.666667  0.000000  1
  Ta  Ta2  1  0.000000  0.765702  0.228466  1
  Ta  Ta3  1  0.234298  0.234298  0.228466  1
  Ta  Ta4  1  0.765702  0.000000  0.228466  1
  Ta  Ta5  1  0.000000  0.234298  0.771534  1
  Ta  Ta6  1  0.765702  0.765702  0.771534  1
  Ta  Ta7  1  0.234298  0.000000  0.771534  1
  Al  Al8  1  0.000000  0.405762  0.272139  1
  Al  Al9  1  0.594238  0.594238  0.272139  1
  Al  Al10  1  0.405762  0.000000  0.272139  1
  Al  Al11  1  0.000000  0.594238  0.727861  1
  Al  Al12  1  0.405762  0.405762  0.727861  1
  Al  Al13  1  0.594238  0.000000  0.727861  1
  Tc  Tc14  1  0.333333  0.666667  0.500000  1
  Tc  Tc15  1  0.666667  0.333333  0.500000  1
  B  B16  1  0.000000  0.000000  0.500000  1
