# generated using pymatgen
data_Fe5Co2(AsO4)6
_symmetry_space_group_name_H-M   'P 1'
_cell_length_a   6.67673235
_cell_length_b   8.17086986
_cell_length_c   9.82127674
_cell_angle_alpha   104.48865751
_cell_angle_beta   107.78955981
_cell_angle_gamma   101.57075375
_symmetry_Int_Tables_number   1
_chemical_formula_structural   Fe5Co2(AsO4)6
_chemical_formula_sum   'Fe5 Co2 As6 O24'
_cell_volume   471.12583321
_cell_formula_units_Z   1
loop_
 _symmetry_equiv_pos_site_id
 _symmetry_equiv_pos_as_xyz
  1  'x, y, z'
loop_
 _atom_site_type_symbol
 _atom_site_label
 _atom_site_symmetry_multiplicity
 _atom_site_fract_x
 _atom_site_fract_y
 _atom_site_fract_z
 _atom_site_occupancy
  Fe  Fe0  1  0.380823  0.452753  0.111469  1
  Fe  Fe1  1  0.046322  0.720516  0.523471  1
  Fe  Fe2  1  0.000000  0.000000  0.000000  1
  Fe  Fe3  1  0.619177  0.547247  0.888531  1
  Fe  Fe4  1  0.953678  0.279484  0.476529  1
  Co  Co5  1  0.710629  0.201179  0.708687  1
  Co  Co6  1  0.289371  0.798821  0.291313  1
  As  As7  1  0.392183  0.224052  0.370070  1
  As  As8  1  0.227152  0.151091  0.771146  1
  As  As9  1  0.903844  0.403560  0.167541  1
  As  As10  1  0.772848  0.848909  0.228854  1
  As  As11  1  0.096156  0.596440  0.832459  1
  As  As12  1  0.607817  0.775948  0.629930  1
  O  O13  1  0.130582  0.539516  0.155884  1
  O  O14  1  0.789182  0.063722  0.301337  1
  O  O15  1  0.643977  0.237543  0.501368  1
  O  O16  1  0.241969  0.278892  0.476621  1
  O  O17  1  0.994129  0.799666  0.340131  1
  O  O18  1  0.556214  0.628615  0.720033  1
  O  O19  1  0.869418  0.460484  0.844116  1
  O  O20  1  0.676930  0.468714  0.082339  1
  O  O21  1  0.474071  0.274985  0.775943  1
  O  O22  1  0.772477  0.798878  0.045588  1
  O  O23  1  0.870789  0.192369  0.076091  1
  O  O24  1  0.356023  0.762457  0.498632  1
  O  O25  1  0.933840  0.452519  0.356726  1
  O  O26  1  0.066160  0.547481  0.643274  1
  O  O27  1  0.005871  0.200334  0.659869  1
  O  O28  1  0.525929  0.725015  0.224057  1
  O  O29  1  0.129211  0.807631  0.923909  1
  O  O30  1  0.758031  0.721108  0.523379  1
  O  O31  1  0.443786  0.371385  0.279967  1
  O  O32  1  0.227523  0.201122  0.954412  1
  O  O33  1  0.259371  0.016694  0.234777  1
  O  O34  1  0.323070  0.531286  0.917661  1
  O  O35  1  0.210818  0.936278  0.698663  1
  O  O36  1  0.740629  0.983306  0.765223  1
