# generated using pymatgen
data_Tb2YIn3Ni2Hg
_symmetry_space_group_name_H-M   'P 1'
_cell_length_a   7.66657050
_cell_length_b   7.67380769
_cell_length_c   3.87938600
_cell_angle_alpha   90.00000000
_cell_angle_beta   90.00000000
_cell_angle_gamma   120.01008112
_symmetry_Int_Tables_number   1
_chemical_formula_structural   Tb2YIn3Ni2Hg
_chemical_formula_sum   'Tb2 Y1 In3 Ni2 Hg1'
_cell_volume   197.63394725
_cell_formula_units_Z   1
loop_
 _symmetry_equiv_pos_site_id
 _symmetry_equiv_pos_as_xyz
  1  'x, y, z'
loop_
 _atom_site_type_symbol
 _atom_site_label
 _atom_site_symmetry_multiplicity
 _atom_site_fract_x
 _atom_site_fract_y
 _atom_site_fract_z
 _atom_site_occupancy
  Tb  Tb0  1  0.024709  0.604792  0.500000  1
  Tb  Tb1  1  0.580068  0.975241  0.500000  1
  Y  Y2  1  0.395186  0.419111  0.500000  1
  In  In3  1  0.007818  0.250589  0.000000  1
  In  In4  1  0.242918  0.992753  0.000000  1
  In  In5  1  0.749388  0.756911  0.000000  1
  Ni  Ni6  1  0.999859  0.999808  0.500000  1
  Ni  Ni7  1  0.333348  0.667336  0.000000  1
  Hg  Hg8  1  0.666707  0.333459  0.000000  1
