# generated using pymatgen
data_Pr5Nd5(AsPb3)2
_symmetry_space_group_name_H-M   'P 1'
_cell_length_a   9.65401200
_cell_length_b   9.65620604
_cell_length_c   6.93615700
_cell_angle_alpha   90.00000000
_cell_angle_beta   90.00000000
_cell_angle_gamma   119.99248407
_symmetry_Int_Tables_number   1
_chemical_formula_structural   Pr5Nd5(AsPb3)2
_chemical_formula_sum   'Pr5 Nd5 As2 Pb6'
_cell_volume   560.01130112
_cell_formula_units_Z   1
loop_
 _symmetry_equiv_pos_site_id
 _symmetry_equiv_pos_as_xyz
  1  'x, y, z'
loop_
 _atom_site_type_symbol
 _atom_site_label
 _atom_site_symmetry_multiplicity
 _atom_site_fract_x
 _atom_site_fract_y
 _atom_site_fract_z
 _atom_site_occupancy
  Pr  Pr0  1  0.753764  0.000000  0.250000  1
  Pr  Pr1  1  0.999787  0.246755  0.750000  1
  Pr  Pr2  1  0.000250  0.753232  0.250000  1
  Pr  Pr3  1  0.753033  0.753245  0.750000  1
  Pr  Pr4  1  0.247019  0.246768  0.250000  1
  Nd  Nd5  1  0.245711  0.000000  0.750000  1
  Nd  Nd6  1  0.333247  0.666670  0.500099  1
  Nd  Nd7  1  0.666579  0.333330  0.500099  1
  Nd  Nd8  1  0.666579  0.333330  0.999901  1
  Nd  Nd9  1  0.333247  0.666670  0.999901  1
  As  As10  1  0.000773  0.000000  0.500609  1
  As  As11  1  0.000773  0.000000  0.999391  1
  Pb  Pb12  1  0.603064  0.000000  0.750000  1
  Pb  Pb13  1  0.396128  0.000000  0.250000  1
  Pb  Pb14  1  0.000525  0.605059  0.750000  1
  Pb  Pb15  1  0.000005  0.395955  0.250000  1
  Pb  Pb16  1  0.395467  0.394941  0.750000  1
  Pb  Pb17  1  0.604050  0.604045  0.250000  1
