# generated using pymatgen
data_Eu2Dy4Ta2O13F
_symmetry_space_group_name_H-M   'P 1'
_cell_length_a   6.52066109
_cell_length_b   6.52066031
_cell_length_c   7.60177212
_cell_angle_alpha   90.01193561
_cell_angle_beta   90.01193368
_cell_angle_gamma   109.18703544
_symmetry_Int_Tables_number   1
_chemical_formula_structural   Eu2Dy4Ta2O13F
_chemical_formula_sum   'Eu2 Dy4 Ta2 O13 F1'
_cell_volume   305.26523219
_cell_formula_units_Z   1
loop_
 _symmetry_equiv_pos_site_id
 _symmetry_equiv_pos_as_xyz
  1  'x, y, z'
loop_
 _atom_site_type_symbol
 _atom_site_label
 _atom_site_symmetry_multiplicity
 _atom_site_fract_x
 _atom_site_fract_y
 _atom_site_fract_z
 _atom_site_occupancy
  Eu  Eu0  1  0.495786  0.510057  0.486681  1
  Eu  Eu1  1  0.489943  0.504214  0.013319  1
  Dy  Dy2  1  0.016485  0.467933  0.748865  1
  Dy  Dy3  1  0.996621  0.531806  0.249151  1
  Dy  Dy4  1  0.532067  0.983515  0.751135  1
  Dy  Dy5  1  0.468194  0.003379  0.250849  1
  Ta  Ta6  1  0.001568  0.998584  0.501232  1
  Ta  Ta7  1  0.001416  0.998432  0.998768  1
  O  O8  1  0.352776  0.647224  0.250000  1
  O  O9  1  0.931454  0.068546  0.750000  1
  O  O10  1  0.064237  0.935763  0.250000  1
  O  O11  1  0.932196  0.680327  0.538060  1
  O  O12  1  0.067030  0.319690  0.031314  1
  O  O13  1  0.319673  0.067804  0.961940  1
  O  O14  1  0.680310  0.932970  0.468686  1
  O  O15  1  0.367759  0.632241  0.750000  1
  O  O16  1  0.635544  0.364456  0.250000  1
  O  O17  1  0.934854  0.682281  0.959553  1
  O  O18  1  0.064873  0.317804  0.466621  1
  O  O19  1  0.317719  0.065146  0.540447  1
  O  O20  1  0.682196  0.935127  0.033379  1
  F  F21  1  0.647299  0.352701  0.750000  1
