# generated using pymatgen
data_YbPt2F12
_symmetry_space_group_name_H-M   'P 1'
_cell_length_a   9.89074447
_cell_length_b   9.89074447
_cell_length_c   9.89074361
_cell_angle_alpha   131.70495585
_cell_angle_beta   131.70495699
_cell_angle_gamma   70.69541712
_symmetry_Int_Tables_number   1
_chemical_formula_structural   YbPt2F12
_chemical_formula_sum   'Yb2 Pt4 F24'
_cell_volume   528.30691027
_cell_formula_units_Z   2
loop_
 _symmetry_equiv_pos_site_id
 _symmetry_equiv_pos_as_xyz
  1  'x, y, z'
loop_
 _atom_site_type_symbol
 _atom_site_label
 _atom_site_symmetry_multiplicity
 _atom_site_fract_x
 _atom_site_fract_y
 _atom_site_fract_z
 _atom_site_occupancy
  Yb  Yb0  1  0.750000  0.250000  0.500000  1
  Yb  Yb1  1  0.000000  0.000000  0.000000  1
  Pt  Pt2  1  0.781655  0.781655  0.000000  1
  Pt  Pt3  1  0.218345  0.218345  0.000000  1
  Pt  Pt4  1  0.968345  0.468345  0.500000  1
  Pt  Pt5  1  0.531655  0.031655  0.500000  1
  F  F6  1  0.866253  0.739718  0.204331  1
  F  F7  1  0.535386  0.661923  0.795669  1
  F  F8  1  0.411923  0.785386  0.295669  1
  F  F9  1  0.338077  0.133747  0.873466  1
  F  F10  1  0.260282  0.464614  0.126534  1
  F  F11  1  0.214614  0.510282  0.626534  1
  F  F12  1  0.658121  0.275952  0.688933  1
  F  F13  1  0.724048  0.412981  0.382168  1
  F  F14  1  0.030814  0.341879  0.617832  1
  F  F15  1  0.091879  0.280814  0.117832  1
  F  F16  1  0.162981  0.974048  0.882168  1
  F  F17  1  0.587019  0.969186  0.311067  1
  F  F18  1  0.719186  0.837019  0.811067  1
  F  F19  1  0.025952  0.908121  0.188933  1
  F  F20  1  0.296058  0.085356  0.318015  1
  F  F21  1  0.914644  0.232659  0.210701  1
  F  F22  1  0.021958  0.703942  0.789299  1
  F  F23  1  0.453942  0.271958  0.289299  1
  F  F24  1  0.982659  0.164644  0.710701  1
  F  F25  1  0.767341  0.978042  0.681985  1
  F  F26  1  0.728042  0.017341  0.181985  1
  F  F27  1  0.835356  0.546058  0.818015  1
  F  F28  1  0.489718  0.116253  0.704331  1
  F  F29  1  0.883747  0.588077  0.373466  1
