# generated using pymatgen
data_Er10Tl6In2Pt3Rh
_symmetry_space_group_name_H-M   'P 1'
_cell_length_a   3.59285100
_cell_length_b   8.19888153
_cell_length_c   18.30934758
_cell_angle_alpha   89.88949194
_cell_angle_beta   90.00000000
_cell_angle_gamma   90.00000000
_symmetry_Int_Tables_number   1
_chemical_formula_structural   Er10Tl6In2Pt3Rh
_chemical_formula_sum   'Er10 Tl6 In2 Pt3 Rh1'
_cell_volume   539.34403417
_cell_formula_units_Z   1
loop_
 _symmetry_equiv_pos_site_id
 _symmetry_equiv_pos_as_xyz
  1  'x, y, z'
loop_
 _atom_site_type_symbol
 _atom_site_label
 _atom_site_symmetry_multiplicity
 _atom_site_fract_x
 _atom_site_fract_y
 _atom_site_fract_z
 _atom_site_occupancy
  Er  Er0  1  0.000000  0.111764  0.412840  1
  Er  Er1  1  0.000000  0.884603  0.584779  1
  Er  Er2  1  0.000000  0.387120  0.912145  1
  Er  Er3  1  0.000000  0.614983  0.089034  1
  Er  Er4  1  0.000000  0.238452  0.223396  1
  Er  Er5  1  0.000000  0.758630  0.777926  1
  Er  Er6  1  0.000000  0.258221  0.719593  1
  Er  Er7  1  0.000000  0.748595  0.280251  1
  Er  Er8  1  0.000000  0.000380  0.000387  1
  Er  Er9  1  0.000000  0.501197  0.499469  1
  Tl  Tl10  1  0.500000  0.418779  0.354525  1
  Tl  Tl11  1  0.500000  0.576961  0.645076  1
  Tl  Tl12  1  0.500000  0.078903  0.852524  1
  Tl  Tl13  1  0.500000  0.925118  0.149469  1
  Tl  Tl14  1  0.500000  0.292041  0.064532  1
  Tl  Tl15  1  0.500000  0.709371  0.936144  1
  In  In16  1  0.500000  0.205981  0.564200  1
  In  In17  1  0.500000  0.793794  0.432274  1
  Pt  Pt18  1  0.500000  0.978567  0.694402  1
  Pt  Pt19  1  0.500000  0.475680  0.802193  1
  Pt  Pt20  1  0.500000  0.522781  0.198472  1
  Rh  Rh21  1  0.500000  0.018081  0.306370  1
