# generated using pymatgen
data_Nd20Sn11Te5
_symmetry_space_group_name_H-M   'P 1'
_cell_length_a   8.37641799
_cell_length_b   8.43188045
_cell_length_c   15.93102032
_cell_angle_alpha   89.88042204
_cell_angle_beta   90.19293193
_cell_angle_gamma   90.24072350
_symmetry_Int_Tables_number   1
_chemical_formula_structural   Nd20Sn11Te5
_chemical_formula_sum   'Nd20 Sn11 Te5'
_cell_volume   1125.17258988
_cell_formula_units_Z   1
loop_
 _symmetry_equiv_pos_site_id
 _symmetry_equiv_pos_as_xyz
  1  'x, y, z'
loop_
 _atom_site_type_symbol
 _atom_site_label
 _atom_site_symmetry_multiplicity
 _atom_site_fract_x
 _atom_site_fract_y
 _atom_site_fract_z
 _atom_site_occupancy
  Nd  Nd0  1  0.055429  0.168944  0.391115  1
  Nd  Nd1  1  0.391462  0.832890  0.119319  1
  Nd  Nd2  1  0.110819  0.333532  0.620832  1
  Nd  Nd3  1  0.452940  0.676402  0.893976  1
  Nd  Nd4  1  0.890937  0.664106  0.121005  1
  Nd  Nd5  1  0.108096  0.337209  0.880459  1
  Nd  Nd6  1  0.218029  0.495995  0.245960  1
  Nd  Nd7  1  0.718027  0.001794  0.245987  1
  Nd  Nd8  1  0.446799  0.677644  0.609490  1
  Nd  Nd9  1  0.281970  0.997112  0.746764  1
  Nd  Nd10  1  0.606587  0.162903  0.619728  1
  Nd  Nd11  1  0.781186  0.504151  0.748896  1
  Nd  Nd12  1  0.893343  0.664892  0.379806  1
  Nd  Nd13  1  0.047289  0.174602  0.108051  1
  Nd  Nd14  1  0.953492  0.824295  0.894492  1
  Nd  Nd15  1  0.610228  0.162985  0.881369  1
  Nd  Nd16  1  0.547876  0.326279  0.108511  1
  Nd  Nd17  1  0.390138  0.837800  0.381769  1
  Nd  Nd18  1  0.952005  0.830101  0.607862  1
  Nd  Nd19  1  0.545117  0.321607  0.393958  1
  Sn  Sn20  1  0.649385  0.863038  0.750426  1
  Sn  Sn21  1  0.849572  0.360872  0.253144  1
  Sn  Sn22  1  0.589060  0.620519  0.253948  1
  Sn  Sn23  1  0.229772  0.521335  0.043013  1
  Sn  Sn24  1  0.411743  0.379086  0.751111  1
  Sn  Sn25  1  0.148537  0.639125  0.750401  1
  Sn  Sn26  1  0.909903  0.121622  0.750899  1
  Sn  Sn27  1  0.270285  0.023192  0.544705  1
  Sn  Sn28  1  0.731131  0.976938  0.043519  1
  Sn  Sn29  1  0.351599  0.135899  0.251144  1
  Sn  Sn30  1  0.090368  0.877087  0.251566  1
  Te  Te31  1  0.765577  0.484798  0.546515  1
  Te  Te32  1  0.734111  0.982266  0.452505  1
  Te  Te33  1  0.231004  0.516821  0.452451  1
  Te  Te34  1  0.268516  0.021016  0.952720  1
  Te  Te35  1  0.767668  0.481146  0.952585  1
