# generated using pymatgen
data_Ca20Cd3GaNi8
_symmetry_space_group_name_H-M   'P 1'
_cell_length_a   7.71960000
_cell_length_b   7.71960000
_cell_length_c   14.97116400
_cell_angle_alpha   90.00000000
_cell_angle_beta   90.00000000
_cell_angle_gamma   90.00000000
_symmetry_Int_Tables_number   1
_chemical_formula_structural   Ca20Cd3GaNi8
_chemical_formula_sum   'Ca20 Cd3 Ga1 Ni8'
_cell_volume   892.16496102
_cell_formula_units_Z   1
loop_
 _symmetry_equiv_pos_site_id
 _symmetry_equiv_pos_as_xyz
  1  'x, y, z'
loop_
 _atom_site_type_symbol
 _atom_site_label
 _atom_site_symmetry_multiplicity
 _atom_site_fract_x
 _atom_site_fract_y
 _atom_site_fract_z
 _atom_site_occupancy
  Ca  Ca0  1  0.675650  0.166578  0.114087  1
  Ca  Ca1  1  0.170598  0.669968  0.619271  1
  Ca  Ca2  1  0.324350  0.833422  0.114087  1
  Ca  Ca3  1  0.829402  0.330032  0.619271  1
  Ca  Ca4  1  0.833422  0.675650  0.114087  1
  Ca  Ca5  1  0.330032  0.170598  0.619271  1
  Ca  Ca6  1  0.166578  0.324350  0.114087  1
  Ca  Ca7  1  0.669968  0.829402  0.619271  1
  Ca  Ca8  1  0.833422  0.324350  0.885913  1
  Ca  Ca9  1  0.330032  0.829402  0.380729  1
  Ca  Ca10  1  0.166578  0.675650  0.885913  1
  Ca  Ca11  1  0.669968  0.170598  0.380729  1
  Ca  Ca12  1  0.675650  0.833422  0.885913  1
  Ca  Ca13  1  0.170598  0.330032  0.380729  1
  Ca  Ca14  1  0.324350  0.166578  0.885913  1
  Ca  Ca15  1  0.829402  0.669968  0.380729  1
  Ca  Ca16  1  0.500000  0.500000  0.754725  1
  Ca  Ca17  1  0.000000  0.000000  0.248288  1
  Ca  Ca18  1  0.000000  0.000000  0.751712  1
  Ca  Ca19  1  0.500000  0.500000  0.245275  1
  Cd  Cd20  1  0.500000  0.500000  0.500000  1
  Cd  Cd21  1  0.500000  0.500000  0.000000  1
  Cd  Cd22  1  0.000000  0.000000  0.500000  1
  Ga  Ga23  1  0.000000  0.000000  0.000000  1
  Ni  Ni24  1  0.609287  0.109620  0.751527  1
  Ni  Ni25  1  0.109620  0.609287  0.248473  1
  Ni  Ni26  1  0.890380  0.390713  0.248473  1
  Ni  Ni27  1  0.390713  0.890380  0.751527  1
  Ni  Ni28  1  0.890380  0.609287  0.751527  1
  Ni  Ni29  1  0.390713  0.109620  0.248473  1
  Ni  Ni30  1  0.109620  0.390713  0.751527  1
  Ni  Ni31  1  0.609287  0.890380  0.248473  1
