# generated using pymatgen
data_Ca10Mn3AsN14
_symmetry_space_group_name_H-M   'P 1'
_cell_length_a   6.02854416
_cell_length_b   8.59034048
_cell_length_c   8.65404100
_cell_angle_alpha   115.23158969
_cell_angle_beta   96.82511077
_cell_angle_gamma   89.30652633
_symmetry_Int_Tables_number   1
_chemical_formula_structural   Ca10Mn3AsN14
_chemical_formula_sum   'Ca10 Mn3 As1 N14'
_cell_volume   402.16615864
_cell_formula_units_Z   1
loop_
 _symmetry_equiv_pos_site_id
 _symmetry_equiv_pos_as_xyz
  1  'x, y, z'
loop_
 _atom_site_type_symbol
 _atom_site_label
 _atom_site_symmetry_multiplicity
 _atom_site_fract_x
 _atom_site_fract_y
 _atom_site_fract_z
 _atom_site_occupancy
  Ca  Ca0  1  0.840582  0.594777  0.325727  1
  Ca  Ca1  1  0.263715  0.981049  0.560191  1
  Ca  Ca2  1  0.716545  0.418005  0.857090  1
  Ca  Ca3  1  0.287341  0.584191  0.142809  1
  Ca  Ca4  1  0.408062  0.792395  0.927890  1
  Ca  Ca5  1  0.591190  0.205666  0.072132  1
  Ca  Ca6  1  0.158171  0.408728  0.676783  1
  Ca  Ca7  1  0.898429  0.849214  0.769992  1
  Ca  Ca8  1  0.098582  0.150634  0.231993  1
  Ca  Ca9  1  0.733370  0.014473  0.430936  1
  Mn  Mn10  1  0.572936  0.362958  0.476230  1
  Mn  Mn11  1  0.427792  0.638027  0.525910  1
  Mn  Mn12  1  0.122104  0.214976  0.911445  1
  As  As13  1  0.878183  0.783035  0.085118  1
  N  N14  1  0.534711  0.550807  0.676407  1
  N  N15  1  0.465816  0.449793  0.325633  1
  N  N16  1  0.163389  0.696667  0.555183  1
  N  N17  1  0.839635  0.304379  0.446227  1
  N  N18  1  0.412546  0.194977  0.467986  1
  N  N19  1  0.589678  0.806970  0.536171  1
  N  N20  1  0.950118  0.140711  0.716900  1
  N  N21  1  0.055112  0.862867  0.291214  1
  N  N22  1  0.227976  0.047537  0.954549  1
  N  N23  1  0.760347  0.960568  0.044485  1
  N  N24  1  0.355891  0.319753  0.892909  1
  N  N25  1  0.973295  0.349339  0.079414  1
  N  N26  1  0.039407  0.647238  0.912350  1
  N  N27  1  0.635077  0.670262  0.106324  1
