# generated using pymatgen
data_Hf2SnRh5
_symmetry_space_group_name_H-M   'P 1'
_cell_length_a   4.15523100
_cell_length_b   5.62062400
_cell_length_c   11.10851000
_cell_angle_alpha   90.00000000
_cell_angle_beta   90.00000000
_cell_angle_gamma   90.00000000
_symmetry_Int_Tables_number   1
_chemical_formula_structural   Hf2SnRh5
_chemical_formula_sum   'Hf4 Sn2 Rh10'
_cell_volume   259.43915201
_cell_formula_units_Z   2
loop_
 _symmetry_equiv_pos_site_id
 _symmetry_equiv_pos_as_xyz
  1  'x, y, z'
loop_
 _atom_site_type_symbol
 _atom_site_label
 _atom_site_symmetry_multiplicity
 _atom_site_fract_x
 _atom_site_fract_y
 _atom_site_fract_z
 _atom_site_occupancy
  Hf  Hf0  1  0.500000  0.178387  0.641853  1
  Hf  Hf1  1  0.500000  0.821613  0.358147  1
  Hf  Hf2  1  0.500000  0.678387  0.858147  1
  Hf  Hf3  1  0.500000  0.321613  0.141853  1
  Sn  Sn4  1  0.000000  0.500000  0.500000  1
  Sn  Sn5  1  0.000000  0.000000  0.000000  1
  Rh  Rh6  1  0.500000  0.201503  0.885383  1
  Rh  Rh7  1  0.500000  0.798497  0.114617  1
  Rh  Rh8  1  0.500000  0.701503  0.614617  1
  Rh  Rh9  1  0.500000  0.298497  0.385383  1
  Rh  Rh10  1  0.000000  0.436145  0.747858  1
  Rh  Rh11  1  0.000000  0.563855  0.252142  1
  Rh  Rh12  1  0.000000  0.000000  0.500000  1
  Rh  Rh13  1  0.000000  0.500000  0.000000  1
  Rh  Rh14  1  0.000000  0.063855  0.247858  1
  Rh  Rh15  1  0.000000  0.936145  0.752142  1
