# generated using pymatgen
data_Th4Si6NiAg
_symmetry_space_group_name_H-M   'P 1'
_cell_length_a   8.27232280
_cell_length_b   8.18739232
_cell_length_c   5.92307153
_cell_angle_alpha   69.67739510
_cell_angle_beta   68.14428387
_cell_angle_gamma   42.17832540
_symmetry_Int_Tables_number   1
_chemical_formula_structural   Th4Si6NiAg
_chemical_formula_sum   'Th4 Si6 Ni1 Ag1'
_cell_volume   248.34856285
_cell_formula_units_Z   1
loop_
 _symmetry_equiv_pos_site_id
 _symmetry_equiv_pos_as_xyz
  1  'x, y, z'
loop_
 _atom_site_type_symbol
 _atom_site_label
 _atom_site_symmetry_multiplicity
 _atom_site_fract_x
 _atom_site_fract_y
 _atom_site_fract_z
 _atom_site_occupancy
  Th  Th0  1  0.746567  0.746567  0.753433  1
  Th  Th1  1  0.759494  0.246449  0.753551  1
  Th  Th2  1  0.246567  0.246567  0.253433  1
  Th  Th3  1  0.246449  0.759494  0.240506  1
  Si  Si4  1  0.826328  0.348205  0.173672  1
  Si  Si5  1  0.677912  0.159902  0.322088  1
  Si  Si6  1  0.159902  0.677912  0.840098  1
  Si  Si7  1  0.348205  0.826328  0.651795  1
  Si  Si8  1  0.162398  0.162398  0.837602  1
  Si  Si9  1  0.825432  0.825432  0.174568  1
  Ni  Ni10  1  0.665757  0.665757  0.334243  1
  Ag  Ag11  1  0.334988  0.334988  0.665012  1
