# generated using pymatgen
data_Nd8Ho12Si15Pd
_symmetry_space_group_name_H-M   'P 1'
_cell_length_a   7.52783323
_cell_length_b   7.76620351
_cell_length_c   14.76669833
_cell_angle_alpha   89.87538982
_cell_angle_beta   89.74209498
_cell_angle_gamma   90.25225706
_symmetry_Int_Tables_number   1
_chemical_formula_structural   Nd8Ho12Si15Pd
_chemical_formula_sum   'Nd8 Ho12 Si15 Pd1'
_cell_volume   863.28163862
_cell_formula_units_Z   1
loop_
 _symmetry_equiv_pos_site_id
 _symmetry_equiv_pos_as_xyz
  1  'x, y, z'
loop_
 _atom_site_type_symbol
 _atom_site_label
 _atom_site_symmetry_multiplicity
 _atom_site_fract_x
 _atom_site_fract_y
 _atom_site_fract_z
 _atom_site_occupancy
  Nd  Nd0  1  0.976488  0.820719  0.098690  1
  Nd  Nd1  1  0.475005  0.679073  0.401881  1
  Nd  Nd2  1  0.524491  0.322207  0.899716  1
  Nd  Nd3  1  0.026033  0.179391  0.598314  1
  Nd  Nd4  1  0.024983  0.178070  0.901372  1
  Nd  Nd5  1  0.525786  0.320571  0.598456  1
  Nd  Nd6  1  0.474239  0.678813  0.099994  1
  Nd  Nd7  1  0.974135  0.820511  0.401121  1
  Ho  Ho8  1  0.649952  0.991975  0.249886  1
  Ho  Ho9  1  0.149993  0.509734  0.248258  1
  Ho  Ho10  1  0.847834  0.491532  0.752873  1
  Ho  Ho11  1  0.348576  0.010385  0.750471  1
  Ho  Ho12  1  0.678470  0.819716  0.878663  1
  Ho  Ho13  1  0.180025  0.679758  0.622591  1
  Ho  Ho14  1  0.821444  0.328022  0.121638  1
  Ho  Ho15  1  0.318259  0.177273  0.376532  1
  Ho  Ho16  1  0.321183  0.178192  0.123439  1
  Ho  Ho17  1  0.819624  0.320691  0.377012  1
  Ho  Ho18  1  0.178580  0.674892  0.878099  1
  Ho  Ho19  1  0.681583  0.821579  0.623080  1
  Si  Si20  1  0.767239  0.622652  0.250852  1
  Si  Si21  1  0.269007  0.877779  0.250825  1
  Si  Si22  1  0.731407  0.120636  0.749602  1
  Si  Si23  1  0.230962  0.378923  0.748055  1
  Si  Si24  1  0.023038  0.112971  0.249459  1
  Si  Si25  1  0.525347  0.388181  0.251295  1
  Si  Si26  1  0.472504  0.612241  0.747847  1
  Si  Si27  1  0.975348  0.887287  0.749088  1
  Si  Si28  1  0.355635  0.969376  0.539657  1
  Si  Si29  1  0.644771  0.031200  0.040534  1
  Si  Si30  1  0.145141  0.468479  0.460317  1
  Si  Si31  1  0.152904  0.467378  0.041985  1
  Si  Si32  1  0.644376  0.030670  0.459999  1
  Si  Si33  1  0.354645  0.968802  0.960391  1
  Si  Si34  1  0.856335  0.530814  0.539120  1
  Pd  Pd35  1  0.854656  0.529506  0.958888  1
