# generated using pymatgen
data_Tb4VTc3B16
_symmetry_space_group_name_H-M   'P 1'
_cell_length_a   3.58446900
_cell_length_b   5.98052078
_cell_length_c   11.57146834
_cell_angle_alpha   90.12892768
_cell_angle_beta   90.00000000
_cell_angle_gamma   90.00000000
_symmetry_Int_Tables_number   1
_chemical_formula_structural   Tb4VTc3B16
_chemical_formula_sum   'Tb4 V1 Tc3 B16'
_cell_volume   248.05683845
_cell_formula_units_Z   1
loop_
 _symmetry_equiv_pos_site_id
 _symmetry_equiv_pos_as_xyz
  1  'x, y, z'
loop_
 _atom_site_type_symbol
 _atom_site_label
 _atom_site_symmetry_multiplicity
 _atom_site_fract_x
 _atom_site_fract_y
 _atom_site_fract_z
 _atom_site_occupancy
  Tb  Tb0  1  0.000000  0.125470  0.150012  1
  Tb  Tb1  1  0.000000  0.874865  0.849890  1
  Tb  Tb2  1  0.000000  0.626311  0.349517  1
  Tb  Tb3  1  0.000000  0.373465  0.651243  1
  V  V4  1  0.000000  0.372828  0.917960  1
  Tc  Tc5  1  0.000000  0.132971  0.412964  1
  Tc  Tc6  1  0.000000  0.867249  0.585971  1
  Tc  Tc7  1  0.000000  0.626387  0.083251  1
  B  B8  1  0.500000  0.476295  0.191834  1
  B  B9  1  0.500000  0.523890  0.808059  1
  B  B10  1  0.500000  0.975388  0.308109  1
  B  B11  1  0.500000  0.024616  0.692050  1
  B  B12  1  0.500000  0.284322  0.314464  1
  B  B13  1  0.500000  0.715728  0.685289  1
  B  B14  1  0.500000  0.784637  0.184362  1
  B  B15  1  0.500000  0.215040  0.815158  1
  B  B16  1  0.500000  0.363890  0.468599  1
  B  B17  1  0.500000  0.636217  0.531421  1
  B  B18  1  0.500000  0.864164  0.032389  1
  B  B19  1  0.500000  0.135440  0.967476  1
  B  B20  1  0.500000  0.386213  0.046808  1
  B  B21  1  0.500000  0.614195  0.953060  1
  B  B22  1  0.500000  0.886771  0.453098  1
  B  B23  1  0.500000  0.113649  0.547016  1
