# generated using pymatgen
data_Tb6ScCo17(Si5P)2
_symmetry_space_group_name_H-M   'P 1'
_cell_length_a   3.77784700
_cell_length_b   10.79411000
_cell_length_c   12.46812500
_cell_angle_alpha   90.00000000
_cell_angle_beta   90.00000000
_cell_angle_gamma   90.00000000
_symmetry_Int_Tables_number   1
_chemical_formula_structural   Tb6ScCo17(Si5P)2
_chemical_formula_sum   'Tb6 Sc1 Co17 Si10 P2'
_cell_volume   508.43138645
_cell_formula_units_Z   1
loop_
 _symmetry_equiv_pos_site_id
 _symmetry_equiv_pos_as_xyz
  1  'x, y, z'
loop_
 _atom_site_type_symbol
 _atom_site_label
 _atom_site_symmetry_multiplicity
 _atom_site_fract_x
 _atom_site_fract_y
 _atom_site_fract_z
 _atom_site_occupancy
  Tb  Tb0  1  0.000000  0.500000  0.529500  1
  Tb  Tb1  1  0.500000  0.000000  0.474038  1
  Tb  Tb2  1  0.500000  0.819527  0.205944  1
  Tb  Tb3  1  0.500000  0.180473  0.205944  1
  Tb  Tb4  1  0.000000  0.684384  0.795210  1
  Tb  Tb5  1  0.000000  0.315616  0.795210  1
  Sc  Sc6  1  0.500000  0.500000  0.145857  1
  Co  Co7  1  0.000000  0.000000  0.847890  1
  Co  Co8  1  0.500000  0.500000  0.698626  1
  Co  Co9  1  0.000000  0.000000  0.302864  1
  Co  Co10  1  0.000000  0.500000  0.985922  1
  Co  Co11  1  0.500000  0.000000  0.016592  1
  Co  Co12  1  0.500000  0.325773  0.993309  1
  Co  Co13  1  0.500000  0.674227  0.993309  1
  Co  Co14  1  0.000000  0.164240  0.002493  1
  Co  Co15  1  0.000000  0.835760  0.002493  1
  Co  Co16  1  0.500000  0.299603  0.433567  1
  Co  Co17  1  0.500000  0.700397  0.433567  1
  Co  Co18  1  0.000000  0.196737  0.571916  1
  Co  Co19  1  0.000000  0.803263  0.571916  1
  Co  Co20  1  0.500000  0.884084  0.708179  1
  Co  Co21  1  0.500000  0.115916  0.708179  1
  Co  Co22  1  0.000000  0.619676  0.290026  1
  Co  Co23  1  0.000000  0.380324  0.290026  1
  Si  Si24  1  0.500000  0.500000  0.884453  1
  Si  Si25  1  0.000000  0.000000  0.116917  1
  Si  Si26  1  0.500000  0.500000  0.352137  1
  Si  Si27  1  0.000000  0.000000  0.662051  1
  Si  Si28  1  0.500000  0.302217  0.616137  1
  Si  Si29  1  0.500000  0.697783  0.616137  1
  Si  Si30  1  0.000000  0.196697  0.386870  1
  Si  Si31  1  0.000000  0.803303  0.386870  1
  Si  Si32  1  0.500000  0.856397  0.891120  1
  Si  Si33  1  0.500000  0.143603  0.891120  1
  P  P34  1  0.000000  0.663652  0.096807  1
  P  P35  1  0.000000  0.336348  0.096807  1
