# generated using pymatgen
data_ThI28
_symmetry_space_group_name_H-M   'P 1'
_cell_length_a   12.76163752
_cell_length_b   11.19918110
_cell_length_c   13.29743900
_cell_angle_alpha   114.68993709
_cell_angle_beta   123.35253370
_cell_angle_gamma   88.16123975
_symmetry_Int_Tables_number   1
_chemical_formula_structural   ThI28
_chemical_formula_sum   'Th1 I28'
_cell_volume   1392.61761328
_cell_formula_units_Z   1
loop_
 _symmetry_equiv_pos_site_id
 _symmetry_equiv_pos_as_xyz
  1  'x, y, z'
loop_
 _atom_site_type_symbol
 _atom_site_label
 _atom_site_symmetry_multiplicity
 _atom_site_fract_x
 _atom_site_fract_y
 _atom_site_fract_z
 _atom_site_occupancy
  Th  Th0  1  0.500000  0.000000  0.000000  1
  I  I1  1  0.159825  0.101910  0.392882  1
  I  I2  1  0.648011  0.144006  0.477593  1
  I  I3  1  0.307786  0.364784  0.977913  1
  I  I4  1  0.960201  0.294254  0.883869  1
  I  I5  1  0.186941  0.543433  0.709283  1
  I  I6  1  0.669213  0.537142  0.529381  1
  I  I7  1  0.351989  0.855994  0.522407  1
  I  I8  1  0.840175  0.898090  0.607118  1
  I  I9  1  0.039799  0.705746  0.116131  1
  I  I10  1  0.692214  0.635216  0.022087  1
  I  I11  1  0.330787  0.462858  0.470619  1
  I  I12  1  0.813059  0.456567  0.290717  1
  I  I13  1  0.755523  0.983030  0.779167  1
  I  I14  1  0.269857  0.978708  0.729009  1
  I  I15  1  0.832257  0.621157  0.807676  1
  I  I16  1  0.336010  0.866556  0.049487  1
  I  I17  1  0.490480  0.279204  0.180489  1
  I  I18  1  0.984988  0.268842  0.325507  1
  I  I19  1  0.730143  0.021292  0.270991  1
  I  I20  1  0.244477  0.016970  0.220833  1
  I  I21  1  0.663990  0.133444  0.950513  1
  I  I22  1  0.167743  0.378843  0.192324  1
  I  I23  1  0.015012  0.731158  0.674493  1
  I  I24  1  0.509520  0.720796  0.819511  1
  I  I25  1  0.070457  0.425502  0.803541  1
  I  I26  1  0.569725  0.247695  0.645770  1
  I  I27  1  0.430275  0.752305  0.354230  1
  I  I28  1  0.929543  0.574498  0.196459  1
