# generated using pymatgen
data_TbEuEr2(Ga2Ag)4
_symmetry_space_group_name_H-M   'P 1'
_cell_length_a   4.38201600
_cell_length_b   7.01434356
_cell_length_c   10.33798457
_cell_angle_alpha   89.59691608
_cell_angle_beta   90.00000000
_cell_angle_gamma   90.00000000
_symmetry_Int_Tables_number   1
_chemical_formula_structural   TbEuEr2(Ga2Ag)4
_chemical_formula_sum   'Tb1 Eu1 Er2 Ga8 Ag4'
_cell_volume   317.75041385
_cell_formula_units_Z   1
loop_
 _symmetry_equiv_pos_site_id
 _symmetry_equiv_pos_as_xyz
  1  'x, y, z'
loop_
 _atom_site_type_symbol
 _atom_site_label
 _atom_site_symmetry_multiplicity
 _atom_site_fract_x
 _atom_site_fract_y
 _atom_site_fract_z
 _atom_site_occupancy
  Tb  Tb0  1  0.250000  0.280178  0.672356  1
  Eu  Eu1  1  0.250000  0.778041  0.826534  1
  Er  Er2  1  0.750000  0.221140  0.173351  1
  Er  Er3  1  0.750000  0.721768  0.326681  1
  Ga  Ga4  1  0.250000  0.929007  0.155730  1
  Ga  Ga5  1  0.750000  0.075861  0.847561  1
  Ga  Ga6  1  0.750000  0.571035  0.651379  1
  Ga  Ga7  1  0.250000  0.427930  0.344764  1
  Ga  Ga8  1  0.250000  0.700160  0.533289  1
  Ga  Ga9  1  0.750000  0.296714  0.461967  1
  Ga  Ga10  1  0.750000  0.797976  0.038547  1
  Ga  Ga11  1  0.250000  0.204358  0.965453  1
  Ag  Ag12  1  0.250000  0.542597  0.100075  1
  Ag  Ag13  1  0.750000  0.453605  0.905702  1
  Ag  Ag14  1  0.750000  0.956303  0.594010  1
  Ag  Ag15  1  0.250000  0.043327  0.402600  1
