# generated using pymatgen
data_ThMnAl10Pd
_symmetry_space_group_name_H-M   'P 1'
_cell_length_a   6.88522729
_cell_length_b   6.88663605
_cell_length_c   9.23094278
_cell_angle_alpha   90.50634640
_cell_angle_beta   90.49900281
_cell_angle_gamma   97.52858877
_symmetry_Int_Tables_number   1
_chemical_formula_structural   ThMnAl10Pd
_chemical_formula_sum   'Th2 Mn2 Al20 Pd2'
_cell_volume   433.88334683
_cell_formula_units_Z   2
loop_
 _symmetry_equiv_pos_site_id
 _symmetry_equiv_pos_as_xyz
  1  'x, y, z'
loop_
 _atom_site_type_symbol
 _atom_site_label
 _atom_site_symmetry_multiplicity
 _atom_site_fract_x
 _atom_site_fract_y
 _atom_site_fract_z
 _atom_site_occupancy
  Th  Th0  1  0.874092  0.126075  0.749934  1
  Th  Th1  1  0.125908  0.873925  0.250066  1
  Mn  Mn2  1  0.000000  0.500000  0.000000  1
  Mn  Mn3  1  0.500000  0.000000  0.500000  1
  Al  Al4  1  0.517852  0.774160  0.739438  1
  Al  Al5  1  0.482148  0.225840  0.260562  1
  Al  Al6  1  0.595451  0.860875  0.254360  1
  Al  Al7  1  0.781828  0.773723  0.003314  1
  Al  Al8  1  0.163152  0.847178  0.602090  1
  Al  Al9  1  0.218172  0.226277  0.996686  1
  Al  Al10  1  0.139332  0.404488  0.245875  1
  Al  Al11  1  0.627969  0.384197  0.950123  1
  Al  Al12  1  0.847084  0.162876  0.102202  1
  Al  Al13  1  0.384270  0.628192  0.450177  1
  Al  Al14  1  0.152916  0.837124  0.897798  1
  Al  Al15  1  0.226016  0.482072  0.760380  1
  Al  Al16  1  0.372031  0.615803  0.049877  1
  Al  Al17  1  0.836848  0.152822  0.397910  1
  Al  Al18  1  0.615730  0.371808  0.549823  1
  Al  Al19  1  0.404549  0.139125  0.745640  1
  Al  Al20  1  0.773984  0.517928  0.239620  1
  Al  Al21  1  0.773510  0.781949  0.503343  1
  Al  Al22  1  0.226490  0.218051  0.496657  1
  Al  Al23  1  0.860668  0.595512  0.754125  1
  Pd  Pd24  1  0.000000  0.500000  0.500000  1
  Pd  Pd25  1  0.500000  0.000000  0.000000  1
