# generated using pymatgen
data_SrCaGd(Si3Pd10)2
_symmetry_space_group_name_H-M   'P 1'
_cell_length_a   8.75494767
_cell_length_b   8.75494797
_cell_length_c   8.75494800
_cell_angle_alpha   59.99999989
_cell_angle_beta   59.99999877
_cell_angle_gamma   59.99999812
_symmetry_Int_Tables_number   1
_chemical_formula_structural   SrCaGd(Si3Pd10)2
_chemical_formula_sum   'Sr1 Ca1 Gd1 Si6 Pd20'
_cell_volume   474.51034687
_cell_formula_units_Z   1
loop_
 _symmetry_equiv_pos_site_id
 _symmetry_equiv_pos_as_xyz
  1  'x, y, z'
loop_
 _atom_site_type_symbol
 _atom_site_label
 _atom_site_symmetry_multiplicity
 _atom_site_fract_x
 _atom_site_fract_y
 _atom_site_fract_z
 _atom_site_occupancy
  Sr  Sr0  1  0.250000  0.250000  0.250000  1
  Ca  Ca1  1  0.000000  0.000000  0.000000  1
  Gd  Gd2  1  0.750000  0.750000  0.750000  1
  Si  Si3  1  0.733435  0.733435  0.266565  1
  Si  Si4  1  0.266565  0.266565  0.733435  1
  Si  Si5  1  0.733435  0.266565  0.733435  1
  Si  Si6  1  0.266565  0.733435  0.266565  1
  Si  Si7  1  0.266565  0.733435  0.733435  1
  Si  Si8  1  0.733435  0.266565  0.266565  1
  Pd  Pd9  1  0.616866  0.616866  0.616866  1
  Pd  Pd10  1  0.388105  0.388105  0.388105  1
  Pd  Pd11  1  0.149402  0.616866  0.616866  1
  Pd  Pd12  1  0.616866  0.149402  0.616866  1
  Pd  Pd13  1  0.835687  0.388105  0.388105  1
  Pd  Pd14  1  0.388105  0.835687  0.388105  1
  Pd  Pd15  1  0.616866  0.616866  0.149402  1
  Pd  Pd16  1  0.388105  0.388105  0.835687  1
  Pd  Pd17  1  0.996849  0.996849  0.657765  1
  Pd  Pd18  1  0.996849  0.996849  0.348539  1
  Pd  Pd19  1  0.348539  0.657765  0.996849  1
  Pd  Pd20  1  0.657765  0.348539  0.996849  1
  Pd  Pd21  1  0.996849  0.657765  0.996849  1
  Pd  Pd22  1  0.657765  0.996849  0.348539  1
  Pd  Pd23  1  0.996849  0.348539  0.996849  1
  Pd  Pd24  1  0.348539  0.996849  0.657765  1
  Pd  Pd25  1  0.657765  0.996849  0.996849  1
  Pd  Pd26  1  0.348539  0.996849  0.996849  1
  Pd  Pd27  1  0.996849  0.657765  0.348539  1
  Pd  Pd28  1  0.996849  0.348539  0.657765  1
