# generated using pymatgen
data_Gd2Zr7O16
_symmetry_space_group_name_H-M   'P 1'
_cell_length_a   9.68025242
_cell_length_b   9.68035003
_cell_length_c   9.68020387
_cell_angle_alpha   38.55115880
_cell_angle_beta   38.55060428
_cell_angle_gamma   38.55066878
_symmetry_Int_Tables_number   1
_chemical_formula_structural   Gd2Zr7O16
_chemical_formula_sum   'Gd2 Zr7 O16'
_cell_volume   316.57457530
_cell_formula_units_Z   1
loop_
 _symmetry_equiv_pos_site_id
 _symmetry_equiv_pos_as_xyz
  1  'x, y, z'
loop_
 _atom_site_type_symbol
 _atom_site_label
 _atom_site_symmetry_multiplicity
 _atom_site_fract_x
 _atom_site_fract_y
 _atom_site_fract_z
 _atom_site_occupancy
  Gd  Gd0  1  0.329326  0.329325  0.329310  1
  Gd  Gd1  1  0.670674  0.670675  0.670690  1
  Zr  Zr2  1  0.494446  0.727592  0.128724  1
  Zr  Zr3  1  0.272398  0.871274  0.505565  1
  Zr  Zr4  1  0.871277  0.505559  0.272399  1
  Zr  Zr5  1  0.000000  0.000000  0.000000  1
  Zr  Zr6  1  0.128723  0.494441  0.727601  1
  Zr  Zr7  1  0.727602  0.128726  0.494435  1
  Zr  Zr8  1  0.505554  0.272408  0.871276  1
  O  O9  1  0.341251  0.750713  0.021774  1
  O  O10  1  0.595291  0.857512  0.143360  1
  O  O11  1  0.142488  0.856642  0.404710  1
  O  O12  1  0.249282  0.978235  0.658745  1
  O  O13  1  0.978233  0.658747  0.249277  1
  O  O14  1  0.856639  0.404709  0.142491  1
  O  O15  1  0.762161  0.762160  0.762159  1
  O  O16  1  0.585306  0.585307  0.585300  1
  O  O17  1  0.237839  0.237840  0.237841  1
  O  O18  1  0.414694  0.414693  0.414700  1
  O  O19  1  0.143361  0.595291  0.857509  1
  O  O20  1  0.021767  0.341253  0.750723  1
  O  O21  1  0.750718  0.021765  0.341255  1
  O  O22  1  0.857512  0.143358  0.595290  1
  O  O23  1  0.404709  0.142488  0.856640  1
  O  O24  1  0.658749  0.249287  0.978226  1
