# generated using pymatgen
data_CaPr2(ErSn2)2
_symmetry_space_group_name_H-M   'P 1'
_cell_length_a   7.99274100
_cell_length_b   8.40955100
_cell_length_c   15.71418200
_cell_angle_alpha   90.00000000
_cell_angle_beta   90.00000000
_cell_angle_gamma   90.00000000
_symmetry_Int_Tables_number   1
_chemical_formula_structural   CaPr2(ErSn2)2
_chemical_formula_sum   'Ca4 Pr8 Er8 Sn16'
_cell_volume   1056.23444847
_cell_formula_units_Z   4
loop_
 _symmetry_equiv_pos_site_id
 _symmetry_equiv_pos_as_xyz
  1  'x, y, z'
loop_
 _atom_site_type_symbol
 _atom_site_label
 _atom_site_symmetry_multiplicity
 _atom_site_fract_x
 _atom_site_fract_y
 _atom_site_fract_z
 _atom_site_occupancy
  Ca  Ca0  1  0.166660  0.498789  0.750000  1
  Ca  Ca1  1  0.666660  0.001211  0.750000  1
  Ca  Ca2  1  0.833340  0.501211  0.250000  1
  Ca  Ca3  1  0.333340  0.998789  0.250000  1
  Pr  Pr4  1  0.495063  0.320045  0.904937  1
  Pr  Pr5  1  0.995063  0.179955  0.595063  1
  Pr  Pr6  1  0.504937  0.679955  0.404937  1
  Pr  Pr7  1  0.004937  0.820045  0.095063  1
  Pr  Pr8  1  0.504937  0.679955  0.095063  1
  Pr  Pr9  1  0.004937  0.820045  0.404937  1
  Pr  Pr10  1  0.495063  0.320045  0.595063  1
  Pr  Pr11  1  0.995063  0.179955  0.904937  1
  Er  Er12  1  0.335543  0.828322  0.875730  1
  Er  Er13  1  0.835543  0.671678  0.624270  1
  Er  Er14  1  0.664457  0.171678  0.375730  1
  Er  Er15  1  0.164457  0.328322  0.124270  1
  Er  Er16  1  0.664457  0.171678  0.124270  1
  Er  Er17  1  0.164457  0.328322  0.375730  1
  Er  Er18  1  0.335543  0.828322  0.624270  1
  Er  Er19  1  0.835543  0.671678  0.875730  1
  Sn  Sn20  1  0.324383  0.039269  0.037558  1
  Sn  Sn21  1  0.824383  0.460731  0.462442  1
  Sn  Sn22  1  0.675617  0.960731  0.537558  1
  Sn  Sn23  1  0.175617  0.539269  0.962442  1
  Sn  Sn24  1  0.675617  0.960731  0.962442  1
  Sn  Sn25  1  0.175617  0.539269  0.537558  1
  Sn  Sn26  1  0.324383  0.039269  0.462442  1
  Sn  Sn27  1  0.824383  0.460731  0.037558  1
  Sn  Sn28  1  0.535587  0.616021  0.750000  1
  Sn  Sn29  1  0.035587  0.883979  0.750000  1
  Sn  Sn30  1  0.464413  0.383979  0.250000  1
  Sn  Sn31  1  0.964413  0.116021  0.250000  1
  Sn  Sn32  1  0.295905  0.134806  0.750000  1
  Sn  Sn33  1  0.795905  0.365194  0.750000  1
  Sn  Sn34  1  0.704095  0.865194  0.250000  1
  Sn  Sn35  1  0.204095  0.634806  0.250000  1
