# generated using pymatgen
data_Pr4YPb3Br
_symmetry_space_group_name_H-M   'P 1'
_cell_length_a   9.61212100
_cell_length_b   9.61218059
_cell_length_c   6.81797900
_cell_angle_alpha   89.99883765
_cell_angle_beta   90.00057820
_cell_angle_gamma   120.00019759
_symmetry_Int_Tables_number   1
_chemical_formula_structural   Pr4YPb3Br
_chemical_formula_sum   'Pr8 Y2 Pb6 Br2'
_cell_volume   545.53997171
_cell_formula_units_Z   2
loop_
 _symmetry_equiv_pos_site_id
 _symmetry_equiv_pos_as_xyz
  1  'x, y, z'
loop_
 _atom_site_type_symbol
 _atom_site_label
 _atom_site_symmetry_multiplicity
 _atom_site_fract_x
 _atom_site_fract_y
 _atom_site_fract_z
 _atom_site_occupancy
  Pr  Pr0  1  0.734857  0.734817  0.251089  1
  Pr  Pr1  1  0.999765  0.734662  0.748376  1
  Pr  Pr2  1  0.734722  0.999777  0.749265  1
  Pr  Pr3  1  0.265143  0.265183  0.748911  1
  Pr  Pr4  1  0.000235  0.265338  0.251624  1
  Pr  Pr5  1  0.265278  0.000223  0.250735  1
  Pr  Pr6  1  0.333348  0.666692  0.000172  1
  Pr  Pr7  1  0.666652  0.333308  0.999828  1
  Y  Y8  1  0.333279  0.666990  0.500156  1
  Y  Y9  1  0.666721  0.333010  0.499844  1
  Pb  Pb10  1  0.390148  0.999946  0.743891  1
  Pb  Pb11  1  0.000130  0.609803  0.255824  1
  Pb  Pb12  1  0.609852  0.000054  0.256109  1
  Pb  Pb13  1  0.999870  0.390197  0.744176  1
  Pb  Pb14  1  0.390502  0.390434  0.256064  1
  Pb  Pb15  1  0.609498  0.609566  0.743936  1
  Br  Br16  1  0.000000  0.000000  0.500000  1
  Br  Br17  1  0.000000  0.000000  0.000000  1
