# generated using pymatgen
data_Nd2Tm4TaCo17P12
_symmetry_space_group_name_H-M   'P 1'
_cell_length_a   3.72700300
_cell_length_b   10.62536100
_cell_length_c   12.32286200
_cell_angle_alpha   90.00000000
_cell_angle_beta   90.00000000
_cell_angle_gamma   90.00000000
_symmetry_Int_Tables_number   1
_chemical_formula_structural   Nd2Tm4TaCo17P12
_chemical_formula_sum   'Nd2 Tm4 Ta1 Co17 P12'
_cell_volume   487.99460597
_cell_formula_units_Z   1
loop_
 _symmetry_equiv_pos_site_id
 _symmetry_equiv_pos_as_xyz
  1  'x, y, z'
loop_
 _atom_site_type_symbol
 _atom_site_label
 _atom_site_symmetry_multiplicity
 _atom_site_fract_x
 _atom_site_fract_y
 _atom_site_fract_z
 _atom_site_occupancy
  Nd  Nd0  1  0.000000  0.500000  0.527701  1
  Nd  Nd1  1  0.500000  0.000000  0.476933  1
  Tm  Tm2  1  0.500000  0.819974  0.205997  1
  Tm  Tm3  1  0.500000  0.180026  0.205997  1
  Tm  Tm4  1  0.000000  0.682726  0.797244  1
  Tm  Tm5  1  0.000000  0.317274  0.797244  1
  Ta  Ta6  1  0.500000  0.500000  0.151981  1
  Co  Co7  1  0.000000  0.000000  0.840435  1
  Co  Co8  1  0.500000  0.500000  0.705823  1
  Co  Co9  1  0.000000  0.000000  0.292468  1
  Co  Co10  1  0.000000  0.500000  0.985141  1
  Co  Co11  1  0.500000  0.000000  0.013866  1
  Co  Co12  1  0.500000  0.329911  0.990016  1
  Co  Co13  1  0.500000  0.670089  0.990016  1
  Co  Co14  1  0.000000  0.164198  0.004123  1
  Co  Co15  1  0.000000  0.835802  0.004123  1
  Co  Co16  1  0.500000  0.294853  0.430845  1
  Co  Co17  1  0.500000  0.705147  0.430845  1
  Co  Co18  1  0.000000  0.203544  0.571234  1
  Co  Co19  1  0.000000  0.796456  0.571234  1
  Co  Co20  1  0.500000  0.879567  0.711291  1
  Co  Co21  1  0.500000  0.120433  0.711291  1
  Co  Co22  1  0.000000  0.622663  0.290279  1
  Co  Co23  1  0.000000  0.377337  0.290279  1
  P  P24  1  0.500000  0.500000  0.881398  1
  P  P25  1  0.000000  0.000000  0.116190  1
  P  P26  1  0.500000  0.500000  0.351991  1
  P  P27  1  0.000000  0.000000  0.660008  1
  P  P28  1  0.500000  0.306868  0.619724  1
  P  P29  1  0.500000  0.693132  0.619724  1
  P  P30  1  0.000000  0.191351  0.383260  1
  P  P31  1  0.000000  0.808649  0.383260  1
  P  P32  1  0.500000  0.850035  0.890892  1
  P  P33  1  0.500000  0.149965  0.890892  1
  P  P34  1  0.000000  0.661619  0.103125  1
  P  P35  1  0.000000  0.338381  0.103125  1
