# generated using pymatgen
data_YErPa(InRh)3
_symmetry_space_group_name_H-M   'P 1'
_cell_length_a   7.57177477
_cell_length_b   7.82995849
_cell_length_c   3.80430800
_cell_angle_alpha   90.00000000
_cell_angle_beta   90.00000000
_cell_angle_gamma   121.23796579
_symmetry_Int_Tables_number   1
_chemical_formula_structural   YErPa(InRh)3
_chemical_formula_sum   'Y1 Er1 Pa1 In3 Rh3'
_cell_volume   192.84549745
_cell_formula_units_Z   1
loop_
 _symmetry_equiv_pos_site_id
 _symmetry_equiv_pos_as_xyz
  1  'x, y, z'
loop_
 _atom_site_type_symbol
 _atom_site_label
 _atom_site_symmetry_multiplicity
 _atom_site_fract_x
 _atom_site_fract_y
 _atom_site_fract_z
 _atom_site_occupancy
  Y  Y0  1  0.403274  0.405559  0.500000  1
  Er  Er1  1  0.597135  0.002225  0.500000  1
  Pa  Pa2  1  0.000052  0.583710  0.500000  1
  In  In3  1  0.272898  0.013360  0.000000  1
  In  In4  1  0.726837  0.740685  0.000000  1
  In  In5  1  0.999292  0.241545  0.000000  1
  Rh  Rh6  1  0.705985  0.365450  0.000000  1
  Rh  Rh7  1  0.295909  0.663532  0.000000  1
  Rh  Rh8  1  0.998618  0.983934  0.500000  1
