# generated using pymatgen
data_YbHo2Zn11
_symmetry_space_group_name_H-M   'P 1'
_cell_length_a   4.43432092
_cell_length_b   8.12195813
_cell_length_c   8.12195784
_cell_angle_alpha   65.73203275
_cell_angle_beta   74.15811452
_cell_angle_gamma   74.15811737
_symmetry_Int_Tables_number   1
_chemical_formula_structural   YbHo2Zn11
_chemical_formula_sum   'Yb1 Ho2 Zn11'
_cell_volume   252.19013591
_cell_formula_units_Z   1
loop_
 _symmetry_equiv_pos_site_id
 _symmetry_equiv_pos_as_xyz
  1  'x, y, z'
loop_
 _atom_site_type_symbol
 _atom_site_label
 _atom_site_symmetry_multiplicity
 _atom_site_fract_x
 _atom_site_fract_y
 _atom_site_fract_z
 _atom_site_occupancy
  Yb  Yb0  1  0.000000  0.000000  0.000000  1
  Ho  Ho1  1  0.704197  0.295803  0.295803  1
  Ho  Ho2  1  0.295803  0.704197  0.704197  1
  Zn  Zn3  1  0.000000  0.500000  0.500000  1
  Zn  Zn4  1  0.500000  0.678638  0.321362  1
  Zn  Zn5  1  0.500000  0.321362  0.678638  1
  Zn  Zn6  1  0.661841  0.695473  0.980845  1
  Zn  Zn7  1  0.338159  0.304527  0.019155  1
  Zn  Zn8  1  0.661841  0.980845  0.695473  1
  Zn  Zn9  1  0.338159  0.019155  0.304527  1
  Zn  Zn10  1  0.863405  0.417864  0.855324  1
  Zn  Zn11  1  0.136595  0.582136  0.144676  1
  Zn  Zn12  1  0.863405  0.855324  0.417864  1
  Zn  Zn13  1  0.136595  0.144676  0.582136  1
