# generated using pymatgen
data_Nd4InCo2Au
_symmetry_space_group_name_H-M   'P 1'
_cell_length_a   8.87139393
_cell_length_b   8.87139413
_cell_length_c   8.87139500
_cell_angle_alpha   130.98086614
_cell_angle_beta   130.98085874
_cell_angle_gamma   71.84348407
_symmetry_Int_Tables_number   1
_chemical_formula_structural   Nd4InCo2Au
_chemical_formula_sum   'Nd8 In2 Co4 Au2'
_cell_volume   389.22058333
_cell_formula_units_Z   2
loop_
 _symmetry_equiv_pos_site_id
 _symmetry_equiv_pos_as_xyz
  1  'x, y, z'
loop_
 _atom_site_type_symbol
 _atom_site_label
 _atom_site_symmetry_multiplicity
 _atom_site_fract_x
 _atom_site_fract_y
 _atom_site_fract_z
 _atom_site_occupancy
  Nd  Nd0  1  0.806318  0.306318  0.853790  1
  Nd  Nd1  1  0.193682  0.693682  0.146211  1
  Nd  Nd2  1  0.452529  0.952529  0.146211  1
  Nd  Nd3  1  0.306318  0.452529  0.500000  1
  Nd  Nd4  1  0.047471  0.193682  0.500000  1
  Nd  Nd5  1  0.547471  0.047471  0.853789  1
  Nd  Nd6  1  0.693682  0.547471  0.500000  1
  Nd  Nd7  1  0.952529  0.806318  0.500000  1
  In  In8  1  0.000000  0.000000  0.000000  1
  In  In9  1  0.500000  0.500000  0.000000  1
  Co  Co10  1  0.116698  0.616698  0.733396  1
  Co  Co11  1  0.883302  0.383302  0.266604  1
  Co  Co12  1  0.616698  0.883302  0.500000  1
  Co  Co13  1  0.383302  0.116698  0.500000  1
  Au  Au14  1  0.250000  0.250000  0.000000  1
  Au  Au15  1  0.750000  0.750000  0.000000  1
