# generated using pymatgen
data_Rb4Hf6GeI18
_symmetry_space_group_name_H-M   'P 1'
_cell_length_a   11.39893853
_cell_length_b   11.62560915
_cell_length_c   11.74194197
_cell_angle_alpha   118.43585487
_cell_angle_beta   100.34666519
_cell_angle_gamma   103.98037741
_symmetry_Int_Tables_number   1
_chemical_formula_structural   Rb4Hf6GeI18
_chemical_formula_sum   'Rb4 Hf6 Ge1 I18'
_cell_volume   1246.10537484
_cell_formula_units_Z   1
loop_
 _symmetry_equiv_pos_site_id
 _symmetry_equiv_pos_as_xyz
  1  'x, y, z'
loop_
 _atom_site_type_symbol
 _atom_site_label
 _atom_site_symmetry_multiplicity
 _atom_site_fract_x
 _atom_site_fract_y
 _atom_site_fract_z
 _atom_site_occupancy
  Rb  Rb0  1  0.655821  0.537603  0.228336  1
  Rb  Rb1  1  0.344179  0.462397  0.771664  1
  Rb  Rb2  1  0.690516  0.226597  0.564465  1
  Rb  Rb3  1  0.309484  0.773403  0.435535  1
  Hf  Hf4  1  0.148807  0.055278  0.226151  1
  Hf  Hf5  1  0.851193  0.944722  0.773849  1
  Hf  Hf6  1  0.863745  0.123024  0.129296  1
  Hf  Hf7  1  0.136255  0.876976  0.870704  1
  Hf  Hf8  1  0.143849  0.234711  0.044637  1
  Hf  Hf9  1  0.856151  0.765289  0.955363  1
  Ge  Ge10  1  0.000000  0.000000  0.000000  1
  I  I11  1  0.007915  0.402482  0.193325  1
  I  I12  1  0.992085  0.597518  0.806675  1
  I  I13  1  0.326507  0.328851  0.307170  1
  I  I14  1  0.673493  0.671149  0.692830  1
  I  I15  1  0.316943  0.512987  0.098783  1
  I  I16  1  0.683057  0.487013  0.901217  1
  I  I17  1  0.004225  0.799097  0.205992  1
  I  I18  1  0.995775  0.200903  0.794008  1
  I  I19  1  0.706205  0.268614  0.281226  1
  I  I20  1  0.293795  0.731386  0.718774  1
  I  I21  1  0.313795  0.126362  0.905114  1
  I  I22  1  0.686205  0.873638  0.094886  1
  I  I23  1  0.015135  0.201061  0.401151  1
  I  I24  1  0.984865  0.798939  0.598849  1
  I  I25  1  0.317875  0.924054  0.109223  1
  I  I26  1  0.682125  0.075946  0.890777  1
  I  I27  1  0.329044  0.120171  0.493349  1
  I  I28  1  0.670956  0.879829  0.506651  1
