# generated using pymatgen
data_Tb3Zn3Ni2Ir
_symmetry_space_group_name_H-M   'P 1'
_cell_length_a   7.09010600
_cell_length_b   7.09010744
_cell_length_c   3.82182300
_cell_angle_alpha   90.00000000
_cell_angle_beta   90.00000000
_cell_angle_gamma   120.00000260
_symmetry_Int_Tables_number   1
_chemical_formula_structural   Tb3Zn3Ni2Ir
_chemical_formula_sum   'Tb3 Zn3 Ni2 Ir1'
_cell_volume   166.38215101
_cell_formula_units_Z   1
loop_
 _symmetry_equiv_pos_site_id
 _symmetry_equiv_pos_as_xyz
  1  'x, y, z'
loop_
 _atom_site_type_symbol
 _atom_site_label
 _atom_site_symmetry_multiplicity
 _atom_site_fract_x
 _atom_site_fract_y
 _atom_site_fract_z
 _atom_site_occupancy
  Tb  Tb0  1  0.000163  0.591004  0.000000  1
  Tb  Tb1  1  0.408996  0.409159  0.000000  1
  Tb  Tb2  1  0.590841  0.999837  0.000000  1
  Zn  Zn3  1  0.240447  0.996930  0.500000  1
  Zn  Zn4  1  0.756483  0.759553  0.500000  1
  Zn  Zn5  1  0.003070  0.243517  0.500000  1
  Ni  Ni6  1  0.000000  0.000000  0.000000  1
  Ni  Ni7  1  0.333333  0.666667  0.500000  1
  Ir  Ir8  1  0.666667  0.333333  0.500000  1
