# generated using pymatgen
data_Sc3Tc3As2P
_symmetry_space_group_name_H-M   'P 1'
_cell_length_a   3.42130600
_cell_length_b   6.96164667
_cell_length_c   6.96164621
_cell_angle_alpha   60.00058140
_cell_angle_beta   90.00000000
_cell_angle_gamma   90.00000000
_symmetry_Int_Tables_number   1
_chemical_formula_structural   Sc3Tc3As2P
_chemical_formula_sum   'Sc3 Tc3 As2 P1'
_cell_volume   143.59820831
_cell_formula_units_Z   1
loop_
 _symmetry_equiv_pos_site_id
 _symmetry_equiv_pos_as_xyz
  1  'x, y, z'
loop_
 _atom_site_type_symbol
 _atom_site_label
 _atom_site_symmetry_multiplicity
 _atom_site_fract_x
 _atom_site_fract_y
 _atom_site_fract_z
 _atom_site_occupancy
  Sc  Sc0  1  0.500000  0.603861  0.396139  1
  Sc  Sc1  1  0.500000  0.396194  0.999863  1
  Sc  Sc2  1  0.500000  0.000137  0.603806  1
  Tc  Tc3  1  0.000000  0.245602  0.754398  1
  Tc  Tc4  1  0.000000  0.754227  0.000013  1
  Tc  Tc5  1  0.000000  0.999987  0.245773  1
  As  As6  1  0.000000  0.333443  0.333299  1
  As  As7  1  0.000000  0.666701  0.666557  1
  P  P8  1  0.500000  0.999749  0.000251  1
