# generated using pymatgen
data_Dy5Mg3Co16(SiP5)2
_symmetry_space_group_name_H-M   'P 1'
_cell_length_a   12.20863277
_cell_length_b   12.19149361
_cell_length_c   3.75285200
_cell_angle_alpha   90.00000000
_cell_angle_beta   90.00000000
_cell_angle_gamma   119.95356175
_symmetry_Int_Tables_number   1
_chemical_formula_structural   Dy5Mg3Co16(SiP5)2
_chemical_formula_sum   'Dy5 Mg3 Co16 Si2 P10'
_cell_volume   483.97067769
_cell_formula_units_Z   1
loop_
 _symmetry_equiv_pos_site_id
 _symmetry_equiv_pos_as_xyz
  1  'x, y, z'
loop_
 _atom_site_type_symbol
 _atom_site_label
 _atom_site_symmetry_multiplicity
 _atom_site_fract_x
 _atom_site_fract_y
 _atom_site_fract_z
 _atom_site_occupancy
  Dy  Dy0  1  0.665335  0.332159  0.000000  1
  Dy  Dy1  1  0.334665  0.666825  0.000000  1
  Dy  Dy2  1  0.182050  0.182532  0.500000  1
  Dy  Dy3  1  0.817950  0.000484  0.500000  1
  Dy  Dy4  1  0.000000  0.813733  0.500000  1
  Mg  Mg5  1  0.562779  0.561437  0.000000  1
  Mg  Mg6  1  0.437221  0.998658  0.000000  1
  Mg  Mg7  1  0.000000  0.440648  0.000000  1
  Co  Co8  1  0.824705  0.200868  0.000000  1
  Co  Co9  1  0.804189  0.624718  0.000000  1
  Co  Co10  1  0.374369  0.174748  0.000000  1
  Co  Co11  1  0.195811  0.820529  0.000000  1
  Co  Co12  1  0.625631  0.800379  0.000000  1
  Co  Co13  1  0.175295  0.376163  0.000000  1
  Co  Co14  1  0.640949  0.126390  0.500000  1
  Co  Co15  1  0.875680  0.517698  0.500000  1
  Co  Co16  1  0.485411  0.359305  0.500000  1
  Co  Co17  1  0.124320  0.642019  0.500000  1
  Co  Co18  1  0.514589  0.873896  0.500000  1
  Co  Co19  1  0.359051  0.485440  0.500000  1
  Co  Co20  1  0.721032  0.719250  0.500000  1
  Co  Co21  1  0.278968  0.998218  0.500000  1
  Co  Co22  1  0.000000  0.281671  0.500000  1
  Co  Co23  1  0.000000  0.000314  0.000000  1
  Si  Si24  1  0.360202  0.360715  0.000000  1
  Si  Si25  1  0.639798  0.000513  0.000000  1
  P  P26  1  0.000000  0.640090  0.000000  1
  P  P27  1  0.826242  0.305656  0.500000  1
  P  P28  1  0.694978  0.520973  0.500000  1
  P  P29  1  0.477723  0.173014  0.500000  1
  P  P30  1  0.305022  0.825994  0.500000  1
  P  P31  1  0.522277  0.695291  0.500000  1
  P  P32  1  0.173758  0.479415  0.500000  1
  P  P33  1  0.819936  0.819236  0.000000  1
  P  P34  1  0.180064  0.999300  0.000000  1
  P  P35  1  0.000000  0.181721  0.000000  1
