# generated using pymatgen
data_Cs2IrRh3S8
_symmetry_space_group_name_H-M   'P 1'
_cell_length_a   6.24853800
_cell_length_b   7.22745312
_cell_length_c   15.97906126
_cell_angle_alpha   89.97939955
_cell_angle_beta   90.00000000
_cell_angle_gamma   90.00000000
_symmetry_Int_Tables_number   1
_chemical_formula_structural   Cs2IrRh3S8
_chemical_formula_sum   'Cs4 Ir2 Rh6 S16'
_cell_volume   721.63058561
_cell_formula_units_Z   2
loop_
 _symmetry_equiv_pos_site_id
 _symmetry_equiv_pos_as_xyz
  1  'x, y, z'
loop_
 _atom_site_type_symbol
 _atom_site_label
 _atom_site_symmetry_multiplicity
 _atom_site_fract_x
 _atom_site_fract_y
 _atom_site_fract_z
 _atom_site_occupancy
  Cs  Cs0  1  0.354894  0.000000  0.000000  1
  Cs  Cs1  1  0.645106  0.500000  0.500000  1
  Cs  Cs2  1  0.033104  0.000000  0.500000  1
  Cs  Cs3  1  0.966896  0.500000  0.000000  1
  Ir  Ir4  1  0.500000  0.250000  0.250000  1
  Ir  Ir5  1  0.500000  0.750000  0.750000  1
  Rh  Rh6  1  0.001717  0.998174  0.249998  1
  Rh  Rh7  1  0.001717  0.001826  0.750002  1
  Rh  Rh8  1  0.998283  0.501826  0.250002  1
  Rh  Rh9  1  0.998283  0.498174  0.749998  1
  Rh  Rh10  1  0.500000  0.750000  0.250000  1
  Rh  Rh11  1  0.500000  0.250000  0.750000  1
  S  S12  1  0.833734  0.249270  0.323664  1
  S  S13  1  0.833734  0.750730  0.676336  1
  S  S14  1  0.166422  0.749350  0.175291  1
  S  S15  1  0.166422  0.250650  0.824709  1
  S  S16  1  0.166266  0.250730  0.176336  1
  S  S17  1  0.166266  0.749270  0.823664  1
  S  S18  1  0.833578  0.750650  0.324709  1
  S  S19  1  0.833578  0.249350  0.675291  1
  S  S20  1  0.668972  0.000902  0.176234  1
  S  S21  1  0.668972  0.999098  0.823766  1
  S  S22  1  0.331028  0.499098  0.323766  1
  S  S23  1  0.331028  0.500902  0.676234  1
  S  S24  1  0.338299  0.000462  0.323921  1
  S  S25  1  0.338299  0.999538  0.676079  1
  S  S26  1  0.661701  0.499538  0.176079  1
  S  S27  1  0.661701  0.500462  0.823921  1
