# generated using pymatgen
data_Ho16Er4Co3Bi8Os
_symmetry_space_group_name_H-M   'P 1'
_cell_length_a   7.93753209
_cell_length_b   8.92589504
_cell_length_c   12.38571059
_cell_angle_alpha   89.99072378
_cell_angle_beta   89.78324689
_cell_angle_gamma   90.00526848
_symmetry_Int_Tables_number   1
_chemical_formula_structural   Ho16Er4Co3Bi8Os
_chemical_formula_sum   'Ho16 Er4 Co3 Bi8 Os1'
_cell_volume   877.51607760
_cell_formula_units_Z   1
loop_
 _symmetry_equiv_pos_site_id
 _symmetry_equiv_pos_as_xyz
  1  'x, y, z'
loop_
 _atom_site_type_symbol
 _atom_site_label
 _atom_site_symmetry_multiplicity
 _atom_site_fract_x
 _atom_site_fract_y
 _atom_site_fract_z
 _atom_site_occupancy
  Ho  Ho0  1  0.346131  0.749885  0.700691  1
  Ho  Ho1  1  0.652946  0.250067  0.300797  1
  Ho  Ho2  1  0.847259  0.250109  0.799730  1
  Ho  Ho3  1  0.155362  0.749955  0.206643  1
  Ho  Ho4  1  0.880661  0.749914  0.805550  1
  Ho  Ho5  1  0.115070  0.250184  0.189180  1
  Ho  Ho6  1  0.384840  0.250125  0.688158  1
  Ho  Ho7  1  0.614709  0.749860  0.313231  1
  Ho  Ho8  1  0.824915  0.537419  0.063585  1
  Ho  Ho9  1  0.674639  0.962749  0.562790  1
  Ho  Ho10  1  0.824687  0.962693  0.063613  1
  Ho  Ho11  1  0.176092  0.043067  0.935429  1
  Ho  Ho12  1  0.053039  0.749926  0.498059  1
  Ho  Ho13  1  0.947129  0.250093  0.502485  1
  Ho  Ho14  1  0.554243  0.250089  0.002756  1
  Ho  Ho15  1  0.444075  0.749804  0.996901  1
  Er  Er16  1  0.674002  0.537362  0.562721  1
  Er  Er17  1  0.325458  0.461600  0.437265  1
  Er  Er18  1  0.175537  0.456787  0.935583  1
  Er  Er19  1  0.325197  0.038362  0.437203  1
  Co  Co20  1  0.931009  0.250134  0.008981  1
  Co  Co21  1  0.564564  0.250149  0.507948  1
  Co  Co22  1  0.433327  0.749833  0.492228  1
  Bi  Bi23  1  0.571758  0.508572  0.826005  1
  Bi  Bi24  1  0.429530  0.490734  0.173494  1
  Bi  Bi25  1  0.071670  0.490524  0.672522  1
  Bi  Bi26  1  0.429398  0.009243  0.173483  1
  Bi  Bi27  1  0.928061  0.508704  0.327207  1
  Bi  Bi28  1  0.571993  0.991412  0.826085  1
  Bi  Bi29  1  0.928041  0.991315  0.327191  1
  Bi  Bi30  1  0.071905  0.009502  0.672519  1
  Os  Os31  1  0.072753  0.749827  0.989965  1
