# generated using pymatgen
data_Sr2GdFe3Se8
_symmetry_space_group_name_H-M   'P 1'
_cell_length_a   10.93906013
_cell_length_b   8.49503311
_cell_length_c   10.93905925
_cell_angle_alpha   113.99365254
_cell_angle_beta   118.20259022
_cell_angle_gamma   105.81367988
_symmetry_Int_Tables_number   1
_chemical_formula_structural   Sr2GdFe3Se8
_chemical_formula_sum   'Sr2 Gd1 Fe3 Se8'
_cell_volume   668.37609607
_cell_formula_units_Z   1
loop_
 _symmetry_equiv_pos_site_id
 _symmetry_equiv_pos_as_xyz
  1  'x, y, z'
loop_
 _atom_site_type_symbol
 _atom_site_label
 _atom_site_symmetry_multiplicity
 _atom_site_fract_x
 _atom_site_fract_y
 _atom_site_fract_z
 _atom_site_occupancy
  Sr  Sr0  1  0.517112  0.511812  0.006827  1
  Sr  Sr1  1  0.745015  0.238188  0.505300  1
  Gd  Gd2  1  0.252553  0.375000  0.377553  1
  Fe  Fe3  1  0.621160  0.994586  0.873335  1
  Fe  Fe4  1  0.128749  0.755414  0.126574  1
  Fe  Fe5  1  0.005713  0.875000  0.630713  1
  Se  Se6  1  0.363410  0.081759  0.080623  1
  Se  Se7  1  0.361519  0.090584  0.607842  1
  Se  Se8  1  0.885853  0.505671  0.243375  1
  Se  Se9  1  0.842744  0.947713  0.220060  1
  Se  Se10  1  0.522347  0.802287  0.395031  1
  Se  Se11  1  0.767258  0.659416  0.770935  1
  Se  Se12  1  0.987703  0.244329  0.880181  1
  Se  Se13  1  0.248863  0.668241  0.781650  1
