# generated using pymatgen
data_LaV4Bi7O20
_symmetry_space_group_name_H-M   'P 1'
_cell_length_a   3.97582100
_cell_length_b   11.32287658
_cell_length_c   11.20752896
_cell_angle_alpha   89.93585613
_cell_angle_beta   90.00000000
_cell_angle_gamma   90.00000000
_symmetry_Int_Tables_number   1
_chemical_formula_structural   LaV4Bi7O20
_chemical_formula_sum   'La1 V4 Bi7 O20'
_cell_volume   504.53720192
_cell_formula_units_Z   1
loop_
 _symmetry_equiv_pos_site_id
 _symmetry_equiv_pos_as_xyz
  1  'x, y, z'
loop_
 _atom_site_type_symbol
 _atom_site_label
 _atom_site_symmetry_multiplicity
 _atom_site_fract_x
 _atom_site_fract_y
 _atom_site_fract_z
 _atom_site_occupancy
  La  La0  1  0.750000  0.134353  0.067004  1
  V  V1  1  0.250000  0.300683  0.874554  1
  V  V2  1  0.750000  0.699432  0.129422  1
  V  V3  1  0.250000  0.799414  0.629290  1
  V  V4  1  0.750000  0.202615  0.367007  1
  Bi  Bi5  1  0.750000  0.100348  0.730035  1
  Bi  Bi6  1  0.250000  0.897579  0.277102  1
  Bi  Bi7  1  0.750000  0.598446  0.778181  1
  Bi  Bi8  1  0.250000  0.404000  0.221439  1
  Bi  Bi9  1  0.250000  0.362540  0.553518  1
  Bi  Bi10  1  0.750000  0.634902  0.448734  1
  Bi  Bi11  1  0.250000  0.864816  0.945100  1
  O  O12  1  0.250000  0.446630  0.831867  1
  O  O13  1  0.750000  0.552755  0.169236  1
  O  O14  1  0.250000  0.945789  0.664773  1
  O  O15  1  0.750000  0.061631  0.307050  1
  O  O16  1  0.250000  0.199107  0.737999  1
  O  O17  1  0.750000  0.801643  0.264876  1
  O  O18  1  0.250000  0.699863  0.767223  1
  O  O19  1  0.750000  0.302602  0.231134  1
  O  O20  1  0.750000  0.252256  0.874211  1
  O  O21  1  0.250000  0.748323  0.127946  1
  O  O22  1  0.750000  0.749343  0.625606  1
  O  O23  1  0.250000  0.248172  0.370958  1
  O  O24  1  0.250000  0.993215  0.102935  1
  O  O25  1  0.750000  0.000563  0.898593  1
  O  O26  1  0.250000  0.490498  0.399914  1
  O  O27  1  0.750000  0.506236  0.602466  1
  O  O28  1  0.250000  0.251931  0.037717  1
  O  O29  1  0.750000  0.750939  0.969444  1
  O  O30  1  0.250000  0.746065  0.467815  1
  O  O31  1  0.750000  0.253311  0.526850  1
