# generated using pymatgen
data_Th3Ga2Ir2RuAu
_symmetry_space_group_name_H-M   'P 1'
_cell_length_a   7.43891015
_cell_length_b   7.43890980
_cell_length_c   3.92283000
_cell_angle_alpha   90.00000000
_cell_angle_beta   90.00000000
_cell_angle_gamma   118.79504527
_symmetry_Int_Tables_number   1
_chemical_formula_structural   Th3Ga2Ir2RuAu
_chemical_formula_sum   'Th3 Ga2 Ir2 Ru1 Au1'
_cell_volume   190.23694384
_cell_formula_units_Z   1
loop_
 _symmetry_equiv_pos_site_id
 _symmetry_equiv_pos_as_xyz
  1  'x, y, z'
loop_
 _atom_site_type_symbol
 _atom_site_label
 _atom_site_symmetry_multiplicity
 _atom_site_fract_x
 _atom_site_fract_y
 _atom_site_fract_z
 _atom_site_occupancy
  Th  Th0  1  0.399561  0.399561  0.500000  1
  Th  Th1  1  0.593774  0.994947  0.500000  1
  Th  Th2  1  0.994947  0.593774  0.500000  1
  Ga  Ga3  1  0.249336  0.999067  0.000000  1
  Ga  Ga4  1  0.999067  0.249336  0.000000  1
  Ir  Ir5  1  0.660892  0.309427  0.000000  1
  Ir  Ir6  1  0.309427  0.660892  0.000000  1
  Ru  Ru7  1  0.040647  0.040647  0.500000  1
  Au  Au8  1  0.752349  0.752349  0.000000  1
