# generated using pymatgen
data_Tb4OsI4
_symmetry_space_group_name_H-M   'P 1'
_cell_length_a   11.29255678
_cell_length_b   11.29255848
_cell_length_c   6.23282852
_cell_angle_alpha   90.00360152
_cell_angle_beta   90.00360414
_cell_angle_gamma   90.03207506
_symmetry_Int_Tables_number   1
_chemical_formula_structural   Tb4OsI4
_chemical_formula_sum   'Tb8 Os2 I8'
_cell_volume   794.82174484
_cell_formula_units_Z   2
loop_
 _symmetry_equiv_pos_site_id
 _symmetry_equiv_pos_as_xyz
  1  'x, y, z'
loop_
 _atom_site_type_symbol
 _atom_site_label
 _atom_site_symmetry_multiplicity
 _atom_site_fract_x
 _atom_site_fract_y
 _atom_site_fract_z
 _atom_site_occupancy
  Tb  Tb0  1  0.800304  0.082051  0.000384  1
  Tb  Tb1  1  0.082051  0.800304  0.500384  1
  Tb  Tb2  1  0.081774  0.199323  0.000319  1
  Tb  Tb3  1  0.199323  0.081774  0.500319  1
  Tb  Tb4  1  0.918226  0.800677  0.999681  1
  Tb  Tb5  1  0.917949  0.199696  0.499616  1
  Tb  Tb6  1  0.199696  0.917949  0.999616  1
  Tb  Tb7  1  0.800677  0.918226  0.499681  1
  Os  Os8  1  0.000083  0.999917  0.250000  1
  Os  Os9  1  0.999917  0.000083  0.750000  1
  I  I10  1  0.643157  0.150107  0.496744  1
  I  I11  1  0.850272  0.643244  0.503207  1
  I  I12  1  0.356756  0.149728  0.996793  1
  I  I13  1  0.149728  0.356756  0.496793  1
  I  I14  1  0.643244  0.850272  0.003207  1
  I  I15  1  0.356843  0.849893  0.503256  1
  I  I16  1  0.150107  0.643157  0.996744  1
  I  I17  1  0.849893  0.356843  0.003256  1
