# generated using pymatgen
data_La12Nd3Y(CdRu)4
_symmetry_space_group_name_H-M   'P 1'
_cell_length_a   10.02677584
_cell_length_b   10.08826953
_cell_length_c   10.01546718
_cell_angle_alpha   59.64056956
_cell_angle_beta   60.08931633
_cell_angle_gamma   59.54393610
_symmetry_Int_Tables_number   1
_chemical_formula_structural   La12Nd3Y(CdRu)4
_chemical_formula_sum   'La12 Nd3 Y1 Cd4 Ru4'
_cell_volume   712.39017392
_cell_formula_units_Z   1
loop_
 _symmetry_equiv_pos_site_id
 _symmetry_equiv_pos_as_xyz
  1  'x, y, z'
loop_
 _atom_site_type_symbol
 _atom_site_label
 _atom_site_symmetry_multiplicity
 _atom_site_fract_x
 _atom_site_fract_y
 _atom_site_fract_z
 _atom_site_occupancy
  La  La0  1  0.843856  0.849498  0.843778  1
  La  La1  1  0.691176  0.310510  0.315372  1
  La  La2  1  0.059504  0.438440  0.442634  1
  La  La3  1  0.314477  0.686042  0.689784  1
  La  La4  1  0.316351  0.310059  0.691563  1
  La  La5  1  0.846929  0.845207  0.460574  1
  La  La6  1  0.689414  0.686481  0.314409  1
  La  La7  1  0.460580  0.843848  0.847412  1
  La  La8  1  0.060326  0.440109  0.059825  1
  La  La9  1  0.842792  0.461639  0.844050  1
  La  La10  1  0.441397  0.060551  0.440338  1
  La  La11  1  0.311852  0.690669  0.310390  1
  Nd  Nd12  1  0.441534  0.436050  0.059641  1
  Nd  Nd13  1  0.062305  0.064674  0.436997  1
  Nd  Nd14  1  0.437124  0.065505  0.062704  1
  Y  Y15  1  0.690530  0.308023  0.692614  1
  Cd  Cd16  1  0.079974  0.762156  0.078331  1
  Cd  Cd17  1  0.074797  0.080423  0.762241  1
  Cd  Cd18  1  0.761045  0.081848  0.075106  1
  Cd  Cd19  1  0.079394  0.078274  0.079555  1
  Ru  Ru20  1  0.632582  0.088197  0.633000  1
  Ru  Ru21  1  0.634285  0.643353  0.633561  1
  Ru  Ru22  1  0.636612  0.634432  0.090500  1
  Ru  Ru23  1  0.091165  0.634008  0.635619  1
