# generated using pymatgen
data_La2MoRuF14
_symmetry_space_group_name_H-M   'P 1'
_cell_length_a   5.81317100
_cell_length_b   9.34263944
_cell_length_c   12.45925300
_cell_angle_alpha   62.57611531
_cell_angle_beta   90.00000000
_cell_angle_gamma   90.00000000
_symmetry_Int_Tables_number   1
_chemical_formula_structural   La2MoRuF14
_chemical_formula_sum   'La4 Mo2 Ru2 F28'
_cell_volume   600.62508521
_cell_formula_units_Z   2
loop_
 _symmetry_equiv_pos_site_id
 _symmetry_equiv_pos_as_xyz
  1  'x, y, z'
loop_
 _atom_site_type_symbol
 _atom_site_label
 _atom_site_symmetry_multiplicity
 _atom_site_fract_x
 _atom_site_fract_y
 _atom_site_fract_z
 _atom_site_occupancy
  La  La0  1  0.760067  0.809133  0.264697  1
  La  La1  1  0.260067  0.190867  0.235303  1
  La  La2  1  0.239648  0.192406  0.729264  1
  La  La3  1  0.739648  0.807594  0.770736  1
  Mo  Mo4  1  0.245756  0.726446  0.543461  1
  Mo  Mo5  1  0.745756  0.273554  0.956539  1
  Ru  Ru6  1  0.754416  0.273808  0.455627  1
  Ru  Ru7  1  0.254416  0.726192  0.044373  1
  F  F8  1  0.958493  0.713450  0.453237  1
  F  F9  1  0.458493  0.286550  0.046763  1
  F  F10  1  0.032672  0.286491  0.542138  1
  F  F11  1  0.532672  0.713509  0.957862  1
  F  F12  1  0.056598  0.707571  0.922937  1
  F  F13  1  0.556598  0.292429  0.577063  1
  F  F14  1  0.944427  0.292137  0.077968  1
  F  F15  1  0.444427  0.707863  0.422032  1
  F  F16  1  0.739645  0.510699  0.859821  1
  F  F17  1  0.239645  0.489301  0.640179  1
  F  F18  1  0.260023  0.496638  0.136997  1
  F  F19  1  0.760023  0.503362  0.363003  1
  F  F20  1  0.742080  0.036486  0.050133  1
  F  F21  1  0.242080  0.963514  0.449867  1
  F  F22  1  0.257975  0.955089  0.954418  1
  F  F23  1  0.757975  0.044911  0.545582  1
  F  F24  1  0.049143  0.745698  0.666627  1
  F  F25  1  0.549143  0.254302  0.833373  1
  F  F26  1  0.949945  0.256135  0.332380  1
  F  F27  1  0.449945  0.743865  0.167620  1
  F  F28  1  0.026885  0.265544  0.861118  1
  F  F29  1  0.526885  0.734456  0.638882  1
  F  F30  1  0.980699  0.731691  0.135411  1
  F  F31  1  0.480699  0.268309  0.364589  1
  F  F32  1  0.084117  0.972101  0.231409  1
  F  F33  1  0.584117  0.027899  0.268591  1
  F  F34  1  0.917409  0.029174  0.767953  1
  F  F35  1  0.417409  0.970826  0.732047  1
