# generated using pymatgen
data_La3Sn3IrRhAu
_symmetry_space_group_name_H-M   'P 1'
_cell_length_a   7.71011900
_cell_length_b   7.71012019
_cell_length_c   4.22662900
_cell_angle_alpha   90.00000000
_cell_angle_beta   90.00000000
_cell_angle_gamma   119.99999921
_symmetry_Int_Tables_number   1
_chemical_formula_structural   La3Sn3IrRhAu
_chemical_formula_sum   'La3 Sn3 Ir1 Rh1 Au1'
_cell_volume   217.59403851
_cell_formula_units_Z   1
loop_
 _symmetry_equiv_pos_site_id
 _symmetry_equiv_pos_as_xyz
  1  'x, y, z'
loop_
 _atom_site_type_symbol
 _atom_site_label
 _atom_site_symmetry_multiplicity
 _atom_site_fract_x
 _atom_site_fract_y
 _atom_site_fract_z
 _atom_site_occupancy
  La  La0  1  0.594771  0.014251  0.000000  1
  La  La1  1  0.985749  0.580520  0.000000  1
  La  La2  1  0.419480  0.405229  0.000000  1
  Sn  Sn3  1  0.247540  0.006240  0.500000  1
  Sn  Sn4  1  0.993760  0.241300  0.500000  1
  Sn  Sn5  1  0.758700  0.752460  0.500000  1
  Ir  Ir6  1  0.666667  0.333333  0.500000  1
  Rh  Rh7  1  0.000000  0.000000  0.000000  1
  Au  Au8  1  0.333333  0.666667  0.500000  1
