# generated using pymatgen
data_Tm8Re11Si16Rh
_symmetry_space_group_name_H-M   'P 1'
_cell_length_a   6.74335148
_cell_length_b   6.74335139
_cell_length_c   12.73287458
_cell_angle_alpha   90.05462457
_cell_angle_beta   89.94537734
_cell_angle_gamma   90.52669235
_symmetry_Int_Tables_number   1
_chemical_formula_structural   Tm8Re11Si16Rh
_chemical_formula_sum   'Tm8 Re11 Si16 Rh1'
_cell_volume   578.97432915
_cell_formula_units_Z   1
loop_
 _symmetry_equiv_pos_site_id
 _symmetry_equiv_pos_as_xyz
  1  'x, y, z'
loop_
 _atom_site_type_symbol
 _atom_site_label
 _atom_site_symmetry_multiplicity
 _atom_site_fract_x
 _atom_site_fract_y
 _atom_site_fract_z
 _atom_site_occupancy
  Tm  Tm0  1  0.005850  0.658235  0.030376  1
  Tm  Tm1  1  0.995199  0.336383  0.532190  1
  Tm  Tm2  1  0.336383  0.995199  0.467810  1
  Tm  Tm3  1  0.161853  0.489734  0.781647  1
  Tm  Tm4  1  0.837388  0.507801  0.280014  1
  Tm  Tm5  1  0.489734  0.161853  0.218353  1
  Tm  Tm6  1  0.507801  0.837388  0.719986  1
  Tm  Tm7  1  0.658235  0.005850  0.969624  1
  Re  Re8  1  0.163450  0.836289  0.248912  1
  Re  Re9  1  0.333348  0.333348  0.000000  1
  Re  Re10  1  0.026303  0.808900  0.631776  1
  Re  Re11  1  0.974298  0.193790  0.134450  1
  Re  Re12  1  0.808900  0.026303  0.368224  1
  Re  Re13  1  0.317178  0.486570  0.381391  1
  Re  Re14  1  0.685820  0.514568  0.880680  1
  Re  Re15  1  0.486570  0.317178  0.618609  1
  Re  Re16  1  0.514568  0.685820  0.119320  1
  Re  Re17  1  0.193790  0.974298  0.865550  1
  Re  Re18  1  0.836289  0.163450  0.751088  1
  Si  Si19  1  0.023295  0.729001  0.438385  1
  Si  Si20  1  0.613443  0.304846  0.434696  1
  Si  Si21  1  0.385398  0.692625  0.934283  1
  Si  Si22  1  0.197756  0.115242  0.681427  1
  Si  Si23  1  0.304846  0.613443  0.565304  1
  Si  Si24  1  0.692625  0.385398  0.065717  1
  Si  Si25  1  0.803270  0.885215  0.182516  1
  Si  Si26  1  0.115242  0.197756  0.318573  1
  Si  Si27  1  0.982394  0.264029  0.939717  1
  Si  Si28  1  0.729001  0.023295  0.561615  1
  Si  Si29  1  0.222571  0.479445  0.189195  1
  Si  Si30  1  0.777685  0.518623  0.690658  1
  Si  Si31  1  0.479445  0.222571  0.810805  1
  Si  Si32  1  0.518623  0.777685  0.309342  1
  Si  Si33  1  0.264029  0.982394  0.060283  1
  Si  Si34  1  0.885215  0.803270  0.817484  1
  Rh  Rh35  1  0.672205  0.672205  0.500000  1
