# generated using pymatgen
data_Y6Er10Cd4Pd3Rh
_symmetry_space_group_name_H-M   'P 1'
_cell_length_a   9.64704779
_cell_length_b   9.64704777
_cell_length_c   9.64704777
_cell_angle_alpha   59.91531491
_cell_angle_beta   59.91531759
_cell_angle_gamma   59.91531207
_symmetry_Int_Tables_number   1
_chemical_formula_structural   Y6Er10Cd4Pd3Rh
_chemical_formula_sum   'Y6 Er10 Cd4 Pd3 Rh1'
_cell_volume   633.62629126
_cell_formula_units_Z   1
loop_
 _symmetry_equiv_pos_site_id
 _symmetry_equiv_pos_as_xyz
  1  'x, y, z'
loop_
 _atom_site_type_symbol
 _atom_site_label
 _atom_site_symmetry_multiplicity
 _atom_site_fract_x
 _atom_site_fract_y
 _atom_site_fract_z
 _atom_site_occupancy
  Y  Y0  1  0.934525  0.565744  0.565744  1
  Y  Y1  1  0.562102  0.936905  0.936905  1
  Y  Y2  1  0.565744  0.934525  0.565744  1
  Y  Y3  1  0.936905  0.562102  0.936905  1
  Y  Y4  1  0.565744  0.565744  0.934525  1
  Y  Y5  1  0.936905  0.936905  0.562102  1
  Er  Er6  1  0.350974  0.350974  0.350974  1
  Er  Er7  1  0.353348  0.353348  0.940628  1
  Er  Er8  1  0.353348  0.940628  0.353348  1
  Er  Er9  1  0.940628  0.353348  0.353348  1
  Er  Er10  1  0.815431  0.189135  0.189135  1
  Er  Er11  1  0.187877  0.811875  0.811875  1
  Er  Er12  1  0.189135  0.815431  0.189135  1
  Er  Er13  1  0.811875  0.187877  0.811875  1
  Er  Er14  1  0.189135  0.189135  0.815431  1
  Er  Er15  1  0.811875  0.811875  0.187877  1
  Cd  Cd16  1  0.580383  0.580383  0.580383  1
  Cd  Cd17  1  0.579708  0.579708  0.254762  1
  Cd  Cd18  1  0.579708  0.254762  0.579708  1
  Cd  Cd19  1  0.254762  0.579708  0.579708  1
  Pd  Pd20  1  0.142618  0.142618  0.569196  1
  Pd  Pd21  1  0.142618  0.569196  0.142618  1
  Pd  Pd22  1  0.569196  0.142618  0.142618  1
  Rh  Rh23  1  0.145454  0.145454  0.145454  1
