# generated using pymatgen
data_Zr6NbCo17P12
_symmetry_space_group_name_H-M   'P 1'
_cell_length_a   3.63834400
_cell_length_b   10.37521600
_cell_length_c   12.02926500
_cell_angle_alpha   90.00000000
_cell_angle_beta   90.00000000
_cell_angle_gamma   90.00000000
_symmetry_Int_Tables_number   1
_chemical_formula_structural   Zr6NbCo17P12
_chemical_formula_sum   'Zr6 Nb1 Co17 P12'
_cell_volume   454.08797151
_cell_formula_units_Z   1
loop_
 _symmetry_equiv_pos_site_id
 _symmetry_equiv_pos_as_xyz
  1  'x, y, z'
loop_
 _atom_site_type_symbol
 _atom_site_label
 _atom_site_symmetry_multiplicity
 _atom_site_fract_x
 _atom_site_fract_y
 _atom_site_fract_z
 _atom_site_occupancy
  Zr  Zr0  1  0.750000  0.250000  0.468733  1
  Zr  Zr1  1  0.250000  0.750000  0.525332  1
  Zr  Zr2  1  0.250000  0.928090  0.791359  1
  Zr  Zr3  1  0.250000  0.571910  0.791359  1
  Zr  Zr4  1  0.750000  0.070667  0.206432  1
  Zr  Zr5  1  0.750000  0.429333  0.206432  1
  Nb  Nb6  1  0.250000  0.250000  0.841425  1
  Co  Co7  1  0.750000  0.750000  0.165854  1
  Co  Co8  1  0.250000  0.250000  0.297988  1
  Co  Co9  1  0.750000  0.750000  0.702719  1
  Co  Co10  1  0.750000  0.250000  0.014669  1
  Co  Co11  1  0.250000  0.750000  0.985167  1
  Co  Co12  1  0.250000  0.420356  0.011619  1
  Co  Co13  1  0.250000  0.079644  0.011619  1
  Co  Co14  1  0.750000  0.585850  0.996139  1
  Co  Co15  1  0.750000  0.914150  0.996139  1
  Co  Co16  1  0.250000  0.452303  0.565455  1
  Co  Co17  1  0.250000  0.047697  0.565455  1
  Co  Co18  1  0.750000  0.549826  0.432325  1
  Co  Co19  1  0.750000  0.950174  0.432325  1
  Co  Co20  1  0.250000  0.873507  0.293174  1
  Co  Co21  1  0.250000  0.626493  0.293174  1
  Co  Co22  1  0.750000  0.124655  0.704245  1
  Co  Co23  1  0.750000  0.375345  0.704245  1
  P  P24  1  0.250000  0.250000  0.122157  1
  P  P25  1  0.750000  0.750000  0.879051  1
  P  P26  1  0.250000  0.250000  0.637111  1
  P  P27  1  0.750000  0.750000  0.351389  1
  P  P28  1  0.250000  0.434782  0.381493  1
  P  P29  1  0.250000  0.065218  0.381493  1
  P  P30  1  0.750000  0.567836  0.615914  1
  P  P31  1  0.750000  0.932164  0.615914  1
  P  P32  1  0.250000  0.900355  0.112670  1
  P  P33  1  0.250000  0.599645  0.112670  1
  P  P34  1  0.750000  0.085134  0.893378  1
  P  P35  1  0.750000  0.414866  0.893378  1
