# generated using pymatgen
data_DyThNi2Sn
_symmetry_space_group_name_H-M   'P 1'
_cell_length_a   7.41604058
_cell_length_b   7.41604058
_cell_length_c   3.77454700
_cell_angle_alpha   90.00000000
_cell_angle_beta   90.00000000
_cell_angle_gamma   93.43342068
_symmetry_Int_Tables_number   1
_chemical_formula_structural   DyThNi2Sn
_chemical_formula_sum   'Dy2 Th2 Ni4 Sn2'
_cell_volume   207.21863145
_cell_formula_units_Z   2
loop_
 _symmetry_equiv_pos_site_id
 _symmetry_equiv_pos_as_xyz
  1  'x, y, z'
loop_
 _atom_site_type_symbol
 _atom_site_label
 _atom_site_symmetry_multiplicity
 _atom_site_fract_x
 _atom_site_fract_y
 _atom_site_fract_z
 _atom_site_occupancy
  Dy  Dy0  1  0.175036  0.324964  0.500000  1
  Dy  Dy1  1  0.824964  0.675036  0.500000  1
  Th  Th2  1  0.677741  0.177741  0.500000  1
  Th  Th3  1  0.322259  0.822259  0.500000  1
  Ni  Ni4  1  0.876614  0.376614  0.000000  1
  Ni  Ni5  1  0.123386  0.623386  0.000000  1
  Ni  Ni6  1  0.379035  0.120965  0.000000  1
  Ni  Ni7  1  0.620965  0.879035  0.000000  1
  Sn  Sn8  1  0.500000  0.500000  0.000000  1
  Sn  Sn9  1  0.000000  0.000000  0.000000  1
