# generated using pymatgen
data_Sc4CrB12Rh
_symmetry_space_group_name_H-M   'P 1'
_cell_length_a   3.42515000
_cell_length_b   8.89234482
_cell_length_c   11.21257249
_cell_angle_alpha   89.85854213
_cell_angle_beta   90.00000000
_cell_angle_gamma   90.00000000
_symmetry_Int_Tables_number   1
_chemical_formula_structural   Sc4CrB12Rh
_chemical_formula_sum   'Sc8 Cr2 B24 Rh2'
_cell_volume   341.50717358
_cell_formula_units_Z   2
loop_
 _symmetry_equiv_pos_site_id
 _symmetry_equiv_pos_as_xyz
  1  'x, y, z'
loop_
 _atom_site_type_symbol
 _atom_site_label
 _atom_site_symmetry_multiplicity
 _atom_site_fract_x
 _atom_site_fract_y
 _atom_site_fract_z
 _atom_site_occupancy
  Sc  Sc0  1  0.000000  0.812413  0.089962  1
  Sc  Sc1  1  0.000000  0.187587  0.910038  1
  Sc  Sc2  1  0.000000  0.325626  0.418422  1
  Sc  Sc3  1  0.000000  0.674374  0.581578  1
  Sc  Sc4  1  0.000000  0.446853  0.128694  1
  Sc  Sc5  1  0.000000  0.553147  0.871306  1
  Sc  Sc6  1  0.000000  0.940636  0.373523  1
  Sc  Sc7  1  0.000000  0.059364  0.626477  1
  Cr  Cr8  1  0.000000  0.639823  0.318735  1
  Cr  Cr9  1  0.000000  0.360177  0.681265  1
  B  B10  1  0.500000  0.053531  0.064156  1
  B  B11  1  0.500000  0.946469  0.935844  1
  B  B12  1  0.500000  0.552872  0.434216  1
  B  B13  1  0.500000  0.447128  0.565784  1
  B  B14  1  0.500000  0.253178  0.077721  1
  B  B15  1  0.500000  0.746822  0.922279  1
  B  B16  1  0.500000  0.750337  0.420636  1
  B  B17  1  0.500000  0.249663  0.579364  1
  B  B18  1  0.500000  0.294899  0.237011  1
  B  B19  1  0.500000  0.705101  0.762989  1
  B  B20  1  0.500000  0.794039  0.264065  1
  B  B21  1  0.500000  0.205961  0.735935  1
  B  B22  1  0.500000  0.130422  0.318892  1
  B  B23  1  0.500000  0.869578  0.681108  1
  B  B24  1  0.500000  0.630188  0.183096  1
  B  B25  1  0.500000  0.369812  0.816904  1
  B  B26  1  0.500000  0.479948  0.288078  1
  B  B27  1  0.500000  0.520052  0.711922  1
  B  B28  1  0.500000  0.978549  0.212863  1
  B  B29  1  0.500000  0.021451  0.787137  1
  B  B30  1  0.500000  0.102088  0.472147  1
  B  B31  1  0.500000  0.897912  0.527853  1
  B  B32  1  0.500000  0.601925  0.027685  1
  B  B33  1  0.500000  0.398075  0.972315  1
  Rh  Rh34  1  0.000000  0.139041  0.179483  1
  Rh  Rh35  1  0.000000  0.860959  0.820517  1
