# generated using pymatgen
data_Sr6Ni(RhO6)2
_symmetry_space_group_name_H-M   'P 1'
_cell_length_a   8.83805232
_cell_length_b   8.83805231
_cell_length_c   6.94507252
_cell_angle_alpha   67.57676164
_cell_angle_beta   67.57676311
_cell_angle_gamma   36.89010620
_symmetry_Int_Tables_number   1
_chemical_formula_structural   Sr6Ni(RhO6)2
_chemical_formula_sum   'Sr6 Ni1 Rh2 O12'
_cell_volume   298.15948117
_cell_formula_units_Z   1
loop_
 _symmetry_equiv_pos_site_id
 _symmetry_equiv_pos_as_xyz
  1  'x, y, z'
loop_
 _atom_site_type_symbol
 _atom_site_label
 _atom_site_symmetry_multiplicity
 _atom_site_fract_x
 _atom_site_fract_y
 _atom_site_fract_z
 _atom_site_occupancy
  Sr  Sr0  1  0.208132  0.208132  0.710114  1
  Sr  Sr1  1  0.887043  0.887043  0.709865  1
  Sr  Sr2  1  0.547976  0.547976  0.713802  1
  Sr  Sr3  1  0.791868  0.791868  0.289886  1
  Sr  Sr4  1  0.452024  0.452024  0.286198  1
  Sr  Sr5  1  0.112957  0.112957  0.290135  1
  Ni  Ni6  1  0.000000  0.000000  0.000000  1
  Rh  Rh7  1  0.666503  0.666503  0.000632  1
  Rh  Rh8  1  0.333497  0.333497  0.999368  1
  O  O9  1  0.280173  0.280173  0.322452  1
  O  O10  1  0.944536  0.944536  0.329191  1
  O  O11  1  0.612603  0.612603  0.321555  1
  O  O12  1  0.719827  0.719827  0.677548  1
  O  O13  1  0.387397  0.387397  0.678445  1
  O  O14  1  0.055464  0.055464  0.670809  1
  O  O15  1  0.000000  0.500000  0.000000  1
  O  O16  1  0.657647  0.171572  0.000599  1
  O  O17  1  0.342353  0.828428  0.999401  1
  O  O18  1  0.500000  0.000000  0.000000  1
  O  O19  1  0.171572  0.657647  0.000599  1
  O  O20  1  0.828428  0.342353  0.999401  1
