# generated using pymatgen
data_Li8Sb2PdO10
_symmetry_space_group_name_H-M   'P 1'
_cell_length_a   5.26255052
_cell_length_b   5.26255159
_cell_length_c   11.03872145
_cell_angle_alpha   75.48733510
_cell_angle_beta   75.48733087
_cell_angle_gamma   45.64079062
_symmetry_Int_Tables_number   1
_chemical_formula_structural   Li8Sb2PdO10
_chemical_formula_sum   'Li8 Sb2 Pd1 O10'
_cell_volume   210.34141683
_cell_formula_units_Z   1
loop_
 _symmetry_equiv_pos_site_id
 _symmetry_equiv_pos_as_xyz
  1  'x, y, z'
loop_
 _atom_site_type_symbol
 _atom_site_label
 _atom_site_symmetry_multiplicity
 _atom_site_fract_x
 _atom_site_fract_y
 _atom_site_fract_z
 _atom_site_occupancy
  Li  Li0  1  0.628408  0.628408  0.537127  1
  Li  Li1  1  0.245543  0.245543  0.098795  1
  Li  Li2  1  0.086780  0.086780  0.386463  1
  Li  Li3  1  0.913220  0.913220  0.613537  1
  Li  Li4  1  0.754457  0.754457  0.901205  1
  Li  Li5  1  0.371592  0.371592  0.462873  1
  Li  Li6  1  0.550632  0.550632  0.202206  1
  Li  Li7  1  0.449368  0.449368  0.797794  1
  Sb  Sb8  1  0.179272  0.179272  0.721583  1
  Sb  Sb9  1  0.820728  0.820728  0.278417  1
  Pd  Pd10  1  0.000000  0.000000  0.000000  1
  O  O11  1  0.969229  0.969229  0.824941  1
  O  O12  1  0.673711  0.673711  0.734351  1
  O  O13  1  0.326289  0.326289  0.265649  1
  O  O14  1  0.385877  0.385877  0.643352  1
  O  O15  1  0.614123  0.614123  0.356648  1
  O  O16  1  0.212882  0.212882  0.899733  1
  O  O17  1  0.030771  0.030771  0.175059  1
  O  O18  1  0.126496  0.126496  0.563097  1
  O  O19  1  0.873504  0.873504  0.436903  1
  O  O20  1  0.787118  0.787118  0.100267  1
