# generated using pymatgen
data_PrMn3Cl7O
_symmetry_space_group_name_H-M   'P 1'
_cell_length_a   7.62967019
_cell_length_b   7.94773549
_cell_length_c   7.62969500
_cell_angle_alpha   58.35769024
_cell_angle_beta   56.36993554
_cell_angle_gamma   58.35825797
_symmetry_Int_Tables_number   1
_chemical_formula_structural   PrMn3Cl7O
_chemical_formula_sum   'Pr1 Mn3 Cl7 O1'
_cell_volume   309.55902339
_cell_formula_units_Z   1
loop_
 _symmetry_equiv_pos_site_id
 _symmetry_equiv_pos_as_xyz
  1  'x, y, z'
loop_
 _atom_site_type_symbol
 _atom_site_label
 _atom_site_symmetry_multiplicity
 _atom_site_fract_x
 _atom_site_fract_y
 _atom_site_fract_z
 _atom_site_occupancy
  Pr  Pr0  1  0.469484  0.535081  0.469481  1
  Mn  Mn1  1  0.477637  0.515949  0.014660  1
  Mn  Mn2  1  0.499507  0.009617  0.499490  1
  Mn  Mn3  1  0.014663  0.515934  0.477654  1
  Cl  Cl4  1  0.742174  0.304906  0.742188  1
  Cl  Cl5  1  0.757006  0.769555  0.250519  1
  Cl  Cl6  1  0.262846  0.245742  0.262851  1
  Cl  Cl7  1  0.250517  0.769560  0.756996  1
  Cl  Cl8  1  0.754026  0.233456  0.250113  1
  Cl  Cl9  1  0.738495  0.745890  0.738498  1
  Cl  Cl10  1  0.250119  0.233447  0.754023  1
  O  O11  1  0.283528  0.620863  0.283527  1
