# generated using pymatgen
data_Th6Cd6AgHg11
_symmetry_space_group_name_H-M   'P 1'
_cell_length_a   5.23118200
_cell_length_b   7.27397500
_cell_length_c   15.88996300
_cell_angle_alpha   89.99929896
_cell_angle_beta   90.00060240
_cell_angle_gamma   90.00004727
_symmetry_Int_Tables_number   1
_chemical_formula_structural   Th6Cd6AgHg11
_chemical_formula_sum   'Th6 Cd6 Ag1 Hg11'
_cell_volume   604.63672193
_cell_formula_units_Z   1
loop_
 _symmetry_equiv_pos_site_id
 _symmetry_equiv_pos_as_xyz
  1  'x, y, z'
loop_
 _atom_site_type_symbol
 _atom_site_label
 _atom_site_symmetry_multiplicity
 _atom_site_fract_x
 _atom_site_fract_y
 _atom_site_fract_z
 _atom_site_occupancy
  Th  Th0  1  0.000012  0.998227  0.998519  1
  Th  Th1  1  0.500021  0.501086  0.165744  1
  Th  Th2  1  0.000018  0.001089  0.333346  1
  Th  Th3  1  0.500006  0.501088  0.500967  1
  Th  Th4  1  0.999994  0.998234  0.668126  1
  Th  Th5  1  0.499969  0.501195  0.833292  1
  Cd  Cd6  1  0.000001  0.504701  0.996829  1
  Cd  Cd7  1  0.500027  0.999433  0.165750  1
  Cd  Cd8  1  0.000013  0.499835  0.333274  1
  Cd  Cd9  1  0.500014  0.999440  0.500881  1
  Cd  Cd10  1  0.999986  0.504709  0.669903  1
  Cd  Cd11  1  0.499995  0.991123  0.833366  1
  Ag  Ag12  1  0.000237  0.753844  0.833383  1
  Hg  Hg13  1  0.500024  0.254243  0.999611  1
  Hg  Hg14  1  0.499982  0.745778  0.998398  1
  Hg  Hg15  1  0.000020  0.246548  0.165691  1
  Hg  Hg16  1  0.000012  0.754234  0.166685  1
  Hg  Hg17  1  0.500053  0.254331  0.333321  1
  Hg  Hg18  1  0.499962  0.746905  0.333320  1
  Hg  Hg19  1  0.000005  0.246537  0.500934  1
  Hg  Hg20  1  0.999999  0.754244  0.499947  1
  Hg  Hg21  1  0.500004  0.254236  0.667070  1
  Hg  Hg22  1  0.499970  0.745792  0.668271  1
  Hg  Hg23  1  0.999681  0.243149  0.833369  1
