# generated using pymatgen
data_La8Mg5CdAu20
_symmetry_space_group_name_H-M   'P 1'
_cell_length_a   8.80809015
_cell_length_b   8.80808990
_cell_length_c   10.45615183
_cell_angle_alpha   90.13456695
_cell_angle_beta   89.86543576
_cell_angle_gamma   108.46232019
_symmetry_Int_Tables_number   1
_chemical_formula_structural   La8Mg5CdAu20
_chemical_formula_sum   'La8 Mg5 Cd1 Au20'
_cell_volume   769.45919458
_cell_formula_units_Z   1
loop_
 _symmetry_equiv_pos_site_id
 _symmetry_equiv_pos_as_xyz
  1  'x, y, z'
loop_
 _atom_site_type_symbol
 _atom_site_label
 _atom_site_symmetry_multiplicity
 _atom_site_fract_x
 _atom_site_fract_y
 _atom_site_fract_z
 _atom_site_occupancy
  La  La0  1  0.701583  0.300126  0.000853  1
  La  La1  1  0.297482  0.699861  0.001306  1
  La  La2  1  0.800126  0.201583  0.499147  1
  La  La3  1  0.199861  0.797482  0.498694  1
  La  La4  1  0.299216  0.301794  0.204222  1
  La  La5  1  0.698924  0.699261  0.795594  1
  La  La6  1  0.199261  0.198924  0.704406  1
  La  La7  1  0.801794  0.799216  0.295778  1
  Mg  Mg8  1  0.988321  0.488321  0.750000  1
  Mg  Mg9  1  0.487908  0.987908  0.750000  1
  Mg  Mg10  1  0.512059  0.012059  0.250000  1
  Mg  Mg11  1  0.999783  0.999639  0.999672  1
  Mg  Mg12  1  0.499639  0.499783  0.500328  1
  Cd  Cd13  1  0.015376  0.515376  0.250000  1
  Au  Au14  1  0.097582  0.097023  0.405274  1
  Au  Au15  1  0.902688  0.903005  0.594944  1
  Au  Au16  1  0.403005  0.402688  0.905056  1
  Au  Au17  1  0.597023  0.597582  0.094726  1
  Au  Au18  1  0.884268  0.161003  0.204887  1
  Au  Au19  1  0.114328  0.833322  0.793603  1
  Au  Au20  1  0.613554  0.332163  0.706291  1
  Au  Au21  1  0.661003  0.384268  0.295113  1
  Au  Au22  1  0.392297  0.669214  0.295053  1
  Au  Au23  1  0.333322  0.614328  0.706397  1
  Au  Au24  1  0.832163  0.113554  0.793709  1
  Au  Au25  1  0.169214  0.892297  0.204947  1
  Au  Au26  1  0.933072  0.661849  0.018775  1
  Au  Au27  1  0.065190  0.338114  0.973331  1
  Au  Au28  1  0.565099  0.841298  0.523861  1
  Au  Au29  1  0.161849  0.433072  0.481225  1
  Au  Au30  1  0.434940  0.158659  0.476718  1
  Au  Au31  1  0.838114  0.565190  0.526669  1
  Au  Au32  1  0.341298  0.065099  0.976139  1
  Au  Au33  1  0.658659  0.934940  0.023282  1
