# generated using pymatgen
data_MoRu4Rh2W
_symmetry_space_group_name_H-M   'P 1'
_cell_length_a   5.51926113
_cell_length_b   5.50362498
_cell_length_c   4.37989600
_cell_angle_alpha   90.00000000
_cell_angle_beta   90.00000000
_cell_angle_gamma   120.06855325
_symmetry_Int_Tables_number   1
_chemical_formula_structural   MoRu4Rh2W
_chemical_formula_sum   'Mo1 Ru4 Rh2 W1'
_cell_volume   115.13935329
_cell_formula_units_Z   1
loop_
 _symmetry_equiv_pos_site_id
 _symmetry_equiv_pos_as_xyz
  1  'x, y, z'
loop_
 _atom_site_type_symbol
 _atom_site_label
 _atom_site_symmetry_multiplicity
 _atom_site_fract_x
 _atom_site_fract_y
 _atom_site_fract_z
 _atom_site_occupancy
  Mo  Mo0  1  0.665386  0.333337  0.750000  1
  Ru  Ru1  1  0.829480  0.666029  0.250000  1
  Ru  Ru2  1  0.169761  0.836477  0.750000  1
  Ru  Ru3  1  0.666875  0.832908  0.750000  1
  Ru  Ru4  1  0.333780  0.167341  0.250000  1
  Rh  Rh5  1  0.834599  0.166554  0.250000  1
  Rh  Rh6  1  0.165174  0.329729  0.750000  1
  W  W7  1  0.334942  0.667625  0.250000  1
