# generated using pymatgen
data_SmEr9(In2Rh)4
_symmetry_space_group_name_H-M   'P 1'
_cell_length_a   7.98493188
_cell_length_b   18.32625393
_cell_length_c   3.60638200
_cell_angle_alpha   90.00000000
_cell_angle_beta   90.00000000
_cell_angle_gamma   89.83937986
_symmetry_Int_Tables_number   1
_chemical_formula_structural   SmEr9(In2Rh)4
_chemical_formula_sum   'Sm1 Er9 In8 Rh4'
_cell_volume   527.73383021
_cell_formula_units_Z   1
loop_
 _symmetry_equiv_pos_site_id
 _symmetry_equiv_pos_as_xyz
  1  'x, y, z'
loop_
 _atom_site_type_symbol
 _atom_site_label
 _atom_site_symmetry_multiplicity
 _atom_site_fract_x
 _atom_site_fract_y
 _atom_site_fract_z
 _atom_site_occupancy
  Sm  Sm0  1  0.000000  0.000000  0.000000  1
  Er  Er1  1  0.500000  0.500000  0.000000  1
  Er  Er2  1  0.754810  0.278055  0.000000  1
  Er  Er3  1  0.245190  0.721945  0.000000  1
  Er  Er4  1  0.745199  0.777815  0.000000  1
  Er  Er5  1  0.254801  0.222185  0.000000  1
  Er  Er6  1  0.621894  0.089261  0.000000  1
  Er  Er7  1  0.378106  0.910739  0.000000  1
  Er  Er8  1  0.878489  0.589018  0.000000  1
  Er  Er9  1  0.121511  0.410982  0.000000  1
  In  In10  1  0.701807  0.930790  0.500000  1
  In  In11  1  0.298193  0.069210  0.500000  1
  In  In12  1  0.796069  0.431565  0.500000  1
  In  In13  1  0.203931  0.568435  0.500000  1
  In  In14  1  0.561998  0.650031  0.500000  1
  In  In15  1  0.438002  0.349969  0.500000  1
  In  In16  1  0.937918  0.151198  0.500000  1
  In  In17  1  0.062082  0.848802  0.500000  1
  Rh  Rh18  1  0.528250  0.194801  0.500000  1
  Rh  Rh19  1  0.471750  0.805199  0.500000  1
  Rh  Rh20  1  0.971647  0.694628  0.500000  1
  Rh  Rh21  1  0.028353  0.305372  0.500000  1
