# generated using pymatgen
data_Nd2HoAl12Ru3Rh
_symmetry_space_group_name_H-M   'P 1'
_cell_length_a   8.86274152
_cell_length_b   8.86274216
_cell_length_c   9.63878400
_cell_angle_alpha   90.00000000
_cell_angle_beta   90.00000000
_cell_angle_gamma   119.78381731
_symmetry_Int_Tables_number   1
_chemical_formula_structural   Nd2HoAl12Ru3Rh
_chemical_formula_sum   'Nd4 Ho2 Al24 Ru6 Rh2'
_cell_volume   657.09933753
_cell_formula_units_Z   2
loop_
 _symmetry_equiv_pos_site_id
 _symmetry_equiv_pos_as_xyz
  1  'x, y, z'
loop_
 _atom_site_type_symbol
 _atom_site_label
 _atom_site_symmetry_multiplicity
 _atom_site_fract_x
 _atom_site_fract_y
 _atom_site_fract_z
 _atom_site_occupancy
  Nd  Nd0  1  0.188122  0.382967  0.250000  1
  Nd  Nd1  1  0.811878  0.617033  0.750000  1
  Nd  Nd2  1  0.617033  0.811878  0.250000  1
  Nd  Nd3  1  0.382967  0.188122  0.750000  1
  Ho  Ho4  1  0.195007  0.804993  0.250000  1
  Ho  Ho5  1  0.804993  0.195007  0.750000  1
  Al  Al6  1  0.331909  0.668091  0.015584  1
  Al  Al7  1  0.668091  0.331909  0.984416  1
  Al  Al8  1  0.668091  0.331909  0.515584  1
  Al  Al9  1  0.331909  0.668091  0.484416  1
  Al  Al10  1  0.160369  0.323855  0.578073  1
  Al  Al11  1  0.839631  0.676145  0.421927  1
  Al  Al12  1  0.676145  0.839631  0.578073  1
  Al  Al13  1  0.839631  0.676145  0.078073  1
  Al  Al14  1  0.323855  0.160369  0.421927  1
  Al  Al15  1  0.160369  0.323855  0.921927  1
  Al  Al16  1  0.163287  0.836713  0.575339  1
  Al  Al17  1  0.323855  0.160369  0.078073  1
  Al  Al18  1  0.836713  0.163287  0.424661  1
  Al  Al19  1  0.676145  0.839631  0.921927  1
  Al  Al20  1  0.836713  0.163287  0.075339  1
  Al  Al21  1  0.163287  0.836713  0.924661  1
  Al  Al22  1  0.559747  0.124667  0.250000  1
  Al  Al23  1  0.440253  0.875333  0.750000  1
  Al  Al24  1  0.875333  0.440253  0.250000  1
  Al  Al25  1  0.124667  0.559747  0.750000  1
  Al  Al26  1  0.562268  0.437732  0.250000  1
  Al  Al27  1  0.437732  0.562268  0.750000  1
  Al  Al28  1  0.001861  0.998139  0.250000  1
  Al  Al29  1  0.998139  0.001861  0.750000  1
  Ru  Ru30  1  0.500000  0.000000  0.000000  1
  Ru  Ru31  1  0.000000  0.500000  0.000000  1
  Ru  Ru32  1  0.500000  0.000000  0.500000  1
  Ru  Ru33  1  0.000000  0.500000  0.500000  1
  Ru  Ru34  1  0.000000  0.000000  0.000000  1
  Ru  Ru35  1  0.000000  0.000000  0.500000  1
  Rh  Rh36  1  0.500000  0.500000  0.000000  1
  Rh  Rh37  1  0.500000  0.500000  0.500000  1
