# generated using pymatgen
data_Sr7La(Ge3Pd)4
_symmetry_space_group_name_H-M   'P 1'
_cell_length_a   8.70612900
_cell_length_b   8.70612885
_cell_length_c   9.01813400
_cell_angle_alpha   90.00000000
_cell_angle_beta   90.00000000
_cell_angle_gamma   119.99999676
_symmetry_Int_Tables_number   1
_chemical_formula_structural   Sr7La(Ge3Pd)4
_chemical_formula_sum   'Sr7 La1 Ge12 Pd4'
_cell_volume   591.96702906
_cell_formula_units_Z   1
loop_
 _symmetry_equiv_pos_site_id
 _symmetry_equiv_pos_as_xyz
  1  'x, y, z'
loop_
 _atom_site_type_symbol
 _atom_site_label
 _atom_site_symmetry_multiplicity
 _atom_site_fract_x
 _atom_site_fract_y
 _atom_site_fract_z
 _atom_site_occupancy
  Sr  Sr0  1  0.499461  0.500539  0.750000  1
  Sr  Sr1  1  0.500442  0.499558  0.250000  1
  Sr  Sr2  1  0.001078  0.500539  0.750000  1
  Sr  Sr3  1  0.999118  0.499558  0.250000  1
  Sr  Sr4  1  0.499461  0.998922  0.750000  1
  Sr  Sr5  1  0.500442  0.000882  0.250000  1
  Sr  Sr6  1  0.000000  0.000000  0.750000  1
  La  La7  1  0.000000  0.000000  0.250000  1
  Ge  Ge8  1  0.833751  0.166249  0.004547  1
  Ge  Ge9  1  0.166192  0.833808  0.004807  1
  Ge  Ge10  1  0.332500  0.166249  0.004547  1
  Ge  Ge11  1  0.166192  0.833808  0.495193  1
  Ge  Ge12  1  0.667618  0.833808  0.004807  1
  Ge  Ge13  1  0.833751  0.166249  0.495453  1
  Ge  Ge14  1  0.833751  0.667500  0.004547  1
  Ge  Ge15  1  0.667618  0.833808  0.495193  1
  Ge  Ge16  1  0.166192  0.332382  0.004807  1
  Ge  Ge17  1  0.332500  0.166249  0.495453  1
  Ge  Ge18  1  0.166192  0.332382  0.495193  1
  Ge  Ge19  1  0.833751  0.667500  0.495453  1
  Pd  Pd20  1  0.666667  0.333333  0.998234  1
  Pd  Pd21  1  0.333333  0.666667  0.000755  1
  Pd  Pd22  1  0.333333  0.666667  0.499245  1
  Pd  Pd23  1  0.666667  0.333333  0.501766  1
