# generated using pymatgen
data_Tb7Er13(Bi2P)4
_symmetry_space_group_name_H-M   'P 1'
_cell_length_a   7.98401238
_cell_length_b   8.94040700
_cell_length_c   12.13324158
_cell_angle_alpha   90.00000000
_cell_angle_beta   90.03548820
_cell_angle_gamma   90.00000000
_symmetry_Int_Tables_number   1
_chemical_formula_structural   Tb7Er13(Bi2P)4
_chemical_formula_sum   'Tb7 Er13 Bi8 P4'
_cell_volume   866.07450300
_cell_formula_units_Z   1
loop_
 _symmetry_equiv_pos_site_id
 _symmetry_equiv_pos_as_xyz
  1  'x, y, z'
loop_
 _atom_site_type_symbol
 _atom_site_label
 _atom_site_symmetry_multiplicity
 _atom_site_fract_x
 _atom_site_fract_y
 _atom_site_fract_z
 _atom_site_occupancy
  Tb  Tb0  1  0.651710  0.750000  0.706465  1
  Tb  Tb1  1  0.347798  0.250000  0.292888  1
  Tb  Tb2  1  0.152033  0.250000  0.793053  1
  Tb  Tb3  1  0.847676  0.750000  0.207101  1
  Tb  Tb4  1  0.126909  0.750000  0.800688  1
  Tb  Tb5  1  0.873371  0.250000  0.199466  1
  Tb  Tb6  1  0.626946  0.250000  0.699474  1
  Er  Er7  1  0.373380  0.750000  0.301148  1
  Er  Er8  1  0.540570  0.750000  0.998608  1
  Er  Er9  1  0.459205  0.250000  0.001995  1
  Er  Er10  1  0.040978  0.250000  0.501743  1
  Er  Er11  1  0.959442  0.750000  0.498107  1
  Er  Er12  1  0.818706  0.448908  0.936038  1
  Er  Er13  1  0.181435  0.551447  0.064206  1
  Er  Er14  1  0.318366  0.551190  0.563552  1
  Er  Er15  1  0.181435  0.948553  0.064206  1
  Er  Er16  1  0.681287  0.448763  0.436030  1
  Er  Er17  1  0.818706  0.051092  0.936038  1
  Er  Er18  1  0.681287  0.051237  0.436030  1
  Er  Er19  1  0.318366  0.948810  0.563552  1
  Bi  Bi20  1  0.925518  0.008771  0.671897  1
  Bi  Bi21  1  0.075710  0.990326  0.328036  1
  Bi  Bi22  1  0.425539  0.991077  0.828077  1
  Bi  Bi23  1  0.075710  0.509674  0.328036  1
  Bi  Bi24  1  0.573676  0.007973  0.172560  1
  Bi  Bi25  1  0.925518  0.491229  0.671897  1
  Bi  Bi26  1  0.573676  0.492027  0.172560  1
  Bi  Bi27  1  0.425539  0.508923  0.828077  1
  P  P28  1  0.923555  0.750000  0.987383  1
  P  P29  1  0.076772  0.250000  0.012815  1
  P  P30  1  0.423589  0.250000  0.512606  1
  P  P31  1  0.575589  0.750000  0.485669  1
