# generated using pymatgen
data_Sc5B4Ir8Ru2W
_symmetry_space_group_name_H-M   'P 1'
_cell_length_a   3.02235500
_cell_length_b   9.63231900
_cell_length_c   9.63231900
_cell_angle_alpha   90.00000000
_cell_angle_beta   90.00000000
_cell_angle_gamma   90.00000000
_symmetry_Int_Tables_number   1
_chemical_formula_structural   Sc5B4Ir8Ru2W
_chemical_formula_sum   'Sc5 B4 Ir8 Ru2 W1'
_cell_volume   280.41883994
_cell_formula_units_Z   1
loop_
 _symmetry_equiv_pos_site_id
 _symmetry_equiv_pos_as_xyz
  1  'x, y, z'
loop_
 _atom_site_type_symbol
 _atom_site_label
 _atom_site_symmetry_multiplicity
 _atom_site_fract_x
 _atom_site_fract_y
 _atom_site_fract_z
 _atom_site_occupancy
  Sc  Sc0  1  0.000000  0.174627  0.672378  1
  Sc  Sc1  1  0.000000  0.825373  0.327622  1
  Sc  Sc2  1  0.000000  0.327622  0.174627  1
  Sc  Sc3  1  0.000000  0.672378  0.825373  1
  Sc  Sc4  1  0.000000  0.500000  0.500000  1
  B  B5  1  0.000000  0.616038  0.122372  1
  B  B6  1  0.000000  0.383962  0.877628  1
  B  B7  1  0.000000  0.877628  0.616038  1
  B  B8  1  0.000000  0.122372  0.383962  1
  Ir  Ir9  1  0.500000  0.070200  0.219571  1
  Ir  Ir10  1  0.500000  0.929800  0.780429  1
  Ir  Ir11  1  0.500000  0.780429  0.070200  1
  Ir  Ir12  1  0.500000  0.425462  0.721864  1
  Ir  Ir13  1  0.500000  0.219571  0.929800  1
  Ir  Ir14  1  0.500000  0.574538  0.278136  1
  Ir  Ir15  1  0.500000  0.721864  0.574538  1
  Ir  Ir16  1  0.500000  0.278136  0.425462  1
  Ru  Ru17  1  0.500000  0.000000  0.500000  1
  Ru  Ru18  1  0.500000  0.500000  0.000000  1
  W  W19  1  0.000000  0.000000  0.000000  1
