# generated using pymatgen
data_K4AlGa11Te20
_symmetry_space_group_name_H-M   'P 1'
_cell_length_a   10.88998329
_cell_length_b   10.89889897
_cell_length_c   10.88581546
_cell_angle_alpha   90.38437998
_cell_angle_beta   90.52389663
_cell_angle_gamma   90.39526571
_symmetry_Int_Tables_number   1
_chemical_formula_structural   K4AlGa11Te20
_chemical_formula_sum   'K4 Al1 Ga11 Te20'
_cell_volume   1291.91029472
_cell_formula_units_Z   1
loop_
 _symmetry_equiv_pos_site_id
 _symmetry_equiv_pos_as_xyz
  1  'x, y, z'
loop_
 _atom_site_type_symbol
 _atom_site_label
 _atom_site_symmetry_multiplicity
 _atom_site_fract_x
 _atom_site_fract_y
 _atom_site_fract_z
 _atom_site_occupancy
  K  K0  1  0.254642  0.000003  0.745022  1
  K  K1  1  0.745633  0.254510  0.000267  1
  K  K2  1  0.000279  0.745254  0.254718  1
  K  K3  1  0.500350  0.500099  0.500137  1
  Al  Al4  1  0.648002  0.840437  0.257974  1
  Ga  Ga5  1  0.833704  0.886774  0.575300  1
  Ga  Ga6  1  0.576052  0.834574  0.886870  1
  Ga  Ga7  1  0.886671  0.575744  0.833971  1
  Ga  Ga8  1  0.166036  0.424055  0.113078  1
  Ga  Ga9  1  0.113177  0.165798  0.424112  1
  Ga  Ga10  1  0.424480  0.113615  0.165677  1
  Ga  Ga11  1  0.741422  0.159234  0.350528  1
  Ga  Ga12  1  0.351234  0.741796  0.160229  1
  Ga  Ga13  1  0.159865  0.350326  0.741961  1
  Ga  Ga14  1  0.258206  0.649529  0.840251  1
  Ga  Ga15  1  0.840073  0.258181  0.649666  1
  Te  Te16  1  0.186526  0.814205  0.000258  1
  Te  Te17  1  0.812112  0.998870  0.185532  1
  Te  Te18  1  0.177842  0.177586  0.177453  1
  Te  Te19  1  0.822571  0.822334  0.822111  1
  Te  Te20  1  0.000192  0.185773  0.814313  1
  Te  Te21  1  0.936633  0.500059  0.063569  1
  Te  Te22  1  0.063143  0.936390  0.499861  1
  Te  Te23  1  0.499748  0.063743  0.936113  1
  Te  Te24  1  0.737477  0.708295  0.436848  1
  Te  Te25  1  0.438621  0.738555  0.707805  1
  Te  Te26  1  0.707274  0.438134  0.738928  1
  Te  Te27  1  0.261938  0.561432  0.292564  1
  Te  Te28  1  0.292534  0.261612  0.561495  1
  Te  Te29  1  0.561625  0.292747  0.261344  1
  Te  Te30  1  0.680237  0.077829  0.577671  1
  Te  Te31  1  0.578871  0.680750  0.078570  1
  Te  Te32  1  0.077589  0.577287  0.680445  1
  Te  Te33  1  0.319751  0.422683  0.922434  1
  Te  Te34  1  0.922039  0.319059  0.422482  1
  Te  Te35  1  0.423449  0.922730  0.320443  1
