# generated using pymatgen
data_LuTi4(Re7Tc)3
_symmetry_space_group_name_H-M   'P 1'
_cell_length_a   8.39330575
_cell_length_b   8.38713434
_cell_length_c   8.38673301
_cell_angle_alpha   109.45893579
_cell_angle_beta   109.48468740
_cell_angle_gamma   109.48696437
_symmetry_Int_Tables_number   1
_chemical_formula_structural   LuTi4(Re7Tc)3
_chemical_formula_sum   'Lu1 Ti4 Re21 Tc3'
_cell_volume   454.38793904
_cell_formula_units_Z   1
loop_
 _symmetry_equiv_pos_site_id
 _symmetry_equiv_pos_as_xyz
  1  'x, y, z'
loop_
 _atom_site_type_symbol
 _atom_site_label
 _atom_site_symmetry_multiplicity
 _atom_site_fract_x
 _atom_site_fract_y
 _atom_site_fract_z
 _atom_site_occupancy
  Lu  Lu0  1  0.999773  0.000001  0.000002  1
  Ti  Ti1  1  0.628409  0.999992  0.999990  1
  Ti  Ti2  1  0.999742  0.629571  0.000001  1
  Ti  Ti3  1  0.999740  0.000000  0.629566  1
  Ti  Ti4  1  0.370179  0.370441  0.370441  1
  Re  Re5  1  0.680856  0.399729  0.000003  1
  Re  Re6  1  0.000923  0.400788  0.681713  1
  Re  Re7  1  0.319208  0.719077  0.318286  1
  Re  Re8  1  0.319206  0.318277  0.719067  1
  Re  Re9  1  0.000921  0.681718  0.400794  1
  Re  Re10  1  0.680864  0.000006  0.399729  1
  Re  Re11  1  0.600136  0.599206  0.280925  1
  Re  Re12  1  0.281136  0.600284  0.600281  1
  Re  Re13  1  0.600127  0.280922  0.599203  1
  Re  Re14  1  0.376749  0.194790  0.000007  1
  Re  Re15  1  0.181949  0.805209  0.805203  1
  Re  Re16  1  0.376750  0.000011  0.194796  1
  Re  Re17  1  0.194386  0.378380  0.000003  1
  Re  Re18  1  0.000427  0.377744  0.194205  1
  Re  Re19  1  0.806212  0.183531  0.805786  1
  Re  Re20  1  0.806231  0.805804  0.183559  1
  Re  Re21  1  0.000433  0.194198  0.377749  1
  Re  Re22  1  0.194382  0.000003  0.378383  1
  Re  Re23  1  0.622679  0.622244  0.816444  1
  Re  Re24  1  0.815999  0.621619  0.621618  1
  Re  Re25  1  0.622676  0.816447  0.622244  1
  Tc  Tc26  1  0.400764  0.682370  0.000002  1
  Tc  Tc27  1  0.718385  0.317627  0.317626  1
  Tc  Tc28  1  0.400760  0.000011  0.682374  1
