# generated using pymatgen
data_Cs4NiP4Pd
_symmetry_space_group_name_H-M   'P 1'
_cell_length_a   8.24699459
_cell_length_b   8.24699425
_cell_length_c   6.15237350
_cell_angle_alpha   88.42326589
_cell_angle_beta   91.57673116
_cell_angle_gamma   129.78779782
_symmetry_Int_Tables_number   1
_chemical_formula_structural   Cs4NiP4Pd
_chemical_formula_sum   'Cs4 Ni1 P4 Pd1'
_cell_volume   321.38978153
_cell_formula_units_Z   1
loop_
 _symmetry_equiv_pos_site_id
 _symmetry_equiv_pos_as_xyz
  1  'x, y, z'
loop_
 _atom_site_type_symbol
 _atom_site_label
 _atom_site_symmetry_multiplicity
 _atom_site_fract_x
 _atom_site_fract_y
 _atom_site_fract_z
 _atom_site_occupancy
  Cs  Cs0  1  0.787137  0.212863  0.251294  1
  Cs  Cs1  1  0.212863  0.787137  0.748706  1
  Cs  Cs2  1  0.416099  0.583901  0.247462  1
  Cs  Cs3  1  0.583901  0.416099  0.752538  1
  Ni  Ni4  1  0.000000  0.000000  0.000000  1
  P  P5  1  0.938565  0.750486  0.234216  1
  P  P6  1  0.061435  0.249514  0.765784  1
  P  P7  1  0.249514  0.061435  0.234216  1
  P  P8  1  0.750486  0.938565  0.765784  1
  Pd  Pd9  1  0.000000  0.000000  0.500000  1
