# generated using pymatgen
data_Gd7Ho3(In2Ru)4
_symmetry_space_group_name_H-M   'P 1'
_cell_length_a   3.65603900
_cell_length_b   8.02366306
_cell_length_c   18.28819600
_cell_angle_alpha   89.99270919
_cell_angle_beta   90.00000000
_cell_angle_gamma   90.00000000
_symmetry_Int_Tables_number   1
_chemical_formula_structural   Gd7Ho3(In2Ru)4
_chemical_formula_sum   'Gd7 Ho3 In8 Ru4'
_cell_volume   536.48102650
_cell_formula_units_Z   1
loop_
 _symmetry_equiv_pos_site_id
 _symmetry_equiv_pos_as_xyz
  1  'x, y, z'
loop_
 _atom_site_type_symbol
 _atom_site_label
 _atom_site_symmetry_multiplicity
 _atom_site_fract_x
 _atom_site_fract_y
 _atom_site_fract_z
 _atom_site_occupancy
  Gd  Gd0  1  0.500000  0.755843  0.721239  1
  Gd  Gd1  1  0.500000  0.256315  0.779911  1
  Gd  Gd2  1  0.500000  0.499807  0.000192  1
  Gd  Gd3  1  0.500000  0.744418  0.220145  1
  Gd  Gd4  1  0.500000  0.243296  0.278385  1
  Gd  Gd5  1  0.500000  0.998915  0.499831  1
  Gd  Gd6  1  0.500000  0.618948  0.411053  1
  Ho  Ho7  1  0.500000  0.382154  0.588748  1
  Ho  Ho8  1  0.500000  0.881657  0.911565  1
  Ho  Ho9  1  0.500000  0.118051  0.088838  1
  In  In10  1  0.000000  0.797630  0.067662  1
  In  In11  1  0.000000  0.932051  0.349223  1
  In  In12  1  0.000000  0.072638  0.650132  1
  In  In13  1  0.000000  0.572026  0.850662  1
  In  In14  1  0.000000  0.702793  0.568262  1
  In  In15  1  0.000000  0.202484  0.933193  1
  In  In16  1  0.000000  0.294387  0.431363  1
  In  In17  1  0.000000  0.428817  0.149950  1
  Ru  Ru18  1  0.000000  0.981420  0.804402  1
  Ru  Ru19  1  0.000000  0.517772  0.303689  1
  Ru  Ru20  1  0.000000  0.480955  0.696039  1
  Ru  Ru21  1  0.000000  0.017623  0.195519  1
