# generated using pymatgen
data_CaLa5TbOsBr12
_symmetry_space_group_name_H-M   'P 1'
_cell_length_a   9.73589620
_cell_length_b   9.64461721
_cell_length_c   9.61303922
_cell_angle_alpha   107.42510075
_cell_angle_beta   107.51616317
_cell_angle_gamma   106.38634792
_symmetry_Int_Tables_number   1
_chemical_formula_structural   CaLa5TbOsBr12
_chemical_formula_sum   'Ca1 La5 Tb1 Os1 Br12'
_cell_volume   749.41950173
_cell_formula_units_Z   1
loop_
 _symmetry_equiv_pos_site_id
 _symmetry_equiv_pos_as_xyz
  1  'x, y, z'
loop_
 _atom_site_type_symbol
 _atom_site_label
 _atom_site_symmetry_multiplicity
 _atom_site_fract_x
 _atom_site_fract_y
 _atom_site_fract_z
 _atom_site_occupancy
  Ca  Ca0  1  0.501143  0.498764  0.497343  1
  La  La1  1  0.024817  0.311646  0.105523  1
  La  La2  1  0.109815  0.029999  0.315536  1
  La  La3  1  0.896680  0.971921  0.687234  1
  La  La4  1  0.973569  0.688656  0.895196  1
  La  La5  1  0.671062  0.890558  0.970882  1
  Tb  Tb6  1  0.314921  0.107343  0.030037  1
  Os  Os7  1  0.999911  0.000710  0.001713  1
  Br  Br8  1  0.674183  0.219204  0.068772  1
  Br  Br9  1  0.381794  0.445605  0.160733  1
  Br  Br10  1  0.070632  0.683328  0.223947  1
  Br  Br11  1  0.782861  0.931465  0.317716  1
  Br  Br12  1  0.460846  0.166471  0.371225  1
  Br  Br13  1  0.175086  0.387228  0.463776  1
  Br  Br14  1  0.827955  0.613614  0.536914  1
  Br  Br15  1  0.540089  0.829934  0.613187  1
  Br  Br16  1  0.229287  0.073146  0.698916  1
  Br  Br17  1  0.930232  0.316861  0.776769  1
  Br  Br18  1  0.617681  0.540047  0.829478  1
  Br  Br19  1  0.317440  0.793503  0.935108  1
