# generated using pymatgen
data_Hf6Nb4Ga5Sb
_symmetry_space_group_name_H-M   'P 1'
_cell_length_a   8.02041100
_cell_length_b   8.02648883
_cell_length_c   5.46990100
_cell_angle_alpha   90.00000000
_cell_angle_beta   90.00000000
_cell_angle_gamma   119.97496683
_symmetry_Int_Tables_number   1
_chemical_formula_structural   Hf6Nb4Ga5Sb
_chemical_formula_sum   'Hf6 Nb4 Ga5 Sb1'
_cell_volume   305.02948633
_cell_formula_units_Z   1
loop_
 _symmetry_equiv_pos_site_id
 _symmetry_equiv_pos_as_xyz
  1  'x, y, z'
loop_
 _atom_site_type_symbol
 _atom_site_label
 _atom_site_symmetry_multiplicity
 _atom_site_fract_x
 _atom_site_fract_y
 _atom_site_fract_z
 _atom_site_occupancy
  Hf  Hf0  1  0.753329  0.742071  0.250000  1
  Hf  Hf1  1  0.755008  0.000000  0.750000  1
  Hf  Hf2  1  0.011258  0.257929  0.250000  1
  Hf  Hf3  1  0.250012  0.251268  0.750000  1
  Hf  Hf4  1  0.238670  0.000000  0.250000  1
  Hf  Hf5  1  0.998743  0.748732  0.750000  1
  Nb  Nb6  1  0.667671  0.338863  0.997511  1
  Nb  Nb7  1  0.667671  0.338863  0.502489  1
  Nb  Nb8  1  0.328807  0.661137  0.502489  1
  Nb  Nb9  1  0.328807  0.661137  0.997511  1
  Ga  Ga10  1  0.603155  0.604476  0.750000  1
  Ga  Ga11  1  0.998678  0.395524  0.750000  1
  Ga  Ga12  1  0.001362  0.602927  0.250000  1
  Ga  Ga13  1  0.398435  0.397073  0.250000  1
  Ga  Ga14  1  0.394381  0.000000  0.750000  1
  Sb  Sb15  1  0.604014  0.000000  0.250000  1
