# generated using pymatgen
data_Tm3LuGa18(IrRh2)2
_symmetry_space_group_name_H-M   'P 1'
_cell_length_a   7.54956873
_cell_length_b   7.55005488
_cell_length_c   9.47579101
_cell_angle_alpha   90.01789083
_cell_angle_beta   90.01810390
_cell_angle_gamma   119.66663517
_symmetry_Int_Tables_number   1
_chemical_formula_structural   Tm3LuGa18(IrRh2)2
_chemical_formula_sum   'Tm3 Lu1 Ga18 Ir2 Rh4'
_cell_volume   469.31817925
_cell_formula_units_Z   1
loop_
 _symmetry_equiv_pos_site_id
 _symmetry_equiv_pos_as_xyz
  1  'x, y, z'
loop_
 _atom_site_type_symbol
 _atom_site_label
 _atom_site_symmetry_multiplicity
 _atom_site_fract_x
 _atom_site_fract_y
 _atom_site_fract_z
 _atom_site_occupancy
  Tm  Tm0  1  0.997791  0.669290  0.248667  1
  Tm  Tm1  1  0.002258  0.330730  0.751346  1
  Tm  Tm2  1  0.669268  0.997782  0.248662  1
  Lu  Lu3  1  0.330715  0.002227  0.751360  1
  Ga  Ga4  1  0.339081  0.548900  0.250646  1
  Ga  Ga5  1  0.660826  0.450973  0.749352  1
  Ga  Ga6  1  0.548888  0.339083  0.250652  1
  Ga  Ga7  1  0.451074  0.661000  0.749350  1
  Ga  Ga8  1  0.000211  0.334428  0.081635  1
  Ga  Ga9  1  0.999986  0.665769  0.918313  1
  Ga  Ga10  1  0.000060  0.664951  0.581273  1
  Ga  Ga11  1  0.335230  0.000086  0.418878  1
  Ga  Ga12  1  0.000108  0.335232  0.418783  1
  Ga  Ga13  1  0.664568  0.999888  0.581290  1
  Ga  Ga14  1  0.665379  0.999801  0.918293  1
  Ga  Ga15  1  0.334416  0.000180  0.081525  1
  Ga  Ga16  1  0.331224  0.331055  0.566888  1
  Ga  Ga17  1  0.668792  0.668786  0.433218  1
  Ga  Ga18  1  0.668949  0.668945  0.066683  1
  Ga  Ga19  1  0.331059  0.330888  0.933214  1
  Ga  Ga20  1  0.125482  0.125484  0.249940  1
  Ga  Ga21  1  0.874641  0.874561  0.750058  1
  Ir  Ir22  1  0.672107  0.327787  0.999945  1
  Ir  Ir23  1  0.327815  0.672174  0.999939  1
  Rh  Rh24  1  0.328210  0.671782  0.500055  1
  Rh  Rh25  1  0.671732  0.328181  0.500046  1
  Rh  Rh26  1  0.000067  0.000023  0.999934  1
  Rh  Rh27  1  0.000063  0.000015  0.500054  1
