# generated using pymatgen
data_FeSb12Ir2Pt
_symmetry_space_group_name_H-M   'P 1'
_cell_length_a   8.08922242
_cell_length_b   8.09090020
_cell_length_c   9.34825627
_cell_angle_alpha   54.69724231
_cell_angle_beta   54.97536863
_cell_angle_gamma   70.65735446
_symmetry_Int_Tables_number   1
_chemical_formula_structural   FeSb12Ir2Pt
_chemical_formula_sum   'Fe1 Sb12 Ir2 Pt1'
_cell_volume   408.89936854
_cell_formula_units_Z   1
loop_
 _symmetry_equiv_pos_site_id
 _symmetry_equiv_pos_as_xyz
  1  'x, y, z'
loop_
 _atom_site_type_symbol
 _atom_site_label
 _atom_site_symmetry_multiplicity
 _atom_site_fract_x
 _atom_site_fract_y
 _atom_site_fract_z
 _atom_site_occupancy
  Fe  Fe0  1  0.500000  0.000000  0.500000  1
  Sb  Sb1  1  0.153500  0.152887  0.187074  1
  Sb  Sb2  1  0.846500  0.847113  0.812926  1
  Sb  Sb3  1  0.832576  0.853421  0.494471  1
  Sb  Sb4  1  0.167424  0.146579  0.505529  1
  Sb  Sb5  1  0.807237  0.503285  0.341702  1
  Sb  Sb6  1  0.192763  0.496715  0.658298  1
  Sb  Sb7  1  0.509687  0.825736  0.339314  1
  Sb  Sb8  1  0.490313  0.174264  0.660686  1
  Sb  Sb9  1  0.652756  0.342570  0.850257  1
  Sb  Sb10  1  0.347244  0.657430  0.149743  1
  Sb  Sb11  1  0.660238  0.325352  0.165574  1
  Sb  Sb12  1  0.339762  0.674648  0.834426  1
  Ir  Ir13  1  0.000000  0.500000  0.000000  1
  Ir  Ir14  1  0.500000  0.000000  0.000000  1
  Pt  Pt15  1  0.000000  0.500000  0.500000  1
