# generated using pymatgen
data_Sc8Zn4AgAu3
_symmetry_space_group_name_H-M   'P 1'
_cell_length_a   6.79930003
_cell_length_b   6.71124600
_cell_length_c   6.79944403
_cell_angle_alpha   90.00000000
_cell_angle_beta   89.98927291
_cell_angle_gamma   90.00000000
_symmetry_Int_Tables_number   1
_chemical_formula_structural   Sc8Zn4AgAu3
_chemical_formula_sum   'Sc8 Zn4 Ag1 Au3'
_cell_volume   310.27069553
_cell_formula_units_Z   1
loop_
 _symmetry_equiv_pos_site_id
 _symmetry_equiv_pos_as_xyz
  1  'x, y, z'
loop_
 _atom_site_type_symbol
 _atom_site_label
 _atom_site_symmetry_multiplicity
 _atom_site_fract_x
 _atom_site_fract_y
 _atom_site_fract_z
 _atom_site_occupancy
  Sc  Sc0  1  0.249434  0.001189  0.250575  1
  Sc  Sc1  1  0.249434  0.498811  0.250575  1
  Sc  Sc2  1  0.750605  0.499857  0.250599  1
  Sc  Sc3  1  0.750605  0.000143  0.250599  1
  Sc  Sc4  1  0.249408  0.001174  0.749397  1
  Sc  Sc5  1  0.249408  0.498826  0.749397  1
  Sc  Sc6  1  0.750578  0.499873  0.749429  1
  Sc  Sc7  1  0.750578  0.000127  0.749429  1
  Zn  Zn8  1  0.998994  0.249999  0.000006  1
  Zn  Zn9  1  0.000987  0.749999  0.999996  1
  Zn  Zn10  1  0.498994  0.749999  0.499948  1
  Zn  Zn11  1  0.501002  0.249999  0.500055  1
  Ag  Ag12  1  0.498743  0.749999  0.000097  1
  Au  Au13  1  0.998708  0.249999  0.499905  1
  Au  Au14  1  0.001272  0.749999  0.500089  1
  Au  Au15  1  0.501249  0.249999  0.999905  1
