# generated using pymatgen
data_SrHoEr2(Pt2O7)2
_symmetry_space_group_name_H-M   'P 1'
_cell_length_a   7.29225245
_cell_length_b   7.31270239
_cell_length_c   7.29723157
_cell_angle_alpha   60.09009492
_cell_angle_beta   60.02257575
_cell_angle_gamma   60.09246226
_symmetry_Int_Tables_number   1
_chemical_formula_structural   SrHoEr2(Pt2O7)2
_chemical_formula_sum   'Sr1 Ho1 Er2 Pt4 O14'
_cell_volume   275.58449570
_cell_formula_units_Z   1
loop_
 _symmetry_equiv_pos_site_id
 _symmetry_equiv_pos_as_xyz
  1  'x, y, z'
loop_
 _atom_site_type_symbol
 _atom_site_label
 _atom_site_symmetry_multiplicity
 _atom_site_fract_x
 _atom_site_fract_y
 _atom_site_fract_z
 _atom_site_occupancy
  Sr  Sr0  1  0.625000  0.125000  0.625000  1
  Ho  Ho1  1  0.625000  0.625000  0.125000  1
  Er  Er2  1  0.625000  0.625000  0.625000  1
  Er  Er3  1  0.125000  0.625000  0.625000  1
  Pt  Pt4  1  0.625000  0.125000  0.125000  1
  Pt  Pt5  1  0.125000  0.125000  0.125000  1
  Pt  Pt6  1  0.125000  0.625000  0.125000  1
  Pt  Pt7  1  0.125000  0.125000  0.625000  1
  O  O8  1  0.035870  0.464956  0.463305  1
  O  O9  1  0.786897  0.785278  0.214338  1
  O  O10  1  0.790945  0.223723  0.194388  1
  O  O11  1  0.758658  0.726204  0.756479  1
  O  O12  1  0.036513  0.464722  0.035662  1
  O  O13  1  0.459347  0.025548  0.459325  1
  O  O14  1  0.055779  0.025548  0.459325  1
  O  O15  1  0.491342  0.523796  0.493521  1
  O  O16  1  0.194221  0.224452  0.790675  1
  O  O17  1  0.213487  0.785278  0.214338  1
  O  O18  1  0.790653  0.224452  0.790675  1
  O  O19  1  0.459055  0.026277  0.055612  1
  O  O20  1  0.463103  0.464722  0.035662  1
  O  O21  1  0.214130  0.785044  0.786695  1
