# generated using pymatgen
data_Ho4Er8InNi4Os
_symmetry_space_group_name_H-M   'P 1'
_cell_length_a   8.26857125
_cell_length_b   8.26856972
_cell_length_c   8.26857100
_cell_angle_alpha   111.22687057
_cell_angle_beta   110.89093205
_cell_angle_gamma   106.34068088
_symmetry_Int_Tables_number   1
_chemical_formula_structural   Ho4Er8InNi4Os
_chemical_formula_sum   'Ho4 Er8 In1 Ni4 Os1'
_cell_volume   434.20895638
_cell_formula_units_Z   1
loop_
 _symmetry_equiv_pos_site_id
 _symmetry_equiv_pos_as_xyz
  1  'x, y, z'
loop_
 _atom_site_type_symbol
 _atom_site_label
 _atom_site_symmetry_multiplicity
 _atom_site_fract_x
 _atom_site_fract_y
 _atom_site_fract_z
 _atom_site_occupancy
  Ho  Ho0  1  0.180561  0.280924  0.461485  1
  Ho  Ho1  1  0.819439  0.719076  0.538515  1
  Ho  Ho2  1  0.180561  0.719076  0.899638  1
  Ho  Ho3  1  0.819439  0.280924  0.100362  1
  Er  Er4  1  0.320662  0.625667  0.305005  1
  Er  Er5  1  0.679338  0.374333  0.694995  1
  Er  Er6  1  0.320662  0.015657  0.694995  1
  Er  Er7  1  0.679338  0.984343  0.305005  1
  Er  Er8  1  0.411228  0.220656  0.190572  1
  Er  Er9  1  0.588772  0.779344  0.809428  1
  Er  Er10  1  0.030083  0.220656  0.809428  1
  Er  Er11  1  0.969917  0.779344  0.190572  1
  In  In12  1  0.500000  0.500000  0.000000  1
  Ni  Ni13  1  0.119728  0.619728  0.500000  1
  Ni  Ni14  1  0.880272  0.380272  0.500000  1
  Ni  Ni15  1  0.362969  0.000000  0.362969  1
  Ni  Ni16  1  0.637031  0.000000  0.637031  1
  Os  Os17  1  0.000000  0.000000  0.000000  1
