# generated using pymatgen
data_Y2Ta3Si4
_symmetry_space_group_name_H-M   'P 1'
_cell_length_a   7.05029832
_cell_length_b   6.88829564
_cell_length_c   7.04769280
_cell_angle_alpha   71.21006642
_cell_angle_beta   90.00666038
_cell_angle_gamma   89.99363260
_symmetry_Int_Tables_number   1
_chemical_formula_structural   Y2Ta3Si4
_chemical_formula_sum   'Y4 Ta6 Si8'
_cell_volume   324.02707238
_cell_formula_units_Z   2
loop_
 _symmetry_equiv_pos_site_id
 _symmetry_equiv_pos_as_xyz
  1  'x, y, z'
loop_
 _atom_site_type_symbol
 _atom_site_label
 _atom_site_symmetry_multiplicity
 _atom_site_fract_x
 _atom_site_fract_y
 _atom_site_fract_z
 _atom_site_occupancy
  Y  Y0  1  0.169815  0.935866  0.187095  1
  Y  Y1  1  0.330140  0.435798  0.187295  1
  Y  Y2  1  0.829932  0.064091  0.812626  1
  Y  Y3  1  0.670227  0.564463  0.812391  1
  Ta  Ta4  1  0.824051  0.252799  0.255486  1
  Ta  Ta5  1  0.324329  0.247487  0.744338  1
  Ta  Ta6  1  0.175642  0.747437  0.744458  1
  Ta  Ta7  1  0.500007  0.000165  0.500263  1
  Ta  Ta8  1  0.000389  0.499958  0.500119  1
  Ta  Ta9  1  0.675568  0.752223  0.255618  1
  Si  Si10  1  0.536816  0.132550  0.083836  1
  Si  Si11  1  0.374676  0.629360  0.493588  1
  Si  Si12  1  0.874587  0.871101  0.505791  1
  Si  Si13  1  0.037106  0.367070  0.916522  1
  Si  Si14  1  0.125435  0.128946  0.493574  1
  Si  Si15  1  0.625728  0.371071  0.506661  1
  Si  Si16  1  0.962801  0.633075  0.083513  1
  Si  Si17  1  0.462754  0.866540  0.916825  1
