# generated using pymatgen
data_YFe5Tc7
_symmetry_space_group_name_H-M   'P 1'
_cell_length_a   4.77478779
_cell_length_b   6.66368653
_cell_length_c   6.65841498
_cell_angle_alpha   98.55333769
_cell_angle_beta   110.97366570
_cell_angle_gamma   68.97693703
_symmetry_Int_Tables_number   1
_chemical_formula_structural   YFe5Tc7
_chemical_formula_sum   'Y1 Fe5 Tc7'
_cell_volume   184.60111288
_cell_formula_units_Z   1
loop_
 _symmetry_equiv_pos_site_id
 _symmetry_equiv_pos_as_xyz
  1  'x, y, z'
loop_
 _atom_site_type_symbol
 _atom_site_label
 _atom_site_symmetry_multiplicity
 _atom_site_fract_x
 _atom_site_fract_y
 _atom_site_fract_z
 _atom_site_occupancy
  Y  Y0  1  0.005919  0.994032  0.005959  1
  Fe  Fe1  1  0.499114  0.996529  0.491876  1
  Fe  Fe2  1  0.996427  0.996419  0.492040  1
  Fe  Fe3  1  0.499118  0.508118  0.003468  1
  Fe  Fe4  1  0.996430  0.508012  0.003567  1
  Fe  Fe5  1  0.727020  0.772371  0.227560  1
  Tc  Tc6  1  0.639944  0.359577  0.640470  1
  Tc  Tc7  1  0.363228  0.637631  0.362328  1
  Tc  Tc8  1  0.996445  0.359783  0.352766  1
  Tc  Tc9  1  0.996323  0.647185  0.640257  1
  Tc  Tc10  1  0.280132  0.220191  0.779863  1
  Tc  Tc11  1  0.500069  0.793459  0.793353  1
  Tc  Tc12  1  0.499831  0.206691  0.206496  1
