# generated using pymatgen
data_Gd8Co(Si4Pd)3
_symmetry_space_group_name_H-M   'P 1'
_cell_length_a   8.08732305
_cell_length_b   8.08749596
_cell_length_c   7.98495000
_cell_angle_alpha   90.00627686
_cell_angle_beta   89.99369467
_cell_angle_gamma   120.00141600
_symmetry_Int_Tables_number   1
_chemical_formula_structural   Gd8Co(Si4Pd)3
_chemical_formula_sum   'Gd8 Co1 Si12 Pd3'
_cell_volume   452.28845305
_cell_formula_units_Z   1
loop_
 _symmetry_equiv_pos_site_id
 _symmetry_equiv_pos_as_xyz
  1  'x, y, z'
loop_
 _atom_site_type_symbol
 _atom_site_label
 _atom_site_symmetry_multiplicity
 _atom_site_fract_x
 _atom_site_fract_y
 _atom_site_fract_z
 _atom_site_occupancy
  Gd  Gd0  1  0.498236  0.996462  0.246838  1
  Gd  Gd1  1  0.496550  0.993070  0.753123  1
  Gd  Gd2  1  0.003522  0.501786  0.246878  1
  Gd  Gd3  1  0.007106  0.503586  0.752990  1
  Gd  Gd4  1  0.498272  0.501808  0.246814  1
  Gd  Gd5  1  0.496551  0.503502  0.753141  1
  Gd  Gd6  1  0.999967  0.999973  0.249074  1
  Gd  Gd7  1  0.999937  0.999984  0.751150  1
  Co  Co8  1  0.333374  0.666691  0.001631  1
  Si  Si9  1  0.172212  0.344475  0.000528  1
  Si  Si10  1  0.836105  0.672155  0.999836  1
  Si  Si11  1  0.655639  0.827826  0.000662  1
  Si  Si12  1  0.834517  0.669055  0.500062  1
  Si  Si13  1  0.327731  0.163857  0.000001  1
  Si  Si14  1  0.164333  0.328629  0.499922  1
  Si  Si15  1  0.172219  0.827731  0.000483  1
  Si  Si16  1  0.330906  0.165447  0.499902  1
  Si  Si17  1  0.836092  0.163943  0.999859  1
  Si  Si18  1  0.671333  0.835657  0.499760  1
  Si  Si19  1  0.834519  0.165440  0.499997  1
  Si  Si20  1  0.164334  0.835686  0.499863  1
  Pd  Pd21  1  0.666618  0.333307  0.996732  1
  Pd  Pd22  1  0.666597  0.333285  0.502880  1
  Pd  Pd23  1  0.333328  0.666646  0.497874  1
