# generated using pymatgen
data_Ti17Mn2Si12Tc
_symmetry_space_group_name_H-M   'P 1'
_cell_length_a   7.33683613
_cell_length_b   7.33683639
_cell_length_c   13.85865600
_cell_angle_alpha   90.00000000
_cell_angle_beta   90.00000000
_cell_angle_gamma   140.76133849
_symmetry_Int_Tables_number   1
_chemical_formula_structural   Ti17Mn2Si12Tc
_chemical_formula_sum   'Ti17 Mn2 Si12 Tc1'
_cell_volume   471.88377856
_cell_formula_units_Z   1
loop_
 _symmetry_equiv_pos_site_id
 _symmetry_equiv_pos_as_xyz
  1  'x, y, z'
loop_
 _atom_site_type_symbol
 _atom_site_label
 _atom_site_symmetry_multiplicity
 _atom_site_fract_x
 _atom_site_fract_y
 _atom_site_fract_z
 _atom_site_occupancy
  Ti  Ti0  1  0.068041  0.428020  0.398457  1
  Ti  Ti1  1  0.570146  0.931702  0.902049  1
  Ti  Ti2  1  0.428020  0.068041  0.601543  1
  Ti  Ti3  1  0.931702  0.570146  0.097951  1
  Ti  Ti4  1  0.849069  0.649200  0.682404  1
  Ti  Ti5  1  0.351535  0.153116  0.178150  1
  Ti  Ti6  1  0.649200  0.849069  0.317596  1
  Ti  Ti7  1  0.153116  0.351535  0.821850  1
  Ti  Ti8  1  0.649200  0.849069  0.682404  1
  Ti  Ti9  1  0.153116  0.351535  0.178150  1
  Ti  Ti10  1  0.849069  0.649200  0.317596  1
  Ti  Ti11  1  0.351535  0.153116  0.821850  1
  Ti  Ti12  1  0.428020  0.068041  0.398457  1
  Ti  Ti13  1  0.931702  0.570146  0.902049  1
  Ti  Ti14  1  0.068041  0.428020  0.601543  1
  Ti  Ti15  1  0.570146  0.931702  0.097951  1
  Ti  Ti16  1  0.998815  0.998815  0.500000  1
  Mn  Mn17  1  0.501142  0.501142  0.000000  1
  Mn  Mn18  1  0.001781  0.001781  0.000000  1
  Si  Si19  1  0.249972  0.750174  0.751937  1
  Si  Si20  1  0.750174  0.249972  0.248063  1
  Si  Si21  1  0.750174  0.249972  0.751937  1
  Si  Si22  1  0.249972  0.750174  0.248063  1
  Si  Si23  1  0.251399  0.251399  0.660889  1
  Si  Si24  1  0.752876  0.752876  0.150967  1
  Si  Si25  1  0.251399  0.251399  0.339111  1
  Si  Si26  1  0.752876  0.752876  0.849033  1
  Si  Si27  1  0.583594  0.903542  0.500000  1
  Si  Si28  1  0.099905  0.403272  0.000000  1
  Si  Si29  1  0.903542  0.583594  0.500000  1
  Si  Si30  1  0.403272  0.099905  0.000000  1
  Tc  Tc31  1  0.497451  0.497451  0.500000  1
