# generated using pymatgen
data_PrNd11OsPd3
_symmetry_space_group_name_H-M   'P 1'
_cell_length_a   6.62565201
_cell_length_b   7.36941295
_cell_length_c   9.96901400
_cell_angle_alpha   90.00000000
_cell_angle_beta   90.00000000
_cell_angle_gamma   90.02556949
_symmetry_Int_Tables_number   1
_chemical_formula_structural   PrNd11OsPd3
_chemical_formula_sum   'Pr1 Nd11 Os1 Pd3'
_cell_volume   486.75865022
_cell_formula_units_Z   1
loop_
 _symmetry_equiv_pos_site_id
 _symmetry_equiv_pos_as_xyz
  1  'x, y, z'
loop_
 _atom_site_type_symbol
 _atom_site_label
 _atom_site_symmetry_multiplicity
 _atom_site_fract_x
 _atom_site_fract_y
 _atom_site_fract_z
 _atom_site_occupancy
  Pr  Pr0  1  0.865129  0.526164  0.250000  1
  Nd  Nd1  1  0.333425  0.679568  0.055620  1
  Nd  Nd2  1  0.166164  0.177789  0.438577  1
  Nd  Nd3  1  0.666654  0.327351  0.565944  1
  Nd  Nd4  1  0.824128  0.817622  0.935475  1
  Nd  Nd5  1  0.666654  0.327351  0.934056  1
  Nd  Nd6  1  0.824128  0.817622  0.564525  1
  Nd  Nd7  1  0.333425  0.679568  0.444380  1
  Nd  Nd8  1  0.166164  0.177789  0.061423  1
  Nd  Nd9  1  0.637513  0.028932  0.250000  1
  Nd  Nd10  1  0.143141  0.474613  0.750000  1
  Nd  Nd11  1  0.370983  0.960079  0.750000  1
  Os  Os12  1  0.563243  0.617664  0.750000  1
  Pd  Pd13  1  0.072131  0.884703  0.250000  1
  Pd  Pd14  1  0.427015  0.388118  0.250000  1
  Pd  Pd15  1  0.940106  0.115068  0.750000  1
