# generated using pymatgen
data_Sr4As4Pd3Au
_symmetry_space_group_name_H-M   'P 1'
_cell_length_a   8.97306002
_cell_length_b   4.38644100
_cell_length_c   7.52715002
_cell_angle_alpha   90.00000000
_cell_angle_beta   90.00782324
_cell_angle_gamma   90.00000000
_symmetry_Int_Tables_number   1
_chemical_formula_structural   Sr4As4Pd3Au
_chemical_formula_sum   'Sr4 As4 Pd3 Au1'
_cell_volume   296.26710424
_cell_formula_units_Z   1
loop_
 _symmetry_equiv_pos_site_id
 _symmetry_equiv_pos_as_xyz
  1  'x, y, z'
loop_
 _atom_site_type_symbol
 _atom_site_label
 _atom_site_symmetry_multiplicity
 _atom_site_fract_x
 _atom_site_fract_y
 _atom_site_fract_z
 _atom_site_occupancy
  Sr  Sr0  1  0.494188  0.750000  0.252923  1
  Sr  Sr1  1  0.005901  0.750000  0.253488  1
  Sr  Sr2  1  0.005306  0.250000  0.745972  1
  Sr  Sr3  1  0.494661  0.250000  0.746631  1
  As  As4  1  0.750055  0.250000  0.092467  1
  As  As5  1  0.250349  0.250000  0.416556  1
  As  As6  1  0.749801  0.750000  0.574971  1
  As  As7  1  0.249698  0.750000  0.917238  1
  Pd  Pd8  1  0.249551  0.250000  0.082630  1
  Pd  Pd9  1  0.749596  0.250000  0.419458  1
  Pd  Pd10  1  0.250453  0.750000  0.583414  1
  Au  Au11  1  0.750445  0.750000  0.914255  1
