# generated using pymatgen
data_Mg2NbAlRh4
_symmetry_space_group_name_H-M   'P 1'
_cell_length_a   6.22829300
_cell_length_b   6.22835100
_cell_length_c   6.20017600
_cell_angle_alpha   90.00000000
_cell_angle_beta   90.00022128
_cell_angle_gamma   90.00000000
_symmetry_Int_Tables_number   1
_chemical_formula_structural   Mg2NbAlRh4
_chemical_formula_sum   'Mg4 Nb2 Al2 Rh8'
_cell_volume   240.51719599
_cell_formula_units_Z   2
loop_
 _symmetry_equiv_pos_site_id
 _symmetry_equiv_pos_as_xyz
  1  'x, y, z'
loop_
 _atom_site_type_symbol
 _atom_site_label
 _atom_site_symmetry_multiplicity
 _atom_site_fract_x
 _atom_site_fract_y
 _atom_site_fract_z
 _atom_site_occupancy
  Mg  Mg0  1  0.749978  0.250000  0.999996  1
  Mg  Mg1  1  0.250023  0.750001  0.000004  1
  Mg  Mg2  1  0.250008  0.750001  0.499995  1
  Mg  Mg3  1  0.749993  0.250000  0.500004  1
  Nb  Nb4  1  0.249968  0.250000  0.999999  1
  Nb  Nb5  1  0.750033  0.750001  0.000001  1
  Al  Al6  1  0.250034  0.250000  0.499995  1
  Al  Al7  1  0.749967  0.750001  0.500005  1
  Rh  Rh8  1  0.999998  0.999998  0.254211  1
  Rh  Rh9  1  0.999998  0.499996  0.254211  1
  Rh  Rh10  1  0.500005  0.000004  0.254228  1
  Rh  Rh11  1  0.500005  0.500002  0.254228  1
  Rh  Rh12  1  0.499996  0.999996  0.745772  1
  Rh  Rh13  1  0.499996  0.499998  0.745772  1
  Rh  Rh14  1  0.000002  0.000002  0.745789  1
  Rh  Rh15  1  0.000002  0.500004  0.745789  1
