# generated using pymatgen
data_Na5IrPt2N3
_symmetry_space_group_name_H-M   'P 1'
_cell_length_a   8.02831400
_cell_length_b   8.04132878
_cell_length_c   3.73746400
_cell_angle_alpha   90.00000000
_cell_angle_beta   90.00000000
_cell_angle_gamma   119.94647532
_symmetry_Int_Tables_number   1
_chemical_formula_structural   Na5IrPt2N3
_chemical_formula_sum   'Na5 Ir1 Pt2 N3'
_cell_volume   209.07100339
_cell_formula_units_Z   1
loop_
 _symmetry_equiv_pos_site_id
 _symmetry_equiv_pos_as_xyz
  1  'x, y, z'
loop_
 _atom_site_type_symbol
 _atom_site_label
 _atom_site_symmetry_multiplicity
 _atom_site_fract_x
 _atom_site_fract_y
 _atom_site_fract_z
 _atom_site_occupancy
  Na  Na0  1  0.739110  0.000000  0.000000  1
  Na  Na1  1  0.259541  0.258013  0.000000  1
  Na  Na2  1  0.665471  0.332140  0.000000  1
  Na  Na3  1  0.333330  0.667860  0.000000  1
  Na  Na4  1  0.001528  0.741987  0.000000  1
  Ir  Ir5  1  0.362371  0.000000  0.499999  1
  Pt  Pt6  1  0.000026  0.361838  0.499999  1
  Pt  Pt7  1  0.638188  0.638161  0.499999  1
  N  N8  1  0.363310  0.000000  0.000000  1
  N  N9  1  0.000080  0.363037  0.000000  1
  N  N10  1  0.637043  0.636964  0.000000  1
