# generated using pymatgen
data_Hf10Zr6PdPt7N4
_symmetry_space_group_name_H-M   'P 1'
_cell_length_a   8.82137883
_cell_length_b   8.81492849
_cell_length_c   8.81492900
_cell_angle_alpha   60.00000182
_cell_angle_beta   60.02418736
_cell_angle_gamma   60.02418573
_symmetry_Int_Tables_number   1
_chemical_formula_structural   Hf10Zr6PdPt7N4
_chemical_formula_sum   'Hf10 Zr6 Pd1 Pt7 N4'
_cell_volume   484.86157255
_cell_formula_units_Z   1
loop_
 _symmetry_equiv_pos_site_id
 _symmetry_equiv_pos_as_xyz
  1  'x, y, z'
loop_
 _atom_site_type_symbol
 _atom_site_label
 _atom_site_symmetry_multiplicity
 _atom_site_fract_x
 _atom_site_fract_y
 _atom_site_fract_z
 _atom_site_occupancy
  Hf  Hf0  1  0.123444  0.625519  0.625519  1
  Hf  Hf1  1  0.626328  0.122433  0.625620  1
  Hf  Hf2  1  0.626328  0.625620  0.122433  1
  Hf  Hf3  1  0.626328  0.625620  0.625620  1
  Hf  Hf4  1  0.819043  0.818899  0.181029  1
  Hf  Hf5  1  0.182515  0.181802  0.817841  1
  Hf  Hf6  1  0.819043  0.181029  0.818899  1
  Hf  Hf7  1  0.182515  0.817841  0.181802  1
  Hf  Hf8  1  0.182515  0.817841  0.817841  1
  Hf  Hf9  1  0.819043  0.181029  0.181029  1
  Zr  Zr10  1  0.433300  0.433099  0.066800  1
  Zr  Zr11  1  0.067565  0.066684  0.432875  1
  Zr  Zr12  1  0.433300  0.066800  0.433099  1
  Zr  Zr13  1  0.067565  0.432875  0.066684  1
  Zr  Zr14  1  0.067565  0.432875  0.432875  1
  Zr  Zr15  1  0.433300  0.066800  0.066800  1
  Pd  Pd16  1  0.766145  0.411285  0.411285  1
  Pt  Pt17  1  0.408782  0.774975  0.408122  1
  Pt  Pt18  1  0.408782  0.408122  0.774975  1
  Pt  Pt19  1  0.408782  0.408122  0.408122  1
  Pt  Pt20  1  0.467140  0.844287  0.844287  1
  Pt  Pt21  1  0.844091  0.466643  0.844633  1
  Pt  Pt22  1  0.844091  0.844633  0.466643  1
  Pt  Pt23  1  0.844091  0.844633  0.844633  1
  N  N24  1  0.631869  0.122711  0.122711  1
  N  N25  1  0.122177  0.632866  0.122479  1
  N  N26  1  0.122177  0.122479  0.632866  1
  N  N27  1  0.122177  0.122479  0.122479  1
