# generated using pymatgen
data_Tb4PtRh3O14
_symmetry_space_group_name_H-M   'P 1'
_cell_length_a   7.27566773
_cell_length_b   7.27566784
_cell_length_c   7.25260936
_cell_angle_alpha   59.89477352
_cell_angle_beta   59.89477462
_cell_angle_gamma   60.00000229
_symmetry_Int_Tables_number   1
_chemical_formula_structural   Tb4PtRh3O14
_chemical_formula_sum   'Tb4 Pt1 Rh3 O14'
_cell_volume   271.03940863
_cell_formula_units_Z   1
loop_
 _symmetry_equiv_pos_site_id
 _symmetry_equiv_pos_as_xyz
  1  'x, y, z'
loop_
 _atom_site_type_symbol
 _atom_site_label
 _atom_site_symmetry_multiplicity
 _atom_site_fract_x
 _atom_site_fract_y
 _atom_site_fract_z
 _atom_site_occupancy
  Tb  Tb0  1  0.625000  0.625000  0.125000  1
  Tb  Tb1  1  0.625000  0.625000  0.625000  1
  Tb  Tb2  1  0.625000  0.125000  0.625000  1
  Tb  Tb3  1  0.125000  0.625000  0.625000  1
  Pt  Pt4  1  0.125000  0.125000  0.625000  1
  Rh  Rh5  1  0.125000  0.125000  0.125000  1
  Rh  Rh6  1  0.625000  0.125000  0.125000  1
  Rh  Rh7  1  0.125000  0.625000  0.125000  1
  O  O8  1  0.036251  0.463644  0.463855  1
  O  O9  1  0.789432  0.789432  0.209770  1
  O  O10  1  0.789432  0.211366  0.209770  1
  O  O11  1  0.463644  0.036251  0.463855  1
  O  O12  1  0.038634  0.460568  0.040230  1
  O  O13  1  0.750048  0.750048  0.749855  1
  O  O14  1  0.036251  0.036251  0.463855  1
  O  O15  1  0.211366  0.789432  0.209770  1
  O  O16  1  0.213749  0.213749  0.786145  1
  O  O17  1  0.499952  0.499952  0.500145  1
  O  O18  1  0.786356  0.213749  0.786145  1
  O  O19  1  0.460568  0.038634  0.040230  1
  O  O20  1  0.460568  0.460568  0.040230  1
  O  O21  1  0.213749  0.786356  0.786145  1
