# generated using pymatgen
data_ErCo2(PRh)3
_symmetry_space_group_name_H-M   'P 1'
_cell_length_a   3.78269700
_cell_length_b   10.63683700
_cell_length_c   12.22050100
_cell_angle_alpha   90.00000000
_cell_angle_beta   90.00000000
_cell_angle_gamma   90.00000000
_symmetry_Int_Tables_number   1
_chemical_formula_structural   ErCo2(PRh)3
_chemical_formula_sum   'Er4 Co8 P12 Rh12'
_cell_volume   491.70324002
_cell_formula_units_Z   4
loop_
 _symmetry_equiv_pos_site_id
 _symmetry_equiv_pos_as_xyz
  1  'x, y, z'
loop_
 _atom_site_type_symbol
 _atom_site_label
 _atom_site_symmetry_multiplicity
 _atom_site_fract_x
 _atom_site_fract_y
 _atom_site_fract_z
 _atom_site_occupancy
  Er  Er0  1  0.250000  0.582189  0.709244  1
  Er  Er1  1  0.250000  0.917811  0.209244  1
  Er  Er2  1  0.750000  0.417811  0.290756  1
  Er  Er3  1  0.750000  0.082189  0.790756  1
  Co  Co4  1  0.250000  0.883104  0.696794  1
  Co  Co5  1  0.250000  0.616896  0.196794  1
  Co  Co6  1  0.750000  0.116896  0.303206  1
  Co  Co7  1  0.750000  0.383104  0.803206  1
  Co  Co8  1  0.250000  0.463353  0.932785  1
  Co  Co9  1  0.250000  0.036647  0.432785  1
  Co  Co10  1  0.750000  0.536647  0.067215  1
  Co  Co11  1  0.750000  0.963353  0.567215  1
  P  P12  1  0.250000  0.431375  0.111175  1
  P  P13  1  0.250000  0.068625  0.611175  1
  P  P14  1  0.750000  0.568625  0.888825  1
  P  P15  1  0.750000  0.931375  0.388825  1
  P  P16  1  0.250000  0.273343  0.870596  1
  P  P17  1  0.250000  0.226657  0.370596  1
  P  P18  1  0.750000  0.726657  0.129404  1
  P  P19  1  0.750000  0.773343  0.629404  1
  P  P20  1  0.250000  0.599970  0.380672  1
  P  P21  1  0.250000  0.900030  0.880672  1
  P  P22  1  0.750000  0.400030  0.619328  1
  P  P23  1  0.750000  0.099970  0.119328  1
  Rh  Rh24  1  0.250000  0.716786  0.991473  1
  Rh  Rh25  1  0.250000  0.783214  0.491473  1
  Rh  Rh26  1  0.750000  0.283214  0.008527  1
  Rh  Rh27  1  0.750000  0.216786  0.508527  1
  Rh  Rh28  1  0.250000  0.409037  0.477873  1
  Rh  Rh29  1  0.250000  0.090963  0.977873  1
  Rh  Rh30  1  0.750000  0.590963  0.522127  1
  Rh  Rh31  1  0.750000  0.909037  0.022127  1
  Rh  Rh32  1  0.250000  0.226821  0.179730  1
  Rh  Rh33  1  0.250000  0.273179  0.679730  1
  Rh  Rh34  1  0.750000  0.773179  0.820270  1
  Rh  Rh35  1  0.750000  0.726821  0.320270  1
