# generated using pymatgen
data_Sc8Re11Si16Ni
_symmetry_space_group_name_H-M   'P 1'
_cell_length_a   6.60835913
_cell_length_b   6.60835913
_cell_length_c   12.49478254
_cell_angle_alpha   89.78800754
_cell_angle_beta   90.21199246
_cell_angle_gamma   90.32673288
_symmetry_Int_Tables_number   1
_chemical_formula_structural   Sc8Re11Si16Ni
_chemical_formula_sum   'Sc8 Re11 Si16 Ni1'
_cell_volume   545.63598237
_cell_formula_units_Z   1
loop_
 _symmetry_equiv_pos_site_id
 _symmetry_equiv_pos_as_xyz
  1  'x, y, z'
loop_
 _atom_site_type_symbol
 _atom_site_label
 _atom_site_symmetry_multiplicity
 _atom_site_fract_x
 _atom_site_fract_y
 _atom_site_fract_z
 _atom_site_occupancy
  Sc  Sc0  1  0.008470  0.657179  0.031633  1
  Sc  Sc1  1  0.992403  0.335113  0.533766  1
  Sc  Sc2  1  0.335113  0.992403  0.466234  1
  Sc  Sc3  1  0.156477  0.491382  0.781432  1
  Sc  Sc4  1  0.841710  0.504475  0.278336  1
  Sc  Sc5  1  0.491382  0.156477  0.218568  1
  Sc  Sc6  1  0.504475  0.841710  0.721664  1
  Sc  Sc7  1  0.657179  0.008470  0.968367  1
  Re  Re8  1  0.167833  0.831443  0.249974  1
  Re  Re9  1  0.332745  0.332745  0.000000  1
  Re  Re10  1  0.010133  0.819441  0.627902  1
  Re  Re11  1  0.981557  0.192564  0.136046  1
  Re  Re12  1  0.819441  0.010133  0.372098  1
  Re  Re13  1  0.318017  0.483752  0.385226  1
  Re  Re14  1  0.689801  0.516533  0.882725  1
  Re  Re15  1  0.483752  0.318017  0.614774  1
  Re  Re16  1  0.516533  0.689801  0.117275  1
  Re  Re17  1  0.192564  0.981557  0.863954  1
  Re  Re18  1  0.831443  0.167833  0.750026  1
  Si  Si19  1  0.025014  0.710230  0.437141  1
  Si  Si20  1  0.624518  0.304228  0.430672  1
  Si  Si21  1  0.382272  0.695601  0.930166  1
  Si  Si22  1  0.196021  0.122805  0.678986  1
  Si  Si23  1  0.304228  0.624518  0.569328  1
  Si  Si24  1  0.695601  0.382272  0.069834  1
  Si  Si25  1  0.805808  0.881629  0.181167  1
  Si  Si26  1  0.122805  0.196021  0.321014  1
  Si  Si27  1  0.976555  0.272382  0.939277  1
  Si  Si28  1  0.710230  0.025014  0.562859  1
  Si  Si29  1  0.224919  0.475181  0.189557  1
  Si  Si30  1  0.775026  0.527407  0.687477  1
  Si  Si31  1  0.475181  0.224919  0.810443  1
  Si  Si32  1  0.527407  0.775026  0.312523  1
  Si  Si33  1  0.272382  0.976555  0.060723  1
  Si  Si34  1  0.881629  0.805808  0.818833  1
  Ni  Ni35  1  0.669377  0.669377  0.500000  1
