# generated using pymatgen
data_Nd10P9I
_symmetry_space_group_name_H-M   'P 1'
_cell_length_a   7.25977488
_cell_length_b   8.42554772
_cell_length_c   9.34992200
_cell_angle_alpha   102.79300954
_cell_angle_beta   97.57948501
_cell_angle_gamma   106.94350849
_symmetry_Int_Tables_number   1
_chemical_formula_structural   Nd10P9I
_chemical_formula_sum   'Nd10 P9 I1'
_cell_volume   521.54396396
_cell_formula_units_Z   1
loop_
 _symmetry_equiv_pos_site_id
 _symmetry_equiv_pos_as_xyz
  1  'x, y, z'
loop_
 _atom_site_type_symbol
 _atom_site_label
 _atom_site_symmetry_multiplicity
 _atom_site_fract_x
 _atom_site_fract_y
 _atom_site_fract_z
 _atom_site_occupancy
  Nd  Nd0  1  0.904821  0.548164  0.799149  1
  Nd  Nd1  1  0.676140  0.159490  0.394969  1
  Nd  Nd2  1  0.502686  0.748684  0.003731  1
  Nd  Nd3  1  0.681639  0.625307  0.390024  1
  Nd  Nd4  1  0.318361  0.374693  0.609976  1
  Nd  Nd5  1  0.104256  0.940869  0.177591  1
  Nd  Nd6  1  0.497314  0.251316  0.996269  1
  Nd  Nd7  1  0.323860  0.840510  0.605031  1
  Nd  Nd8  1  0.095179  0.451836  0.200851  1
  Nd  Nd9  1  0.895744  0.059131  0.822409  1
  P  P10  1  0.799093  0.600808  0.101060  1
  P  P11  1  0.599233  0.198856  0.699939  1
  P  P12  1  0.400767  0.801144  0.300061  1
  P  P13  1  0.799639  0.100663  0.107042  1
  P  P14  1  0.200907  0.399192  0.898940  1
  P  P15  1  0.612672  0.704841  0.702781  1
  P  P16  1  0.387328  0.295159  0.297219  1
  P  P17  1  0.200361  0.899337  0.892958  1
  P  P18  1  0.000000  0.500000  0.500000  1
  I  I19  1  0.000000  0.000000  0.500000  1
