# generated using pymatgen
data_Dy4Lu6Si5Te
_symmetry_space_group_name_H-M   'P 1'
_cell_length_a   8.39163000
_cell_length_b   8.44845481
_cell_length_c   6.21080600
_cell_angle_alpha   90.00000000
_cell_angle_beta   90.00000000
_cell_angle_gamma   120.09493779
_symmetry_Int_Tables_number   1
_chemical_formula_structural   Dy4Lu6Si5Te
_chemical_formula_sum   'Dy4 Lu6 Si5 Te1'
_cell_volume   380.96575789
_cell_formula_units_Z   1
loop_
 _symmetry_equiv_pos_site_id
 _symmetry_equiv_pos_as_xyz
  1  'x, y, z'
loop_
 _atom_site_type_symbol
 _atom_site_label
 _atom_site_symmetry_multiplicity
 _atom_site_fract_x
 _atom_site_fract_y
 _atom_site_fract_z
 _atom_site_occupancy
  Dy  Dy0  1  0.755442  0.755260  0.250000  1
  Dy  Dy1  1  0.765513  0.000776  0.750000  1
  Dy  Dy2  1  0.240325  0.254450  0.750000  1
  Dy  Dy3  1  0.241750  0.999581  0.250000  1
  Lu  Lu4  1  0.984744  0.742253  0.750000  1
  Lu  Lu5  1  0.000043  0.247604  0.250000  1
  Lu  Lu6  1  0.675748  0.344699  0.003292  1
  Lu  Lu7  1  0.330694  0.655129  0.496574  1
  Lu  Lu8  1  0.330694  0.655129  0.003426  1
  Lu  Lu9  1  0.675748  0.344699  0.496708  1
  Si  Si10  1  0.392936  0.391523  0.250000  1
  Si  Si11  1  0.003279  0.605686  0.250000  1
  Si  Si12  1  0.998978  0.398717  0.750000  1
  Si  Si13  1  0.604862  0.604534  0.750000  1
  Si  Si14  1  0.608560  0.002173  0.250000  1
  Te  Te15  1  0.390683  0.997787  0.750000  1
