# generated using pymatgen
data_Er7Th5Fe4
_symmetry_space_group_name_H-M   'P 1'
_cell_length_a   6.95302758
_cell_length_b   9.60376741
_cell_length_c   6.29285300
_cell_angle_alpha   90.19860751
_cell_angle_beta   89.44044273
_cell_angle_gamma   89.93422309
_symmetry_Int_Tables_number   1
_chemical_formula_structural   Er7Th5Fe4
_chemical_formula_sum   'Er7 Th5 Fe4'
_cell_volume   420.18403601
_cell_formula_units_Z   1
loop_
 _symmetry_equiv_pos_site_id
 _symmetry_equiv_pos_as_xyz
  1  'x, y, z'
loop_
 _atom_site_type_symbol
 _atom_site_label
 _atom_site_symmetry_multiplicity
 _atom_site_fract_x
 _atom_site_fract_y
 _atom_site_fract_z
 _atom_site_occupancy
  Er  Er0  1  0.330841  0.934336  0.171835  1
  Er  Er1  1  0.830633  0.566943  0.327495  1
  Er  Er2  1  0.828751  0.929346  0.327545  1
  Er  Er3  1  0.168416  0.070256  0.673068  1
  Er  Er4  1  0.169066  0.430108  0.673622  1
  Er  Er5  1  0.670528  0.069988  0.826337  1
  Er  Er6  1  0.669664  0.430111  0.826121  1
  Th  Th7  1  0.061013  0.249383  0.155951  1
  Th  Th8  1  0.333374  0.572618  0.174320  1
  Th  Th9  1  0.560790  0.248882  0.346497  1
  Th  Th10  1  0.438751  0.752333  0.660535  1
  Th  Th11  1  0.941177  0.751294  0.842987  1
  Fe  Fe12  1  0.626154  0.746583  0.022695  1
  Fe  Fe13  1  0.131970  0.746854  0.473049  1
  Fe  Fe14  1  0.869163  0.248848  0.515405  1
  Fe  Fe15  1  0.369708  0.252118  0.982530  1
