# generated using pymatgen
data_Ca2MnGaF10
_symmetry_space_group_name_H-M   'P 1'
_cell_length_a   5.55643672
_cell_length_b   5.61532250
_cell_length_c   7.86645790
_cell_angle_alpha   68.53998754
_cell_angle_beta   69.97024091
_cell_angle_gamma   70.92900744
_symmetry_Int_Tables_number   1
_chemical_formula_structural   Ca2MnGaF10
_chemical_formula_sum   'Ca2 Mn1 Ga1 F10'
_cell_volume   208.83816065
_cell_formula_units_Z   1
loop_
 _symmetry_equiv_pos_site_id
 _symmetry_equiv_pos_as_xyz
  1  'x, y, z'
loop_
 _atom_site_type_symbol
 _atom_site_label
 _atom_site_symmetry_multiplicity
 _atom_site_fract_x
 _atom_site_fract_y
 _atom_site_fract_z
 _atom_site_occupancy
  Ca  Ca0  1  0.540236  0.454241  0.756072  1
  Ca  Ca1  1  0.459764  0.545759  0.243928  1
  Mn  Mn2  1  0.000000  0.000000  0.500000  1
  Ga  Ga3  1  0.000000  0.000000  0.000000  1
  F  F4  1  0.089189  0.910677  0.239128  1
  F  F5  1  0.910811  0.089323  0.760872  1
  F  F6  1  0.209924  0.243108  0.383474  1
  F  F7  1  0.754716  0.788577  0.118278  1
  F  F8  1  0.716006  0.304254  0.034656  1
  F  F9  1  0.695083  0.283605  0.470144  1
  F  F10  1  0.283994  0.695746  0.965344  1
  F  F11  1  0.304917  0.716395  0.529856  1
  F  F12  1  0.245284  0.211423  0.881722  1
  F  F13  1  0.790076  0.756892  0.616526  1
