# generated using pymatgen
data_Ti3(VSi2)2
_symmetry_space_group_name_H-M   'P 1'
_cell_length_a   6.54217900
_cell_length_b   6.54217900
_cell_length_c   12.05340900
_cell_angle_alpha   90.00000000
_cell_angle_beta   90.00000000
_cell_angle_gamma   90.00000000
_symmetry_Int_Tables_number   1
_chemical_formula_structural   Ti3(VSi2)2
_chemical_formula_sum   'Ti12 V8 Si16'
_cell_volume   515.88718368
_cell_formula_units_Z   4
loop_
 _symmetry_equiv_pos_site_id
 _symmetry_equiv_pos_as_xyz
  1  'x, y, z'
loop_
 _atom_site_type_symbol
 _atom_site_label
 _atom_site_symmetry_multiplicity
 _atom_site_fract_x
 _atom_site_fract_y
 _atom_site_fract_z
 _atom_site_occupancy
  Ti  Ti0  1  0.002822  0.340964  0.220381  1
  Ti  Ti1  1  0.159036  0.502822  0.470381  1
  Ti  Ti2  1  0.840964  0.497178  0.970381  1
  Ti  Ti3  1  0.502822  0.159036  0.529619  1
  Ti  Ti4  1  0.497178  0.840964  0.029619  1
  Ti  Ti5  1  0.997178  0.659036  0.720381  1
  Ti  Ti6  1  0.340964  0.002822  0.779619  1
  Ti  Ti7  1  0.659036  0.997178  0.279619  1
  Ti  Ti8  1  0.166789  0.166789  0.000000  1
  Ti  Ti9  1  0.333211  0.666789  0.250000  1
  Ti  Ti10  1  0.666789  0.333211  0.750000  1
  Ti  Ti11  1  0.833211  0.833211  0.500000  1
  V  V12  1  0.994055  0.155135  0.621654  1
  V  V13  1  0.344865  0.494055  0.871654  1
  V  V14  1  0.655135  0.505945  0.371654  1
  V  V15  1  0.494055  0.344865  0.128346  1
  V  V16  1  0.505945  0.655135  0.628346  1
  V  V17  1  0.005945  0.844865  0.121654  1
  V  V18  1  0.155135  0.994055  0.378346  1
  V  V19  1  0.844865  0.005945  0.878346  1
  Si  Si20  1  0.043108  0.296981  0.812388  1
  Si  Si21  1  0.203019  0.543108  0.062388  1
  Si  Si22  1  0.796981  0.456892  0.562388  1
  Si  Si23  1  0.543108  0.203019  0.937612  1
  Si  Si24  1  0.456892  0.796981  0.437612  1
  Si  Si25  1  0.956892  0.703019  0.312388  1
  Si  Si26  1  0.296981  0.043108  0.187612  1
  Si  Si27  1  0.703019  0.956892  0.687612  1
  Si  Si28  1  0.291964  0.366176  0.672524  1
  Si  Si29  1  0.133824  0.791964  0.922524  1
  Si  Si30  1  0.866176  0.208036  0.422524  1
  Si  Si31  1  0.791964  0.133824  0.077476  1
  Si  Si32  1  0.208036  0.866176  0.577476  1
  Si  Si33  1  0.708036  0.633824  0.172524  1
  Si  Si34  1  0.366176  0.291964  0.327476  1
  Si  Si35  1  0.633824  0.708036  0.827476  1
