# generated using pymatgen
data_Er5Tm3(Sc3Sn4)4
_symmetry_space_group_name_H-M   'P 1'
_cell_length_a   7.67171990
_cell_length_b   7.89879607
_cell_length_c   14.79789695
_cell_angle_alpha   90.00743314
_cell_angle_beta   89.90877956
_cell_angle_gamma   90.00647142
_symmetry_Int_Tables_number   1
_chemical_formula_structural   Er5Tm3(Sc3Sn4)4
_chemical_formula_sum   'Er5 Tm3 Sc12 Sn16'
_cell_volume   896.71220564
_cell_formula_units_Z   1
loop_
 _symmetry_equiv_pos_site_id
 _symmetry_equiv_pos_as_xyz
  1  'x, y, z'
loop_
 _atom_site_type_symbol
 _atom_site_label
 _atom_site_symmetry_multiplicity
 _atom_site_fract_x
 _atom_site_fract_y
 _atom_site_fract_z
 _atom_site_occupancy
  Er  Er0  1  0.989315  0.177795  0.093860  1
  Er  Er1  1  0.010828  0.822140  0.906080  1
  Er  Er2  1  0.510569  0.677711  0.906370  1
  Er  Er3  1  0.010845  0.821926  0.593635  1
  Er  Er4  1  0.489421  0.322043  0.093789  1
  Tm  Tm5  1  0.988666  0.178375  0.406349  1
  Tm  Tm6  1  0.488491  0.321748  0.406313  1
  Tm  Tm7  1  0.511468  0.678103  0.593631  1
  Sc  Sc8  1  0.174313  0.495051  0.749750  1
  Sc  Sc9  1  0.825749  0.504694  0.250434  1
  Sc  Sc10  1  0.325765  0.994988  0.250381  1
  Sc  Sc11  1  0.674388  0.004758  0.749770  1
  Sc  Sc12  1  0.345581  0.160475  0.626902  1
  Sc  Sc13  1  0.654246  0.839431  0.373256  1
  Sc  Sc14  1  0.154670  0.660094  0.373235  1
  Sc  Sc15  1  0.655177  0.839620  0.127163  1
  Sc  Sc16  1  0.845724  0.339503  0.626786  1
  Sc  Sc17  1  0.344958  0.160504  0.872927  1
  Sc  Sc18  1  0.844696  0.339231  0.873010  1
  Sc  Sc19  1  0.155289  0.660392  0.127197  1
  Sn  Sn20  1  0.037191  0.123807  0.749825  1
  Sn  Sn21  1  0.963062  0.876805  0.249968  1
  Sn  Sn22  1  0.463107  0.623426  0.250009  1
  Sn  Sn23  1  0.537120  0.376478  0.750034  1
  Sn  Sn24  1  0.315954  0.848052  0.749625  1
  Sn  Sn25  1  0.684489  0.151903  0.250597  1
  Sn  Sn26  1  0.184134  0.348013  0.250234  1
  Sn  Sn27  1  0.815215  0.651782  0.749802  1
  Sn  Sn28  1  0.188774  0.457253  0.542034  1
  Sn  Sn29  1  0.811314  0.542697  0.457599  1
  Sn  Sn30  1  0.311651  0.957917  0.457727  1
  Sn  Sn31  1  0.813272  0.543291  0.042472  1
  Sn  Sn32  1  0.687869  0.042990  0.541879  1
  Sn  Sn33  1  0.186634  0.456817  0.957680  1
  Sn  Sn34  1  0.687017  0.043008  0.957564  1
  Sn  Sn35  1  0.313038  0.957182  0.042115  1
