# generated using pymatgen
data_Eu2Mo2RuO12
_symmetry_space_group_name_H-M   'P 1'
_cell_length_a   7.15876072
_cell_length_b   7.15876076
_cell_length_c   11.72732600
_cell_angle_alpha   80.06793317
_cell_angle_beta   80.06793311
_cell_angle_gamma   114.08472529
_symmetry_Int_Tables_number   1
_chemical_formula_structural   Eu2Mo2RuO12
_chemical_formula_sum   'Eu4 Mo4 Ru2 O24'
_cell_volume   520.37228129
_cell_formula_units_Z   2
loop_
 _symmetry_equiv_pos_site_id
 _symmetry_equiv_pos_as_xyz
  1  'x, y, z'
loop_
 _atom_site_type_symbol
 _atom_site_label
 _atom_site_symmetry_multiplicity
 _atom_site_fract_x
 _atom_site_fract_y
 _atom_site_fract_z
 _atom_site_occupancy
  Eu  Eu0  1  0.448257  0.187679  0.093753  1
  Eu  Eu1  1  0.812321  0.551743  0.406247  1
  Eu  Eu2  1  0.551743  0.812321  0.906247  1
  Eu  Eu3  1  0.187679  0.448257  0.593753  1
  Mo  Mo4  1  0.989173  0.697904  0.050149  1
  Mo  Mo5  1  0.302096  0.010827  0.449851  1
  Mo  Mo6  1  0.010827  0.302096  0.949851  1
  Mo  Mo7  1  0.697904  0.989173  0.550149  1
  Ru  Ru8  1  0.616687  0.383313  0.750000  1
  Ru  Ru9  1  0.383313  0.616687  0.250000  1
  O  O10  1  0.551649  0.469716  0.617498  1
  O  O11  1  0.530284  0.448351  0.882502  1
  O  O12  1  0.448351  0.530284  0.382502  1
  O  O13  1  0.469716  0.551649  0.117498  1
  O  O14  1  0.885590  0.813839  0.948462  1
  O  O15  1  0.186161  0.114410  0.551538  1
  O  O16  1  0.114410  0.186161  0.051538  1
  O  O17  1  0.813839  0.885590  0.448462  1
  O  O18  1  0.296185  0.130398  0.303477  1
  O  O19  1  0.869602  0.703815  0.196523  1
  O  O20  1  0.703815  0.869602  0.696523  1
  O  O21  1  0.130398  0.296185  0.803477  1
  O  O22  1  0.170814  0.599802  0.922209  1
  O  O23  1  0.400198  0.829186  0.577791  1
  O  O24  1  0.829186  0.400198  0.077791  1
  O  O25  1  0.599802  0.170814  0.422209  1
  O  O26  1  0.497402  0.893527  0.219899  1
  O  O27  1  0.106473  0.502598  0.280101  1
  O  O28  1  0.502598  0.106473  0.780101  1
  O  O29  1  0.893527  0.497402  0.719899  1
  O  O30  1  0.870596  0.275045  0.538977  1
  O  O31  1  0.724955  0.129404  0.961023  1
  O  O32  1  0.129404  0.724955  0.461023  1
  O  O33  1  0.275045  0.870596  0.038977  1
