# generated using pymatgen
data_Yb10Cd2Pd3Au
_symmetry_space_group_name_H-M   'P 1'
_cell_length_a   9.06253550
_cell_length_b   9.06253358
_cell_length_c   9.07748300
_cell_angle_alpha   128.83898992
_cell_angle_beta   128.83898010
_cell_angle_gamma   75.14718448
_symmetry_Int_Tables_number   1
_chemical_formula_structural   Yb10Cd2Pd3Au
_chemical_formula_sum   'Yb10 Cd2 Pd3 Au1'
_cell_volume   440.63910474
_cell_formula_units_Z   1
loop_
 _symmetry_equiv_pos_site_id
 _symmetry_equiv_pos_as_xyz
  1  'x, y, z'
loop_
 _atom_site_type_symbol
 _atom_site_label
 _atom_site_symmetry_multiplicity
 _atom_site_fract_x
 _atom_site_fract_y
 _atom_site_fract_z
 _atom_site_occupancy
  Yb  Yb0  1  0.503375  0.499072  0.002445  1
  Yb  Yb1  1  0.999072  0.003375  0.002445  1
  Yb  Yb2  1  0.532124  0.032124  0.829563  1
  Yb  Yb3  1  0.205067  0.705067  0.178052  1
  Yb  Yb4  1  0.032113  0.197187  0.496539  1
  Yb  Yb5  1  0.697187  0.532113  0.496539  1
  Yb  Yb6  1  0.472986  0.972986  0.178052  1
  Yb  Yb7  1  0.797437  0.297437  0.829563  1
  Yb  Yb8  1  0.964428  0.799352  0.496539  1
  Yb  Yb9  1  0.299352  0.464428  0.496539  1
  Cd  Cd10  1  0.249557  0.249557  0.999113  1
  Cd  Cd11  1  0.749557  0.749557  0.999113  1
  Pd  Pd12  1  0.867077  0.367077  0.234155  1
  Pd  Pd13  1  0.631753  0.868096  0.499849  1
  Pd  Pd14  1  0.368096  0.131753  0.499849  1
  Au  Au15  1  0.130821  0.630821  0.761642  1
