# generated using pymatgen
data_Tb5YMn(CrC4)3
_symmetry_space_group_name_H-M   'P 1'
_cell_length_a   8.13783408
_cell_length_b   8.14107037
_cell_length_c   5.02784900
_cell_angle_alpha   90.00000000
_cell_angle_beta   90.00000000
_cell_angle_gamma   120.04587703
_symmetry_Int_Tables_number   1
_chemical_formula_structural   Tb5YMn(CrC4)3
_chemical_formula_sum   'Tb5 Y1 Mn1 Cr3 C12'
_cell_volume   288.33823973
_cell_formula_units_Z   1
loop_
 _symmetry_equiv_pos_site_id
 _symmetry_equiv_pos_as_xyz
  1  'x, y, z'
loop_
 _atom_site_type_symbol
 _atom_site_label
 _atom_site_symmetry_multiplicity
 _atom_site_fract_x
 _atom_site_fract_y
 _atom_site_fract_z
 _atom_site_occupancy
  Tb  Tb0  1  0.622636  0.686234  0.750000  1
  Tb  Tb1  1  0.685053  0.065531  0.250000  1
  Tb  Tb2  1  0.313752  0.936199  0.750000  1
  Tb  Tb3  1  0.064131  0.377876  0.750000  1
  Tb  Tb4  1  0.380837  0.315453  0.250000  1
  Y  Y5  1  0.934324  0.619495  0.250000  1
  Mn  Mn6  1  0.332697  0.666392  0.250000  1
  Cr  Cr7  1  0.000037  0.000133  0.499752  1
  Cr  Cr8  1  0.000037  0.000133  0.000248  1
  Cr  Cr9  1  0.667002  0.333332  0.750000  1
  C  C10  1  0.963234  0.775943  0.750000  1
  C  C11  1  0.191436  0.961875  0.250000  1
  C  C12  1  0.770060  0.807898  0.250000  1
  C  C13  1  0.224630  0.187782  0.750000  1
  C  C14  1  0.812495  0.036841  0.750000  1
  C  C15  1  0.038347  0.229223  0.250000  1
  C  C16  1  0.865892  0.580209  0.750000  1
  C  C17  1  0.285982  0.862638  0.250000  1
  C  C18  1  0.575748  0.713383  0.250000  1
  C  C19  1  0.420520  0.285282  0.750000  1
  C  C20  1  0.136209  0.423190  0.250000  1
  C  C21  1  0.714939  0.134962  0.750000  1
