# generated using pymatgen
data_LiMo(CO3)2
_symmetry_space_group_name_H-M   'P 1'
_cell_length_a   4.79490690
_cell_length_b   5.88394975
_cell_length_c   8.31880953
_cell_angle_alpha   76.49281219
_cell_angle_beta   89.99020621
_cell_angle_gamma   114.22293959
_symmetry_Int_Tables_number   1
_chemical_formula_structural   LiMo(CO3)2
_chemical_formula_sum   'Li2 Mo2 C4 O12'
_cell_volume   206.89136879
_cell_formula_units_Z   2
loop_
 _symmetry_equiv_pos_site_id
 _symmetry_equiv_pos_as_xyz
  1  'x, y, z'
loop_
 _atom_site_type_symbol
 _atom_site_label
 _atom_site_symmetry_multiplicity
 _atom_site_fract_x
 _atom_site_fract_y
 _atom_site_fract_z
 _atom_site_occupancy
  Li  Li0  1  0.000022  0.999998  0.000007  1
  Li  Li1  1  0.499978  0.000002  0.499993  1
  Mo  Mo2  1  0.750000  0.500000  0.750000  1
  Mo  Mo3  1  0.250000  0.500000  0.250000  1
  C  C4  1  0.871415  0.742227  0.376908  1
  C  C5  1  0.371424  0.742228  0.876907  1
  C  C6  1  0.628586  0.257773  0.123092  1
  C  C7  1  0.128576  0.257772  0.623093  1
  O  O8  1  0.899171  0.257588  0.122681  1
  O  O9  1  0.399168  0.257601  0.622679  1
  O  O10  1  0.507512  0.743116  0.011740  1
  O  O11  1  0.007511  0.743124  0.511739  1
  O  O12  1  0.005980  0.741958  0.241722  1
  O  O13  1  0.505994  0.741972  0.741717  1
  O  O14  1  0.494020  0.258041  0.258279  1
  O  O15  1  0.994006  0.258029  0.758283  1
  O  O16  1  0.992487  0.256884  0.488261  1
  O  O17  1  0.492489  0.256876  0.988261  1
  O  O18  1  0.600829  0.742412  0.377319  1
  O  O19  1  0.100832  0.742398  0.877321  1
