# generated using pymatgen
data_Lu4Cu3SiRh9
_symmetry_space_group_name_H-M   'P 1'
_cell_length_a   7.04483911
_cell_length_b   7.04483933
_cell_length_c   7.13038700
_cell_angle_alpha   109.71739971
_cell_angle_beta   109.71740036
_cell_angle_gamma   109.22392639
_symmetry_Int_Tables_number   1
_chemical_formula_structural   Lu4Cu3SiRh9
_chemical_formula_sum   'Lu4 Cu3 Si1 Rh9'
_cell_volume   271.58443148
_cell_formula_units_Z   1
loop_
 _symmetry_equiv_pos_site_id
 _symmetry_equiv_pos_as_xyz
  1  'x, y, z'
loop_
 _atom_site_type_symbol
 _atom_site_label
 _atom_site_symmetry_multiplicity
 _atom_site_fract_x
 _atom_site_fract_y
 _atom_site_fract_z
 _atom_site_occupancy
  Lu  Lu0  1  0.000000  0.000000  0.500000  1
  Lu  Lu1  1  0.015446  0.507723  0.007723  1
  Lu  Lu2  1  0.492277  0.984554  0.992277  1
  Lu  Lu3  1  0.492277  0.507723  0.500000  1
  Cu  Cu4  1  0.748032  0.251968  0.500000  1
  Cu  Cu5  1  0.748032  0.496064  0.248032  1
  Cu  Cu6  1  0.503936  0.251968  0.751968  1
  Si  Si7  1  0.000000  0.000000  0.000000  1
  Rh  Rh8  1  0.247858  0.495717  0.747858  1
  Rh  Rh9  1  0.247858  0.752142  0.500000  1
  Rh  Rh10  1  0.504283  0.752142  0.252142  1
  Rh  Rh11  1  0.724765  0.711601  0.001501  1
  Rh  Rh12  1  0.288399  0.013164  0.289900  1
  Rh  Rh13  1  0.986836  0.275235  0.276735  1
  Rh  Rh14  1  0.288399  0.275235  0.998499  1
  Rh  Rh15  1  0.724765  0.013164  0.723265  1
  Rh  Rh16  1  0.986836  0.711601  0.710100  1
