# generated using pymatgen
data_Tb7YbMg2(SiB4)4
_symmetry_space_group_name_H-M   'P 1'
_cell_length_a   7.18895297
_cell_length_b   7.18895297
_cell_length_c   7.92238481
_cell_angle_alpha   90.05499137
_cell_angle_beta   90.05499137
_cell_angle_gamma   89.97719260
_symmetry_Int_Tables_number   1
_chemical_formula_structural   Tb7YbMg2(SiB4)4
_chemical_formula_sum   'Tb7 Yb1 Mg2 Si4 B16'
_cell_volume   409.43671559
_cell_formula_units_Z   1
loop_
 _symmetry_equiv_pos_site_id
 _symmetry_equiv_pos_as_xyz
  1  'x, y, z'
loop_
 _atom_site_type_symbol
 _atom_site_label
 _atom_site_symmetry_multiplicity
 _atom_site_fract_x
 _atom_site_fract_y
 _atom_site_fract_z
 _atom_site_occupancy
  Tb  Tb0  1  0.317301  0.817301  0.765624  1
  Tb  Tb1  1  0.316765  0.816765  0.233392  1
  Tb  Tb2  1  0.817493  0.683038  0.233249  1
  Tb  Tb3  1  0.816131  0.683069  0.766031  1
  Tb  Tb4  1  0.683310  0.183310  0.768496  1
  Tb  Tb5  1  0.183069  0.316131  0.766031  1
  Tb  Tb6  1  0.183038  0.317493  0.233249  1
  Yb  Yb7  1  0.682932  0.182932  0.234298  1
  Mg  Mg8  1  0.998475  0.000920  0.498747  1
  Mg  Mg9  1  0.500920  0.498475  0.498747  1
  Si  Si10  1  0.115681  0.615681  0.501435  1
  Si  Si11  1  0.885408  0.385408  0.499833  1
  Si  Si12  1  0.384595  0.114489  0.500797  1
  Si  Si13  1  0.614489  0.884595  0.500797  1
  B  B14  1  0.173907  0.039558  0.999181  1
  B  B15  1  0.826499  0.960647  0.001530  1
  B  B16  1  0.960262  0.173506  0.001135  1
  B  B17  1  0.326576  0.540161  0.999309  1
  B  B18  1  0.040161  0.826576  0.999309  1
  B  B19  1  0.673506  0.460262  0.001135  1
  B  B20  1  0.539558  0.673907  0.999181  1
  B  B21  1  0.460647  0.326499  0.001530  1
  B  B22  1  0.089443  0.589443  0.999349  1
  B  B23  1  0.910734  0.410734  0.999178  1
  B  B24  1  0.410716  0.089158  0.999277  1
  B  B25  1  0.589158  0.910716  0.999277  1
  B  B26  1  0.000265  0.999639  0.159213  1
  B  B27  1  0.998998  0.000325  0.840728  1
  B  B28  1  0.500325  0.498998  0.840728  1
  B  B29  1  0.499639  0.500265  0.159213  1
