# generated using pymatgen
data_Pu2Cd2P6N13
_symmetry_space_group_name_H-M   'P 1'
_cell_length_a   7.38958230
_cell_length_b   7.39807655
_cell_length_c   7.38958356
_cell_angle_alpha   109.54477226
_cell_angle_beta   109.27754499
_cell_angle_gamma   109.54476767
_symmetry_Int_Tables_number   1
_chemical_formula_structural   Pu2Cd2P6N13
_chemical_formula_sum   'Pu2 Cd2 P6 N13'
_cell_volume   311.16003770
_cell_formula_units_Z   1
loop_
 _symmetry_equiv_pos_site_id
 _symmetry_equiv_pos_as_xyz
  1  'x, y, z'
loop_
 _atom_site_type_symbol
 _atom_site_label
 _atom_site_symmetry_multiplicity
 _atom_site_fract_x
 _atom_site_fract_y
 _atom_site_fract_z
 _atom_site_occupancy
  Pu  Pu0  1  0.698656  0.000000  0.993932  1
  Pu  Pu1  1  0.993932  0.000000  0.698656  1
  Cd  Cd2  1  0.001386  0.698689  0.001386  1
  Cd  Cd3  1  0.302697  0.301311  0.302697  1
  P  P4  1  0.247566  0.747653  0.495260  1
  P  P5  1  0.747607  0.252347  0.499912  1
  P  P6  1  0.749359  0.500000  0.249359  1
  P  P7  1  0.249359  0.500000  0.749359  1
  P  P8  1  0.495260  0.747653  0.247566  1
  P  P9  1  0.499912  0.252347  0.747607  1
  N  N10  1  0.010384  0.000000  0.010384  1
  N  N11  1  0.714284  0.289379  0.288545  1
  N  N12  1  0.280395  0.708385  0.280395  1
  N  N13  1  0.301121  0.583633  0.582480  1
  N  N14  1  0.582480  0.583633  0.301121  1
  N  N15  1  0.424905  0.710621  0.999166  1
  N  N16  1  0.999166  0.710621  0.424905  1
  N  N17  1  0.572010  0.291615  0.572010  1
  N  N18  1  0.709646  0.000000  0.414992  1
  N  N19  1  0.414992  0.000000  0.709646  1
  N  N20  1  0.717489  0.416367  0.998848  1
  N  N21  1  0.288545  0.289379  0.714284  1
  N  N22  1  0.998848  0.416367  0.717489  1
