# generated using pymatgen
data_YbCu2HgPt2
_symmetry_space_group_name_H-M   'P 1'
_cell_length_a   5.20550350
_cell_length_b   5.50417731
_cell_length_c   5.20550498
_cell_angle_alpha   58.08315173
_cell_angle_beta   58.60260365
_cell_angle_gamma   58.08315088
_symmetry_Int_Tables_number   1
_chemical_formula_structural   YbCu2HgPt2
_chemical_formula_sum   'Yb1 Cu2 Hg1 Pt2'
_cell_volume   101.24533056
_cell_formula_units_Z   1
loop_
 _symmetry_equiv_pos_site_id
 _symmetry_equiv_pos_as_xyz
  1  'x, y, z'
loop_
 _atom_site_type_symbol
 _atom_site_label
 _atom_site_symmetry_multiplicity
 _atom_site_fract_x
 _atom_site_fract_y
 _atom_site_fract_z
 _atom_site_occupancy
  Yb  Yb0  1  0.748637  0.751363  0.748637  1
  Cu  Cu1  1  0.875301  0.373038  0.378624  1
  Cu  Cu2  1  0.378624  0.373038  0.875301  1
  Hg  Hg3  1  0.997561  0.002439  0.997561  1
  Pt  Pt4  1  0.374939  0.875128  0.374939  1
  Pt  Pt5  1  0.374939  0.374993  0.374939  1
