# generated using pymatgen
data_Ho3GaCo2Sn3
_symmetry_space_group_name_H-M   'P 1'
_cell_length_a   7.32669600
_cell_length_b   7.32669425
_cell_length_c   3.99022300
_cell_angle_alpha   90.00000000
_cell_angle_beta   90.00000000
_cell_angle_gamma   119.99998982
_symmetry_Int_Tables_number   1
_chemical_formula_structural   Ho3GaCo2Sn3
_chemical_formula_sum   'Ho3 Ga1 Co2 Sn3'
_cell_volume   185.50007287
_cell_formula_units_Z   1
loop_
 _symmetry_equiv_pos_site_id
 _symmetry_equiv_pos_as_xyz
  1  'x, y, z'
loop_
 _atom_site_type_symbol
 _atom_site_label
 _atom_site_symmetry_multiplicity
 _atom_site_fract_x
 _atom_site_fract_y
 _atom_site_fract_z
 _atom_site_occupancy
  Ho  Ho0  1  0.394226  0.409640  0.500000  1
  Ho  Ho1  1  0.590360  0.984586  0.500000  1
  Ho  Ho2  1  0.015414  0.605774  0.500000  1
  Ga  Ga3  1  0.666667  0.333333  0.000000  1
  Co  Co4  1  0.333333  0.666667  0.000000  1
  Co  Co5  1  0.000000  0.000000  0.500000  1
  Sn  Sn6  1  0.743285  0.752773  0.000000  1
  Sn  Sn7  1  0.247227  0.990512  0.000000  1
  Sn  Sn8  1  0.009488  0.256715  0.000000  1
