# generated using pymatgen
data_V6Fe5Pt13
_symmetry_space_group_name_H-M   'P 1'
_cell_length_a   5.43500200
_cell_length_b   13.29298300
_cell_length_c   4.73455000
_cell_angle_alpha   90.00000000
_cell_angle_beta   90.00000000
_cell_angle_gamma   90.00000000
_symmetry_Int_Tables_number   1
_chemical_formula_structural   V6Fe5Pt13
_chemical_formula_sum   'V6 Fe5 Pt13'
_cell_volume   342.05887649
_cell_formula_units_Z   1
loop_
 _symmetry_equiv_pos_site_id
 _symmetry_equiv_pos_as_xyz
  1  'x, y, z'
loop_
 _atom_site_type_symbol
 _atom_site_label
 _atom_site_symmetry_multiplicity
 _atom_site_fract_x
 _atom_site_fract_y
 _atom_site_fract_z
 _atom_site_occupancy
  V  V0  1  0.000000  0.337531  0.175995  1
  V  V1  1  0.000000  0.662469  0.175995  1
  V  V2  1  0.500001  0.500000  0.495646  1
  V  V3  1  0.000000  0.000000  0.502335  1
  V  V4  1  0.500001  0.164684  0.823987  1
  V  V5  1  0.500001  0.835316  0.823987  1
  Fe  Fe6  1  0.500001  0.339231  0.174796  1
  Fe  Fe7  1  0.500001  0.660769  0.174796  1
  Fe  Fe8  1  0.000000  0.500000  0.492229  1
  Fe  Fe9  1  0.000000  0.163416  0.823827  1
  Fe  Fe10  1  0.000000  0.836584  0.823827  1
  Pt  Pt11  1  0.244927  0.000000  0.000936  1
  Pt  Pt12  1  0.755075  0.000000  0.000936  1
  Pt  Pt13  1  0.248341  0.171926  0.324070  1
  Pt  Pt14  1  0.751661  0.171926  0.324070  1
  Pt  Pt15  1  0.248341  0.828073  0.324070  1
  Pt  Pt16  1  0.751661  0.828073  0.324070  1
  Pt  Pt17  1  0.500001  0.000000  0.510507  1
  Pt  Pt18  1  0.250517  0.333670  0.672015  1
  Pt  Pt19  1  0.749483  0.333670  0.672015  1
  Pt  Pt20  1  0.250517  0.666330  0.672015  1
  Pt  Pt21  1  0.749483  0.666330  0.672015  1
  Pt  Pt22  1  0.251469  0.500000  0.007931  1
  Pt  Pt23  1  0.748531  0.500000  0.007931  1
