# generated using pymatgen
data_Ce2Er3Tm3(CdIr)2
_symmetry_space_group_name_H-M   'P 1'
_cell_length_a   9.59231298
_cell_length_b   9.59231234
_cell_length_c   9.59231300
_cell_angle_alpha   60.00000118
_cell_angle_beta   60.00000337
_cell_angle_gamma   59.99999607
_symmetry_Int_Tables_number   1
_chemical_formula_structural   Ce2Er3Tm3(CdIr)2
_chemical_formula_sum   'Ce4 Er6 Tm6 Cd4 Ir4'
_cell_volume   624.10117133
_cell_formula_units_Z   2
loop_
 _symmetry_equiv_pos_site_id
 _symmetry_equiv_pos_as_xyz
  1  'x, y, z'
loop_
 _atom_site_type_symbol
 _atom_site_label
 _atom_site_symmetry_multiplicity
 _atom_site_fract_x
 _atom_site_fract_y
 _atom_site_fract_z
 _atom_site_occupancy
  Ce  Ce0  1  0.600478  0.600478  0.600478  1
  Ce  Ce1  1  0.600478  0.600478  0.198565  1
  Ce  Ce2  1  0.600478  0.198565  0.600478  1
  Ce  Ce3  1  0.198565  0.600478  0.600478  1
  Er  Er4  1  0.187253  0.812747  0.812747  1
  Er  Er5  1  0.812747  0.187253  0.187253  1
  Er  Er6  1  0.812747  0.187253  0.812747  1
  Er  Er7  1  0.187253  0.812747  0.187253  1
  Er  Er8  1  0.812747  0.812747  0.187253  1
  Er  Er9  1  0.187253  0.187253  0.812747  1
  Tm  Tm10  1  0.062431  0.437569  0.437569  1
  Tm  Tm11  1  0.437569  0.062431  0.062431  1
  Tm  Tm12  1  0.437569  0.062431  0.437569  1
  Tm  Tm13  1  0.062431  0.437569  0.062431  1
  Tm  Tm14  1  0.437569  0.437569  0.062431  1
  Tm  Tm15  1  0.062431  0.062431  0.437569  1
  Cd  Cd16  1  0.832297  0.832297  0.832297  1
  Cd  Cd17  1  0.832297  0.832297  0.503107  1
  Cd  Cd18  1  0.832297  0.503107  0.832297  1
  Cd  Cd19  1  0.503107  0.832297  0.832297  1
  Ir  Ir20  1  0.393017  0.393017  0.393017  1
  Ir  Ir21  1  0.393017  0.393017  0.820948  1
  Ir  Ir22  1  0.393017  0.820948  0.393017  1
  Ir  Ir23  1  0.820948  0.393017  0.393017  1
