# generated using pymatgen
data_Ba4SrAl5Pb
_symmetry_space_group_name_H-M   'P 1'
_cell_length_a   6.03046600
_cell_length_b   6.03046571
_cell_length_c   11.19278800
_cell_angle_alpha   90.00000000
_cell_angle_beta   90.00000000
_cell_angle_gamma   119.99999060
_symmetry_Int_Tables_number   1
_chemical_formula_structural   Ba4SrAl5Pb
_chemical_formula_sum   'Ba4 Sr1 Al5 Pb1'
_cell_volume   352.50937918
_cell_formula_units_Z   1
loop_
 _symmetry_equiv_pos_site_id
 _symmetry_equiv_pos_as_xyz
  1  'x, y, z'
loop_
 _atom_site_type_symbol
 _atom_site_label
 _atom_site_symmetry_multiplicity
 _atom_site_fract_x
 _atom_site_fract_y
 _atom_site_fract_z
 _atom_site_occupancy
  Ba  Ba0  1  0.666667  0.333333  0.199548  1
  Ba  Ba1  1  0.666667  0.333333  0.800452  1
  Ba  Ba2  1  0.000000  0.000000  0.328481  1
  Ba  Ba3  1  0.000000  0.000000  0.671519  1
  Sr  Sr4  1  0.333333  0.666667  0.000000  1
  Al  Al5  1  0.333333  0.666667  0.319243  1
  Al  Al6  1  0.508598  0.017196  0.500000  1
  Al  Al7  1  0.508598  0.491402  0.500000  1
  Al  Al8  1  0.333333  0.666667  0.680757  1
  Al  Al9  1  0.982804  0.491402  0.500000  1
  Pb  Pb10  1  0.000000  0.000000  0.000000  1
