# generated using pymatgen
data_YbCeAlIr3
_symmetry_space_group_name_H-M   'P 1'
_cell_length_a   5.12751158
_cell_length_b   5.12751163
_cell_length_c   5.12750996
_cell_angle_alpha   66.32767203
_cell_angle_beta   66.32766973
_cell_angle_gamma   66.32766671
_symmetry_Int_Tables_number   1
_chemical_formula_structural   YbCeAlIr3
_chemical_formula_sum   'Yb1 Ce1 Al1 Ir3'
_cell_volume   108.33758523
_cell_formula_units_Z   1
loop_
 _symmetry_equiv_pos_site_id
 _symmetry_equiv_pos_as_xyz
  1  'x, y, z'
loop_
 _atom_site_type_symbol
 _atom_site_label
 _atom_site_symmetry_multiplicity
 _atom_site_fract_x
 _atom_site_fract_y
 _atom_site_fract_z
 _atom_site_occupancy
  Yb  Yb0  1  0.000136  0.000136  0.000136  1
  Ce  Ce1  1  0.255329  0.255329  0.255329  1
  Al  Al2  1  0.622746  0.622746  0.622746  1
  Ir  Ir3  1  0.625302  0.625302  0.121187  1
  Ir  Ir4  1  0.625302  0.121187  0.625302  1
  Ir  Ir5  1  0.121187  0.625302  0.625302  1
