# generated using pymatgen
data_Nd12Os3Pd
_symmetry_space_group_name_H-M   'P 1'
_cell_length_a   6.53843079
_cell_length_b   7.49854792
_cell_length_c   9.76418900
_cell_angle_alpha   90.00000000
_cell_angle_beta   90.00000000
_cell_angle_gamma   90.45324064
_symmetry_Int_Tables_number   1
_chemical_formula_structural   Nd12Os3Pd
_chemical_formula_sum   'Nd12 Os3 Pd1'
_cell_volume   478.71087202
_cell_formula_units_Z   1
loop_
 _symmetry_equiv_pos_site_id
 _symmetry_equiv_pos_as_xyz
  1  'x, y, z'
loop_
 _atom_site_type_symbol
 _atom_site_label
 _atom_site_symmetry_multiplicity
 _atom_site_fract_x
 _atom_site_fract_y
 _atom_site_fract_z
 _atom_site_occupancy
  Nd  Nd0  1  0.338263  0.670635  0.062080  1
  Nd  Nd1  1  0.168628  0.183835  0.438139  1
  Nd  Nd2  1  0.673098  0.322432  0.566824  1
  Nd  Nd3  1  0.826274  0.824622  0.930113  1
  Nd  Nd4  1  0.673098  0.322432  0.933176  1
  Nd  Nd5  1  0.826274  0.824622  0.569887  1
  Nd  Nd6  1  0.338263  0.670635  0.437920  1
  Nd  Nd7  1  0.168628  0.183835  0.061861  1
  Nd  Nd8  1  0.854601  0.529800  0.250000  1
  Nd  Nd9  1  0.632133  0.044740  0.250000  1
  Nd  Nd10  1  0.139561  0.464143  0.750000  1
  Nd  Nd11  1  0.356099  0.960762  0.750000  1
  Os  Os12  1  0.441619  0.383263  0.250000  1
  Os  Os13  1  0.948027  0.114758  0.750000  1
  Os  Os14  1  0.552105  0.614886  0.750000  1
  Pd  Pd15  1  0.063327  0.884599  0.250000  1
