# generated using pymatgen
data_Er4Tm(OsO6)2
_symmetry_space_group_name_H-M   'P 1'
_cell_length_a   6.82168958
_cell_length_b   6.82168944
_cell_length_c   7.41648021
_cell_angle_alpha   74.01067316
_cell_angle_beta   74.01067843
_cell_angle_gamma   48.68230404
_symmetry_Int_Tables_number   1
_chemical_formula_structural   Er4Tm(OsO6)2
_chemical_formula_sum   'Er4 Tm1 Os2 O12'
_cell_volume   247.08226369
_cell_formula_units_Z   1
loop_
 _symmetry_equiv_pos_site_id
 _symmetry_equiv_pos_as_xyz
  1  'x, y, z'
loop_
 _atom_site_type_symbol
 _atom_site_label
 _atom_site_symmetry_multiplicity
 _atom_site_fract_x
 _atom_site_fract_y
 _atom_site_fract_z
 _atom_site_occupancy
  Er  Er0  1  0.800297  0.800297  0.358914  1
  Er  Er1  1  0.199703  0.199703  0.641086  1
  Er  Er2  1  0.187730  0.187730  0.172747  1
  Er  Er3  1  0.812270  0.812270  0.827253  1
  Tm  Tm4  1  0.500000  0.500000  0.500000  1
  Os  Os5  1  0.280443  0.719557  0.000000  1
  Os  Os6  1  0.719557  0.280443  0.000000  1
  O  O7  1  0.413251  0.921786  0.912491  1
  O  O8  1  0.078214  0.586749  0.087509  1
  O  O9  1  0.586749  0.078214  0.087509  1
  O  O10  1  0.921786  0.413251  0.912491  1
  O  O11  1  0.599066  0.097347  0.571524  1
  O  O12  1  0.902653  0.400934  0.428476  1
  O  O13  1  0.400934  0.902653  0.428476  1
  O  O14  1  0.000742  0.000742  0.822996  1
  O  O15  1  0.999258  0.999258  0.177004  1
  O  O16  1  0.497999  0.497999  0.794591  1
  O  O17  1  0.502001  0.502001  0.205409  1
  O  O18  1  0.097347  0.599066  0.571524  1
