# generated using pymatgen
data_Li8DyEr7(Sn3Bi)2
_symmetry_space_group_name_H-M   'P 1'
_cell_length_a   9.41094144
_cell_length_b   9.41039030
_cell_length_c   7.20895200
_cell_angle_alpha   89.99997199
_cell_angle_beta   90.10325997
_cell_angle_gamma   119.99815046
_symmetry_Int_Tables_number   1
_chemical_formula_structural   Li8DyEr7(Sn3Bi)2
_chemical_formula_sum   'Li8 Dy1 Er7 Sn6 Bi2'
_cell_volume   552.90513866
_cell_formula_units_Z   1
loop_
 _symmetry_equiv_pos_site_id
 _symmetry_equiv_pos_as_xyz
  1  'x, y, z'
loop_
 _atom_site_type_symbol
 _atom_site_label
 _atom_site_symmetry_multiplicity
 _atom_site_fract_x
 _atom_site_fract_y
 _atom_site_fract_z
 _atom_site_occupancy
  Li  Li0  1  0.167943  0.334252  0.283684  1
  Li  Li1  1  0.167942  0.833691  0.283684  1
  Li  Li2  1  0.664738  0.832369  0.286913  1
  Li  Li3  1  0.828893  0.664155  0.787639  1
  Li  Li4  1  0.828893  0.164740  0.787640  1
  Li  Li5  1  0.338109  0.169055  0.791492  1
  Li  Li6  1  0.337968  0.668984  0.668185  1
  Li  Li7  1  0.665527  0.332762  0.172542  1
  Dy  Dy8  1  0.995466  0.997733  0.005251  1
  Er  Er9  1  0.517249  0.027116  0.490703  1
  Er  Er10  1  0.517250  0.490133  0.490703  1
  Er  Er11  1  0.971367  0.485684  0.488466  1
  Er  Er12  1  0.492988  0.978012  0.997284  1
  Er  Er13  1  0.492988  0.514977  0.997283  1
  Er  Er14  1  0.017793  0.508896  0.000094  1
  Er  Er15  1  0.994627  0.997314  0.494620  1
  Sn  Sn16  1  0.666656  0.833328  0.731777  1
  Sn  Sn17  1  0.833769  0.666335  0.232688  1
  Sn  Sn18  1  0.833769  0.167434  0.232689  1
  Sn  Sn19  1  0.333632  0.166816  0.232023  1
  Sn  Sn20  1  0.332174  0.666088  0.259654  1
  Sn  Sn21  1  0.667624  0.333812  0.760611  1
  Bi  Bi22  1  0.166317  0.333756  0.733184  1
  Bi  Bi23  1  0.166317  0.832561  0.733184  1
