# generated using pymatgen
data_LiZrNi3Ir
_symmetry_space_group_name_H-M   'P 1'
_cell_length_a   4.98743287
_cell_length_b   4.98743248
_cell_length_c   4.98743277
_cell_angle_alpha   57.72133045
_cell_angle_beta   57.72133234
_cell_angle_gamma   57.72132910
_symmetry_Int_Tables_number   1
_chemical_formula_structural   LiZrNi3Ir
_chemical_formula_sum   'Li1 Zr1 Ni3 Ir1'
_cell_volume   83.13141290
_cell_formula_units_Z   1
loop_
 _symmetry_equiv_pos_site_id
 _symmetry_equiv_pos_as_xyz
  1  'x, y, z'
loop_
 _atom_site_type_symbol
 _atom_site_label
 _atom_site_symmetry_multiplicity
 _atom_site_fract_x
 _atom_site_fract_y
 _atom_site_fract_z
 _atom_site_occupancy
  Li  Li0  1  0.503315  0.503315  0.503315  1
  Zr  Zr1  1  0.751512  0.751512  0.751512  1
  Ni  Ni2  1  0.622531  0.123809  0.123809  1
  Ni  Ni3  1  0.123809  0.622531  0.123809  1
  Ni  Ni4  1  0.123809  0.123809  0.622531  1
  Ir  Ir5  1  0.125025  0.125025  0.125025  1
