# generated using pymatgen
data_Pm3Si4
_symmetry_space_group_name_H-M   'P 1'
_cell_length_a   4.38932436
_cell_length_b   3.93841232
_cell_length_c   9.41130867
_cell_angle_alpha   102.01557967
_cell_angle_beta   103.61755671
_cell_angle_gamma   89.99811254
_symmetry_Int_Tables_number   1
_chemical_formula_structural   Pm3Si4
_chemical_formula_sum   'Pm3 Si4'
_cell_volume   154.44985195
_cell_formula_units_Z   1
loop_
 _symmetry_equiv_pos_site_id
 _symmetry_equiv_pos_as_xyz
  1  'x, y, z'
loop_
 _atom_site_type_symbol
 _atom_site_label
 _atom_site_symmetry_multiplicity
 _atom_site_fract_x
 _atom_site_fract_y
 _atom_site_fract_z
 _atom_site_occupancy
  Pm  Pm0  1  0.692861  0.942864  0.237449  1
  Pm  Pm1  1  0.326761  0.583717  0.510183  1
  Pm  Pm2  1  0.510023  0.263079  0.873918  1
  Si  Si3  1  0.157099  0.407732  0.167435  1
  Si  Si4  1  0.942248  0.700473  0.742065  1
  Si  Si5  1  0.862933  0.118949  0.580290  1
  Si  Si6  1  0.077451  0.826174  0.005804  1
