# generated using pymatgen
data_Ti8MnMo2
_symmetry_space_group_name_H-M   'P 1'
_cell_length_a   5.24721485
_cell_length_b   5.24721539
_cell_length_c   11.76714179
_cell_angle_alpha   105.75601013
_cell_angle_beta   105.75601266
_cell_angle_gamma   34.91502091
_symmetry_Int_Tables_number   1
_chemical_formula_structural   Ti8MnMo2
_chemical_formula_sum   'Ti8 Mn1 Mo2'
_cell_volume   177.76653523
_cell_formula_units_Z   1
loop_
 _symmetry_equiv_pos_site_id
 _symmetry_equiv_pos_as_xyz
  1  'x, y, z'
loop_
 _atom_site_type_symbol
 _atom_site_label
 _atom_site_symmetry_multiplicity
 _atom_site_fract_x
 _atom_site_fract_y
 _atom_site_fract_z
 _atom_site_occupancy
  Ti  Ti0  1  0.697337  0.697337  0.078013  1
  Ti  Ti1  1  0.456650  0.456650  0.172429  1
  Ti  Ti2  1  0.203787  0.203787  0.279229  1
  Ti  Ti3  1  0.623613  0.623613  0.455498  1
  Ti  Ti4  1  0.376388  0.376388  0.544501  1
  Ti  Ti5  1  0.796213  0.796213  0.720771  1
  Ti  Ti6  1  0.543350  0.543350  0.827571  1
  Ti  Ti7  1  0.302664  0.302664  0.921988  1
  Mn  Mn8  1  0.000000  0.000000  0.000000  1
  Mo  Mo9  1  0.919053  0.919053  0.357272  1
  Mo  Mo10  1  0.080947  0.080947  0.642729  1
