# generated using pymatgen
data_TiCl8
_symmetry_space_group_name_H-M   'P 1'
_cell_length_a   6.43038251
_cell_length_b   7.32617446
_cell_length_c   10.27827698
_cell_angle_alpha   91.47993828
_cell_angle_beta   87.16714441
_cell_angle_gamma   111.63357928
_symmetry_Int_Tables_number   1
_chemical_formula_structural   TiCl8
_chemical_formula_sum   'Ti1 Cl8'
_cell_volume   449.53804676
_cell_formula_units_Z   1
loop_
 _symmetry_equiv_pos_site_id
 _symmetry_equiv_pos_as_xyz
  1  'x, y, z'
loop_
 _atom_site_type_symbol
 _atom_site_label
 _atom_site_symmetry_multiplicity
 _atom_site_fract_x
 _atom_site_fract_y
 _atom_site_fract_z
 _atom_site_occupancy
  Ti  Ti0  1  0.197127  0.183936  0.810907  1
  Cl  Cl1  1  0.325959  0.180690  0.004132  1
  Cl  Cl2  1  0.394739  0.461908  0.717744  1
  Cl  Cl3  1  0.967008  0.117380  0.440990  1
  Cl  Cl4  1  0.952245  0.790954  0.141074  1
  Cl  Cl5  1  0.848080  0.157053  0.833083  1
  Cl  Cl6  1  0.860635  0.310624  0.356259  1
  Cl  Cl7  1  0.228213  0.940376  0.694777  1
  Cl  Cl8  1  0.696971  0.599701  0.244407  1
