# generated using pymatgen
data_Ho5Lu(SiIr)4
_symmetry_space_group_name_H-M   'P 1'
_cell_length_a   5.54219038
_cell_length_b   5.54219010
_cell_length_c   13.18220500
_cell_angle_alpha   90.00000000
_cell_angle_beta   90.00000000
_cell_angle_gamma   136.86478866
_symmetry_Int_Tables_number   1
_chemical_formula_structural   Ho5Lu(SiIr)4
_chemical_formula_sum   'Ho5 Lu1 Si4 Ir4'
_cell_volume   276.84119088
_cell_formula_units_Z   1
loop_
 _symmetry_equiv_pos_site_id
 _symmetry_equiv_pos_as_xyz
  1  'x, y, z'
loop_
 _atom_site_type_symbol
 _atom_site_label
 _atom_site_symmetry_multiplicity
 _atom_site_fract_x
 _atom_site_fract_y
 _atom_site_fract_z
 _atom_site_occupancy
  Ho  Ho0  1  0.774077  0.225923  0.604205  1
  Ho  Ho1  1  0.225751  0.774249  0.395080  1
  Ho  Ho2  1  0.774077  0.225923  0.895795  1
  Ho  Ho3  1  0.482053  0.517947  0.750000  1
  Ho  Ho4  1  0.225751  0.774249  0.104920  1
  Lu  Lu5  1  0.517116  0.482884  0.250000  1
  Si  Si6  1  0.061729  0.938271  0.590153  1
  Si  Si7  1  0.061729  0.938271  0.909847  1
  Si  Si8  1  0.938156  0.061844  0.409281  1
  Si  Si9  1  0.938156  0.061844  0.090719  1
  Ir  Ir10  1  0.811708  0.188292  0.250000  1
  Ir  Ir11  1  0.189043  0.810957  0.750000  1
  Ir  Ir12  1  0.500327  0.499673  0.000585  1
  Ir  Ir13  1  0.500327  0.499673  0.499415  1
