# generated using pymatgen
data_Tb2DyNi2Rh7
_symmetry_space_group_name_H-M   'P 1'
_cell_length_a   5.28284911
_cell_length_b   5.28284967
_cell_length_c   8.97639876
_cell_angle_alpha   72.88663592
_cell_angle_beta   72.88663048
_cell_angle_gamma   60.00001607
_symmetry_Int_Tables_number   1
_chemical_formula_structural   Tb2DyNi2Rh7
_chemical_formula_sum   'Tb2 Dy1 Ni2 Rh7'
_cell_volume   204.04660715
_cell_formula_units_Z   1
loop_
 _symmetry_equiv_pos_site_id
 _symmetry_equiv_pos_as_xyz
  1  'x, y, z'
loop_
 _atom_site_type_symbol
 _atom_site_label
 _atom_site_symmetry_multiplicity
 _atom_site_fract_x
 _atom_site_fract_y
 _atom_site_fract_z
 _atom_site_occupancy
  Tb  Tb0  1  0.139417  0.139417  0.581749  1
  Tb  Tb1  1  0.999946  0.999946  0.000161  1
  Dy  Dy2  1  0.860738  0.860738  0.417786  1
  Ni  Ni3  1  0.333304  0.333304  0.000087  1
  Ni  Ni4  1  0.666678  0.666678  0.999967  1
  Rh  Rh5  1  0.077773  0.580921  0.760385  1
  Rh  Rh6  1  0.580921  0.580921  0.760385  1
  Rh  Rh7  1  0.580921  0.077773  0.760385  1
  Rh  Rh8  1  0.922148  0.419065  0.239722  1
  Rh  Rh9  1  0.419065  0.419065  0.239722  1
  Rh  Rh10  1  0.419065  0.922148  0.239722  1
  Rh  Rh11  1  0.500023  0.500023  0.499930  1
