# generated using pymatgen
data_Er10Bi3Pb3S2
_symmetry_space_group_name_H-M   'P 1'
_cell_length_a   9.10031500
_cell_length_b   9.10031441
_cell_length_c   6.54661200
_cell_angle_alpha   90.00000000
_cell_angle_beta   90.00000000
_cell_angle_gamma   120.00000579
_symmetry_Int_Tables_number   1
_chemical_formula_structural   Er10Bi3Pb3S2
_chemical_formula_sum   'Er10 Bi3 Pb3 S2'
_cell_volume   469.52641588
_cell_formula_units_Z   1
loop_
 _symmetry_equiv_pos_site_id
 _symmetry_equiv_pos_as_xyz
  1  'x, y, z'
loop_
 _atom_site_type_symbol
 _atom_site_label
 _atom_site_symmetry_multiplicity
 _atom_site_fract_x
 _atom_site_fract_y
 _atom_site_fract_z
 _atom_site_occupancy
  Er  Er0  1  0.756471  0.756471  0.750000  1
  Er  Er1  1  0.243529  0.000000  0.750000  1
  Er  Er2  1  0.000000  0.243529  0.750000  1
  Er  Er3  1  0.244255  0.244255  0.250000  1
  Er  Er4  1  0.755745  0.000000  0.250000  1
  Er  Er5  1  0.000000  0.755745  0.250000  1
  Er  Er6  1  0.666667  0.333333  0.002413  1
  Er  Er7  1  0.333333  0.666667  0.002413  1
  Er  Er8  1  0.333333  0.666667  0.497587  1
  Er  Er9  1  0.666667  0.333333  0.497587  1
  Bi  Bi10  1  0.397125  0.397125  0.750000  1
  Bi  Bi11  1  0.602875  0.000000  0.750000  1
  Bi  Bi12  1  0.000000  0.602875  0.750000  1
  Pb  Pb13  1  0.604741  0.604741  0.250000  1
  Pb  Pb14  1  0.395259  0.000000  0.250000  1
  Pb  Pb15  1  0.000000  0.395259  0.250000  1
  S  S16  1  0.000000  0.000000  0.000005  1
  S  S17  1  0.000000  0.000000  0.499995  1
