# generated using pymatgen
data_CaCe6Cd22As
_symmetry_space_group_name_H-M   'P 1'
_cell_length_a   10.17774686
_cell_length_b   10.17774770
_cell_length_c   10.17774600
_cell_angle_alpha   59.99999904
_cell_angle_beta   59.99999628
_cell_angle_gamma   59.99999652
_symmetry_Int_Tables_number   1
_chemical_formula_structural   CaCe6Cd22As
_chemical_formula_sum   'Ca1 Ce6 Cd22 As1'
_cell_volume   745.48671639
_cell_formula_units_Z   1
loop_
 _symmetry_equiv_pos_site_id
 _symmetry_equiv_pos_as_xyz
  1  'x, y, z'
loop_
 _atom_site_type_symbol
 _atom_site_label
 _atom_site_symmetry_multiplicity
 _atom_site_fract_x
 _atom_site_fract_y
 _atom_site_fract_z
 _atom_site_occupancy
  Ca  Ca0  1  0.500000  0.500000  0.500000  1
  Ce  Ce1  1  0.791965  0.791965  0.208035  1
  Ce  Ce2  1  0.208035  0.791965  0.208035  1
  Ce  Ce3  1  0.791965  0.208035  0.208035  1
  Ce  Ce4  1  0.208035  0.208035  0.791965  1
  Ce  Ce5  1  0.791965  0.208035  0.791965  1
  Ce  Ce6  1  0.208035  0.791965  0.791965  1
  Cd  Cd7  1  0.834014  0.834014  0.497956  1
  Cd  Cd8  1  0.834014  0.497956  0.834014  1
  Cd  Cd9  1  0.497956  0.834014  0.834014  1
  Cd  Cd10  1  0.834014  0.834014  0.834014  1
  Cd  Cd11  1  0.165986  0.165986  0.502044  1
  Cd  Cd12  1  0.165986  0.502044  0.165986  1
  Cd  Cd13  1  0.502044  0.165986  0.165986  1
  Cd  Cd14  1  0.165986  0.165986  0.165986  1
  Cd  Cd15  1  0.624747  0.624747  0.125758  1
  Cd  Cd16  1  0.624747  0.125758  0.624747  1
  Cd  Cd17  1  0.125758  0.624747  0.624747  1
  Cd  Cd18  1  0.624747  0.624747  0.624747  1
  Cd  Cd19  1  0.375253  0.375253  0.874242  1
  Cd  Cd20  1  0.375253  0.874242  0.375253  1
  Cd  Cd21  1  0.874242  0.375253  0.375253  1
  Cd  Cd22  1  0.375253  0.375253  0.375253  1
  Cd  Cd23  1  0.000000  0.000000  0.500000  1
  Cd  Cd24  1  0.500000  0.000000  0.500000  1
  Cd  Cd25  1  0.000000  0.500000  0.500000  1
  Cd  Cd26  1  0.500000  0.500000  0.000000  1
  Cd  Cd27  1  0.000000  0.500000  0.000000  1
  Cd  Cd28  1  0.500000  0.000000  0.000000  1
  As  As29  1  0.000000  0.000000  0.000000  1
