# generated using pymatgen
data_Ta12Al8ZnRe3C4
_symmetry_space_group_name_H-M   'P 1'
_cell_length_a   8.36621705
_cell_length_b   8.36621841
_cell_length_c   8.31046894
_cell_angle_alpha   59.77785006
_cell_angle_beta   59.77785377
_cell_angle_gamma   60.00000088
_symmetry_Int_Tables_number   1
_chemical_formula_structural   Ta12Al8ZnRe3C4
_chemical_formula_sum   'Ta12 Al8 Zn1 Re3 C4'
_cell_volume   409.92311803
_cell_formula_units_Z   1
loop_
 _symmetry_equiv_pos_site_id
 _symmetry_equiv_pos_as_xyz
  1  'x, y, z'
loop_
 _atom_site_type_symbol
 _atom_site_label
 _atom_site_symmetry_multiplicity
 _atom_site_fract_x
 _atom_site_fract_y
 _atom_site_fract_z
 _atom_site_occupancy
  Ta  Ta0  1  0.568259  0.938637  0.554468  1
  Ta  Ta1  1  0.311363  0.681741  0.695532  1
  Ta  Ta2  1  0.692029  0.308232  0.307709  1
  Ta  Ta3  1  0.308232  0.692029  0.307709  1
  Ta  Ta4  1  0.692029  0.692029  0.307709  1
  Ta  Ta5  1  0.311363  0.311363  0.695532  1
  Ta  Ta6  1  0.557971  0.557971  0.942291  1
  Ta  Ta7  1  0.938637  0.568259  0.554468  1
  Ta  Ta8  1  0.557971  0.941768  0.942291  1
  Ta  Ta9  1  0.938637  0.938637  0.554468  1
  Ta  Ta10  1  0.681741  0.311363  0.695532  1
  Ta  Ta11  1  0.941768  0.557971  0.942291  1
  Al  Al12  1  0.914758  0.914758  0.914313  1
  Al  Al13  1  0.993829  0.335242  0.335687  1
  Al  Al14  1  0.335242  0.993829  0.335687  1
  Al  Al15  1  0.332156  0.332156  0.003531  1
  Al  Al16  1  0.914758  0.256171  0.914313  1
  Al  Al17  1  0.917844  0.917844  0.246469  1
  Al  Al18  1  0.256171  0.914758  0.914313  1
  Al  Al19  1  0.335242  0.335242  0.335687  1
  Zn  Zn20  1  0.125000  0.125000  0.625000  1
  Re  Re21  1  0.125000  0.125000  0.125000  1
  Re  Re22  1  0.625000  0.125000  0.125000  1
  Re  Re23  1  0.125000  0.625000  0.125000  1
  C  C24  1  0.625000  0.625000  0.625000  1
  C  C25  1  0.125000  0.625000  0.625000  1
  C  C26  1  0.625000  0.125000  0.625000  1
  C  C27  1  0.625000  0.625000  0.125000  1
