# generated using pymatgen
data_MgUCu(AsO5)2
_symmetry_space_group_name_H-M   'P 1'
_cell_length_a   5.38357954
_cell_length_b   5.97147571
_cell_length_c   7.70382564
_cell_angle_alpha   107.97797095
_cell_angle_beta   111.15175313
_cell_angle_gamma   87.67737191
_symmetry_Int_Tables_number   1
_chemical_formula_structural   MgUCu(AsO5)2
_chemical_formula_sum   'Mg1 U1 Cu1 As2 O10'
_cell_volume   218.99730144
_cell_formula_units_Z   1
loop_
 _symmetry_equiv_pos_site_id
 _symmetry_equiv_pos_as_xyz
  1  'x, y, z'
loop_
 _atom_site_type_symbol
 _atom_site_label
 _atom_site_symmetry_multiplicity
 _atom_site_fract_x
 _atom_site_fract_y
 _atom_site_fract_z
 _atom_site_occupancy
  Mg  Mg0  1  0.499999  0.000000  0.500000  1
  U  U1  1  0.000000  0.000000  0.000000  1
  Cu  Cu2  1  0.499999  0.500000  0.500000  1
  As  As3  1  0.898950  0.631327  0.281960  1
  As  As4  1  0.101048  0.368673  0.718040  1
  O  O5  1  0.871677  0.338311  0.157361  1
  O  O6  1  0.810842  0.790533  0.120956  1
  O  O7  1  0.311922  0.038362  0.219343  1
  O  O8  1  0.686764  0.694846  0.410219  1
  O  O9  1  0.224337  0.721930  0.446797  1
  O  O10  1  0.775664  0.278069  0.553202  1
  O  O11  1  0.313235  0.305153  0.589781  1
  O  O12  1  0.688077  0.961637  0.780657  1
  O  O13  1  0.189157  0.209468  0.879045  1
  O  O14  1  0.128322  0.661688  0.842640  1
