# generated using pymatgen
data_HoBiCl8
_symmetry_space_group_name_H-M   'P 1'
_cell_length_a   7.04622279
_cell_length_b   7.04622368
_cell_length_c   9.25969200
_cell_angle_alpha   92.39445380
_cell_angle_beta   92.39445696
_cell_angle_gamma   119.63091583
_symmetry_Int_Tables_number   1
_chemical_formula_structural   HoBiCl8
_chemical_formula_sum   'Ho1 Bi1 Cl8'
_cell_volume   398.23427689
_cell_formula_units_Z   1
loop_
 _symmetry_equiv_pos_site_id
 _symmetry_equiv_pos_as_xyz
  1  'x, y, z'
loop_
 _atom_site_type_symbol
 _atom_site_label
 _atom_site_symmetry_multiplicity
 _atom_site_fract_x
 _atom_site_fract_y
 _atom_site_fract_z
 _atom_site_occupancy
  Ho  Ho0  1  0.168294  0.831706  0.000000  1
  Bi  Bi1  1  0.831513  0.168487  0.000000  1
  Cl  Cl2  1  0.506716  0.141013  0.164899  1
  Cl  Cl3  1  0.150755  0.526191  0.164815  1
  Cl  Cl4  1  0.897804  0.887811  0.165518  1
  Cl  Cl5  1  0.613443  0.613510  0.442914  1
  Cl  Cl6  1  0.386489  0.386556  0.557086  1
  Cl  Cl7  1  0.112188  0.102195  0.834481  1
  Cl  Cl8  1  0.858987  0.493284  0.835101  1
  Cl  Cl9  1  0.473809  0.849245  0.835185  1
