# generated using pymatgen
data_Tb12InCo4Rh
_symmetry_space_group_name_H-M   'P 1'
_cell_length_a   8.32248807
_cell_length_b   8.32248835
_cell_length_c   8.32248802
_cell_angle_alpha   110.78441680
_cell_angle_beta   110.43279079
_cell_angle_gamma   107.21984373
_symmetry_Int_Tables_number   1
_chemical_formula_structural   Tb12InCo4Rh
_chemical_formula_sum   'Tb12 In1 Co4 Rh1'
_cell_volume   443.23358957
_cell_formula_units_Z   1
loop_
 _symmetry_equiv_pos_site_id
 _symmetry_equiv_pos_as_xyz
  1  'x, y, z'
loop_
 _atom_site_type_symbol
 _atom_site_label
 _atom_site_symmetry_multiplicity
 _atom_site_fract_x
 _atom_site_fract_y
 _atom_site_fract_z
 _atom_site_occupancy
  Tb  Tb0  1  0.406635  0.212629  0.194006  1
  Tb  Tb1  1  0.593365  0.787371  0.805994  1
  Tb  Tb2  1  0.018624  0.212629  0.805994  1
  Tb  Tb3  1  0.981376  0.787371  0.194006  1
  Tb  Tb4  1  0.185471  0.292036  0.477507  1
  Tb  Tb5  1  0.814529  0.707964  0.522493  1
  Tb  Tb6  1  0.185471  0.707964  0.893434  1
  Tb  Tb7  1  0.814529  0.292036  0.106566  1
  Tb  Tb8  1  0.315091  0.620459  0.305368  1
  Tb  Tb9  1  0.684909  0.379541  0.694632  1
  Tb  Tb10  1  0.315091  0.009724  0.694632  1
  Tb  Tb11  1  0.684909  0.990276  0.305368  1
  In  In12  1  0.500000  0.500000  0.000000  1
  Co  Co13  1  0.378825  0.000000  0.378825  1
  Co  Co14  1  0.621175  0.000000  0.621175  1
  Co  Co15  1  0.112322  0.612322  0.500000  1
  Co  Co16  1  0.887678  0.387678  0.500000  1
  Rh  Rh17  1  0.000000  0.000000  0.000000  1
