# generated using pymatgen
data_MgInNi20B6Sb
_symmetry_space_group_name_H-M   'P 1'
_cell_length_a   7.51232500
_cell_length_b   7.51232568
_cell_length_c   7.51232500
_cell_angle_alpha   59.99999858
_cell_angle_beta   59.99999559
_cell_angle_gamma   59.99999497
_symmetry_Int_Tables_number   1
_chemical_formula_structural   MgInNi20B6Sb
_chemical_formula_sum   'Mg1 In1 Ni20 B6 Sb1'
_cell_volume   299.78376540
_cell_formula_units_Z   1
loop_
 _symmetry_equiv_pos_site_id
 _symmetry_equiv_pos_as_xyz
  1  'x, y, z'
loop_
 _atom_site_type_symbol
 _atom_site_label
 _atom_site_symmetry_multiplicity
 _atom_site_fract_x
 _atom_site_fract_y
 _atom_site_fract_z
 _atom_site_occupancy
  Mg  Mg0  1  0.000000  0.000000  0.000000  1
  In  In1  1  0.250000  0.250000  0.250000  1
  Ni  Ni2  1  0.387661  0.387661  0.837016  1
  Ni  Ni3  1  0.616380  0.616380  0.616380  1
  Ni  Ni4  1  0.000721  0.338028  0.000721  1
  Ni  Ni5  1  0.338028  0.000721  0.000721  1
  Ni  Ni6  1  0.000721  0.338028  0.660530  1
  Ni  Ni7  1  0.837016  0.387661  0.387661  1
  Ni  Ni8  1  0.338028  0.000721  0.660530  1
  Ni  Ni9  1  0.000721  0.000721  0.338028  1
  Ni  Ni10  1  0.660530  0.338028  0.000721  1
  Ni  Ni11  1  0.000721  0.660530  0.338028  1
  Ni  Ni12  1  0.000721  0.000721  0.660530  1
  Ni  Ni13  1  0.338028  0.660530  0.000721  1
  Ni  Ni14  1  0.660530  0.000721  0.000721  1
  Ni  Ni15  1  0.000721  0.660530  0.000721  1
  Ni  Ni16  1  0.387661  0.837016  0.387661  1
  Ni  Ni17  1  0.616380  0.616380  0.150862  1
  Ni  Ni18  1  0.616380  0.150862  0.616380  1
  Ni  Ni19  1  0.150862  0.616380  0.616380  1
  Ni  Ni20  1  0.387661  0.387661  0.387661  1
  Ni  Ni21  1  0.660530  0.000721  0.338028  1
  B  B22  1  0.728950  0.271050  0.728950  1
  B  B23  1  0.271050  0.728950  0.271050  1
  B  B24  1  0.271050  0.728950  0.728950  1
  B  B25  1  0.271050  0.271050  0.728950  1
  B  B26  1  0.728950  0.728950  0.271050  1
  B  B27  1  0.728950  0.271050  0.271050  1
  Sb  Sb28  1  0.750000  0.750000  0.750000  1
