# generated using pymatgen
data_Th10Bi2PdPb5
_symmetry_space_group_name_H-M   'P 1'
_cell_length_a   9.75855833
_cell_length_b   9.75855843
_cell_length_c   6.71763800
_cell_angle_alpha   89.98516313
_cell_angle_beta   89.98516313
_cell_angle_gamma   120.02220558
_symmetry_Int_Tables_number   1
_chemical_formula_structural   Th10Bi2PdPb5
_chemical_formula_sum   'Th10 Bi2 Pd1 Pb5'
_cell_volume   553.88713597
_cell_formula_units_Z   1
loop_
 _symmetry_equiv_pos_site_id
 _symmetry_equiv_pos_as_xyz
  1  'x, y, z'
loop_
 _atom_site_type_symbol
 _atom_site_label
 _atom_site_symmetry_multiplicity
 _atom_site_fract_x
 _atom_site_fract_y
 _atom_site_fract_z
 _atom_site_occupancy
  Th  Th0  1  0.667456  0.333053  0.500590  1
  Th  Th1  1  0.333053  0.667456  0.500590  1
  Th  Th2  1  0.333615  0.667577  0.999131  1
  Th  Th3  1  0.667577  0.333615  0.999131  1
  Th  Th4  1  0.730496  0.730496  0.265030  1
  Th  Th5  1  0.268945  0.998572  0.264318  1
  Th  Th6  1  0.998572  0.268945  0.264318  1
  Th  Th7  1  0.270221  0.270221  0.734700  1
  Th  Th8  1  0.729832  0.000101  0.735982  1
  Th  Th9  1  0.000101  0.729832  0.735982  1
  Bi  Bi10  1  0.000181  0.000181  0.999560  1
  Bi  Bi11  1  0.382934  0.382934  0.246365  1
  Pd  Pd12  1  0.000294  0.000294  0.501438  1
  Pb  Pb13  1  0.617455  0.999543  0.246836  1
  Pb  Pb14  1  0.999543  0.617455  0.246836  1
  Pb  Pb15  1  0.618221  0.618221  0.753183  1
  Pb  Pb16  1  0.381742  0.999763  0.753006  1
  Pb  Pb17  1  0.999763  0.381742  0.753006  1
