# generated using pymatgen
data_K3Hf7BCl20
_symmetry_space_group_name_H-M   'P 1'
_cell_length_a   13.68202296
_cell_length_b   13.68202326
_cell_length_c   13.68202300
_cell_angle_alpha   55.83491791
_cell_angle_beta   55.83491708
_cell_angle_gamma   55.83491829
_symmetry_Int_Tables_number   1
_chemical_formula_structural   K3Hf7BCl20
_chemical_formula_sum   'K6 Hf14 B2 Cl40'
_cell_volume   1636.18830245
_cell_formula_units_Z   2
loop_
 _symmetry_equiv_pos_site_id
 _symmetry_equiv_pos_as_xyz
  1  'x, y, z'
loop_
 _atom_site_type_symbol
 _atom_site_label
 _atom_site_symmetry_multiplicity
 _atom_site_fract_x
 _atom_site_fract_y
 _atom_site_fract_z
 _atom_site_occupancy
  K  K0  1  0.000000  0.500000  0.500000  1
  K  K1  1  0.500000  0.000000  0.500000  1
  K  K2  1  0.000000  0.500000  0.000000  1
  K  K3  1  0.500000  0.500000  0.000000  1
  K  K4  1  0.000000  0.000000  0.500000  1
  K  K5  1  0.500000  0.000000  0.000000  1
  Hf  Hf6  1  0.449056  0.324170  0.612270  1
  Hf  Hf7  1  0.675830  0.387730  0.550944  1
  Hf  Hf8  1  0.387730  0.550944  0.675830  1
  Hf  Hf9  1  0.824170  0.949056  0.112270  1
  Hf  Hf10  1  0.250000  0.250000  0.250000  1
  Hf  Hf11  1  0.324170  0.612270  0.449056  1
  Hf  Hf12  1  0.887730  0.175830  0.050944  1
  Hf  Hf13  1  0.175830  0.050944  0.887730  1
  Hf  Hf14  1  0.050944  0.887730  0.175830  1
  Hf  Hf15  1  0.550944  0.675830  0.387730  1
  Hf  Hf16  1  0.112270  0.824170  0.949056  1
  Hf  Hf17  1  0.612270  0.449056  0.324170  1
  Hf  Hf18  1  0.949056  0.112270  0.824170  1
  Hf  Hf19  1  0.750000  0.750000  0.750000  1
  B  B20  1  0.000000  0.000000  0.000000  1
  B  B21  1  0.500000  0.500000  0.500000  1
  Cl  Cl22  1  0.321650  0.859190  0.820559  1
  Cl  Cl23  1  0.179441  0.678350  0.140810  1
  Cl  Cl24  1  0.570436  0.432094  0.750970  1
  Cl  Cl25  1  0.820560  0.820560  0.820560  1
  Cl  Cl26  1  0.249030  0.429564  0.567906  1
  Cl  Cl27  1  0.750970  0.570436  0.432094  1
  Cl  Cl28  1  0.429564  0.567906  0.249030  1
  Cl  Cl29  1  0.821650  0.320559  0.359190  1
  Cl  Cl30  1  0.070436  0.250970  0.932094  1
  Cl  Cl31  1  0.609076  0.890924  0.250000  1
  Cl  Cl32  1  0.432094  0.750970  0.570436  1
  Cl  Cl33  1  0.434270  0.250000  0.065730  1
  Cl  Cl34  1  0.065730  0.434270  0.250000  1
  Cl  Cl35  1  0.179440  0.179440  0.179440  1
  Cl  Cl36  1  0.678350  0.140810  0.179441  1
  Cl  Cl37  1  0.250000  0.609076  0.890924  1
  Cl  Cl38  1  0.750000  0.934270  0.565730  1
  Cl  Cl39  1  0.140810  0.179441  0.678350  1
  Cl  Cl40  1  0.679441  0.640810  0.178350  1
  Cl  Cl41  1  0.178350  0.679441  0.640810  1
  Cl  Cl42  1  0.749030  0.067906  0.929564  1
  Cl  Cl43  1  0.565730  0.750000  0.934270  1
  Cl  Cl44  1  0.250000  0.065730  0.434270  1
  Cl  Cl45  1  0.640810  0.178350  0.679441  1
  Cl  Cl46  1  0.934270  0.565730  0.750000  1
  Cl  Cl47  1  0.929564  0.749030  0.067906  1
  Cl  Cl48  1  0.250970  0.932094  0.070436  1
  Cl  Cl49  1  0.359190  0.821650  0.320559  1
  Cl  Cl50  1  0.320560  0.320560  0.320560  1
  Cl  Cl51  1  0.890924  0.250000  0.609076  1
  Cl  Cl52  1  0.679440  0.679440  0.679440  1
  Cl  Cl53  1  0.567906  0.249030  0.429564  1
  Cl  Cl54  1  0.390924  0.109076  0.750000  1
  Cl  Cl55  1  0.932094  0.070436  0.250970  1
  Cl  Cl56  1  0.067906  0.929564  0.749030  1
  Cl  Cl57  1  0.750000  0.390924  0.109076  1
  Cl  Cl58  1  0.109076  0.750000  0.390924  1
  Cl  Cl59  1  0.820559  0.321650  0.859190  1
  Cl  Cl60  1  0.320559  0.359190  0.821650  1
  Cl  Cl61  1  0.859190  0.820559  0.321650  1
