# generated using pymatgen
data_Nd3Dy(CO3)6
_symmetry_space_group_name_H-M   'P 1'
_cell_length_a   8.53061025
_cell_length_b   8.46804464
_cell_length_c   8.47899984
_cell_angle_alpha   119.96519647
_cell_angle_beta   90.09757684
_cell_angle_gamma   90.02614163
_symmetry_Int_Tables_number   1
_chemical_formula_structural   Nd3Dy(CO3)6
_chemical_formula_sum   'Nd3 Dy1 C6 O18'
_cell_volume   530.62728242
_cell_formula_units_Z   1
loop_
 _symmetry_equiv_pos_site_id
 _symmetry_equiv_pos_as_xyz
  1  'x, y, z'
loop_
 _atom_site_type_symbol
 _atom_site_label
 _atom_site_symmetry_multiplicity
 _atom_site_fract_x
 _atom_site_fract_y
 _atom_site_fract_z
 _atom_site_occupancy
  Nd  Nd0  1  0.969280  0.665019  0.332068  1
  Nd  Nd1  1  0.527423  0.667835  0.333702  1
  Nd  Nd2  1  0.464433  0.331739  0.665828  1
  Dy  Dy3  1  0.028135  0.334572  0.667654  1
  C  C4  1  0.246590  0.976037  0.376179  1
  C  C5  1  0.247418  0.399958  0.024314  1
  C  C6  1  0.752615  0.375628  0.409260  1
  C  C7  1  0.247110  0.624249  0.599495  1
  C  C8  1  0.752404  0.590952  0.966407  1
  C  C9  1  0.753210  0.033311  0.624507  1
  O  O10  1  0.124905  0.875150  0.309176  1
  O  O11  1  0.386680  0.909521  0.349578  1
  O  O12  1  0.746139  0.666952  0.144222  1
  O  O13  1  0.386735  0.441368  0.093077  1
  O  O14  1  0.124863  0.432332  0.123162  1
  O  O15  1  0.745784  0.477142  0.332703  1
  O  O16  1  0.748139  0.855288  0.521849  1
  O  O17  1  0.124245  0.690112  0.566424  1
  O  O18  1  0.386194  0.651812  0.558028  1
  O  O19  1  0.625102  0.314266  0.438961  1
  O  O20  1  0.888533  0.341937  0.452259  1
  O  O21  1  0.231467  0.153136  0.476955  1
  O  O22  1  0.233747  0.523811  0.676449  1
  O  O23  1  0.888153  0.548805  0.889759  1
  O  O24  1  0.624582  0.560924  0.875609  1
  O  O25  1  0.233415  0.323758  0.847223  1
  O  O26  1  0.624582  0.122053  0.685050  1
  O  O27  1  0.888117  0.112333  0.660104  1
