# generated using pymatgen
data_La6IrAuBr6
_symmetry_space_group_name_H-M   'P 1'
_cell_length_a   10.82049656
_cell_length_b   10.82049645
_cell_length_c   10.61885746
_cell_angle_alpha   109.41928749
_cell_angle_beta   109.41929285
_cell_angle_gamma   110.33044180
_symmetry_Int_Tables_number   1
_chemical_formula_structural   La6IrAuBr6
_chemical_formula_sum   'La12 Ir2 Au2 Br12'
_cell_volume   947.99756608
_cell_formula_units_Z   2
loop_
 _symmetry_equiv_pos_site_id
 _symmetry_equiv_pos_as_xyz
  1  'x, y, z'
loop_
 _atom_site_type_symbol
 _atom_site_label
 _atom_site_symmetry_multiplicity
 _atom_site_fract_x
 _atom_site_fract_y
 _atom_site_fract_z
 _atom_site_occupancy
  La  La0  1  0.473737  0.494271  0.232531  1
  La  La1  1  0.761740  0.241205  0.267469  1
  La  La2  1  0.764158  0.022561  0.494730  1
  La  La3  1  0.230572  0.472170  0.494730  1
  La  La4  1  0.258795  0.738260  0.232531  1
  La  La5  1  0.027830  0.269428  0.005270  1
  La  La6  1  0.005729  0.026263  0.267469  1
  La  La7  1  0.477439  0.735842  0.005270  1
  La  La8  1  0.490370  0.240370  0.480740  1
  La  La9  1  0.014285  0.485715  0.750000  1
  La  La10  1  0.259630  0.009630  0.019260  1
  La  La11  1  0.235715  0.264285  0.750000  1
  Ir  Ir12  1  0.000723  0.250723  0.501446  1
  Ir  Ir13  1  0.249277  0.499277  0.998554  1
  Au  Au14  1  0.249803  0.250197  0.250000  1
  Au  Au15  1  0.500197  0.999803  0.250000  1
  Br  Br16  1  0.250625  0.758076  0.744982  1
  Br  Br17  1  0.513094  0.505643  0.755018  1
  Br  Br18  1  0.993180  0.747296  0.997603  1
  Br  Br19  1  0.741924  0.249375  0.755018  1
  Br  Br20  1  0.994357  0.986906  0.744982  1
  Br  Br21  1  0.249693  0.995576  0.502397  1
  Br  Br22  1  0.752704  0.506820  0.502397  1
  Br  Br23  1  0.504424  0.250307  0.997603  1
  Br  Br24  1  0.755555  0.744445  0.250000  1
  Br  Br25  1  0.745736  0.995736  0.991472  1
  Br  Br26  1  0.994445  0.505555  0.250000  1
  Br  Br27  1  0.504264  0.754264  0.508528  1
