# generated using pymatgen
data_FeTc3Sn8
_symmetry_space_group_name_H-M   'P 1'
_cell_length_a   5.42605500
_cell_length_b   5.42195200
_cell_length_c   9.49092200
_cell_angle_alpha   90.00000000
_cell_angle_beta   90.00000000
_cell_angle_gamma   120.02501759
_symmetry_Int_Tables_number   1
_chemical_formula_structural   FeTc3Sn8
_chemical_formula_sum   'Fe1 Tc3 Sn8'
_cell_volume   241.75160021
_cell_formula_units_Z   1
loop_
 _symmetry_equiv_pos_site_id
 _symmetry_equiv_pos_as_xyz
  1  'x, y, z'
loop_
 _atom_site_type_symbol
 _atom_site_label
 _atom_site_symmetry_multiplicity
 _atom_site_fract_x
 _atom_site_fract_y
 _atom_site_fract_z
 _atom_site_occupancy
  Fe  Fe0  1  0.750000  0.000000  0.000000  1
  Tc  Tc1  1  0.250000  0.000000  0.500000  1
  Tc  Tc2  1  0.250000  0.000000  0.000000  1
  Tc  Tc3  1  0.750000  0.000000  0.500000  1
  Sn  Sn4  1  0.250000  0.500000  0.404583  1
  Sn  Sn5  1  0.750000  0.500000  0.911301  1
  Sn  Sn6  1  0.250000  0.500000  0.088699  1
  Sn  Sn7  1  0.750000  0.500000  0.595417  1
  Sn  Sn8  1  0.907799  0.816601  0.247232  1
  Sn  Sn9  1  0.408801  0.816601  0.752768  1
  Sn  Sn10  1  0.592201  0.183399  0.247232  1
  Sn  Sn11  1  0.091199  0.183399  0.752768  1
