# generated using pymatgen
data_Hf20In5Sb7
_symmetry_space_group_name_H-M   'P 1'
_cell_length_a   7.41588869
_cell_length_b   8.94750743
_cell_length_c   10.82060700
_cell_angle_alpha   89.91972512
_cell_angle_beta   90.02466166
_cell_angle_gamma   89.95592692
_symmetry_Int_Tables_number   1
_chemical_formula_structural   Hf20In5Sb7
_chemical_formula_sum   'Hf20 In5 Sb7'
_cell_volume   717.98653395
_cell_formula_units_Z   1
loop_
 _symmetry_equiv_pos_site_id
 _symmetry_equiv_pos_as_xyz
  1  'x, y, z'
loop_
 _atom_site_type_symbol
 _atom_site_label
 _atom_site_symmetry_multiplicity
 _atom_site_fract_x
 _atom_site_fract_y
 _atom_site_fract_z
 _atom_site_occupancy
  Hf  Hf0  1  0.815970  0.443071  0.557498  1
  Hf  Hf1  1  0.312916  0.059975  0.945467  1
  Hf  Hf2  1  0.183707  0.940128  0.439450  1
  Hf  Hf3  1  0.685055  0.557917  0.058466  1
  Hf  Hf4  1  0.153054  0.250241  0.725439  1
  Hf  Hf5  1  0.647613  0.251456  0.775074  1
  Hf  Hf6  1  0.849179  0.749527  0.276651  1
  Hf  Hf7  1  0.349690  0.751256  0.221867  1
  Hf  Hf8  1  0.316892  0.435922  0.941510  1
  Hf  Hf9  1  0.815882  0.066982  0.558705  1
  Hf  Hf10  1  0.683252  0.933738  0.060031  1
  Hf  Hf11  1  0.182759  0.565148  0.438904  1
  Hf  Hf12  1  0.185663  0.746499  0.713583  1
  Hf  Hf13  1  0.686688  0.747073  0.784333  1
  Hf  Hf14  1  0.814702  0.249133  0.285886  1
  Hf  Hf15  1  0.314432  0.250605  0.215170  1
  Hf  Hf16  1  0.007313  0.752060  0.991925  1
  Hf  Hf17  1  0.505897  0.748510  0.508719  1
  Hf  Hf18  1  0.992555  0.251522  0.008366  1
  Hf  Hf19  1  0.495250  0.250296  0.492504  1
  In  In20  1  0.565335  0.996448  0.327471  1
  In  In21  1  0.066362  0.503757  0.173659  1
  In  In22  1  0.433192  0.496188  0.673473  1
  In  In23  1  0.934177  0.003411  0.824831  1
  In  In24  1  0.433738  0.002349  0.674467  1
  Sb  Sb25  1  0.932714  0.494027  0.826702  1
  Sb  Sb26  1  0.567494  0.505961  0.326362  1
  Sb  Sb27  1  0.067427  0.995105  0.174068  1
  Sb  Sb28  1  0.395514  0.747954  0.955929  1
  Sb  Sb29  1  0.894539  0.754758  0.542089  1
  Sb  Sb30  1  0.604457  0.246357  0.041628  1
  Sb  Sb31  1  0.106581  0.252629  0.459777  1
