# generated using pymatgen
data_Ce10Si5Sb
_symmetry_space_group_name_H-M   'P 1'
_cell_length_a   7.84576646
_cell_length_b   7.84576460
_cell_length_c   8.60809779
_cell_angle_alpha   117.11127602
_cell_angle_beta   117.11128137
_cell_angle_gamma   89.99999637
_symmetry_Int_Tables_number   1
_chemical_formula_structural   Ce10Si5Sb
_chemical_formula_sum   'Ce10 Si5 Sb1'
_cell_volume   405.15526660
_cell_formula_units_Z   1
loop_
 _symmetry_equiv_pos_site_id
 _symmetry_equiv_pos_as_xyz
  1  'x, y, z'
loop_
 _atom_site_type_symbol
 _atom_site_label
 _atom_site_symmetry_multiplicity
 _atom_site_fract_x
 _atom_site_fract_y
 _atom_site_fract_z
 _atom_site_occupancy
  Ce  Ce0  1  0.496130  0.496130  0.992261  1
  Ce  Ce1  1  0.003870  0.003870  0.007739  1
  Ce  Ce2  1  0.978986  0.835843  0.301213  1
  Ce  Ce3  1  0.322227  0.465370  0.301213  1
  Ce  Ce4  1  0.835843  0.322227  0.301213  1
  Ce  Ce5  1  0.465370  0.978986  0.301213  1
  Ce  Ce6  1  0.034630  0.177773  0.698787  1
  Ce  Ce7  1  0.664157  0.521014  0.698787  1
  Ce  Ce8  1  0.177773  0.664157  0.698787  1
  Ce  Ce9  1  0.521014  0.034630  0.698787  1
  Si  Si10  1  0.250000  0.250000  0.500000  1
  Si  Si11  1  0.614740  0.885260  0.000000  1
  Si  Si12  1  0.385260  0.114740  0.000000  1
  Si  Si13  1  0.885260  0.385260  0.000000  1
  Si  Si14  1  0.114740  0.614740  0.000000  1
  Sb  Sb15  1  0.750000  0.750000  0.500000  1
