# generated using pymatgen
data_Tm4CdCo
_symmetry_space_group_name_H-M   'P 1'
_cell_length_a   9.38965719
_cell_length_b   9.38965703
_cell_length_c   9.38965800
_cell_angle_alpha   60.00000362
_cell_angle_beta   60.00000418
_cell_angle_gamma   60.00000019
_symmetry_Int_Tables_number   1
_chemical_formula_structural   Tm4CdCo
_chemical_formula_sum   'Tm16 Cd4 Co4'
_cell_volume   585.37513180
_cell_formula_units_Z   4
loop_
 _symmetry_equiv_pos_site_id
 _symmetry_equiv_pos_as_xyz
  1  'x, y, z'
loop_
 _atom_site_type_symbol
 _atom_site_label
 _atom_site_symmetry_multiplicity
 _atom_site_fract_x
 _atom_site_fract_y
 _atom_site_fract_z
 _atom_site_occupancy
  Tm  Tm0  1  0.153419  0.539741  0.153419  1
  Tm  Tm1  1  0.688048  0.311952  0.688048  1
  Tm  Tm2  1  0.688048  0.311952  0.311952  1
  Tm  Tm3  1  0.938160  0.561840  0.561840  1
  Tm  Tm4  1  0.539741  0.153419  0.153419  1
  Tm  Tm5  1  0.153419  0.153419  0.539741  1
  Tm  Tm6  1  0.938160  0.938160  0.561840  1
  Tm  Tm7  1  0.311952  0.688048  0.311952  1
  Tm  Tm8  1  0.561840  0.938160  0.938160  1
  Tm  Tm9  1  0.561840  0.938160  0.561840  1
  Tm  Tm10  1  0.688048  0.688048  0.311952  1
  Tm  Tm11  1  0.561840  0.561840  0.938160  1
  Tm  Tm12  1  0.938160  0.561840  0.938160  1
  Tm  Tm13  1  0.311952  0.688048  0.688048  1
  Tm  Tm14  1  0.153419  0.153419  0.153419  1
  Tm  Tm15  1  0.311952  0.311952  0.688048  1
  Cd  Cd16  1  0.919280  0.242159  0.919280  1
  Cd  Cd17  1  0.919280  0.919280  0.919280  1
  Cd  Cd18  1  0.919280  0.919280  0.242159  1
  Cd  Cd19  1  0.242159  0.919280  0.919280  1
  Co  Co20  1  0.358804  0.358804  0.923589  1
  Co  Co21  1  0.358804  0.923589  0.358804  1
  Co  Co22  1  0.923589  0.358804  0.358804  1
  Co  Co23  1  0.358804  0.358804  0.358804  1
