# generated using pymatgen
data_Tm10HgSb5
_symmetry_space_group_name_H-M   'P 1'
_cell_length_a   8.84952000
_cell_length_b   8.83584281
_cell_length_c   6.30427700
_cell_angle_alpha   90.00000000
_cell_angle_beta   90.00000000
_cell_angle_gamma   120.05121804
_symmetry_Int_Tables_number   1
_chemical_formula_structural   Tm10HgSb5
_chemical_formula_sum   'Tm10 Hg1 Sb5'
_cell_volume   426.68683310
_cell_formula_units_Z   1
loop_
 _symmetry_equiv_pos_site_id
 _symmetry_equiv_pos_as_xyz
  1  'x, y, z'
loop_
 _atom_site_type_symbol
 _atom_site_label
 _atom_site_symmetry_multiplicity
 _atom_site_fract_x
 _atom_site_fract_y
 _atom_site_fract_z
 _atom_site_occupancy
  Tm  Tm0  1  0.337550  0.672560  0.000253  1
  Tm  Tm1  1  0.664991  0.327440  0.499747  1
  Tm  Tm2  1  0.664991  0.327440  0.000253  1
  Tm  Tm3  1  0.337550  0.672560  0.499747  1
  Tm  Tm4  1  0.244109  0.000000  0.250000  1
  Tm  Tm5  1  0.756112  0.000000  0.750000  1
  Tm  Tm6  1  0.992695  0.237274  0.250000  1
  Tm  Tm7  1  0.755421  0.762726  0.250000  1
  Tm  Tm8  1  0.243848  0.242653  0.750000  1
  Tm  Tm9  1  0.001195  0.757347  0.750000  1
  Hg  Hg10  1  0.607964  0.000000  0.250000  1
  Sb  Sb11  1  0.391412  0.000000  0.750000  1
  Sb  Sb12  1  0.997853  0.607353  0.250000  1
  Sb  Sb13  1  0.390500  0.392647  0.250000  1
  Sb  Sb14  1  0.609897  0.605985  0.750000  1
  Sb  Sb15  1  0.003912  0.394015  0.750000  1
