# generated using pymatgen
data_Li2Ac3(ZnGe2)2
_symmetry_space_group_name_H-M   'P 1'
_cell_length_a   4.62672122
_cell_length_b   7.23463774
_cell_length_c   8.77637200
_cell_angle_alpha   115.86399123
_cell_angle_beta   105.28315579
_cell_angle_gamma   90.00000765
_symmetry_Int_Tables_number   1
_chemical_formula_structural   Li2Ac3(ZnGe2)2
_chemical_formula_sum   'Li2 Ac3 Zn2 Ge4'
_cell_volume   252.74646099
_cell_formula_units_Z   1
loop_
 _symmetry_equiv_pos_site_id
 _symmetry_equiv_pos_as_xyz
  1  'x, y, z'
loop_
 _atom_site_type_symbol
 _atom_site_label
 _atom_site_symmetry_multiplicity
 _atom_site_fract_x
 _atom_site_fract_y
 _atom_site_fract_z
 _atom_site_occupancy
  Li  Li0  1  0.327969  0.640911  0.655939  1
  Li  Li1  1  0.672031  0.359089  0.344061  1
  Ac  Ac2  1  0.000000  0.000000  0.000000  1
  Ac  Ac3  1  0.128896  0.640167  0.257792  1
  Ac  Ac4  1  0.871104  0.359833  0.742208  1
  Zn  Zn5  1  0.661387  0.982593  0.322774  1
  Zn  Zn6  1  0.338613  0.017407  0.677226  1
  Ge  Ge7  1  0.496267  0.682667  0.992534  1
  Ge  Ge8  1  0.503733  0.317333  0.007466  1
  Ge  Ge9  1  0.782904  0.803929  0.565807  1
  Ge  Ge10  1  0.217096  0.196071  0.434193  1
