# generated using pymatgen
data_YHoTcC2
_symmetry_space_group_name_H-M   'P 1'
_cell_length_a   5.09809100
_cell_length_b   6.58482700
_cell_length_c   9.87944200
_cell_angle_alpha   90.00000000
_cell_angle_beta   90.00000000
_cell_angle_gamma   90.00000000
_symmetry_Int_Tables_number   1
_chemical_formula_structural   YHoTcC2
_chemical_formula_sum   'Y4 Ho4 Tc4 C8'
_cell_volume   331.65333489
_cell_formula_units_Z   4
loop_
 _symmetry_equiv_pos_site_id
 _symmetry_equiv_pos_as_xyz
  1  'x, y, z'
loop_
 _atom_site_type_symbol
 _atom_site_label
 _atom_site_symmetry_multiplicity
 _atom_site_fract_x
 _atom_site_fract_y
 _atom_site_fract_z
 _atom_site_occupancy
  Y  Y0  1  0.250000  0.532613  0.215590  1
  Y  Y1  1  0.750000  0.467387  0.784410  1
  Y  Y2  1  0.750000  0.967387  0.715590  1
  Y  Y3  1  0.250000  0.032613  0.284410  1
  Ho  Ho4  1  0.250000  0.677111  0.557779  1
  Ho  Ho5  1  0.750000  0.322889  0.442221  1
  Ho  Ho6  1  0.750000  0.822889  0.057779  1
  Ho  Ho7  1  0.250000  0.177111  0.942221  1
  Tc  Tc8  1  0.250000  0.720668  0.865616  1
  Tc  Tc9  1  0.750000  0.279332  0.134384  1
  Tc  Tc10  1  0.750000  0.779332  0.365616  1
  Tc  Tc11  1  0.250000  0.220668  0.634384  1
  C  C12  1  0.250000  0.453431  0.758838  1
  C  C13  1  0.750000  0.546569  0.241162  1
  C  C14  1  0.750000  0.046569  0.258838  1
  C  C15  1  0.250000  0.953431  0.741162  1
  C  C16  1  0.250000  0.822681  0.047739  1
  C  C17  1  0.750000  0.177319  0.952261  1
  C  C18  1  0.750000  0.677319  0.547739  1
  C  C19  1  0.250000  0.322681  0.452261  1
