# generated using pymatgen
data_Dy2Mn5Fe2Ni5P7
_symmetry_space_group_name_H-M   'P 1'
_cell_length_a   9.16033942
_cell_length_b   9.16471046
_cell_length_c   3.63016400
_cell_angle_alpha   90.00000000
_cell_angle_beta   90.00000000
_cell_angle_gamma   120.16173880
_symmetry_Int_Tables_number   1
_chemical_formula_structural   Dy2Mn5Fe2Ni5P7
_chemical_formula_sum   'Dy2 Mn5 Fe2 Ni5 P7'
_cell_volume   263.49784917
_cell_formula_units_Z   1
loop_
 _symmetry_equiv_pos_site_id
 _symmetry_equiv_pos_as_xyz
  1  'x, y, z'
loop_
 _atom_site_type_symbol
 _atom_site_label
 _atom_site_symmetry_multiplicity
 _atom_site_fract_x
 _atom_site_fract_y
 _atom_site_fract_z
 _atom_site_occupancy
  Dy  Dy0  1  0.335029  0.667286  0.000000  1
  Dy  Dy1  1  0.998376  0.999071  0.500000  1
  Mn  Mn2  1  0.943791  0.489608  0.000000  1
  Mn  Mn3  1  0.617593  0.896539  0.500000  1
  Mn  Mn4  1  0.767997  0.554061  0.500000  1
  Mn  Mn5  1  0.449253  0.216411  0.500000  1
  Mn  Mn6  1  0.780176  0.236468  0.500000  1
  Fe  Fe7  1  0.506932  0.450301  0.000000  1
  Fe  Fe8  1  0.547697  0.061341  0.000000  1
  Ni  Ni9  1  0.728870  0.762934  0.000000  1
  Ni  Ni10  1  0.233383  0.960757  0.000000  1
  Ni  Ni11  1  0.036172  0.267158  0.000000  1
  Ni  Ni12  1  0.107368  0.722932  0.500000  1
  Ni  Ni13  1  0.277257  0.382136  0.500000  1
  P  P14  1  0.964330  0.741083  0.000000  1
  P  P15  1  0.258066  0.220416  0.000000  1
  P  P16  1  0.773108  0.031693  0.000000  1
  P  P17  1  0.070517  0.452050  0.500000  1
  P  P18  1  0.548369  0.620485  0.500000  1
  P  P19  1  0.389773  0.931928  0.500000  1
  P  P20  1  0.665942  0.335344  0.000000  1
