# generated using pymatgen
data_Nd2Al8GaIr3
_symmetry_space_group_name_H-M   'P 1'
_cell_length_a   7.60183792
_cell_length_b   7.60183788
_cell_length_c   9.64398500
_cell_angle_alpha   90.00000000
_cell_angle_beta   90.00000000
_cell_angle_gamma   119.32586147
_symmetry_Int_Tables_number   1
_chemical_formula_structural   Nd2Al8GaIr3
_chemical_formula_sum   'Nd4 Al16 Ga2 Ir6'
_cell_volume   485.88630341
_cell_formula_units_Z   2
loop_
 _symmetry_equiv_pos_site_id
 _symmetry_equiv_pos_as_xyz
  1  'x, y, z'
loop_
 _atom_site_type_symbol
 _atom_site_label
 _atom_site_symmetry_multiplicity
 _atom_site_fract_x
 _atom_site_fract_y
 _atom_site_fract_z
 _atom_site_occupancy
  Nd  Nd0  1  0.994016  0.673877  0.250000  1
  Nd  Nd1  1  0.005984  0.326123  0.750000  1
  Nd  Nd2  1  0.673877  0.994016  0.250000  1
  Nd  Nd3  1  0.326123  0.005984  0.750000  1
  Al  Al4  1  0.002888  0.336072  0.070932  1
  Al  Al5  1  0.997112  0.663928  0.929068  1
  Al  Al6  1  0.997112  0.663928  0.570932  1
  Al  Al7  1  0.336072  0.002888  0.429068  1
  Al  Al8  1  0.002888  0.336072  0.429068  1
  Al  Al9  1  0.663928  0.997112  0.570932  1
  Al  Al10  1  0.663928  0.997112  0.929068  1
  Al  Al11  1  0.336072  0.002888  0.070932  1
  Al  Al12  1  0.335196  0.335196  0.549105  1
  Al  Al13  1  0.664804  0.664804  0.450895  1
  Al  Al14  1  0.664804  0.664804  0.049105  1
  Al  Al15  1  0.335196  0.335196  0.950895  1
  Al  Al16  1  0.337558  0.546558  0.250000  1
  Al  Al17  1  0.662442  0.453442  0.750000  1
  Al  Al18  1  0.546558  0.337558  0.250000  1
  Al  Al19  1  0.453442  0.662442  0.750000  1
  Ga  Ga20  1  0.136667  0.136667  0.250000  1
  Ga  Ga21  1  0.863333  0.863333  0.750000  1
  Ir  Ir22  1  0.670621  0.329379  0.000000  1
  Ir  Ir23  1  0.329379  0.670621  0.000000  1
  Ir  Ir24  1  0.329379  0.670621  0.500000  1
  Ir  Ir25  1  0.670621  0.329379  0.500000  1
  Ir  Ir26  1  0.000000  0.000000  0.000000  1
  Ir  Ir27  1  0.000000  0.000000  0.500000  1
