# generated using pymatgen
data_KLa(NbBr3)6
_symmetry_space_group_name_H-M   'P 1'
_cell_length_a   10.88163667
_cell_length_b   10.88163641
_cell_length_c   10.88163697
_cell_angle_alpha   55.18988887
_cell_angle_beta   55.18989062
_cell_angle_gamma   55.18989652
_symmetry_Int_Tables_number   1
_chemical_formula_structural   KLa(NbBr3)6
_chemical_formula_sum   'K1 La1 Nb6 Br18'
_cell_volume   809.21566741
_cell_formula_units_Z   1
loop_
 _symmetry_equiv_pos_site_id
 _symmetry_equiv_pos_as_xyz
  1  'x, y, z'
loop_
 _atom_site_type_symbol
 _atom_site_label
 _atom_site_symmetry_multiplicity
 _atom_site_fract_x
 _atom_site_fract_y
 _atom_site_fract_z
 _atom_site_occupancy
  K  K0  1  0.221524  0.221524  0.221524  1
  La  La1  1  0.498414  0.498414  0.498414  1
  Nb  Nb2  1  0.808247  0.142057  0.918494  1
  Nb  Nb3  1  0.918494  0.808247  0.142057  1
  Nb  Nb4  1  0.142057  0.918494  0.808247  1
  Nb  Nb5  1  0.192471  0.858506  0.080722  1
  Nb  Nb6  1  0.080722  0.192471  0.858506  1
  Nb  Nb7  1  0.858506  0.080722  0.192471  1
  Br  Br8  1  0.861980  0.409969  0.729115  1
  Br  Br9  1  0.729115  0.861980  0.409969  1
  Br  Br10  1  0.409969  0.729115  0.861980  1
  Br  Br11  1  0.137694  0.589763  0.272412  1
  Br  Br12  1  0.272412  0.137694  0.589763  1
  Br  Br13  1  0.589763  0.272412  0.137694  1
  Br  Br14  1  0.529772  0.337184  0.818124  1
  Br  Br15  1  0.818124  0.529772  0.337184  1
  Br  Br16  1  0.337184  0.818124  0.529772  1
  Br  Br17  1  0.465737  0.664193  0.185112  1
  Br  Br18  1  0.185112  0.465737  0.664193  1
  Br  Br19  1  0.664193  0.185112  0.465737  1
  Br  Br20  1  0.665575  0.937025  0.073167  1
  Br  Br21  1  0.073167  0.665575  0.937025  1
  Br  Br22  1  0.937025  0.073167  0.665575  1
  Br  Br23  1  0.335986  0.062816  0.925079  1
  Br  Br24  1  0.925079  0.335986  0.062816  1
  Br  Br25  1  0.062816  0.925079  0.335986  1
