# generated using pymatgen
data_GdPN2
_symmetry_space_group_name_H-M   'P 1'
_cell_length_a   8.76116213
_cell_length_b   7.50858170
_cell_length_c   7.50855653
_cell_angle_alpha   105.85420928
_cell_angle_beta   112.88243370
_cell_angle_gamma   112.88303164
_symmetry_Int_Tables_number   1
_chemical_formula_structural   GdPN2
_chemical_formula_sum   'Gd6 P6 N12'
_cell_volume   363.08961965
_cell_formula_units_Z   6
loop_
 _symmetry_equiv_pos_site_id
 _symmetry_equiv_pos_as_xyz
  1  'x, y, z'
loop_
 _atom_site_type_symbol
 _atom_site_label
 _atom_site_symmetry_multiplicity
 _atom_site_fract_x
 _atom_site_fract_y
 _atom_site_fract_z
 _atom_site_occupancy
  Gd  Gd0  1  0.226065  0.570554  0.437291  1
  Gd  Gd1  1  0.788811  0.562731  0.133266  1
  Gd  Gd2  1  0.655440  0.866673  0.429403  1
  Gd  Gd3  1  0.726068  0.437295  0.570556  1
  Gd  Gd4  1  0.155440  0.429402  0.866675  1
  Gd  Gd5  1  0.288809  0.133266  0.562729  1
  P  P6  1  0.847161  0.152326  0.290845  1
  P  P7  1  0.556272  0.709184  0.861508  1
  P  P8  1  0.694845  0.138521  0.847758  1
  P  P9  1  0.347158  0.290845  0.152325  1
  P  P10  1  0.194842  0.847755  0.138521  1
  P  P11  1  0.056272  0.861510  0.709185  1
  N  N12  1  0.871844  0.268026  0.128162  1
  N  N13  1  0.743621  0.871863  0.139919  1
  N  N14  1  0.603699  0.860076  0.731968  1
  N  N15  1  0.371839  0.128160  0.268025  1
  N  N16  1  0.103698  0.731972  0.860079  1
  N  N17  1  0.243621  0.139919  0.871864  1
  N  N18  1  0.586716  0.506233  0.769746  1
  N  N19  1  0.816985  0.230225  0.736507  1
  N  N20  1  0.080551  0.263486  0.493731  1
  N  N21  1  0.086718  0.769746  0.506233  1
  N  N22  1  0.580548  0.493731  0.263481  1
  N  N23  1  0.316979  0.736499  0.230223  1
