# generated using pymatgen
data_LiDy(ZnSi)2
_symmetry_space_group_name_H-M   'P 1'
_cell_length_a   4.19337800
_cell_length_b   4.19337811
_cell_length_c   6.73260100
_cell_angle_alpha   90.00000000
_cell_angle_beta   90.00000000
_cell_angle_gamma   119.99999915
_symmetry_Int_Tables_number   1
_chemical_formula_structural   LiDy(ZnSi)2
_chemical_formula_sum   'Li1 Dy1 Zn2 Si2'
_cell_volume   102.52777877
_cell_formula_units_Z   1
loop_
 _symmetry_equiv_pos_site_id
 _symmetry_equiv_pos_as_xyz
  1  'x, y, z'
loop_
 _atom_site_type_symbol
 _atom_site_label
 _atom_site_symmetry_multiplicity
 _atom_site_fract_x
 _atom_site_fract_y
 _atom_site_fract_z
 _atom_site_occupancy
  Li  Li0  1  0.000000  0.000000  0.499999  1
  Dy  Dy1  1  0.000000  0.000000  0.000000  1
  Zn  Zn2  1  0.666666  0.333334  0.320912  1
  Zn  Zn3  1  0.333333  0.666666  0.679089  1
  Si  Si4  1  0.333333  0.666666  0.258315  1
  Si  Si5  1  0.666666  0.333334  0.741685  1
