# generated using pymatgen
data_Ba8Li4Si11As
_symmetry_space_group_name_H-M   'P 1'
_cell_length_a   12.39745367
_cell_length_b   10.69926439
_cell_length_c   8.75560842
_cell_angle_alpha   78.42501620
_cell_angle_beta   57.72666929
_cell_angle_gamma   44.13171711
_symmetry_Int_Tables_number   1
_chemical_formula_structural   Ba8Li4Si11As
_chemical_formula_sum   'Ba8 Li4 Si11 As1'
_cell_volume   650.02957104
_cell_formula_units_Z   1
loop_
 _symmetry_equiv_pos_site_id
 _symmetry_equiv_pos_as_xyz
  1  'x, y, z'
loop_
 _atom_site_type_symbol
 _atom_site_label
 _atom_site_symmetry_multiplicity
 _atom_site_fract_x
 _atom_site_fract_y
 _atom_site_fract_z
 _atom_site_occupancy
  Ba  Ba0  1  0.875002  0.874021  0.126355  1
  Ba  Ba1  1  0.126099  0.124212  0.875698  1
  Ba  Ba2  1  0.371081  0.373691  0.128739  1
  Ba  Ba3  1  0.128328  0.127210  0.372062  1
  Ba  Ba4  1  0.626224  0.624610  0.372918  1
  Ba  Ba5  1  0.375598  0.373475  0.622723  1
  Ba  Ba6  1  0.624595  0.627501  0.875042  1
  Ba  Ba7  1  0.873779  0.874115  0.626075  1
  Li  Li8  1  0.167719  0.832209  0.166753  1
  Li  Li9  1  0.835216  0.165101  0.827758  1
  Li  Li10  1  0.081983  0.416833  0.082716  1
  Li  Li11  1  0.417165  0.082338  0.418332  1
  Si  Si12  1  0.828271  0.180033  0.339999  1
  Si  Si13  1  0.187967  0.818470  0.656919  1
  Si  Si14  1  0.338408  0.655684  0.819058  1
  Si  Si15  1  0.592368  0.908392  0.590197  1
  Si  Si16  1  0.908254  0.592601  0.908834  1
  Si  Si17  1  0.654970  0.344062  0.660204  1
  Si  Si18  1  0.330140  0.669232  0.344948  1
  Si  Si19  1  0.912126  0.594260  0.429928  1
  Si  Si20  1  0.062574  0.430170  0.594958  1
  Si  Si21  1  0.430394  0.063010  0.911973  1
  Si  Si22  1  0.594612  0.912737  0.063485  1
  As  As23  1  0.657125  0.336036  0.184328  1
