# generated using pymatgen
data_NiBi6Ir
_symmetry_space_group_name_H-M   'P 1'
_cell_length_a   4.14539800
_cell_length_b   9.28154300
_cell_length_c   11.58124000
_cell_angle_alpha   90.00000000
_cell_angle_beta   90.00000000
_cell_angle_gamma   90.00000000
_symmetry_Int_Tables_number   1
_chemical_formula_structural   NiBi6Ir
_chemical_formula_sum   'Ni2 Bi12 Ir2'
_cell_volume   445.59619761
_cell_formula_units_Z   2
loop_
 _symmetry_equiv_pos_site_id
 _symmetry_equiv_pos_as_xyz
  1  'x, y, z'
loop_
 _atom_site_type_symbol
 _atom_site_label
 _atom_site_symmetry_multiplicity
 _atom_site_fract_x
 _atom_site_fract_y
 _atom_site_fract_z
 _atom_site_occupancy
  Ni  Ni0  1  0.500000  0.403694  0.726592  1
  Ni  Ni1  1  0.500000  0.903694  0.273408  1
  Bi  Bi2  1  0.500000  0.091408  0.065367  1
  Bi  Bi3  1  0.500000  0.591408  0.934633  1
  Bi  Bi4  1  0.000000  0.912138  0.430022  1
  Bi  Bi5  1  0.000000  0.412138  0.569978  1
  Bi  Bi6  1  0.500000  0.212238  0.359570  1
  Bi  Bi7  1  0.500000  0.712238  0.640430  1
  Bi  Bi8  1  0.000000  0.795638  0.144675  1
  Bi  Bi9  1  0.000000  0.295638  0.855325  1
  Bi  Bi10  1  0.500000  0.125794  0.650847  1
  Bi  Bi11  1  0.500000  0.625794  0.349153  1
  Bi  Bi12  1  0.000000  0.873521  0.848156  1
  Bi  Bi13  1  0.000000  0.373521  0.151844  1
  Ir  Ir14  1  0.000000  0.585570  0.771703  1
  Ir  Ir15  1  0.000000  0.085570  0.228297  1
