# generated using pymatgen
data_CeNi3PtAu
_symmetry_space_group_name_H-M   'P 1'
_cell_length_a   5.02624761
_cell_length_b   5.14071370
_cell_length_c   5.02624800
_cell_angle_alpha   60.73387649
_cell_angle_beta   59.99999741
_cell_angle_gamma   60.73388470
_symmetry_Int_Tables_number   1
_chemical_formula_structural   CeNi3PtAu
_chemical_formula_sum   'Ce1 Ni3 Pt1 Au1'
_cell_volume   92.83796885
_cell_formula_units_Z   1
loop_
 _symmetry_equiv_pos_site_id
 _symmetry_equiv_pos_as_xyz
  1  'x, y, z'
loop_
 _atom_site_type_symbol
 _atom_site_label
 _atom_site_symmetry_multiplicity
 _atom_site_fract_x
 _atom_site_fract_y
 _atom_site_fract_z
 _atom_site_occupancy
  Ce  Ce0  1  0.998128  0.005617  0.998128  1
  Ni  Ni1  1  0.374785  0.378461  0.374785  1
  Ni  Ni2  1  0.374785  0.378461  0.871971  1
  Ni  Ni3  1  0.871971  0.378461  0.374785  1
  Pt  Pt4  1  0.374252  0.877245  0.374252  1
  Au  Au5  1  0.756082  0.731755  0.756082  1
