# generated using pymatgen
data_Ce2Sc3Nb3(P3Ir4)4
_symmetry_space_group_name_H-M   'P 1'
_cell_length_a   12.72053374
_cell_length_b   12.72053350
_cell_length_c   3.97674400
_cell_angle_alpha   90.00000000
_cell_angle_beta   90.00000000
_cell_angle_gamma   119.85107193
_symmetry_Int_Tables_number   1
_chemical_formula_structural   Ce2Sc3Nb3(P3Ir4)4
_chemical_formula_sum   'Ce2 Sc3 Nb3 P12 Ir16'
_cell_volume   558.10860326
_cell_formula_units_Z   1
loop_
 _symmetry_equiv_pos_site_id
 _symmetry_equiv_pos_as_xyz
  1  'x, y, z'
loop_
 _atom_site_type_symbol
 _atom_site_label
 _atom_site_symmetry_multiplicity
 _atom_site_fract_x
 _atom_site_fract_y
 _atom_site_fract_z
 _atom_site_occupancy
  Ce  Ce0  1  0.816484  0.000536  0.500000  1
  Ce  Ce1  1  0.000536  0.816484  0.500000  1
  Sc  Sc2  1  0.333339  0.667657  0.000000  1
  Sc  Sc3  1  0.667657  0.333339  0.000000  1
  Sc  Sc4  1  0.189890  0.189890  0.500000  1
  Nb  Nb5  1  0.451357  0.001248  0.000000  1
  Nb  Nb6  1  0.001248  0.451357  0.000000  1
  Nb  Nb7  1  0.545964  0.545964  0.000000  1
  P  P8  1  0.179291  0.004934  0.000000  1
  P  P9  1  0.004934  0.179291  0.000000  1
  P  P10  1  0.819957  0.819957  0.000000  1
  P  P11  1  0.169244  0.485757  0.500000  1
  P  P12  1  0.513216  0.683470  0.500000  1
  P  P13  1  0.314941  0.831363  0.500000  1
  P  P14  1  0.683470  0.513216  0.500000  1
  P  P15  1  0.831363  0.314941  0.500000  1
  P  P16  1  0.485757  0.169244  0.500000  1
  P  P17  1  0.639423  0.000419  0.000000  1
  P  P18  1  0.000419  0.639423  0.000000  1
  P  P19  1  0.356297  0.356297  0.000000  1
  Ir  Ir20  1  0.354816  0.493320  0.500000  1
  Ir  Ir21  1  0.505980  0.862837  0.500000  1
  Ir  Ir22  1  0.136191  0.644755  0.500000  1
  Ir  Ir23  1  0.862837  0.505980  0.500000  1
  Ir  Ir24  1  0.644755  0.136191  0.500000  1
  Ir  Ir25  1  0.493320  0.354816  0.500000  1
  Ir  Ir26  1  0.179574  0.369971  0.000000  1
  Ir  Ir27  1  0.625073  0.804022  0.000000  1
  Ir  Ir28  1  0.196523  0.822921  0.000000  1
  Ir  Ir29  1  0.804022  0.625073  0.000000  1
  Ir  Ir30  1  0.822921  0.196523  0.000000  1
  Ir  Ir31  1  0.369971  0.179574  0.000000  1
  Ir  Ir32  1  0.283713  0.001984  0.500000  1
  Ir  Ir33  1  0.001984  0.283713  0.500000  1
  Ir  Ir34  1  0.713984  0.713984  0.500000  1
  Ir  Ir35  1  0.999546  0.999546  0.000000  1
