# generated using pymatgen
data_Dy7Th7(Ru2Rh)2
_symmetry_space_group_name_H-M   'P 1'
_cell_length_a   9.75911471
_cell_length_b   9.73885051
_cell_length_c   6.37924898
_cell_angle_alpha   89.61735023
_cell_angle_beta   90.11180275
_cell_angle_gamma   119.43044339
_symmetry_Int_Tables_number   1
_chemical_formula_structural   Dy7Th7(Ru2Rh)2
_chemical_formula_sum   'Dy7 Th7 Ru4 Rh2'
_cell_volume   528.04645281
_cell_formula_units_Z   1
loop_
 _symmetry_equiv_pos_site_id
 _symmetry_equiv_pos_as_xyz
  1  'x, y, z'
loop_
 _atom_site_type_symbol
 _atom_site_label
 _atom_site_symmetry_multiplicity
 _atom_site_fract_x
 _atom_site_fract_y
 _atom_site_fract_z
 _atom_site_occupancy
  Dy  Dy0  1  0.126725  0.870732  0.259719  1
  Dy  Dy1  1  0.461685  0.924375  0.547361  1
  Dy  Dy2  1  0.076083  0.540167  0.547840  1
  Dy  Dy3  1  0.463441  0.539056  0.548614  1
  Dy  Dy4  1  0.536469  0.074380  0.045634  1
  Dy  Dy5  1  0.922985  0.463375  0.047862  1
  Dy  Dy6  1  0.537234  0.463295  0.046265  1
  Th  Th7  1  0.669389  0.336389  0.524718  1
  Th  Th8  1  0.332144  0.667129  0.018032  1
  Th  Th9  1  0.876697  0.750079  0.758874  1
  Th  Th10  1  0.250034  0.123754  0.760278  1
  Th  Th11  1  0.872831  0.126901  0.763797  1
  Th  Th12  1  0.130538  0.257412  0.257181  1
  Th  Th13  1  0.747142  0.866852  0.259935  1
  Ru  Ru14  1  0.184172  0.363504  0.800036  1
  Ru  Ru15  1  0.634489  0.815692  0.802165  1
  Ru  Ru16  1  0.184998  0.818696  0.791986  1
  Ru  Ru17  1  0.802148  0.622676  0.306104  1
  Rh  Rh18  1  0.376125  0.193489  0.301820  1
  Rh  Rh19  1  0.814672  0.182049  0.293216  1
