# generated using pymatgen
data_HoTh3(Ni2Ag)2
_symmetry_space_group_name_H-M   'P 1'
_cell_length_a   7.43460203
_cell_length_b   7.43460240
_cell_length_c   3.69162300
_cell_angle_alpha   90.00000000
_cell_angle_beta   90.00000000
_cell_angle_gamma   90.86948015
_symmetry_Int_Tables_number   1
_chemical_formula_structural   HoTh3(Ni2Ag)2
_chemical_formula_sum   'Ho1 Th3 Ni4 Ag2'
_cell_volume   204.02472813
_cell_formula_units_Z   1
loop_
 _symmetry_equiv_pos_site_id
 _symmetry_equiv_pos_as_xyz
  1  'x, y, z'
loop_
 _atom_site_type_symbol
 _atom_site_label
 _atom_site_symmetry_multiplicity
 _atom_site_fract_x
 _atom_site_fract_y
 _atom_site_fract_z
 _atom_site_occupancy
  Ho  Ho0  1  0.825720  0.674280  0.500000  1
  Th  Th1  1  0.675631  0.174756  0.500000  1
  Th  Th2  1  0.325244  0.824369  0.500000  1
  Th  Th3  1  0.172673  0.327327  0.500000  1
  Ni  Ni4  1  0.879031  0.374318  0.000000  1
  Ni  Ni5  1  0.125682  0.620969  0.000000  1
  Ni  Ni6  1  0.374924  0.125076  0.000000  1
  Ni  Ni7  1  0.618476  0.881524  0.000000  1
  Ag  Ag8  1  0.509127  0.506508  0.000000  1
  Ag  Ag9  1  0.993492  0.990873  0.000000  1
