# generated using pymatgen
data_Cr3FeP8(PbO7)4
_symmetry_space_group_name_H-M   'P 1'
_cell_length_a   8.49422533
_cell_length_b   5.52708512
_cell_length_c   14.06125935
_cell_angle_alpha   66.82715981
_cell_angle_beta   90.06364981
_cell_angle_gamma   90.12393695
_symmetry_Int_Tables_number   1
_chemical_formula_structural   Cr3FeP8(PbO7)4
_chemical_formula_sum   'Cr3 Fe1 P8 Pb4 O28'
_cell_volume   606.89108452
_cell_formula_units_Z   1
loop_
 _symmetry_equiv_pos_site_id
 _symmetry_equiv_pos_as_xyz
  1  'x, y, z'
loop_
 _atom_site_type_symbol
 _atom_site_label
 _atom_site_symmetry_multiplicity
 _atom_site_fract_x
 _atom_site_fract_y
 _atom_site_fract_z
 _atom_site_occupancy
  Cr  Cr0  1  0.355617  0.901844  0.890743  1
  Cr  Cr1  1  0.854724  0.096907  0.609288  1
  Cr  Cr2  1  0.644246  0.098279  0.109231  1
  Fe  Fe3  1  0.148712  0.924349  0.395168  1
  P  P4  1  0.537490  0.916165  0.335395  1
  P  P5  1  0.297734  0.298472  0.015799  1
  P  P6  1  0.201008  0.293568  0.517556  1
  P  P7  1  0.461468  0.082057  0.664829  1
  P  P8  1  0.961097  0.916137  0.835621  1
  P  P9  1  0.701225  0.701239  0.983768  1
  P  P10  1  0.039481  0.086556  0.164998  1
  P  P11  1  0.800050  0.701024  0.482850  1
  Pb  Pb12  1  0.676743  0.435949  0.774561  1
  Pb  Pb13  1  0.822434  0.437519  0.273535  1
  Pb  Pb14  1  0.322302  0.568592  0.222416  1
  Pb  Pb15  1  0.176485  0.562043  0.725865  1
  O  O16  1  0.561905  0.214707  0.296865  1
  O  O17  1  0.598940  0.923654  0.906874  1
  O  O18  1  0.120755  0.207351  0.234523  1
  O  O19  1  0.098366  0.072928  0.595166  1
  O  O20  1  0.866085  0.166259  0.152007  1
  O  O21  1  0.063709  0.787889  0.204615  1
  O  O22  1  0.633948  0.166433  0.651894  1
  O  O23  1  0.617570  0.804035  0.262205  1
  O  O24  1  0.903504  0.921618  0.405780  1
  O  O25  1  0.364198  0.834506  0.349243  1
  O  O26  1  0.116067  0.218157  0.050850  1
  O  O27  1  0.669585  0.436340  0.974507  1
  O  O28  1  0.192751  0.291805  0.408573  1
  O  O29  1  0.617579  0.779327  0.447764  1
  O  O30  1  0.438028  0.783319  0.703569  1
  O  O31  1  0.879052  0.803883  0.763056  1
  O  O32  1  0.807619  0.691911  0.592776  1
  O  O33  1  0.379966  0.194847  0.737199  1
  O  O34  1  0.830323  0.434779  0.474557  1
  O  O35  1  0.170840  0.560605  0.523549  1
  O  O36  1  0.937868  0.214715  0.797334  1
  O  O37  1  0.883474  0.779860  0.948674  1
  O  O38  1  0.400851  0.076468  0.092243  1
  O  O39  1  0.329636  0.563431  0.025233  1
  O  O40  1  0.693306  0.690887  0.093710  1
  O  O41  1  0.306085  0.310136  0.905599  1
  O  O42  1  0.383469  0.216417  0.551842  1
  O  O43  1  0.133708  0.833034  0.848167  1
