# generated using pymatgen
data_Gd3Al12(OsPt)2
_symmetry_space_group_name_H-M   'P 1'
_cell_length_a   8.87467952
_cell_length_b   8.87467984
_cell_length_c   9.55427600
_cell_angle_alpha   90.40664704
_cell_angle_beta   89.59335295
_cell_angle_gamma   119.66402843
_symmetry_Int_Tables_number   1
_chemical_formula_structural   Gd3Al12(OsPt)2
_chemical_formula_sum   'Gd6 Al24 Os4 Pt4'
_cell_volume   653.85208450
_cell_formula_units_Z   2
loop_
 _symmetry_equiv_pos_site_id
 _symmetry_equiv_pos_as_xyz
  1  'x, y, z'
loop_
 _atom_site_type_symbol
 _atom_site_label
 _atom_site_symmetry_multiplicity
 _atom_site_fract_x
 _atom_site_fract_y
 _atom_site_fract_z
 _atom_site_occupancy
  Gd  Gd0  1  0.187123  0.381427  0.253001  1
  Gd  Gd1  1  0.812877  0.618573  0.746999  1
  Gd  Gd2  1  0.618573  0.812877  0.253001  1
  Gd  Gd3  1  0.381427  0.187123  0.746999  1
  Gd  Gd4  1  0.190683  0.809317  0.252873  1
  Gd  Gd5  1  0.809317  0.190683  0.747127  1
  Al  Al6  1  0.333324  0.666676  0.033165  1
  Al  Al7  1  0.666676  0.333324  0.966835  1
  Al  Al8  1  0.669282  0.330718  0.524669  1
  Al  Al9  1  0.330718  0.669282  0.475331  1
  Al  Al10  1  0.158080  0.325084  0.575046  1
  Al  Al11  1  0.841920  0.674916  0.424954  1
  Al  Al12  1  0.674916  0.841920  0.575046  1
  Al  Al13  1  0.837689  0.676542  0.078104  1
  Al  Al14  1  0.325084  0.158080  0.424954  1
  Al  Al15  1  0.162311  0.323458  0.921896  1
  Al  Al16  1  0.163994  0.836006  0.575427  1
  Al  Al17  1  0.323458  0.162311  0.078104  1
  Al  Al18  1  0.836006  0.163994  0.424573  1
  Al  Al19  1  0.676542  0.837689  0.921896  1
  Al  Al20  1  0.837166  0.162834  0.078053  1
  Al  Al21  1  0.162834  0.837166  0.921947  1
  Al  Al22  1  0.562412  0.126749  0.252235  1
  Al  Al23  1  0.437588  0.873251  0.747765  1
  Al  Al24  1  0.873251  0.437588  0.252235  1
  Al  Al25  1  0.126749  0.562412  0.747765  1
  Al  Al26  1  0.563214  0.436786  0.249244  1
  Al  Al27  1  0.436786  0.563214  0.750756  1
  Al  Al28  1  0.999094  0.000906  0.250498  1
  Al  Al29  1  0.000906  0.999094  0.749502  1
  Os  Os30  1  0.500000  0.000000  0.500000  1
  Os  Os31  1  0.000000  0.500000  0.500000  1
  Os  Os32  1  0.000000  0.000000  0.000000  1
  Os  Os33  1  0.000000  0.000000  0.500000  1
  Pt  Pt34  1  0.500000  0.000000  0.000000  1
  Pt  Pt35  1  0.000000  0.500000  0.000000  1
  Pt  Pt36  1  0.500000  0.500000  0.000000  1
  Pt  Pt37  1  0.500000  0.500000  0.500000  1
