# generated using pymatgen
data_LaTh(Si4Ni9)2
_symmetry_space_group_name_H-M   'P 1'
_cell_length_a   7.95346404
_cell_length_b   7.95346388
_cell_length_c   7.95346406
_cell_angle_alpha   120.91814861
_cell_angle_beta   120.91814932
_cell_angle_gamma   88.41694384
_symmetry_Int_Tables_number   1
_chemical_formula_structural   LaTh(Si4Ni9)2
_chemical_formula_sum   'La1 Th1 Si8 Ni18'
_cell_volume   350.67501337
_cell_formula_units_Z   1
loop_
 _symmetry_equiv_pos_site_id
 _symmetry_equiv_pos_as_xyz
  1  'x, y, z'
loop_
 _atom_site_type_symbol
 _atom_site_label
 _atom_site_symmetry_multiplicity
 _atom_site_fract_x
 _atom_site_fract_y
 _atom_site_fract_z
 _atom_site_occupancy
  La  La0  1  0.250000  0.250000  0.000000  1
  Th  Th1  1  0.750000  0.750000  0.000000  1
  Si  Si2  1  0.446209  0.946332  0.158916  1
  Si  Si3  1  0.212707  0.712584  0.158916  1
  Si  Si4  1  0.712584  0.553668  0.499877  1
  Si  Si5  1  0.946332  0.787416  0.500123  1
  Si  Si6  1  0.287293  0.446209  0.499877  1
  Si  Si7  1  0.787416  0.287293  0.841084  1
  Si  Si8  1  0.553668  0.053791  0.841084  1
  Si  Si9  1  0.053791  0.212707  0.500123  1
  Ni  Ni10  1  0.569172  0.704401  0.272400  1
  Ni  Ni11  1  0.795599  0.930828  0.727600  1
  Ni  Ni12  1  0.317517  0.815786  0.762639  1
  Ni  Ni13  1  0.815786  0.053147  0.498269  1
  Ni  Ni14  1  0.432001  0.296772  0.727600  1
  Ni  Ni15  1  0.182483  0.945122  0.498269  1
  Ni  Ni16  1  0.446853  0.684214  0.501731  1
  Ni  Ni17  1  0.945122  0.446853  0.762639  1
  Ni  Ni18  1  0.684214  0.182483  0.237361  1
  Ni  Ni19  1  0.053147  0.554878  0.237361  1
  Ni  Ni20  1  0.500000  0.000000  0.500000  1
  Ni  Ni21  1  0.000000  0.500000  0.500000  1
  Ni  Ni22  1  0.296772  0.569172  0.864772  1
  Ni  Ni23  1  0.930828  0.203228  0.135228  1
  Ni  Ni24  1  0.067999  0.795599  0.864772  1
  Ni  Ni25  1  0.203228  0.067999  0.272400  1
  Ni  Ni26  1  0.554878  0.317517  0.501731  1
  Ni  Ni27  1  0.704401  0.432001  0.135228  1
