# generated using pymatgen
data_Dy8SiPI12
_symmetry_space_group_name_H-M   'P 1'
_cell_length_a   4.19582600
_cell_length_b   13.89688840
_cell_length_c   14.68782548
_cell_angle_alpha   90.05144457
_cell_angle_beta   90.00000000
_cell_angle_gamma   90.00000000
_symmetry_Int_Tables_number   1
_chemical_formula_structural   Dy8SiPI12
_chemical_formula_sum   'Dy8 Si1 P1 I12'
_cell_volume   856.43097895
_cell_formula_units_Z   1
loop_
 _symmetry_equiv_pos_site_id
 _symmetry_equiv_pos_as_xyz
  1  'x, y, z'
loop_
 _atom_site_type_symbol
 _atom_site_label
 _atom_site_symmetry_multiplicity
 _atom_site_fract_x
 _atom_site_fract_y
 _atom_site_fract_z
 _atom_site_occupancy
  Dy  Dy0  1  0.500000  0.111976  0.350837  1
  Dy  Dy1  1  0.500000  0.888024  0.649163  1
  Dy  Dy2  1  0.500000  0.615000  0.152963  1
  Dy  Dy3  1  0.500000  0.385000  0.847037  1
  Dy  Dy4  1  0.000000  0.106181  0.571112  1
  Dy  Dy5  1  0.000000  0.893819  0.428888  1
  Dy  Dy6  1  0.000000  0.611837  0.924928  1
  Dy  Dy7  1  0.000000  0.388163  0.075072  1
  Si  Si8  1  0.500000  0.500000  0.000000  1
  P  P9  1  0.500000  0.000000  0.500000  1
  I  I10  1  0.500000  0.244242  0.162952  1
  I  I11  1  0.500000  0.755758  0.837048  1
  I  I12  1  0.500000  0.747330  0.339933  1
  I  I13  1  0.500000  0.252670  0.660067  1
  I  I14  1  0.000000  0.258186  0.415173  1
  I  I15  1  0.000000  0.741814  0.584827  1
  I  I16  1  0.000000  0.760293  0.085355  1
  I  I17  1  0.000000  0.239707  0.914645  1
  I  I18  1  0.000000  0.999013  0.241265  1
  I  I19  1  0.000000  0.000987  0.758735  1
  I  I20  1  0.000000  0.499256  0.261006  1
  I  I21  1  0.000000  0.500744  0.738994  1
