# generated using pymatgen
data_TbEr4AlPd4
_symmetry_space_group_name_H-M   'P 1'
_cell_length_a   7.74539900
_cell_length_b   7.74539900
_cell_length_c   3.69533600
_cell_angle_alpha   90.00000000
_cell_angle_beta   90.00000000
_cell_angle_gamma   90.00000000
_symmetry_Int_Tables_number   1
_chemical_formula_structural   TbEr4AlPd4
_chemical_formula_sum   'Tb1 Er4 Al1 Pd4'
_cell_volume   221.68766199
_cell_formula_units_Z   1
loop_
 _symmetry_equiv_pos_site_id
 _symmetry_equiv_pos_as_xyz
  1  'x, y, z'
loop_
 _atom_site_type_symbol
 _atom_site_label
 _atom_site_symmetry_multiplicity
 _atom_site_fract_x
 _atom_site_fract_y
 _atom_site_fract_z
 _atom_site_occupancy
  Tb  Tb0  1  0.000000  0.000000  0.000000  1
  Er  Er1  1  0.361005  0.810487  0.500000  1
  Er  Er2  1  0.810487  0.638995  0.500000  1
  Er  Er3  1  0.189513  0.361005  0.500000  1
  Er  Er4  1  0.638995  0.189513  0.500000  1
  Al  Al5  1  0.500000  0.500000  0.000000  1
  Pd  Pd6  1  0.359255  0.125880  0.000000  1
  Pd  Pd7  1  0.874120  0.359255  0.000000  1
  Pd  Pd8  1  0.125880  0.640745  0.000000  1
  Pd  Pd9  1  0.640745  0.874120  0.000000  1
