# generated using pymatgen
data_Er2TmGaSn3Ir2
_symmetry_space_group_name_H-M   'P 1'
_cell_length_a   7.40259265
_cell_length_b   7.39974907
_cell_length_c   4.08592900
_cell_angle_alpha   90.00000000
_cell_angle_beta   90.00000000
_cell_angle_gamma   120.06084019
_symmetry_Int_Tables_number   1
_chemical_formula_structural   Er2TmGaSn3Ir2
_chemical_formula_sum   'Er2 Tm1 Ga1 Sn3 Ir2'
_cell_volume   193.71163822
_cell_formula_units_Z   1
loop_
 _symmetry_equiv_pos_site_id
 _symmetry_equiv_pos_as_xyz
  1  'x, y, z'
loop_
 _atom_site_type_symbol
 _atom_site_label
 _atom_site_symmetry_multiplicity
 _atom_site_fract_x
 _atom_site_fract_y
 _atom_site_fract_z
 _atom_site_occupancy
  Er  Er0  1  0.985008  0.395328  0.500000  1
  Er  Er1  1  0.604669  0.589810  0.500000  1
  Tm  Tm2  1  0.410093  0.015202  0.500000  1
  Ga  Ga3  1  0.333477  0.667237  0.000000  1
  Sn  Sn4  1  0.996430  0.743316  0.000000  1
  Sn  Sn5  1  0.257032  0.253005  0.000000  1
  Sn  Sn6  1  0.746609  0.003633  0.000000  1
  Ir  Ir7  1  0.665983  0.332435  0.000000  1
  Ir  Ir8  1  0.000699  0.000035  0.500000  1
