# generated using pymatgen
data_SmAgAuO4
_symmetry_space_group_name_H-M   'P 1'
_cell_length_a   6.78127198
_cell_length_b   6.78127191
_cell_length_c   6.63258847
_cell_angle_alpha   124.96053592
_cell_angle_beta   126.50904729
_cell_angle_gamma   81.81592293
_symmetry_Int_Tables_number   1
_chemical_formula_structural   SmAgAuO4
_chemical_formula_sum   'Sm2 Ag2 Au2 O8'
_cell_volume   191.56770345
_cell_formula_units_Z   2
loop_
 _symmetry_equiv_pos_site_id
 _symmetry_equiv_pos_as_xyz
  1  'x, y, z'
loop_
 _atom_site_type_symbol
 _atom_site_label
 _atom_site_symmetry_multiplicity
 _atom_site_fract_x
 _atom_site_fract_y
 _atom_site_fract_z
 _atom_site_occupancy
  Sm  Sm0  1  0.000254  0.000254  0.000000  1
  Sm  Sm1  1  0.749746  0.249746  0.500000  1
  Ag  Ag2  1  0.875000  0.625000  0.250000  1
  Ag  Ag3  1  0.375000  0.625000  0.750000  1
  Au  Au4  1  0.375000  0.125000  0.750000  1
  Au  Au5  1  0.375000  0.625000  0.250000  1
  O  O6  1  0.339449  0.008668  0.954726  1
  O  O7  1  0.053942  0.384722  0.045274  1
  O  O8  1  0.696058  0.865278  0.454726  1
  O  O9  1  0.410551  0.241332  0.545274  1
  O  O10  1  0.129269  0.613892  0.860822  1
  O  O11  1  0.753069  0.268446  0.139178  1
  O  O12  1  0.620731  0.636108  0.639178  1
  O  O13  1  0.996931  0.981554  0.360822  1
