# generated using pymatgen
data_Tb2DyCd3IrAu2
_symmetry_space_group_name_H-M   'P 1'
_cell_length_a   7.89791925
_cell_length_b   7.89710074
_cell_length_c   3.79736800
_cell_angle_alpha   90.00000000
_cell_angle_beta   90.00000000
_cell_angle_gamma   119.97445166
_symmetry_Int_Tables_number   1
_chemical_formula_structural   Tb2DyCd3IrAu2
_chemical_formula_sum   'Tb2 Dy1 Cd3 Ir1 Au2'
_cell_volume   205.16601985
_cell_formula_units_Z   1
loop_
 _symmetry_equiv_pos_site_id
 _symmetry_equiv_pos_as_xyz
  1  'x, y, z'
loop_
 _atom_site_type_symbol
 _atom_site_label
 _atom_site_symmetry_multiplicity
 _atom_site_fract_x
 _atom_site_fract_y
 _atom_site_fract_z
 _atom_site_occupancy
  Tb  Tb0  1  0.581302  0.971995  0.000000  1
  Tb  Tb1  1  0.028067  0.609315  0.000000  1
  Dy  Dy2  1  0.390541  0.418822  0.000000  1
  Cd  Cd3  1  0.269644  0.004590  0.500000  1
  Cd  Cd4  1  0.995734  0.265216  0.500000  1
  Cd  Cd5  1  0.734668  0.730208  0.500000  1
  Ir  Ir6  1  0.333420  0.666255  0.500000  1
  Au  Au7  1  0.666430  0.333407  0.500000  1
  Au  Au8  1  0.000195  0.000190  0.000000  1
