# generated using pymatgen
data_Er8Tm2CoRu3
_symmetry_space_group_name_H-M   'P 1'
_cell_length_a   6.23904553
_cell_length_b   7.20006173
_cell_length_c   8.34640410
_cell_angle_alpha   96.67960964
_cell_angle_beta   111.75846577
_cell_angle_gamma   90.27628288
_symmetry_Int_Tables_number   1
_chemical_formula_structural   Er8Tm2CoRu3
_chemical_formula_sum   'Er8 Tm2 Co1 Ru3'
_cell_volume   345.38984172
_cell_formula_units_Z   1
loop_
 _symmetry_equiv_pos_site_id
 _symmetry_equiv_pos_as_xyz
  1  'x, y, z'
loop_
 _atom_site_type_symbol
 _atom_site_label
 _atom_site_symmetry_multiplicity
 _atom_site_fract_x
 _atom_site_fract_y
 _atom_site_fract_z
 _atom_site_occupancy
  Er  Er0  1  0.790053  0.088571  0.814480  1
  Er  Er1  1  0.978907  0.415919  0.188857  1
  Er  Er2  1  0.209116  0.916804  0.185000  1
  Er  Er3  1  0.014523  0.583993  0.814527  1
  Er  Er4  1  0.209190  0.186987  0.566192  1
  Er  Er5  1  0.644569  0.315446  0.435321  1
  Er  Er6  1  0.794543  0.814776  0.435923  1
  Er  Er7  1  0.358212  0.680738  0.566660  1
  Tm  Tm8  1  0.420960  0.252911  0.998475  1
  Tm  Tm9  1  0.579874  0.746010  0.997514  1
  Co  Co10  1  0.602883  0.422113  0.776874  1
  Ru  Ru11  1  0.822260  0.075106  0.218542  1
  Ru  Ru12  1  0.397595  0.575375  0.221008  1
  Ru  Ru13  1  0.177314  0.925251  0.780624  1
