# generated using pymatgen
data_Lu4In3Au
_symmetry_space_group_name_H-M   'P 1'
_cell_length_a   3.54091500
_cell_length_b   3.54091500
_cell_length_c   15.75465100
_cell_angle_alpha   90.00000000
_cell_angle_beta   90.00000000
_cell_angle_gamma   90.00000000
_symmetry_Int_Tables_number   1
_chemical_formula_structural   Lu4In3Au
_chemical_formula_sum   'Lu4 In3 Au1'
_cell_volume   197.53305944
_cell_formula_units_Z   1
loop_
 _symmetry_equiv_pos_site_id
 _symmetry_equiv_pos_as_xyz
  1  'x, y, z'
loop_
 _atom_site_type_symbol
 _atom_site_label
 _atom_site_symmetry_multiplicity
 _atom_site_fract_x
 _atom_site_fract_y
 _atom_site_fract_z
 _atom_site_occupancy
  Lu  Lu0  1  0.500000  0.500000  0.109232  1
  Lu  Lu1  1  0.500000  0.500000  0.368982  1
  Lu  Lu2  1  0.500000  0.500000  0.631018  1
  Lu  Lu3  1  0.500000  0.500000  0.890768  1
  In  In4  1  0.000000  0.000000  0.240562  1
  In  In5  1  0.000000  0.000000  0.500000  1
  In  In6  1  0.000000  0.000000  0.759438  1
  Au  Au7  1  0.000000  0.000000  0.000000  1
