# generated using pymatgen
data_CsV(WS3)2
_symmetry_space_group_name_H-M   'P 1'
_cell_length_a   5.50972400
_cell_length_b   5.50972491
_cell_length_c   17.55599900
_cell_angle_alpha   90.00000000
_cell_angle_beta   90.00000000
_cell_angle_gamma   119.99999455
_symmetry_Int_Tables_number   1
_chemical_formula_structural   CsV(WS3)2
_chemical_formula_sum   'Cs2 V2 W4 S12'
_cell_volume   461.54703234
_cell_formula_units_Z   2
loop_
 _symmetry_equiv_pos_site_id
 _symmetry_equiv_pos_as_xyz
  1  'x, y, z'
loop_
 _atom_site_type_symbol
 _atom_site_label
 _atom_site_symmetry_multiplicity
 _atom_site_fract_x
 _atom_site_fract_y
 _atom_site_fract_z
 _atom_site_occupancy
  Cs  Cs0  1  0.000000  0.000000  0.500000  1
  Cs  Cs1  1  0.000000  0.000000  0.000000  1
  V  V2  1  0.666667  0.333333  0.250000  1
  V  V3  1  0.333333  0.666667  0.750000  1
  W  W4  1  0.000000  0.000000  0.250000  1
  W  W5  1  0.000000  0.000000  0.750000  1
  W  W6  1  0.333333  0.666667  0.250000  1
  W  W7  1  0.666667  0.333333  0.750000  1
  S  S8  1  0.342954  0.007422  0.162549  1
  S  S9  1  0.992578  0.335533  0.162549  1
  S  S10  1  0.664467  0.657046  0.162549  1
  S  S11  1  0.335533  0.342954  0.662549  1
  S  S12  1  0.664467  0.657046  0.337451  1
  S  S13  1  0.657046  0.992578  0.662549  1
  S  S14  1  0.007422  0.664467  0.662549  1
  S  S15  1  0.007422  0.664467  0.837451  1
  S  S16  1  0.335533  0.342954  0.837451  1
  S  S17  1  0.992578  0.335533  0.337451  1
  S  S18  1  0.342954  0.007422  0.337451  1
  S  S19  1  0.657046  0.992578  0.837451  1
