# generated using pymatgen
data_SrNi(Sb4Ru)3
_symmetry_space_group_name_H-M   'P 1'
_cell_length_a   8.10674354
_cell_length_b   8.10674320
_cell_length_c   8.10674361
_cell_angle_alpha   109.34492521
_cell_angle_beta   109.34491680
_cell_angle_gamma   109.34491725
_symmetry_Int_Tables_number   1
_chemical_formula_structural   SrNi(Sb4Ru)3
_chemical_formula_sum   'Sr1 Ni1 Sb12 Ru3'
_cell_volume   412.03274869
_cell_formula_units_Z   1
loop_
 _symmetry_equiv_pos_site_id
 _symmetry_equiv_pos_as_xyz
  1  'x, y, z'
loop_
 _atom_site_type_symbol
 _atom_site_label
 _atom_site_symmetry_multiplicity
 _atom_site_fract_x
 _atom_site_fract_y
 _atom_site_fract_z
 _atom_site_occupancy
  Sr  Sr0  1  0.000000  0.000000  0.000000  1
  Ni  Ni1  1  0.500000  0.500000  0.500000  1
  Sb  Sb2  1  0.159584  0.499085  0.342052  1
  Sb  Sb3  1  0.500915  0.657948  0.840416  1
  Sb  Sb4  1  0.339720  0.840958  0.181504  1
  Sb  Sb5  1  0.818496  0.660280  0.159042  1
  Sb  Sb6  1  0.657948  0.840416  0.500915  1
  Sb  Sb7  1  0.181504  0.339720  0.840958  1
  Sb  Sb8  1  0.660280  0.159042  0.818496  1
  Sb  Sb9  1  0.342052  0.159584  0.499085  1
  Sb  Sb10  1  0.499085  0.342052  0.159584  1
  Sb  Sb11  1  0.840416  0.500915  0.657948  1
  Sb  Sb12  1  0.840958  0.181504  0.339720  1
  Sb  Sb13  1  0.159042  0.818496  0.660280  1
  Ru  Ru14  1  0.500000  0.000000  0.000000  1
  Ru  Ru15  1  0.000000  0.500000  0.000000  1
  Ru  Ru16  1  0.000000  0.000000  0.500000  1
