# generated using pymatgen
data_TmLuInNi7B2
_symmetry_space_group_name_H-M   'P 1'
_cell_length_a   4.96599300
_cell_length_b   4.96599230
_cell_length_c   14.21509500
_cell_angle_alpha   90.00000000
_cell_angle_beta   90.00000000
_cell_angle_gamma   120.00001130
_symmetry_Int_Tables_number   1
_chemical_formula_structural   TmLuInNi7B2
_chemical_formula_sum   'Tm2 Lu2 In2 Ni14 B4'
_cell_volume   303.59351738
_cell_formula_units_Z   2
loop_
 _symmetry_equiv_pos_site_id
 _symmetry_equiv_pos_as_xyz
  1  'x, y, z'
loop_
 _atom_site_type_symbol
 _atom_site_label
 _atom_site_symmetry_multiplicity
 _atom_site_fract_x
 _atom_site_fract_y
 _atom_site_fract_z
 _atom_site_occupancy
  Tm  Tm0  1  0.333333  0.666667  0.754706  1
  Tm  Tm1  1  0.666667  0.333333  0.254706  1
  Lu  Lu2  1  0.333333  0.666667  0.531855  1
  Lu  Lu3  1  0.666667  0.333333  0.031855  1
  In  In4  1  0.666667  0.333333  0.469518  1
  In  In5  1  0.333333  0.666667  0.969518  1
  Ni  Ni6  1  0.000000  0.000000  0.998421  1
  Ni  Ni7  1  0.000000  0.000000  0.498421  1
  Ni  Ni8  1  0.166240  0.332481  0.146608  1
  Ni  Ni9  1  0.833760  0.667519  0.646608  1
  Ni  Ni10  1  0.667519  0.833760  0.146608  1
  Ni  Ni11  1  0.166240  0.833760  0.146608  1
  Ni  Ni12  1  0.833760  0.166240  0.646608  1
  Ni  Ni13  1  0.332481  0.166240  0.646608  1
  Ni  Ni14  1  0.833715  0.667429  0.852867  1
  Ni  Ni15  1  0.833715  0.166285  0.852867  1
  Ni  Ni16  1  0.332571  0.166285  0.852867  1
  Ni  Ni17  1  0.667429  0.833715  0.352867  1
  Ni  Ni18  1  0.166285  0.833715  0.352867  1
  Ni  Ni19  1  0.166285  0.332571  0.352867  1
  B  B20  1  0.333333  0.666667  0.249376  1
  B  B21  1  0.666667  0.333333  0.749376  1
  B  B22  1  0.000000  0.000000  0.247698  1
  B  B23  1  0.000000  0.000000  0.747698  1
