# generated using pymatgen
data_PrCoRe(PRh)3
_symmetry_space_group_name_H-M   'P 1'
_cell_length_a   3.90705800
_cell_length_b   10.81097000
_cell_length_c   12.47769600
_cell_angle_alpha   90.00000000
_cell_angle_beta   90.00000000
_cell_angle_gamma   90.00000000
_symmetry_Int_Tables_number   1
_chemical_formula_structural   PrCoRe(PRh)3
_chemical_formula_sum   'Pr4 Co4 Re4 P12 Rh12'
_cell_volume   527.04648474
_cell_formula_units_Z   4
loop_
 _symmetry_equiv_pos_site_id
 _symmetry_equiv_pos_as_xyz
  1  'x, y, z'
loop_
 _atom_site_type_symbol
 _atom_site_label
 _atom_site_symmetry_multiplicity
 _atom_site_fract_x
 _atom_site_fract_y
 _atom_site_fract_z
 _atom_site_occupancy
  Pr  Pr0  1  0.250000  0.584955  0.707711  1
  Pr  Pr1  1  0.250000  0.915045  0.207711  1
  Pr  Pr2  1  0.750000  0.415045  0.292289  1
  Pr  Pr3  1  0.750000  0.084955  0.792289  1
  Co  Co4  1  0.250000  0.462450  0.936422  1
  Co  Co5  1  0.250000  0.037550  0.436422  1
  Co  Co6  1  0.750000  0.537550  0.063578  1
  Co  Co7  1  0.750000  0.962450  0.563578  1
  Re  Re8  1  0.250000  0.707712  0.986019  1
  Re  Re9  1  0.250000  0.792288  0.486019  1
  Re  Re10  1  0.750000  0.292288  0.013981  1
  Re  Re11  1  0.750000  0.207712  0.513981  1
  P  P12  1  0.250000  0.421755  0.105122  1
  P  P13  1  0.250000  0.078245  0.605122  1
  P  P14  1  0.750000  0.578245  0.894878  1
  P  P15  1  0.750000  0.921755  0.394878  1
  P  P16  1  0.250000  0.274033  0.873926  1
  P  P17  1  0.250000  0.225967  0.373926  1
  P  P18  1  0.750000  0.725967  0.126074  1
  P  P19  1  0.750000  0.774033  0.626074  1
  P  P20  1  0.250000  0.602965  0.392254  1
  P  P21  1  0.250000  0.897035  0.892254  1
  P  P22  1  0.750000  0.397035  0.607746  1
  P  P23  1  0.750000  0.102965  0.107746  1
  Rh  Rh24  1  0.250000  0.404413  0.487303  1
  Rh  Rh25  1  0.250000  0.095587  0.987303  1
  Rh  Rh26  1  0.750000  0.595587  0.512697  1
  Rh  Rh27  1  0.750000  0.904413  0.012697  1
  Rh  Rh28  1  0.250000  0.226900  0.178464  1
  Rh  Rh29  1  0.250000  0.273100  0.678464  1
  Rh  Rh30  1  0.750000  0.773100  0.821536  1
  Rh  Rh31  1  0.750000  0.726900  0.321536  1
  Rh  Rh32  1  0.250000  0.887901  0.698291  1
  Rh  Rh33  1  0.250000  0.612099  0.198291  1
  Rh  Rh34  1  0.750000  0.112099  0.301709  1
  Rh  Rh35  1  0.750000  0.387901  0.801709  1
