# generated using pymatgen
data_La5CdOsO12
_symmetry_space_group_name_H-M   'P 1'
_cell_length_a   6.68230233
_cell_length_b   6.91045901
_cell_length_c   6.88785591
_cell_angle_alpha   99.57377500
_cell_angle_beta   98.90305955
_cell_angle_gamma   96.02954381
_symmetry_Int_Tables_number   1
_chemical_formula_structural   La5CdOsO12
_chemical_formula_sum   'La5 Cd1 Os1 O12'
_cell_volume   307.05231869
_cell_formula_units_Z   1
loop_
 _symmetry_equiv_pos_site_id
 _symmetry_equiv_pos_as_xyz
  1  'x, y, z'
loop_
 _atom_site_type_symbol
 _atom_site_label
 _atom_site_symmetry_multiplicity
 _atom_site_fract_x
 _atom_site_fract_y
 _atom_site_fract_z
 _atom_site_occupancy
  La  La0  1  0.388249  0.872285  0.693170  1
  La  La1  1  0.704172  0.395803  0.853938  1
  La  La2  1  0.300629  0.610338  0.131588  1
  La  La3  1  0.602914  0.142021  0.305831  1
  La  La4  1  0.849037  0.676521  0.386419  1
  Cd  Cd5  1  0.170708  0.355186  0.588866  1
  Os  Os6  1  0.995452  0.996981  0.006617  1
  O  O7  1  0.064685  0.266017  0.996492  1
  O  O8  1  0.997243  0.896810  0.741871  1
  O  O9  1  0.424298  0.585098  0.826245  1
  O  O10  1  0.186750  0.623363  0.434610  1
  O  O11  1  0.707557  0.039649  0.937606  1
  O  O12  1  0.426059  0.187302  0.588218  1
  O  O13  1  0.560818  0.831376  0.404365  1
  O  O14  1  0.283473  0.964181  0.063701  1
  O  O15  1  0.843246  0.384226  0.556291  1
  O  O16  1  0.595940  0.433714  0.175009  1
  O  O17  1  0.964658  0.038075  0.271370  1
  O  O18  1  0.934115  0.701054  0.037791  1
