# generated using pymatgen
data_Tm12Th4Mg3Co4Cu
_symmetry_space_group_name_H-M   'P 1'
_cell_length_a   9.49174648
_cell_length_b   9.49174661
_cell_length_c   9.49174653
_cell_angle_alpha   59.86740796
_cell_angle_beta   59.86740899
_cell_angle_gamma   59.86740123
_symmetry_Int_Tables_number   1
_chemical_formula_structural   Tm12Th4Mg3Co4Cu
_chemical_formula_sum   'Tm12 Th4 Mg3 Co4 Cu1'
_cell_volume   602.85761872
_cell_formula_units_Z   1
loop_
 _symmetry_equiv_pos_site_id
 _symmetry_equiv_pos_as_xyz
  1  'x, y, z'
loop_
 _atom_site_type_symbol
 _atom_site_label
 _atom_site_symmetry_multiplicity
 _atom_site_fract_x
 _atom_site_fract_y
 _atom_site_fract_z
 _atom_site_occupancy
  Tm  Tm0  1  0.812901  0.186527  0.186527  1
  Tm  Tm1  1  0.186405  0.813386  0.813386  1
  Tm  Tm2  1  0.186527  0.812901  0.186527  1
  Tm  Tm3  1  0.813386  0.186405  0.813386  1
  Tm  Tm4  1  0.186527  0.186527  0.812901  1
  Tm  Tm5  1  0.813386  0.813386  0.186405  1
  Tm  Tm6  1  0.927135  0.565523  0.565523  1
  Tm  Tm7  1  0.565315  0.934022  0.934022  1
  Tm  Tm8  1  0.565523  0.927135  0.565523  1
  Tm  Tm9  1  0.934022  0.565315  0.934022  1
  Tm  Tm10  1  0.565523  0.565523  0.927135  1
  Tm  Tm11  1  0.934022  0.934022  0.565315  1
  Th  Th12  1  0.345064  0.345064  0.345064  1
  Th  Th13  1  0.346799  0.346799  0.961345  1
  Th  Th14  1  0.346799  0.961345  0.346799  1
  Th  Th15  1  0.961345  0.346799  0.346799  1
  Mg  Mg16  1  0.580562  0.580562  0.263717  1
  Mg  Mg17  1  0.580562  0.263717  0.580562  1
  Mg  Mg18  1  0.263717  0.580562  0.580562  1
  Co  Co19  1  0.143935  0.143935  0.143935  1
  Co  Co20  1  0.143887  0.143887  0.567003  1
  Co  Co21  1  0.143887  0.567003  0.143887  1
  Co  Co22  1  0.567003  0.143887  0.143887  1
  Cu  Cu23  1  0.585770  0.585770  0.585770  1
