# generated using pymatgen
data_Nd2SmNp5H24
_symmetry_space_group_name_H-M   'P 1'
_cell_length_a   6.72379100
_cell_length_b   6.69661000
_cell_length_c   6.68372500
_cell_angle_alpha   90.00000000
_cell_angle_beta   90.00000000
_cell_angle_gamma   90.00000000
_symmetry_Int_Tables_number   1
_chemical_formula_structural   Nd2SmNp5H24
_chemical_formula_sum   'Nd2 Sm1 Np5 H24'
_cell_volume   300.94545251
_cell_formula_units_Z   1
loop_
 _symmetry_equiv_pos_site_id
 _symmetry_equiv_pos_as_xyz
  1  'x, y, z'
loop_
 _atom_site_type_symbol
 _atom_site_label
 _atom_site_symmetry_multiplicity
 _atom_site_fract_x
 _atom_site_fract_y
 _atom_site_fract_z
 _atom_site_occupancy
  Nd  Nd0  1  0.250132  0.000000  0.500000  1
  Nd  Nd1  1  0.749868  0.000000  0.500000  1
  Sm  Sm2  1  0.500000  0.500000  0.500000  1
  Np  Np3  1  0.000000  0.000000  0.000000  1
  Np  Np4  1  0.000000  0.500000  0.249616  1
  Np  Np5  1  0.000000  0.500000  0.750384  1
  Np  Np6  1  0.500000  0.749700  0.000000  1
  Np  Np7  1  0.500000  0.250300  0.000000  1
  H  H8  1  0.000000  0.159536  0.294036  1
  H  H9  1  0.500000  0.198888  0.662726  1
  H  H10  1  0.500000  0.801112  0.337274  1
  H  H11  1  0.813897  0.650311  0.500000  1
  H  H12  1  0.186103  0.650311  0.500000  1
  H  H13  1  0.342512  0.500000  0.809686  1
  H  H14  1  0.657488  0.500000  0.809686  1
  H  H15  1  0.306745  0.000000  0.148124  1
  H  H16  1  0.155039  0.302999  0.000000  1
  H  H17  1  0.844961  0.697001  0.000000  1
  H  H18  1  0.306745  0.000000  0.851876  1
  H  H19  1  0.844961  0.302999  0.000000  1
  H  H20  1  0.693255  0.000000  0.148124  1
  H  H21  1  0.693255  0.000000  0.851876  1
  H  H22  1  0.155039  0.697001  0.000000  1
  H  H23  1  0.000000  0.840464  0.705964  1
  H  H24  1  0.000000  0.159536  0.705964  1
  H  H25  1  0.000000  0.840464  0.294036  1
  H  H26  1  0.657488  0.500000  0.190314  1
  H  H27  1  0.342512  0.500000  0.190314  1
  H  H28  1  0.813897  0.349689  0.500000  1
  H  H29  1  0.186103  0.349689  0.500000  1
  H  H30  1  0.500000  0.801112  0.662726  1
  H  H31  1  0.500000  0.198888  0.337274  1
