# generated using pymatgen
data_AcTb2(GaNi2)2
_symmetry_space_group_name_H-M   'P 1'
_cell_length_a   5.51533070
_cell_length_b   5.51533194
_cell_length_c   8.08043539
_cell_angle_alpha   81.91619627
_cell_angle_beta   81.91619391
_cell_angle_gamma   44.32713855
_symmetry_Int_Tables_number   1
_chemical_formula_structural   AcTb2(GaNi2)2
_chemical_formula_sum   'Ac1 Tb2 Ga2 Ni4'
_cell_volume   169.76076515
_cell_formula_units_Z   1
loop_
 _symmetry_equiv_pos_site_id
 _symmetry_equiv_pos_as_xyz
  1  'x, y, z'
loop_
 _atom_site_type_symbol
 _atom_site_label
 _atom_site_symmetry_multiplicity
 _atom_site_fract_x
 _atom_site_fract_y
 _atom_site_fract_z
 _atom_site_occupancy
  Ac  Ac0  1  0.000000  0.000000  0.000000  1
  Tb  Tb1  1  0.375884  0.375884  0.388149  1
  Tb  Tb2  1  0.624116  0.624116  0.611851  1
  Ga  Ga3  1  0.321433  0.321433  0.774978  1
  Ga  Ga4  1  0.678567  0.678567  0.225022  1
  Ni  Ni5  1  0.737048  0.737048  0.909787  1
  Ni  Ni6  1  0.086851  0.086851  0.370621  1
  Ni  Ni7  1  0.913149  0.913149  0.629379  1
  Ni  Ni8  1  0.262952  0.262952  0.090213  1
