# generated using pymatgen
data_CaLa5(NdRu)4
_symmetry_space_group_name_H-M   'P 1'
_cell_length_a   9.08268522
_cell_length_b   9.01146951
_cell_length_c   7.38616611
_cell_angle_alpha   84.18989985
_cell_angle_beta   84.69972214
_cell_angle_gamma   43.38726106
_symmetry_Int_Tables_number   1
_chemical_formula_structural   CaLa5(NdRu)4
_chemical_formula_sum   'Ca1 La5 Nd4 Ru4'
_cell_volume   412.98813324
_cell_formula_units_Z   1
loop_
 _symmetry_equiv_pos_site_id
 _symmetry_equiv_pos_as_xyz
  1  'x, y, z'
loop_
 _atom_site_type_symbol
 _atom_site_label
 _atom_site_symmetry_multiplicity
 _atom_site_fract_x
 _atom_site_fract_y
 _atom_site_fract_z
 _atom_site_occupancy
  Ca  Ca0  1  0.789945  0.639407  0.684862  1
  La  La1  1  0.013181  0.799478  0.906479  1
  La  La2  1  0.205802  0.984341  0.596317  1
  La  La3  1  0.987061  0.207640  0.094682  1
  La  La4  1  0.807333  0.008191  0.406586  1
  La  La5  1  0.362398  0.214696  0.821723  1
  Nd  Nd6  1  0.635056  0.789891  0.185747  1
  Nd  Nd7  1  0.206442  0.365729  0.320296  1
  Nd  Nd8  1  0.575671  0.429962  0.749609  1
  Nd  Nd9  1  0.429714  0.568328  0.247842  1
  Ru  Ru10  1  0.177016  0.615752  0.583979  1
  Ru  Ru11  1  0.372241  0.842396  0.918714  1
  Ru  Ru12  1  0.838265  0.371515  0.403817  1
  Ru  Ru13  1  0.599875  0.162675  0.079349  1
