# generated using pymatgen
data_Hf6Mn6Co16W
_symmetry_space_group_name_H-M   'P 1'
_cell_length_a   8.14872177
_cell_length_b   8.14872245
_cell_length_c   8.14872200
_cell_angle_alpha   60.00000183
_cell_angle_beta   59.99999908
_cell_angle_gamma   59.99999745
_symmetry_Int_Tables_number   1
_chemical_formula_structural   Hf6Mn6Co16W
_chemical_formula_sum   'Hf6 Mn6 Co16 W1'
_cell_volume   382.60753100
_cell_formula_units_Z   1
loop_
 _symmetry_equiv_pos_site_id
 _symmetry_equiv_pos_as_xyz
  1  'x, y, z'
loop_
 _atom_site_type_symbol
 _atom_site_label
 _atom_site_symmetry_multiplicity
 _atom_site_fract_x
 _atom_site_fract_y
 _atom_site_fract_z
 _atom_site_occupancy
  Hf  Hf0  1  0.208592  0.791408  0.791408  1
  Hf  Hf1  1  0.791408  0.791408  0.208592  1
  Hf  Hf2  1  0.791408  0.208592  0.208592  1
  Hf  Hf3  1  0.208592  0.208592  0.791408  1
  Hf  Hf4  1  0.791408  0.208592  0.791408  1
  Hf  Hf5  1  0.208592  0.791408  0.208592  1
  Mn  Mn6  1  0.500000  0.000000  0.500000  1
  Mn  Mn7  1  0.500000  0.500000  0.000000  1
  Mn  Mn8  1  0.000000  0.000000  0.500000  1
  Mn  Mn9  1  0.000000  0.500000  0.000000  1
  Mn  Mn10  1  0.000000  0.500000  0.500000  1
  Mn  Mn11  1  0.500000  0.000000  0.000000  1
  Co  Co12  1  0.621897  0.621897  0.134310  1
  Co  Co13  1  0.173829  0.478512  0.173829  1
  Co  Co14  1  0.865690  0.378103  0.378103  1
  Co  Co15  1  0.521488  0.826171  0.826171  1
  Co  Co16  1  0.478512  0.173829  0.173829  1
  Co  Co17  1  0.826171  0.826171  0.521488  1
  Co  Co18  1  0.173829  0.173829  0.478512  1
  Co  Co19  1  0.134310  0.621897  0.621897  1
  Co  Co20  1  0.173829  0.173829  0.173829  1
  Co  Co21  1  0.378103  0.378103  0.865690  1
  Co  Co22  1  0.621897  0.621897  0.621897  1
  Co  Co23  1  0.378103  0.865690  0.378103  1
  Co  Co24  1  0.378103  0.378103  0.378103  1
  Co  Co25  1  0.826171  0.826171  0.826171  1
  Co  Co26  1  0.621897  0.134310  0.621897  1
  Co  Co27  1  0.826171  0.521488  0.826171  1
  W  W28  1  0.500000  0.500000  0.500000  1
