# generated using pymatgen
data_Tb2HoZn(Ga4Pd)2
_symmetry_space_group_name_H-M   'P 1'
_cell_length_a   8.15168617
_cell_length_b   8.15168524
_cell_length_c   8.15168541
_cell_angle_alpha   149.23066055
_cell_angle_beta   109.16434489
_cell_angle_gamma   79.19232929
_symmetry_Int_Tables_number   1
_chemical_formula_structural   Tb2HoZn(Ga4Pd)2
_chemical_formula_sum   'Tb2 Ho1 Zn1 Ga8 Pd2'
_cell_volume   256.69660962
_cell_formula_units_Z   1
loop_
 _symmetry_equiv_pos_site_id
 _symmetry_equiv_pos_as_xyz
  1  'x, y, z'
loop_
 _atom_site_type_symbol
 _atom_site_label
 _atom_site_symmetry_multiplicity
 _atom_site_fract_x
 _atom_site_fract_y
 _atom_site_fract_z
 _atom_site_occupancy
  Tb  Tb0  1  0.500432  0.500432  0.000000  1
  Tb  Tb1  1  0.200888  0.200888  0.000000  1
  Ho  Ho2  1  0.799597  0.799597  0.000000  1
  Zn  Zn3  1  0.999830  0.499830  0.500000  1
  Ga  Ga4  1  0.648835  0.364050  0.284785  1
  Ga  Ga5  1  0.351339  0.635715  0.715625  1
  Ga  Ga6  1  0.079265  0.364050  0.715215  1
  Ga  Ga7  1  0.920090  0.635715  0.284375  1
  Ga  Ga8  1  0.522495  0.157212  0.365283  1
  Ga  Ga9  1  0.477674  0.843192  0.634482  1
  Ga  Ga10  1  0.791929  0.157212  0.634717  1
  Ga  Ga11  1  0.208710  0.843192  0.365518  1
  Pd  Pd12  1  0.184091  0.999457  0.184633  1
  Pd  Pd13  1  0.814824  0.999457  0.815367  1
