# generated using pymatgen
data_Dy8Tl3Rh
_symmetry_space_group_name_H-M   'P 1'
_cell_length_a   10.39959600
_cell_length_b   10.39959672
_cell_length_c   7.14156500
_cell_angle_alpha   90.00000000
_cell_angle_beta   90.00000000
_cell_angle_gamma   120.00001044
_symmetry_Int_Tables_number   1
_chemical_formula_structural   Dy8Tl3Rh
_chemical_formula_sum   'Dy16 Tl6 Rh2'
_cell_volume   668.89345420
_cell_formula_units_Z   2
loop_
 _symmetry_equiv_pos_site_id
 _symmetry_equiv_pos_as_xyz
  1  'x, y, z'
loop_
 _atom_site_type_symbol
 _atom_site_label
 _atom_site_symmetry_multiplicity
 _atom_site_fract_x
 _atom_site_fract_y
 _atom_site_fract_z
 _atom_site_occupancy
  Dy  Dy0  1  0.535597  0.071193  0.515989  1
  Dy  Dy1  1  0.928807  0.464403  0.515989  1
  Dy  Dy2  1  0.535597  0.464403  0.515989  1
  Dy  Dy3  1  0.464403  0.928807  0.015989  1
  Dy  Dy4  1  0.071193  0.535597  0.015989  1
  Dy  Dy5  1  0.464403  0.535597  0.015989  1
  Dy  Dy6  1  0.175785  0.351569  0.716525  1
  Dy  Dy7  1  0.648431  0.824215  0.716525  1
  Dy  Dy8  1  0.175785  0.824215  0.716525  1
  Dy  Dy9  1  0.824215  0.648431  0.216525  1
  Dy  Dy10  1  0.351569  0.175785  0.216525  1
  Dy  Dy11  1  0.824215  0.175785  0.216525  1
  Dy  Dy12  1  0.666667  0.333333  0.897042  1
  Dy  Dy13  1  0.333333  0.666667  0.397042  1
  Dy  Dy14  1  0.000000  0.000000  0.497631  1
  Dy  Dy15  1  0.000000  0.000000  0.997631  1
  Tl  Tl16  1  0.836542  0.673084  0.765644  1
  Tl  Tl17  1  0.326916  0.163458  0.765644  1
  Tl  Tl18  1  0.836542  0.163458  0.765644  1
  Tl  Tl19  1  0.163458  0.326916  0.265644  1
  Tl  Tl20  1  0.673084  0.836542  0.265644  1
  Tl  Tl21  1  0.163458  0.836542  0.265644  1
  Rh  Rh22  1  0.666667  0.333333  0.282953  1
  Rh  Rh23  1  0.333333  0.666667  0.782953  1
