# generated using pymatgen
data_YEr2Al12Os3Pt
_symmetry_space_group_name_H-M   'P 1'
_cell_length_a   8.80896400
_cell_length_b   8.83991259
_cell_length_c   9.54868322
_cell_angle_alpha   89.72298092
_cell_angle_beta   90.00000000
_cell_angle_gamma   119.88425505
_symmetry_Int_Tables_number   1
_chemical_formula_structural   YEr2Al12Os3Pt
_chemical_formula_sum   'Y2 Er4 Al24 Os6 Pt2'
_cell_volume   644.68196056
_cell_formula_units_Z   2
loop_
 _symmetry_equiv_pos_site_id
 _symmetry_equiv_pos_as_xyz
  1  'x, y, z'
loop_
 _atom_site_type_symbol
 _atom_site_label
 _atom_site_symmetry_multiplicity
 _atom_site_fract_x
 _atom_site_fract_y
 _atom_site_fract_z
 _atom_site_occupancy
  Y  Y0  1  0.192935  0.385871  0.252911  1
  Y  Y1  1  0.807065  0.614129  0.747089  1
  Er  Er2  1  0.611760  0.808987  0.253281  1
  Er  Er3  1  0.388240  0.191013  0.746719  1
  Er  Er4  1  0.197225  0.808987  0.253281  1
  Er  Er5  1  0.802775  0.191013  0.746719  1
  Al  Al6  1  0.335811  0.671624  0.027108  1
  Al  Al7  1  0.664189  0.328376  0.972892  1
  Al  Al8  1  0.666622  0.333242  0.522406  1
  Al  Al9  1  0.333378  0.666758  0.477594  1
  Al  Al10  1  0.163389  0.326778  0.576133  1
  Al  Al11  1  0.836611  0.673222  0.423867  1
  Al  Al12  1  0.672280  0.835553  0.576245  1
  Al  Al13  1  0.838426  0.676851  0.079667  1
  Al  Al14  1  0.327720  0.164447  0.423755  1
  Al  Al15  1  0.161574  0.323149  0.920333  1
  Al  Al16  1  0.163273  0.835553  0.576245  1
  Al  Al17  1  0.325721  0.158333  0.077863  1
  Al  Al18  1  0.836727  0.164447  0.423755  1
  Al  Al19  1  0.674279  0.841667  0.922137  1
  Al  Al20  1  0.832612  0.158333  0.077863  1
  Al  Al21  1  0.167388  0.841667  0.922137  1
  Al  Al22  1  0.561740  0.123479  0.248833  1
  Al  Al23  1  0.438260  0.876521  0.751167  1
  Al  Al24  1  0.875269  0.438357  0.251811  1
  Al  Al25  1  0.124731  0.561643  0.748189  1
  Al  Al26  1  0.563088  0.438357  0.251811  1
  Al  Al27  1  0.436912  0.561643  0.748189  1
  Al  Al28  1  0.000719  0.001439  0.250311  1
  Al  Al29  1  0.999281  0.998561  0.749689  1
  Os  Os30  1  0.500000  0.000000  0.000000  1
  Os  Os31  1  0.500000  0.000000  0.500000  1
  Os  Os32  1  0.000000  0.500000  0.500000  1
  Os  Os33  1  0.500000  0.500000  0.500000  1
  Os  Os34  1  0.000000  0.000000  0.000000  1
  Os  Os35  1  0.000000  0.000000  0.500000  1
  Pt  Pt36  1  0.000000  0.500000  0.000000  1
  Pt  Pt37  1  0.500000  0.500000  0.000000  1
