# generated using pymatgen
data_Na(HfS2)2
_symmetry_space_group_name_H-M   'P 1'
_cell_length_a   6.25717600
_cell_length_b   7.21907100
_cell_length_c   14.29970300
_cell_angle_alpha   90.00000000
_cell_angle_beta   90.00000000
_cell_angle_gamma   90.00000000
_symmetry_Int_Tables_number   1
_chemical_formula_structural   Na(HfS2)2
_chemical_formula_sum   'Na4 Hf8 S16'
_cell_volume   645.93185280
_cell_formula_units_Z   4
loop_
 _symmetry_equiv_pos_site_id
 _symmetry_equiv_pos_as_xyz
  1  'x, y, z'
loop_
 _atom_site_type_symbol
 _atom_site_label
 _atom_site_symmetry_multiplicity
 _atom_site_fract_x
 _atom_site_fract_y
 _atom_site_fract_z
 _atom_site_occupancy
  Na  Na0  1  0.330745  0.000000  0.000000  1
  Na  Na1  1  0.669255  0.500000  0.500000  1
  Na  Na2  1  0.024191  0.000000  0.500000  1
  Na  Na3  1  0.975809  0.500000  0.000000  1
  Hf  Hf4  1  0.998701  0.000000  0.247612  1
  Hf  Hf5  1  0.998701  0.000000  0.752388  1
  Hf  Hf6  1  0.001299  0.500000  0.252388  1
  Hf  Hf7  1  0.001299  0.500000  0.747612  1
  Hf  Hf8  1  0.500000  0.250000  0.250000  1
  Hf  Hf9  1  0.500000  0.750000  0.750000  1
  Hf  Hf10  1  0.500000  0.750000  0.250000  1
  Hf  Hf11  1  0.500000  0.250000  0.750000  1
  S  S12  1  0.834141  0.248224  0.355881  1
  S  S13  1  0.834141  0.751776  0.644119  1
  S  S14  1  0.165859  0.748224  0.144119  1
  S  S15  1  0.165859  0.251776  0.855881  1
  S  S16  1  0.165859  0.251776  0.144119  1
  S  S17  1  0.165859  0.748224  0.855881  1
  S  S18  1  0.834141  0.751776  0.355881  1
  S  S19  1  0.834141  0.248224  0.644119  1
  S  S20  1  0.664935  0.000000  0.144755  1
  S  S21  1  0.664935  0.000000  0.855245  1
  S  S22  1  0.335065  0.500000  0.355245  1
  S  S23  1  0.335065  0.500000  0.644755  1
  S  S24  1  0.332445  0.000000  0.353046  1
  S  S25  1  0.332445  0.000000  0.646954  1
  S  S26  1  0.667555  0.500000  0.146954  1
  S  S27  1  0.667555  0.500000  0.853046  1
