# generated using pymatgen
data_Be2Al2VGaO8
_symmetry_space_group_name_H-M   'P 1'
_cell_length_a   4.52031300
_cell_length_b   5.63918000
_cell_length_c   9.89992600
_cell_angle_alpha   90.00000000
_cell_angle_beta   90.00000000
_cell_angle_gamma   90.00000000
_symmetry_Int_Tables_number   1
_chemical_formula_structural   Be2Al2VGaO8
_chemical_formula_sum   'Be4 Al4 V2 Ga2 O16'
_cell_volume   252.35761444
_cell_formula_units_Z   2
loop_
 _symmetry_equiv_pos_site_id
 _symmetry_equiv_pos_as_xyz
  1  'x, y, z'
loop_
 _atom_site_type_symbol
 _atom_site_label
 _atom_site_symmetry_multiplicity
 _atom_site_fract_x
 _atom_site_fract_y
 _atom_site_fract_z
 _atom_site_occupancy
  Be  Be0  1  0.070883  0.250000  0.409181  1
  Be  Be1  1  0.929052  0.750000  0.582739  1
  Be  Be2  1  0.429052  0.250000  0.917261  1
  Be  Be3  1  0.570883  0.750000  0.090819  1
  Al  Al4  1  0.497488  0.498841  0.496064  1
  Al  Al5  1  0.997488  0.501159  0.003936  1
  Al  Al6  1  0.497488  0.001159  0.496064  1
  Al  Al7  1  0.997488  0.998841  0.003936  1
  V  V8  1  0.494528  0.750000  0.768701  1
  V  V9  1  0.994528  0.250000  0.731299  1
  Ga  Ga10  1  0.509822  0.250000  0.224695  1
  Ga  Ga11  1  0.009822  0.750000  0.275305  1
  O  O12  1  0.756139  0.521264  0.655440  1
  O  O13  1  0.256139  0.478736  0.844560  1
  O  O14  1  0.244112  0.019904  0.339818  1
  O  O15  1  0.744112  0.980096  0.160182  1
  O  O16  1  0.256139  0.021264  0.844560  1
  O  O17  1  0.244112  0.480096  0.339818  1
  O  O18  1  0.756139  0.978736  0.655440  1
  O  O19  1  0.744112  0.519904  0.160182  1
  O  O20  1  0.221115  0.750000  0.086520  1
  O  O21  1  0.721115  0.250000  0.413480  1
  O  O22  1  0.777185  0.250000  0.921774  1
  O  O23  1  0.277185  0.750000  0.578226  1
  O  O24  1  0.748267  0.750000  0.434842  1
  O  O25  1  0.248267  0.250000  0.065158  1
  O  O26  1  0.253673  0.250000  0.558410  1
  O  O27  1  0.753673  0.750000  0.941590  1
