# generated using pymatgen
data_SrTbEr2(Pt2O7)2
_symmetry_space_group_name_H-M   'P 1'
_cell_length_a   7.31419975
_cell_length_b   7.33005968
_cell_length_c   7.31419917
_cell_angle_alpha   60.05616138
_cell_angle_beta   59.91293154
_cell_angle_gamma   60.05616163
_symmetry_Int_Tables_number   1
_chemical_formula_structural   SrTbEr2(Pt2O7)2
_chemical_formula_sum   'Sr1 Tb1 Er2 Pt4 O14'
_cell_volume   277.33659670
_cell_formula_units_Z   1
loop_
 _symmetry_equiv_pos_site_id
 _symmetry_equiv_pos_as_xyz
  1  'x, y, z'
loop_
 _atom_site_type_symbol
 _atom_site_label
 _atom_site_symmetry_multiplicity
 _atom_site_fract_x
 _atom_site_fract_y
 _atom_site_fract_z
 _atom_site_occupancy
  Sr  Sr0  1  0.625000  0.125000  0.625000  1
  Tb  Tb1  1  0.625000  0.625000  0.625000  1
  Er  Er2  1  0.625000  0.625000  0.125000  1
  Er  Er3  1  0.125000  0.625000  0.625000  1
  Pt  Pt4  1  0.625000  0.125000  0.125000  1
  Pt  Pt5  1  0.125000  0.125000  0.125000  1
  Pt  Pt6  1  0.125000  0.625000  0.125000  1
  Pt  Pt7  1  0.125000  0.125000  0.625000  1
  O  O8  1  0.037792  0.464357  0.462543  1
  O  O9  1  0.787457  0.785643  0.212208  1
  O  O10  1  0.790790  0.224268  0.194102  1
  O  O11  1  0.759587  0.726947  0.759587  1
  O  O12  1  0.036158  0.464815  0.036158  1
  O  O13  1  0.458523  0.027718  0.458523  1
  O  O14  1  0.055898  0.025732  0.459210  1
  O  O15  1  0.490413  0.523053  0.490413  1
  O  O16  1  0.194102  0.224268  0.790790  1
  O  O17  1  0.213842  0.785185  0.213842  1
  O  O18  1  0.791477  0.222282  0.791477  1
  O  O19  1  0.459210  0.025732  0.055898  1
  O  O20  1  0.462543  0.464357  0.037792  1
  O  O21  1  0.212208  0.785643  0.787457  1
