# generated using pymatgen
data_BeV8NiTe8
_symmetry_space_group_name_H-M   'P 1'
_cell_length_a   4.52085500
_cell_length_b   10.60007500
_cell_length_c   18.33841400
_cell_angle_alpha   90.00000000
_cell_angle_beta   90.00000000
_cell_angle_gamma   90.00000000
_symmetry_Int_Tables_number   1
_chemical_formula_structural   BeV8NiTe8
_chemical_formula_sum   'Be2 V16 Ni2 Te16'
_cell_volume   878.80251051
_cell_formula_units_Z   2
loop_
 _symmetry_equiv_pos_site_id
 _symmetry_equiv_pos_as_xyz
  1  'x, y, z'
loop_
 _atom_site_type_symbol
 _atom_site_label
 _atom_site_symmetry_multiplicity
 _atom_site_fract_x
 _atom_site_fract_y
 _atom_site_fract_z
 _atom_site_occupancy
  Be  Be0  1  0.250121  0.500000  0.500000  1
  Be  Be1  1  0.749879  0.000000  0.000000  1
  V  V2  1  0.490940  0.561300  0.388080  1
  V  V3  1  0.490940  0.438700  0.611920  1
  V  V4  1  0.509060  0.061300  0.111920  1
  V  V5  1  0.509060  0.938700  0.888080  1
  V  V6  1  0.491784  0.695277  0.534545  1
  V  V7  1  0.491784  0.304723  0.465455  1
  V  V8  1  0.508216  0.195277  0.965455  1
  V  V9  1  0.508216  0.804723  0.034545  1
  V  V10  1  0.009288  0.680771  0.444824  1
  V  V11  1  0.009288  0.319229  0.555176  1
  V  V12  1  0.990712  0.180771  0.055176  1
  V  V13  1  0.990712  0.819229  0.944824  1
  V  V14  1  0.008121  0.404866  0.396359  1
  V  V15  1  0.008121  0.595134  0.603641  1
  V  V16  1  0.991879  0.904866  0.103641  1
  V  V17  1  0.991879  0.095134  0.896359  1
  Ni  Ni18  1  0.750373  0.500000  0.500000  1
  Ni  Ni19  1  0.249627  0.000000  0.000000  1
  Te  Te20  1  0.989126  0.839703  0.560573  1
  Te  Te21  1  0.989126  0.160297  0.439427  1
  Te  Te22  1  0.010874  0.339703  0.939427  1
  Te  Te23  1  0.010874  0.660297  0.060573  1
  Te  Te24  1  0.511333  0.335839  0.319015  1
  Te  Te25  1  0.511333  0.664161  0.680985  1
  Te  Te26  1  0.488667  0.835839  0.180985  1
  Te  Te27  1  0.488667  0.164161  0.819015  1
  Te  Te28  1  0.511502  0.815113  0.404117  1
  Te  Te29  1  0.511502  0.184887  0.595883  1
  Te  Te30  1  0.488498  0.315113  0.095883  1
  Te  Te31  1  0.488498  0.684887  0.904117  1
  Te  Te32  1  0.987838  0.604306  0.304265  1
  Te  Te33  1  0.987838  0.395694  0.695735  1
  Te  Te34  1  0.012162  0.104306  0.195735  1
  Te  Te35  1  0.012162  0.895694  0.804265  1
