# generated using pymatgen
data_Li2(HfTe2)5
_symmetry_space_group_name_H-M   'P 1'
_cell_length_a   6.84270333
_cell_length_b   10.56982469
_cell_length_c   8.04582000
_cell_angle_alpha   66.82752670
_cell_angle_beta   64.84706022
_cell_angle_gamma   90.02383885
_symmetry_Int_Tables_number   1
_chemical_formula_structural   Li2(HfTe2)5
_chemical_formula_sum   'Li2 Hf5 Te10'
_cell_volume   474.31668122
_cell_formula_units_Z   1
loop_
 _symmetry_equiv_pos_site_id
 _symmetry_equiv_pos_as_xyz
  1  'x, y, z'
loop_
 _atom_site_type_symbol
 _atom_site_label
 _atom_site_symmetry_multiplicity
 _atom_site_fract_x
 _atom_site_fract_y
 _atom_site_fract_z
 _atom_site_occupancy
  Li  Li0  1  0.797402  0.096117  0.403656  1
  Li  Li1  1  0.002598  0.503883  0.996344  1
  Hf  Hf2  1  0.400000  0.800000  0.200000  1
  Hf  Hf3  1  0.804302  0.601258  0.397085  1
  Hf  Hf4  1  0.190927  0.402480  0.599957  1
  Hf  Hf5  1  0.609073  0.197520  0.800043  1
  Hf  Hf6  1  0.995698  0.998742  0.002915  1
  Te  Te7  1  0.965042  0.848033  0.406633  1
  Te  Te8  1  0.558703  0.050689  0.205974  1
  Te  Te9  1  0.170832  0.250745  0.999428  1
  Te  Te10  1  0.756593  0.451385  0.805374  1
  Te  Te11  1  0.369469  0.652700  0.599531  1
  Te  Te12  1  0.430531  0.947300  0.800469  1
  Te  Te13  1  0.043407  0.148615  0.594626  1
  Te  Te14  1  0.629168  0.349255  0.400572  1
  Te  Te15  1  0.241297  0.549311  0.194026  1
  Te  Te16  1  0.834958  0.751967  0.993367  1
