# generated using pymatgen
data_NdDyCr2(TeO6)2
_symmetry_space_group_name_H-M   'P 1'
_cell_length_a   5.20954814
_cell_length_b   5.20918200
_cell_length_c   10.02345503
_cell_angle_alpha   90.00170523
_cell_angle_beta   90.01159076
_cell_angle_gamma   120.00726414
_symmetry_Int_Tables_number   1
_chemical_formula_structural   NdDyCr2(TeO6)2
_chemical_formula_sum   'Nd1 Dy1 Cr2 Te2 O12'
_cell_volume   235.55149010
_cell_formula_units_Z   1
loop_
 _symmetry_equiv_pos_site_id
 _symmetry_equiv_pos_as_xyz
  1  'x, y, z'
loop_
 _atom_site_type_symbol
 _atom_site_label
 _atom_site_symmetry_multiplicity
 _atom_site_fract_x
 _atom_site_fract_y
 _atom_site_fract_z
 _atom_site_occupancy
  Nd  Nd0  1  0.000001  0.999953  0.499996  1
  Dy  Dy1  1  0.999981  0.999966  0.000000  1
  Cr  Cr2  1  0.666604  0.333765  0.754825  1
  Cr  Cr3  1  0.333366  0.666348  0.245058  1
  Te  Te4  1  0.666708  0.333125  0.244925  1
  Te  Te5  1  0.333299  0.666889  0.755117  1
  O  O6  1  0.637809  0.989293  0.862367  1
  O  O7  1  0.351291  0.362413  0.862379  1
  O  O8  1  0.010922  0.648864  0.862414  1
  O  O9  1  0.362184  0.010708  0.137645  1
  O  O10  1  0.648695  0.637545  0.137618  1
  O  O11  1  0.989116  0.351130  0.137621  1
  O  O12  1  0.365867  0.991494  0.645166  1
  O  O13  1  0.625232  0.634275  0.645114  1
  O  O14  1  0.008708  0.374773  0.645179  1
  O  O15  1  0.634164  0.008540  0.354875  1
  O  O16  1  0.374763  0.365719  0.354873  1
  O  O17  1  0.991293  0.625199  0.354833  1
