# generated using pymatgen
data_KSc2Cu3Se5
_symmetry_space_group_name_H-M   'P 1'
_cell_length_a   4.02895700
_cell_length_b   7.41716672
_cell_length_c   16.32107200
_cell_angle_alpha   90.00000000
_cell_angle_beta   90.00000000
_cell_angle_gamma   74.24069813
_symmetry_Int_Tables_number   1
_chemical_formula_structural   KSc2Cu3Se5
_chemical_formula_sum   'K2 Sc4 Cu6 Se10'
_cell_volume   469.39666831
_cell_formula_units_Z   2
loop_
 _symmetry_equiv_pos_site_id
 _symmetry_equiv_pos_as_xyz
  1  'x, y, z'
loop_
 _atom_site_type_symbol
 _atom_site_label
 _atom_site_symmetry_multiplicity
 _atom_site_fract_x
 _atom_site_fract_y
 _atom_site_fract_z
 _atom_site_occupancy
  K  K0  1  0.938782  0.122437  0.250000  1
  K  K1  1  0.061218  0.877563  0.750000  1
  Sc  Sc2  1  0.190862  0.618274  0.093071  1
  Sc  Sc3  1  0.190862  0.618274  0.406929  1
  Sc  Sc4  1  0.809138  0.381726  0.593071  1
  Sc  Sc5  1  0.809138  0.381726  0.906929  1
  Cu  Cu6  1  0.414986  0.170026  0.032194  1
  Cu  Cu7  1  0.657911  0.684178  0.250000  1
  Cu  Cu8  1  0.414986  0.170026  0.467807  1
  Cu  Cu9  1  0.585014  0.829974  0.532193  1
  Cu  Cu10  1  0.342089  0.315822  0.750000  1
  Cu  Cu11  1  0.585014  0.829974  0.967807  1
  Se  Se12  1  0.826672  0.346655  0.071265  1
  Se  Se13  1  0.562527  0.874948  0.118522  1
  Se  Se14  1  0.251036  0.497927  0.250000  1
  Se  Se15  1  0.562527  0.874948  0.381477  1
  Se  Se16  1  0.826672  0.346655  0.428735  1
  Se  Se17  1  0.173327  0.653345  0.571266  1
  Se  Se18  1  0.437472  0.125053  0.618522  1
  Se  Se19  1  0.748963  0.502074  0.750000  1
  Se  Se20  1  0.437472  0.125053  0.881477  1
  Se  Se21  1  0.173327  0.653345  0.928735  1
