# generated using pymatgen
data_Sr5Sb12Rh19
_symmetry_space_group_name_H-M   'P 1'
_cell_length_a   13.99892400
_cell_length_b   13.99892503
_cell_length_c   4.28035800
_cell_angle_alpha   90.00000000
_cell_angle_beta   90.00000000
_cell_angle_gamma   119.99999756
_symmetry_Int_Tables_number   1
_chemical_formula_structural   Sr5Sb12Rh19
_chemical_formula_sum   'Sr5 Sb12 Rh19'
_cell_volume   726.44055217
_cell_formula_units_Z   1
loop_
 _symmetry_equiv_pos_site_id
 _symmetry_equiv_pos_as_xyz
  1  'x, y, z'
loop_
 _atom_site_type_symbol
 _atom_site_label
 _atom_site_symmetry_multiplicity
 _atom_site_fract_x
 _atom_site_fract_y
 _atom_site_fract_z
 _atom_site_occupancy
  Sr  Sr0  1  0.000000  0.190105  0.500000  1
  Sr  Sr1  1  0.809895  0.809895  0.500000  1
  Sr  Sr2  1  0.190105  0.000000  0.500000  1
  Sr  Sr3  1  0.666667  0.333333  0.000000  1
  Sr  Sr4  1  0.333333  0.666667  0.000000  1
  Sb  Sb5  1  0.480153  0.317340  0.500000  1
  Sb  Sb6  1  0.816760  0.000000  0.000000  1
  Sb  Sb7  1  0.183240  0.183240  0.000000  1
  Sb  Sb8  1  0.000000  0.816760  0.000000  1
  Sb  Sb9  1  0.378741  0.000000  0.000000  1
  Sb  Sb10  1  0.682660  0.162813  0.500000  1
  Sb  Sb11  1  0.837187  0.519847  0.500000  1
  Sb  Sb12  1  0.519847  0.837187  0.500000  1
  Sb  Sb13  1  0.162813  0.682660  0.500000  1
  Sb  Sb14  1  0.317340  0.480153  0.500000  1
  Sb  Sb15  1  0.000000  0.378741  0.000000  1
  Sb  Sb16  1  0.621259  0.621259  0.000000  1
  Rh  Rh17  1  0.806257  0.183364  0.000000  1
  Rh  Rh18  1  0.377107  0.193743  0.000000  1
  Rh  Rh19  1  0.645595  0.519348  0.500000  1
  Rh  Rh20  1  0.873754  0.354405  0.500000  1
  Rh  Rh21  1  0.354405  0.873754  0.500000  1
  Rh  Rh22  1  0.519348  0.645595  0.500000  1
  Rh  Rh23  1  0.126246  0.480652  0.500000  1
  Rh  Rh24  1  0.816636  0.622893  0.000000  1
  Rh  Rh25  1  0.622893  0.816636  0.000000  1
  Rh  Rh26  1  0.183364  0.806257  0.000000  1
  Rh  Rh27  1  0.193743  0.377107  0.000000  1
  Rh  Rh28  1  0.000000  0.716620  0.500000  1
  Rh  Rh29  1  0.283380  0.283380  0.500000  1
  Rh  Rh30  1  0.716620  0.000000  0.500000  1
  Rh  Rh31  1  0.000000  0.566141  0.000000  1
  Rh  Rh32  1  0.433859  0.433859  0.000000  1
  Rh  Rh33  1  0.566141  0.000000  0.000000  1
  Rh  Rh34  1  0.000000  0.000000  0.000000  1
  Rh  Rh35  1  0.480652  0.126246  0.500000  1
