# generated using pymatgen
data_Tb3Y3Ti2(Co4P3)4
_symmetry_space_group_name_H-M   'P 1'
_cell_length_a   3.70778600
_cell_length_b   10.63040400
_cell_length_c   12.32576700
_cell_angle_alpha   89.99982079
_cell_angle_beta   90.00000000
_cell_angle_gamma   90.00000000
_symmetry_Int_Tables_number   1
_chemical_formula_structural   Tb3Y3Ti2(Co4P3)4
_chemical_formula_sum   'Tb3 Y3 Ti2 Co16 P12'
_cell_volume   485.82334953
_cell_formula_units_Z   1
loop_
 _symmetry_equiv_pos_site_id
 _symmetry_equiv_pos_as_xyz
  1  'x, y, z'
loop_
 _atom_site_type_symbol
 _atom_site_label
 _atom_site_symmetry_multiplicity
 _atom_site_fract_x
 _atom_site_fract_y
 _atom_site_fract_z
 _atom_site_occupancy
  Tb  Tb0  1  0.000000  0.500135  0.525087  1
  Tb  Tb1  1  0.500000  0.999903  0.474790  1
  Tb  Tb2  1  0.000000  0.319964  0.795580  1
  Y  Y3  1  0.500000  0.819909  0.204385  1
  Y  Y4  1  0.500000  0.180020  0.204244  1
  Y  Y5  1  0.000000  0.680142  0.795697  1
  Ti  Ti6  1  0.500000  0.500021  0.153429  1
  Ti  Ti7  1  0.000000  0.000006  0.846691  1
  Co  Co8  1  0.500000  0.500035  0.702617  1
  Co  Co9  1  0.000000  0.999958  0.297341  1
  Co  Co10  1  0.000000  0.500063  0.987378  1
  Co  Co11  1  0.500000  0.999939  0.012706  1
  Co  Co12  1  0.500000  0.332276  0.994080  1
  Co  Co13  1  0.500000  0.667804  0.993997  1
  Co  Co14  1  0.000000  0.167629  0.006118  1
  Co  Co15  1  0.000000  0.832338  0.006082  1
  Co  Co16  1  0.500000  0.295751  0.431639  1
  Co  Co17  1  0.500000  0.704247  0.431682  1
  Co  Co18  1  0.000000  0.204221  0.568211  1
  Co  Co19  1  0.000000  0.795706  0.568229  1
  Co  Co20  1  0.500000  0.878657  0.706252  1
  Co  Co21  1  0.500000  0.121210  0.706204  1
  Co  Co22  1  0.000000  0.621394  0.293763  1
  Co  Co23  1  0.000000  0.378696  0.293721  1
  P  P24  1  0.500000  0.500119  0.883533  1
  P  P25  1  0.000000  0.999971  0.116673  1
  P  P26  1  0.500000  0.499989  0.352507  1
  P  P27  1  0.000000  0.000081  0.647534  1
  P  P28  1  0.500000  0.309784  0.615384  1
  P  P29  1  0.500000  0.690106  0.615586  1
  P  P30  1  0.000000  0.190041  0.384368  1
  P  P31  1  0.000000  0.809917  0.384414  1
  P  P32  1  0.500000  0.843076  0.892412  1
  P  P33  1  0.500000  0.156867  0.892587  1
  P  P34  1  0.000000  0.657019  0.107580  1
  P  P35  1  0.000000  0.343006  0.107498  1
