# generated using pymatgen
data_Tm2LuZr(Al3Ir)6
_symmetry_space_group_name_H-M   'P 1'
_cell_length_a   7.51932800
_cell_length_b   7.51260147
_cell_length_c   9.36782200
_cell_angle_alpha   90.00000000
_cell_angle_beta   90.00000000
_cell_angle_gamma   119.60348759
_symmetry_Int_Tables_number   1
_chemical_formula_structural   Tm2LuZr(Al3Ir)6
_chemical_formula_sum   'Tm2 Lu1 Zr1 Al18 Ir6'
_cell_volume   460.10827689
_cell_formula_units_Z   1
loop_
 _symmetry_equiv_pos_site_id
 _symmetry_equiv_pos_as_xyz
  1  'x, y, z'
loop_
 _atom_site_type_symbol
 _atom_site_label
 _atom_site_symmetry_multiplicity
 _atom_site_fract_x
 _atom_site_fract_y
 _atom_site_fract_z
 _atom_site_occupancy
  Tm  Tm0  1  0.005749  0.326940  0.750000  1
  Tm  Tm1  1  0.328364  0.006498  0.750000  1
  Lu  Lu2  1  0.671832  0.995853  0.250000  1
  Zr  Zr3  1  0.997126  0.672666  0.250000  1
  Al  Al4  1  0.125847  0.123866  0.250000  1
  Al  Al5  1  0.870714  0.869827  0.750000  1
  Al  Al6  1  0.999722  0.337276  0.079362  1
  Al  Al7  1  0.999444  0.664713  0.927730  1
  Al  Al8  1  0.999444  0.664713  0.572270  1
  Al  Al9  1  0.333459  0.998461  0.420517  1
  Al  Al10  1  0.999722  0.337276  0.420638  1
  Al  Al11  1  0.664337  0.998593  0.575013  1
  Al  Al12  1  0.664337  0.998593  0.924987  1
  Al  Al13  1  0.333459  0.998461  0.079483  1
  Al  Al14  1  0.333417  0.333574  0.552277  1
  Al  Al15  1  0.668849  0.667344  0.442150  1
  Al  Al16  1  0.668849  0.667344  0.057850  1
  Al  Al17  1  0.333417  0.333574  0.947723  1
  Al  Al18  1  0.336903  0.550301  0.250000  1
  Al  Al19  1  0.660493  0.451385  0.750000  1
  Al  Al20  1  0.555157  0.343666  0.250000  1
  Al  Al21  1  0.450170  0.659502  0.750000  1
  Ir  Ir22  1  0.672388  0.327505  0.000775  1
  Ir  Ir23  1  0.327927  0.672608  0.001418  1
  Ir  Ir24  1  0.327927  0.672608  0.498582  1
  Ir  Ir25  1  0.672388  0.327505  0.499225  1
  Ir  Ir26  1  0.999280  0.999675  0.000738  1
  Ir  Ir27  1  0.999280  0.999675  0.499262  1
