# generated using pymatgen
data_Pr16Hg4IrOs3
_symmetry_space_group_name_H-M   'P 1'
_cell_length_a   9.97673814
_cell_length_b   10.04711902
_cell_length_c   10.03092954
_cell_angle_alpha   59.94625280
_cell_angle_beta   59.72637734
_cell_angle_gamma   59.76561127
_symmetry_Int_Tables_number   1
_chemical_formula_structural   Pr16Hg4IrOs3
_chemical_formula_sum   'Pr16 Hg4 Ir1 Os3'
_cell_volume   707.95026920
_cell_formula_units_Z   1
loop_
 _symmetry_equiv_pos_site_id
 _symmetry_equiv_pos_as_xyz
  1  'x, y, z'
loop_
 _atom_site_type_symbol
 _atom_site_label
 _atom_site_symmetry_multiplicity
 _atom_site_fract_x
 _atom_site_fract_y
 _atom_site_fract_z
 _atom_site_occupancy
  Pr  Pr0  1  0.346189  0.348866  0.347538  1
  Pr  Pr1  1  0.346090  0.348640  0.956630  1
  Pr  Pr2  1  0.346183  0.957425  0.347524  1
  Pr  Pr3  1  0.961053  0.346764  0.345421  1
  Pr  Pr4  1  0.809870  0.191425  0.191880  1
  Pr  Pr5  1  0.191570  0.808458  0.808347  1
  Pr  Pr6  1  0.191763  0.808128  0.191969  1
  Pr  Pr7  1  0.810245  0.191420  0.806918  1
  Pr  Pr8  1  0.191584  0.191615  0.808337  1
  Pr  Pr9  1  0.809903  0.806799  0.191869  1
  Pr  Pr10  1  0.940108  0.559431  0.559954  1
  Pr  Pr11  1  0.557678  0.940035  0.940826  1
  Pr  Pr12  1  0.557797  0.939973  0.562267  1
  Pr  Pr13  1  0.940169  0.559195  0.941454  1
  Pr  Pr14  1  0.557675  0.561459  0.940828  1
  Pr  Pr15  1  0.940125  0.940495  0.559955  1
  Hg  Hg16  1  0.582935  0.582879  0.582900  1
  Hg  Hg17  1  0.582923  0.583082  0.250925  1
  Hg  Hg18  1  0.582946  0.251265  0.582912  1
  Hg  Hg19  1  0.249652  0.583490  0.583380  1
  Ir  Ir20  1  0.581196  0.139715  0.139376  1
  Os  Os21  1  0.140796  0.137947  0.137749  1
  Os  Os22  1  0.140737  0.137979  0.583308  1
  Os  Os23  1  0.140815  0.583513  0.137735  1
