# generated using pymatgen
data_Ho6Zr4(SnSb)3
_symmetry_space_group_name_H-M   'P 1'
_cell_length_a   6.03525400
_cell_length_b   8.85968184
_cell_length_c   8.85970700
_cell_angle_alpha   119.99990353
_cell_angle_beta   90.00014240
_cell_angle_gamma   89.99970892
_symmetry_Int_Tables_number   1
_chemical_formula_structural   Ho6Zr4(SnSb)3
_chemical_formula_sum   'Ho6 Zr4 Sn3 Sb3'
_cell_volume   410.26464436
_cell_formula_units_Z   1
loop_
 _symmetry_equiv_pos_site_id
 _symmetry_equiv_pos_as_xyz
  1  'x, y, z'
loop_
 _atom_site_type_symbol
 _atom_site_label
 _atom_site_symmetry_multiplicity
 _atom_site_fract_x
 _atom_site_fract_y
 _atom_site_fract_z
 _atom_site_occupancy
  Ho  Ho0  1  0.750000  0.243835  0.000000  1
  Ho  Ho1  1  0.749992  0.756166  0.756202  1
  Ho  Ho2  1  0.749992  0.999964  0.243798  1
  Ho  Ho3  1  0.250001  0.754882  0.000000  1
  Ho  Ho4  1  0.249999  0.245100  0.245072  1
  Ho  Ho5  1  0.249999  0.000028  0.754928  1
  Zr  Zr6  1  0.499764  0.333329  0.666672  1
  Zr  Zr7  1  0.499764  0.666657  0.333328  1
  Zr  Zr8  1  0.000239  0.666667  0.333322  1
  Zr  Zr9  1  0.000239  0.333345  0.666678  1
  Sn  Sn10  1  0.750034  0.602502  0.000000  1
  Sn  Sn11  1  0.750002  0.397516  0.397505  1
  Sn  Sn12  1  0.750002  0.000010  0.602495  1
  Sb  Sb13  1  0.249993  0.396309  0.000000  1
  Sb  Sb14  1  0.249992  0.603691  0.603692  1
  Sb  Sb15  1  0.249992  0.999998  0.396308  1
