# generated using pymatgen
data_Pr7Th(CdOs)2
_symmetry_space_group_name_H-M   'P 1'
_cell_length_a   10.02274104
_cell_length_b   10.02273950
_cell_length_c   10.09202610
_cell_angle_alpha   59.71045343
_cell_angle_beta   59.71053700
_cell_angle_gamma   59.58923991
_symmetry_Int_Tables_number   1
_chemical_formula_structural   Pr7Th(CdOs)2
_chemical_formula_sum   'Pr14 Th2 Cd4 Os4'
_cell_volume   711.48782509
_cell_formula_units_Z   2
loop_
 _symmetry_equiv_pos_site_id
 _symmetry_equiv_pos_as_xyz
  1  'x, y, z'
loop_
 _atom_site_type_symbol
 _atom_site_label
 _atom_site_symmetry_multiplicity
 _atom_site_fract_x
 _atom_site_fract_y
 _atom_site_fract_z
 _atom_site_occupancy
  Pr  Pr0  1  0.346235  0.958130  0.347409  1
  Pr  Pr1  1  0.958130  0.346235  0.347409  1
  Pr  Pr2  1  0.808732  0.192142  0.191444  1
  Pr  Pr3  1  0.191628  0.809459  0.807948  1
  Pr  Pr4  1  0.192142  0.808732  0.191444  1
  Pr  Pr5  1  0.809459  0.191628  0.807948  1
  Pr  Pr6  1  0.191942  0.191942  0.808119  1
  Pr  Pr7  1  0.808880  0.808879  0.191014  1
  Pr  Pr8  1  0.941560  0.559136  0.560102  1
  Pr  Pr9  1  0.558804  0.942116  0.940104  1
  Pr  Pr10  1  0.559136  0.941561  0.560101  1
  Pr  Pr11  1  0.942116  0.558804  0.940104  1
  Pr  Pr12  1  0.559714  0.559714  0.940277  1
  Pr  Pr13  1  0.940865  0.940865  0.559183  1
  Th  Th14  1  0.342086  0.342086  0.343372  1
  Th  Th15  1  0.342197  0.342198  0.970690  1
  Cd  Cd16  1  0.578411  0.578411  0.580095  1
  Cd  Cd17  1  0.578682  0.578682  0.261900  1
  Cd  Cd18  1  0.578005  0.261309  0.580181  1
  Cd  Cd19  1  0.261309  0.578005  0.580181  1
  Os  Os20  1  0.144047  0.144048  0.133981  1
  Os  Os21  1  0.144228  0.144228  0.578040  1
  Os  Os22  1  0.148629  0.573055  0.139477  1
  Os  Os23  1  0.573057  0.148630  0.139475  1
