# generated using pymatgen
data_Tb3Ni8P6Ru
_symmetry_space_group_name_H-M   'P 1'
_cell_length_a   3.77297600
_cell_length_b   10.48585300
_cell_length_c   12.37893200
_cell_angle_alpha   90.00000000
_cell_angle_beta   90.00000000
_cell_angle_gamma   90.00000000
_symmetry_Int_Tables_number   1
_chemical_formula_structural   Tb3Ni8P6Ru
_chemical_formula_sum   'Tb6 Ni16 P12 Ru2'
_cell_volume   489.74609860
_cell_formula_units_Z   2
loop_
 _symmetry_equiv_pos_site_id
 _symmetry_equiv_pos_as_xyz
  1  'x, y, z'
loop_
 _atom_site_type_symbol
 _atom_site_label
 _atom_site_symmetry_multiplicity
 _atom_site_fract_x
 _atom_site_fract_y
 _atom_site_fract_z
 _atom_site_occupancy
  Tb  Tb0  1  0.000000  0.500000  0.523270  1
  Tb  Tb1  1  0.500000  0.000000  0.476730  1
  Tb  Tb2  1  0.500000  0.814331  0.207467  1
  Tb  Tb3  1  0.500000  0.185669  0.207467  1
  Tb  Tb4  1  0.000000  0.685669  0.792533  1
  Tb  Tb5  1  0.000000  0.314331  0.792533  1
  Ni  Ni6  1  0.500000  0.500000  0.700539  1
  Ni  Ni7  1  0.000000  0.000000  0.299461  1
  Ni  Ni8  1  0.000000  0.500000  0.981714  1
  Ni  Ni9  1  0.500000  0.000000  0.018286  1
  Ni  Ni10  1  0.500000  0.331120  0.988370  1
  Ni  Ni11  1  0.500000  0.668880  0.988370  1
  Ni  Ni12  1  0.000000  0.168880  0.011630  1
  Ni  Ni13  1  0.000000  0.831120  0.011630  1
  Ni  Ni14  1  0.500000  0.302361  0.429242  1
  Ni  Ni15  1  0.500000  0.697639  0.429242  1
  Ni  Ni16  1  0.000000  0.197639  0.570758  1
  Ni  Ni17  1  0.000000  0.802361  0.570758  1
  Ni  Ni18  1  0.500000  0.879745  0.709630  1
  Ni  Ni19  1  0.500000  0.120255  0.709630  1
  Ni  Ni20  1  0.000000  0.620255  0.290370  1
  Ni  Ni21  1  0.000000  0.379745  0.290370  1
  P  P22  1  0.500000  0.500000  0.876175  1
  P  P23  1  0.000000  0.000000  0.123825  1
  P  P24  1  0.500000  0.500000  0.347616  1
  P  P25  1  0.000000  0.000000  0.652384  1
  P  P26  1  0.500000  0.313288  0.614526  1
  P  P27  1  0.500000  0.686712  0.614526  1
  P  P28  1  0.000000  0.186712  0.385474  1
  P  P29  1  0.000000  0.813288  0.385474  1
  P  P30  1  0.500000  0.850431  0.893090  1
  P  P31  1  0.500000  0.149569  0.893090  1
  P  P32  1  0.000000  0.649569  0.106910  1
  P  P33  1  0.000000  0.350431  0.106910  1
  Ru  Ru34  1  0.500000  0.500000  0.157185  1
  Ru  Ru35  1  0.000000  0.000000  0.842815  1
