# generated using pymatgen
data_Yb2LuPa5(Pt2Pb)4
_symmetry_space_group_name_H-M   'P 1'
_cell_length_a   7.92721629
_cell_length_b   7.92721621
_cell_length_c   7.25225900
_cell_angle_alpha   90.00000000
_cell_angle_beta   90.00000000
_cell_angle_gamma   91.55116173
_symmetry_Int_Tables_number   1
_chemical_formula_structural   Yb2LuPa5(Pt2Pb)4
_chemical_formula_sum   'Yb2 Lu1 Pa5 Pt8 Pb4'
_cell_volume   455.57044526
_cell_formula_units_Z   1
loop_
 _symmetry_equiv_pos_site_id
 _symmetry_equiv_pos_as_xyz
  1  'x, y, z'
loop_
 _atom_site_type_symbol
 _atom_site_label
 _atom_site_symmetry_multiplicity
 _atom_site_fract_x
 _atom_site_fract_y
 _atom_site_fract_z
 _atom_site_occupancy
  Yb  Yb0  1  0.175598  0.824402  0.500000  1
  Yb  Yb1  1  0.161665  0.838335  0.000000  1
  Lu  Lu2  1  0.840605  0.159395  0.000000  1
  Pa  Pa3  1  0.681011  0.677704  0.000000  1
  Pa  Pa4  1  0.336049  0.336669  0.500000  1
  Pa  Pa5  1  0.825117  0.174883  0.500000  1
  Pa  Pa6  1  0.663331  0.663951  0.500000  1
  Pa  Pa7  1  0.322296  0.318989  0.000000  1
  Pt  Pt8  1  0.861755  0.874373  0.734582  1
  Pt  Pt9  1  0.125627  0.138245  0.734582  1
  Pt  Pt10  1  0.632214  0.367786  0.764612  1
  Pt  Pt11  1  0.632214  0.367786  0.235388  1
  Pt  Pt12  1  0.382060  0.617940  0.233327  1
  Pt  Pt13  1  0.125627  0.138245  0.265418  1
  Pt  Pt14  1  0.861755  0.874373  0.265418  1
  Pt  Pt15  1  0.382060  0.617940  0.766673  1
  Pb  Pb16  1  0.491145  0.995635  0.752491  1
  Pb  Pb17  1  0.491145  0.995635  0.247509  1
  Pb  Pb18  1  0.004365  0.508855  0.752491  1
  Pb  Pb19  1  0.004365  0.508855  0.247509  1
