# generated using pymatgen
data_Tb3Gd3CoBr10
_symmetry_space_group_name_H-M   'P 1'
_cell_length_a   7.47765120
_cell_length_b   9.34774883
_cell_length_c   9.46730100
_cell_angle_alpha   107.97512968
_cell_angle_beta   95.93009106
_cell_angle_gamma   104.18759017
_symmetry_Int_Tables_number   1
_chemical_formula_structural   Tb3Gd3CoBr10
_chemical_formula_sum   'Tb3 Gd3 Co1 Br10'
_cell_volume   598.65686358
_cell_formula_units_Z   1
loop_
 _symmetry_equiv_pos_site_id
 _symmetry_equiv_pos_as_xyz
  1  'x, y, z'
loop_
 _atom_site_type_symbol
 _atom_site_label
 _atom_site_symmetry_multiplicity
 _atom_site_fract_x
 _atom_site_fract_y
 _atom_site_fract_z
 _atom_site_occupancy
  Tb  Tb0  1  0.126950  0.050374  0.261642  1
  Tb  Tb1  1  0.347714  0.124450  0.672909  1
  Tb  Tb2  1  0.652003  0.876017  0.328975  1
  Gd  Gd3  1  0.035807  0.720691  0.412052  1
  Gd  Gd4  1  0.963342  0.279465  0.586637  1
  Gd  Gd5  1  0.873741  0.949796  0.742703  1
  Co  Co6  1  0.000084  0.999941  0.500266  1
  Br  Br7  1  0.452663  0.823167  0.580568  1
  Br  Br8  1  0.544317  0.176213  0.418800  1
  Br  Br9  1  0.914229  0.629488  0.664373  1
  Br  Br10  1  0.087768  0.365219  0.330970  1
  Br  Br11  1  0.239341  0.078746  0.948176  1
  Br  Br12  1  0.765557  0.922927  0.055412  1
  Br  Br13  1  0.335538  0.435731  0.763840  1
  Br  Br14  1  0.662186  0.564378  0.234920  1
  Br  Br15  1  0.765166  0.242247  0.834284  1
  Br  Br16  1  0.233592  0.761150  0.163474  1
