# generated using pymatgen
data_Lu4Ga4Co9Re
_symmetry_space_group_name_H-M   'P 1'
_cell_length_a   5.17677877
_cell_length_b   5.17677810
_cell_length_c   11.85230583
_cell_angle_alpha   77.38568310
_cell_angle_beta   77.38568587
_cell_angle_gamma   60.00000283
_symmetry_Int_Tables_number   1
_chemical_formula_structural   Lu4Ga4Co9Re
_chemical_formula_sum   'Lu4 Ga4 Co9 Re1'
_cell_volume   266.18620404
_cell_formula_units_Z   1
loop_
 _symmetry_equiv_pos_site_id
 _symmetry_equiv_pos_as_xyz
  1  'x, y, z'
loop_
 _atom_site_type_symbol
 _atom_site_label
 _atom_site_symmetry_multiplicity
 _atom_site_fract_x
 _atom_site_fract_y
 _atom_site_fract_z
 _atom_site_occupancy
  Lu  Lu0  1  0.952265  0.952265  0.143206  1
  Lu  Lu1  1  0.047735  0.047735  0.856794  1
  Lu  Lu2  1  0.853878  0.853878  0.438367  1
  Lu  Lu3  1  0.146122  0.146122  0.561634  1
  Ga  Ga4  1  0.721760  0.721760  0.834720  1
  Ga  Ga5  1  0.278240  0.278240  0.165280  1
  Ga  Ga6  1  0.609945  0.609945  0.170168  1
  Ga  Ga7  1  0.390055  0.390055  0.829832  1
  Co  Co8  1  0.000000  0.500000  0.000000  1
  Co  Co9  1  0.500000  0.000000  0.000000  1
  Co  Co10  1  0.500000  0.500000  0.000000  1
  Co  Co11  1  0.383490  0.383490  0.336576  1
  Co  Co12  1  0.896444  0.383490  0.336576  1
  Co  Co13  1  0.383490  0.896444  0.336576  1
  Co  Co14  1  0.616510  0.616510  0.663424  1
  Co  Co15  1  0.103556  0.616510  0.663424  1
  Co  Co16  1  0.616510  0.103556  0.663424  1
  Re  Re17  1  0.500000  0.500000  0.500000  1
