# generated using pymatgen
data_Th2Sc10Tc3Br16
_symmetry_space_group_name_H-M   'P 1'
_cell_length_a   9.27542351
_cell_length_b   11.29012207
_cell_length_c   12.24693578
_cell_angle_alpha   118.99625729
_cell_angle_beta   101.44691414
_cell_angle_gamma   101.07857784
_symmetry_Int_Tables_number   1
_chemical_formula_structural   Th2Sc10Tc3Br16
_chemical_formula_sum   'Th2 Sc10 Tc3 Br16'
_cell_volume   1035.36784123
_cell_formula_units_Z   1
loop_
 _symmetry_equiv_pos_site_id
 _symmetry_equiv_pos_as_xyz
  1  'x, y, z'
loop_
 _atom_site_type_symbol
 _atom_site_label
 _atom_site_symmetry_multiplicity
 _atom_site_fract_x
 _atom_site_fract_y
 _atom_site_fract_z
 _atom_site_occupancy
  Th  Th0  1  0.086970  0.261981  0.354547  1
  Th  Th1  1  0.913030  0.738019  0.645453  1
  Sc  Sc2  1  0.771949  0.526884  0.307116  1
  Sc  Sc3  1  0.228051  0.473116  0.692884  1
  Sc  Sc4  1  0.291517  0.738383  0.647279  1
  Sc  Sc5  1  0.708483  0.261617  0.352721  1
  Sc  Sc6  1  0.138857  0.550549  0.325556  1
  Sc  Sc7  1  0.861143  0.449451  0.674444  1
  Sc  Sc8  1  0.410874  0.362199  0.268708  1
  Sc  Sc9  1  0.589126  0.637801  0.731292  1
  Sc  Sc10  1  0.467686  0.309811  0.528972  1
  Sc  Sc11  1  0.532314  0.690189  0.471028  1
  Tc  Tc12  1  0.000000  0.500000  0.500000  1
  Tc  Tc13  1  0.331591  0.495754  0.496985  1
  Tc  Tc14  1  0.668410  0.504246  0.503015  1
  Br  Br15  1  0.403908  0.751749  0.886001  1
  Br  Br16  1  0.596092  0.248251  0.113999  1
  Br  Br17  1  0.210432  0.977227  0.790758  1
  Br  Br18  1  0.789568  0.022773  0.209242  1
  Br  Br19  1  0.344691  0.099916  0.253987  1
  Br  Br20  1  0.655309  0.900084  0.746013  1
  Br  Br21  1  0.549567  0.439594  0.799983  1
  Br  Br22  1  0.450433  0.560406  0.200017  1
  Br  Br23  1  0.317310  0.834109  0.471847  1
  Br  Br24  1  0.682690  0.165891  0.528153  1
  Br  Br25  1  0.183372  0.174663  0.545866  1
  Br  Br26  1  0.816628  0.825337  0.454134  1
  Br  Br27  1  0.925630  0.574129  0.160877  1
  Br  Br28  1  0.074370  0.425871  0.839123  1
  Br  Br29  1  0.909603  0.729736  0.888854  1
  Br  Br30  1  0.090397  0.270264  0.111146  1
