# generated using pymatgen
data_Tb2Ga9Pd2Ru
_symmetry_space_group_name_H-M   'P 1'
_cell_length_a   7.64053339
_cell_length_b   7.64053312
_cell_length_c   9.59364213
_cell_angle_alpha   89.90105796
_cell_angle_beta   89.90105975
_cell_angle_gamma   119.87960232
_symmetry_Int_Tables_number   1
_chemical_formula_structural   Tb2Ga9Pd2Ru
_chemical_formula_sum   'Tb4 Ga18 Pd4 Ru2'
_cell_volume   485.60652890
_cell_formula_units_Z   2
loop_
 _symmetry_equiv_pos_site_id
 _symmetry_equiv_pos_as_xyz
  1  'x, y, z'
loop_
 _atom_site_type_symbol
 _atom_site_label
 _atom_site_symmetry_multiplicity
 _atom_site_fract_x
 _atom_site_fract_y
 _atom_site_fract_z
 _atom_site_occupancy
  Tb  Tb0  1  0.996713  0.669276  0.250057  1
  Tb  Tb1  1  0.003287  0.330724  0.749943  1
  Tb  Tb2  1  0.669276  0.996713  0.250057  1
  Tb  Tb3  1  0.330724  0.003287  0.749943  1
  Ga  Ga4  1  0.130607  0.130607  0.251149  1
  Ga  Ga5  1  0.869393  0.869393  0.748851  1
  Ga  Ga6  1  0.001250  0.334341  0.082821  1
  Ga  Ga7  1  0.998750  0.665659  0.917179  1
  Ga  Ga8  1  0.000648  0.660017  0.576467  1
  Ga  Ga9  1  0.339983  0.999352  0.423533  1
  Ga  Ga10  1  0.999352  0.339983  0.423533  1
  Ga  Ga11  1  0.660017  0.000648  0.576467  1
  Ga  Ga12  1  0.665659  0.998750  0.917179  1
  Ga  Ga13  1  0.334341  0.001250  0.082821  1
  Ga  Ga14  1  0.337168  0.337168  0.562219  1
  Ga  Ga15  1  0.662832  0.662832  0.437781  1
  Ga  Ga16  1  0.664580  0.664580  0.073358  1
  Ga  Ga17  1  0.335420  0.335420  0.926642  1
  Ga  Ga18  1  0.336474  0.546184  0.255036  1
  Ga  Ga19  1  0.663526  0.453816  0.744964  1
  Ga  Ga20  1  0.546184  0.336474  0.255036  1
  Ga  Ga21  1  0.453816  0.663526  0.744964  1
  Pd  Pd22  1  0.670175  0.329825  0.000000  1
  Pd  Pd23  1  0.329825  0.670175  0.000000  1
  Pd  Pd24  1  0.000000  0.000000  0.000000  1
  Pd  Pd25  1  0.000000  0.000000  0.500000  1
  Ru  Ru26  1  0.327852  0.672148  0.500000  1
  Ru  Ru27  1  0.672148  0.327852  0.500000  1
