# generated using pymatgen
data_Eu16Mg4CuPd3
_symmetry_space_group_name_H-M   'P 1'
_cell_length_a   10.42759597
_cell_length_b   10.42759488
_cell_length_c   10.45189110
_cell_angle_alpha   60.07686188
_cell_angle_beta   60.07686495
_cell_angle_gamma   59.99999466
_symmetry_Int_Tables_number   1
_chemical_formula_structural   Eu16Mg4CuPd3
_chemical_formula_sum   'Eu16 Mg4 Cu1 Pd3'
_cell_volume   804.54768554
_cell_formula_units_Z   1
loop_
 _symmetry_equiv_pos_site_id
 _symmetry_equiv_pos_as_xyz
  1  'x, y, z'
loop_
 _atom_site_type_symbol
 _atom_site_label
 _atom_site_symmetry_multiplicity
 _atom_site_fract_x
 _atom_site_fract_y
 _atom_site_fract_z
 _atom_site_occupancy
  Eu  Eu0  1  0.688339  0.688339  0.312491  1
  Eu  Eu1  1  0.310832  0.688339  0.312491  1
  Eu  Eu2  1  0.688339  0.310832  0.312491  1
  Eu  Eu3  1  0.311051  0.311051  0.690053  1
  Eu  Eu4  1  0.687845  0.311051  0.690053  1
  Eu  Eu5  1  0.311051  0.687845  0.690053  1
  Eu  Eu6  1  0.057952  0.057952  0.440060  1
  Eu  Eu7  1  0.444036  0.057952  0.440060  1
  Eu  Eu8  1  0.057952  0.444036  0.440060  1
  Eu  Eu9  1  0.440971  0.440971  0.059917  1
  Eu  Eu10  1  0.058141  0.440971  0.059917  1
  Eu  Eu11  1  0.440971  0.058141  0.059917  1
  Eu  Eu12  1  0.903934  0.903934  0.288199  1
  Eu  Eu13  1  0.902846  0.291696  0.902614  1
  Eu  Eu14  1  0.291696  0.902846  0.902614  1
  Eu  Eu15  1  0.902846  0.902846  0.902614  1
  Mg  Mg16  1  0.671855  0.671855  0.984435  1
  Mg  Mg17  1  0.672921  0.980344  0.673815  1
  Mg  Mg18  1  0.980344  0.672921  0.673815  1
  Mg  Mg19  1  0.672921  0.672921  0.673815  1
  Cu  Cu20  1  0.109640  0.109640  0.671079  1
  Pd  Pd21  1  0.109143  0.675234  0.106480  1
  Pd  Pd22  1  0.675234  0.109143  0.106480  1
  Pd  Pd23  1  0.109143  0.109143  0.106480  1
