# generated using pymatgen
data_Nd6Si4Ir3Pt
_symmetry_space_group_name_H-M   'P 1'
_cell_length_a   5.79421885
_cell_length_b   5.79421961
_cell_length_c   13.59173800
_cell_angle_alpha   90.00000000
_cell_angle_beta   90.00000000
_cell_angle_gamma   137.94406529
_symmetry_Int_Tables_number   1
_chemical_formula_structural   Nd6Si4Ir3Pt
_chemical_formula_sum   'Nd6 Si4 Ir3 Pt1'
_cell_volume   305.66530666
_cell_formula_units_Z   1
loop_
 _symmetry_equiv_pos_site_id
 _symmetry_equiv_pos_as_xyz
  1  'x, y, z'
loop_
 _atom_site_type_symbol
 _atom_site_label
 _atom_site_symmetry_multiplicity
 _atom_site_fract_x
 _atom_site_fract_y
 _atom_site_fract_z
 _atom_site_occupancy
  Nd  Nd0  1  0.772704  0.227296  0.604102  1
  Nd  Nd1  1  0.518301  0.481699  0.250000  1
  Nd  Nd2  1  0.226448  0.773552  0.400212  1
  Nd  Nd3  1  0.772704  0.227296  0.895898  1
  Nd  Nd4  1  0.482193  0.517807  0.750000  1
  Nd  Nd5  1  0.226448  0.773552  0.099788  1
  Si  Si6  1  0.060844  0.939156  0.588866  1
  Si  Si7  1  0.060844  0.939156  0.911134  1
  Si  Si8  1  0.940463  0.059537  0.414288  1
  Si  Si9  1  0.940463  0.059537  0.085712  1
  Ir  Ir10  1  0.182755  0.817245  0.750000  1
  Ir  Ir11  1  0.501679  0.498321  0.000564  1
  Ir  Ir12  1  0.501679  0.498321  0.499436  1
  Pt  Pt13  1  0.812475  0.187525  0.250000  1
