# generated using pymatgen
data_Dy18Tm2GaBi11
_symmetry_space_group_name_H-M   'P 1'
_cell_length_a   8.22652365
_cell_length_b   9.48187019
_cell_length_c   12.06231204
_cell_angle_alpha   90.02226928
_cell_angle_beta   89.61272963
_cell_angle_gamma   90.00489490
_symmetry_Int_Tables_number   1
_chemical_formula_structural   Dy18Tm2GaBi11
_chemical_formula_sum   'Dy18 Tm2 Ga1 Bi11'
_cell_volume   940.87290050
_cell_formula_units_Z   1
loop_
 _symmetry_equiv_pos_site_id
 _symmetry_equiv_pos_as_xyz
  1  'x, y, z'
loop_
 _atom_site_type_symbol
 _atom_site_label
 _atom_site_symmetry_multiplicity
 _atom_site_fract_x
 _atom_site_fract_y
 _atom_site_fract_z
 _atom_site_occupancy
  Dy  Dy0  1  0.036195  0.250417  0.510136  1
  Dy  Dy1  1  0.978185  0.749900  0.489805  1
  Dy  Dy2  1  0.474634  0.750120  0.011773  1
  Dy  Dy3  1  0.526735  0.250046  0.988026  1
  Dy  Dy4  1  0.356185  0.250619  0.294322  1
  Dy  Dy5  1  0.647873  0.749892  0.714937  1
  Dy  Dy6  1  0.148717  0.749742  0.783388  1
  Dy  Dy7  1  0.852136  0.250446  0.215192  1
  Dy  Dy8  1  0.190944  0.250132  0.777155  1
  Dy  Dy9  1  0.811849  0.749913  0.219114  1
  Dy  Dy10  1  0.314260  0.749730  0.280736  1
  Dy  Dy11  1  0.673370  0.250371  0.711437  1
  Dy  Dy12  1  0.193247  0.063915  0.060274  1
  Dy  Dy13  1  0.807114  0.936500  0.940800  1
  Dy  Dy14  1  0.309838  0.950212  0.558648  1
  Dy  Dy15  1  0.806802  0.563286  0.940822  1
  Dy  Dy16  1  0.684238  0.069862  0.445560  1
  Dy  Dy17  1  0.193534  0.436233  0.060284  1
  Tm  Tm18  1  0.684228  0.428599  0.445658  1
  Tm  Tm19  1  0.309411  0.550077  0.558874  1
  Ga  Ga20  1  0.408483  0.252326  0.539494  1
  Bi  Bi21  1  0.592597  0.747404  0.457463  1
  Bi  Bi22  1  0.091944  0.750003  0.042306  1
  Bi  Bi23  1  0.909859  0.249911  0.955277  1
  Bi  Bi24  1  0.063764  0.003197  0.324915  1
  Bi  Bi25  1  0.934978  0.997690  0.674594  1
  Bi  Bi26  1  0.435184  0.995742  0.825171  1
  Bi  Bi27  1  0.935420  0.502422  0.674377  1
  Bi  Bi28  1  0.564884  0.004792  0.174768  1
  Bi  Bi29  1  0.063331  0.496785  0.325009  1
  Bi  Bi30  1  0.564804  0.495409  0.174834  1
  Bi  Bi31  1  0.435255  0.504308  0.824845  1
