# generated using pymatgen
data_Tm3Hf(ZnRh2)4
_symmetry_space_group_name_H-M   'P 1'
_cell_length_a   6.08561000
_cell_length_b   6.08552900
_cell_length_c   6.99563500
_cell_angle_alpha   90.00000000
_cell_angle_beta   90.00000000
_cell_angle_gamma   90.00000000
_symmetry_Int_Tables_number   1
_chemical_formula_structural   Tm3Hf(ZnRh2)4
_chemical_formula_sum   'Tm3 Hf1 Zn4 Rh8'
_cell_volume   259.07743887
_cell_formula_units_Z   1
loop_
 _symmetry_equiv_pos_site_id
 _symmetry_equiv_pos_as_xyz
  1  'x, y, z'
loop_
 _atom_site_type_symbol
 _atom_site_label
 _atom_site_symmetry_multiplicity
 _atom_site_fract_x
 _atom_site_fract_y
 _atom_site_fract_z
 _atom_site_occupancy
  Tm  Tm0  1  0.749833  0.250000  0.000000  1
  Tm  Tm1  1  0.250160  0.750001  0.000000  1
  Tm  Tm2  1  0.750122  0.250000  0.500000  1
  Hf  Hf3  1  0.249848  0.750001  0.500000  1
  Zn  Zn4  1  0.249957  0.250000  0.000000  1
  Zn  Zn5  1  0.750056  0.750001  0.000000  1
  Zn  Zn6  1  0.749990  0.750001  0.499996  1
  Zn  Zn7  1  0.250044  0.250000  0.500003  1
  Rh  Rh8  1  0.003759  0.996238  0.255374  1
  Rh  Rh9  1  0.003759  0.503763  0.255374  1
  Rh  Rh10  1  0.496238  0.996237  0.255539  1
  Rh  Rh11  1  0.496238  0.503762  0.255539  1
  Rh  Rh12  1  0.496241  0.996237  0.744460  1
  Rh  Rh13  1  0.496241  0.503764  0.744460  1
  Rh  Rh14  1  0.003759  0.996238  0.744626  1
  Rh  Rh15  1  0.003759  0.503761  0.744626  1
