# generated using pymatgen
data_Dy7Ho3(Bi2Ir)2
_symmetry_space_group_name_H-M   'P 1'
_cell_length_a   7.99214537
_cell_length_b   9.00427317
_cell_length_c   12.52205549
_cell_angle_alpha   90.01207169
_cell_angle_beta   89.97035836
_cell_angle_gamma   90.01857486
_symmetry_Int_Tables_number   1
_chemical_formula_structural   Dy7Ho3(Bi2Ir)2
_chemical_formula_sum   'Dy14 Ho6 Bi8 Ir4'
_cell_volume   901.13025300
_cell_formula_units_Z   2
loop_
 _symmetry_equiv_pos_site_id
 _symmetry_equiv_pos_as_xyz
  1  'x, y, z'
loop_
 _atom_site_type_symbol
 _atom_site_label
 _atom_site_symmetry_multiplicity
 _atom_site_fract_x
 _atom_site_fract_y
 _atom_site_fract_z
 _atom_site_occupancy
  Dy  Dy0  1  0.839328  0.749971  0.794103  1
  Dy  Dy1  1  0.160672  0.250029  0.205897  1
  Dy  Dy2  1  0.339204  0.250049  0.705983  1
  Dy  Dy3  1  0.660796  0.749951  0.294017  1
  Dy  Dy4  1  0.375412  0.749905  0.691139  1
  Dy  Dy5  1  0.624588  0.250095  0.308861  1
  Dy  Dy6  1  0.875489  0.250003  0.808971  1
  Dy  Dy7  1  0.124511  0.749997  0.191029  1
  Dy  Dy8  1  0.948108  0.749880  0.501741  1
  Dy  Dy9  1  0.051892  0.250120  0.498259  1
  Dy  Dy10  1  0.448017  0.250005  0.998249  1
  Dy  Dy11  1  0.551983  0.749995  0.001751  1
  Dy  Dy12  1  0.676370  0.041799  0.566198  1
  Dy  Dy13  1  0.323630  0.958201  0.433802  1
  Ho  Ho14  1  0.175789  0.958250  0.933950  1
  Ho  Ho15  1  0.324201  0.541754  0.433910  1
  Ho  Ho16  1  0.824211  0.041750  0.066050  1
  Ho  Ho17  1  0.675799  0.458246  0.566090  1
  Ho  Ho18  1  0.824205  0.458259  0.066058  1
  Ho  Ho19  1  0.175795  0.541741  0.933942  1
  Bi  Bi20  1  0.566453  0.491671  0.826485  1
  Bi  Bi21  1  0.433547  0.508329  0.173515  1
  Bi  Bi22  1  0.066451  0.508331  0.673528  1
  Bi  Bi23  1  0.433585  0.991669  0.173474  1
  Bi  Bi24  1  0.933549  0.491669  0.326472  1
  Bi  Bi25  1  0.566415  0.008331  0.826526  1
  Bi  Bi26  1  0.933368  0.008348  0.326423  1
  Bi  Bi27  1  0.066632  0.991652  0.673577  1
  Ir  Ir28  1  0.571384  0.749605  0.508721  1
  Ir  Ir29  1  0.428616  0.250395  0.491279  1
  Ir  Ir30  1  0.071233  0.249994  0.991346  1
  Ir  Ir31  1  0.928767  0.750006  0.008654  1
