# generated using pymatgen
data_Li4TcNi9As7
_symmetry_space_group_name_H-M   'P 1'
_cell_length_a   9.36724812
_cell_length_b   9.44479637
_cell_length_c   3.72441200
_cell_angle_alpha   90.00000000
_cell_angle_beta   90.00000000
_cell_angle_gamma   120.27563144
_symmetry_Int_Tables_number   1
_chemical_formula_structural   Li4TcNi9As7
_chemical_formula_sum   'Li4 Tc1 Ni9 As7'
_cell_volume   284.56404781
_cell_formula_units_Z   1
loop_
 _symmetry_equiv_pos_site_id
 _symmetry_equiv_pos_as_xyz
  1  'x, y, z'
loop_
 _atom_site_type_symbol
 _atom_site_label
 _atom_site_symmetry_multiplicity
 _atom_site_fract_x
 _atom_site_fract_y
 _atom_site_fract_z
 _atom_site_occupancy
  Li  Li0  1  0.443867  0.212708  0.500000  1
  Li  Li1  1  0.789574  0.234516  0.500000  1
  Li  Li2  1  0.333792  0.671908  0.000000  1
  Li  Li3  1  0.998881  0.000930  0.500000  1
  Tc  Tc4  1  0.756290  0.546146  0.500000  1
  Ni  Ni5  1  0.279583  0.374243  0.500000  1
  Ni  Ni6  1  0.624416  0.902039  0.500000  1
  Ni  Ni7  1  0.101462  0.719448  0.500000  1
  Ni  Ni8  1  0.497907  0.450558  0.000000  1
  Ni  Ni9  1  0.549523  0.050739  0.000000  1
  Ni  Ni10  1  0.955253  0.499382  0.000000  1
  Ni  Ni11  1  0.719182  0.763210  0.000000  1
  Ni  Ni12  1  0.235707  0.954898  0.000000  1
  Ni  Ni13  1  0.046250  0.284839  0.000000  1
  As  As14  1  0.959271  0.752897  0.000000  1
  As  As15  1  0.238847  0.202256  0.000000  1
  As  As16  1  0.795820  0.038136  0.000000  1
  As  As17  1  0.669987  0.337910  0.000000  1
  As  As18  1  0.537576  0.623406  0.500000  1
  As  As19  1  0.377058  0.914706  0.500000  1
  As  As20  1  0.089757  0.465124  0.500000  1
