# generated using pymatgen
data_CeDy2(Co3P2)3
_symmetry_space_group_name_H-M   'P 1'
_cell_length_a   3.71307700
_cell_length_b   10.55798100
_cell_length_c   12.18368900
_cell_angle_alpha   90.00000000
_cell_angle_beta   90.00000000
_cell_angle_gamma   90.00000000
_symmetry_Int_Tables_number   1
_chemical_formula_structural   CeDy2(Co3P2)3
_chemical_formula_sum   'Ce2 Dy4 Co18 P12'
_cell_volume   477.63224274
_cell_formula_units_Z   2
loop_
 _symmetry_equiv_pos_site_id
 _symmetry_equiv_pos_as_xyz
  1  'x, y, z'
loop_
 _atom_site_type_symbol
 _atom_site_label
 _atom_site_symmetry_multiplicity
 _atom_site_fract_x
 _atom_site_fract_y
 _atom_site_fract_z
 _atom_site_occupancy
  Ce  Ce0  1  0.000000  0.500000  0.526428  1
  Ce  Ce1  1  0.500000  0.000000  0.473572  1
  Dy  Dy2  1  0.500000  0.815548  0.204715  1
  Dy  Dy3  1  0.500000  0.184452  0.204715  1
  Dy  Dy4  1  0.000000  0.684452  0.795285  1
  Dy  Dy5  1  0.000000  0.315548  0.795285  1
  Co  Co6  1  0.500000  0.500000  0.157303  1
  Co  Co7  1  0.000000  0.000000  0.842697  1
  Co  Co8  1  0.500000  0.500000  0.700268  1
  Co  Co9  1  0.000000  0.000000  0.299732  1
  Co  Co10  1  0.000000  0.500000  0.985014  1
  Co  Co11  1  0.500000  0.000000  0.014986  1
  Co  Co12  1  0.500000  0.333693  0.994492  1
  Co  Co13  1  0.500000  0.666307  0.994492  1
  Co  Co14  1  0.000000  0.166307  0.005508  1
  Co  Co15  1  0.000000  0.833693  0.005508  1
  Co  Co16  1  0.500000  0.299145  0.430149  1
  Co  Co17  1  0.500000  0.700855  0.430149  1
  Co  Co18  1  0.000000  0.200855  0.569851  1
  Co  Co19  1  0.000000  0.799145  0.569851  1
  Co  Co20  1  0.500000  0.880319  0.711597  1
  Co  Co21  1  0.500000  0.119681  0.711597  1
  Co  Co22  1  0.000000  0.619681  0.288403  1
  Co  Co23  1  0.000000  0.380319  0.288403  1
  P  P24  1  0.500000  0.500000  0.881155  1
  P  P25  1  0.000000  0.000000  0.118845  1
  P  P26  1  0.500000  0.500000  0.341866  1
  P  P27  1  0.000000  0.000000  0.658134  1
  P  P28  1  0.500000  0.306411  0.616731  1
  P  P29  1  0.500000  0.693589  0.616731  1
  P  P30  1  0.000000  0.193589  0.383269  1
  P  P31  1  0.000000  0.806411  0.383269  1
  P  P32  1  0.500000  0.847484  0.894658  1
  P  P33  1  0.500000  0.152516  0.894658  1
  P  P34  1  0.000000  0.652516  0.105342  1
  P  P35  1  0.000000  0.347484  0.105342  1
