# generated using pymatgen
data_Ca2Pr3Bi3C
_symmetry_space_group_name_H-M   'P 1'
_cell_length_a   9.40153700
_cell_length_b   9.40153772
_cell_length_c   6.83334800
_cell_angle_alpha   90.00000000
_cell_angle_beta   90.00000000
_cell_angle_gamma   119.99999394
_symmetry_Int_Tables_number   1
_chemical_formula_structural   Ca2Pr3Bi3C
_chemical_formula_sum   'Ca4 Pr6 Bi6 C2'
_cell_volume   523.07257369
_cell_formula_units_Z   2
loop_
 _symmetry_equiv_pos_site_id
 _symmetry_equiv_pos_as_xyz
  1  'x, y, z'
loop_
 _atom_site_type_symbol
 _atom_site_label
 _atom_site_symmetry_multiplicity
 _atom_site_fract_x
 _atom_site_fract_y
 _atom_site_fract_z
 _atom_site_occupancy
  Ca  Ca0  1  0.666667  0.333333  0.000000  1
  Ca  Ca1  1  0.333333  0.666667  0.000000  1
  Ca  Ca2  1  0.333333  0.666667  0.500000  1
  Ca  Ca3  1  0.666667  0.333333  0.500000  1
  Pr  Pr4  1  0.786015  0.786015  0.750000  1
  Pr  Pr5  1  0.213985  0.000000  0.750000  1
  Pr  Pr6  1  0.000000  0.213985  0.750000  1
  Pr  Pr7  1  0.213985  0.213985  0.250000  1
  Pr  Pr8  1  0.786015  0.000000  0.250000  1
  Pr  Pr9  1  0.000000  0.786015  0.250000  1
  Bi  Bi10  1  0.405249  0.405249  0.750000  1
  Bi  Bi11  1  0.594751  0.000000  0.750000  1
  Bi  Bi12  1  0.000000  0.594751  0.750000  1
  Bi  Bi13  1  0.594751  0.594751  0.250000  1
  Bi  Bi14  1  0.405249  0.000000  0.250000  1
  Bi  Bi15  1  0.000000  0.405249  0.250000  1
  C  C16  1  0.000000  0.000000  0.000000  1
  C  C17  1  0.000000  0.000000  0.500000  1
