# generated using pymatgen
data_Hf3Al3OsAu2
_symmetry_space_group_name_H-M   'P 1'
_cell_length_a   7.29676100
_cell_length_b   7.29676091
_cell_length_c   7.08434800
_cell_angle_alpha   90.00000000
_cell_angle_beta   90.00000000
_cell_angle_gamma   120.00000494
_symmetry_Int_Tables_number   1
_chemical_formula_structural   Hf3Al3OsAu2
_chemical_formula_sum   'Hf6 Al6 Os2 Au4'
_cell_volume   326.65607123
_cell_formula_units_Z   2
loop_
 _symmetry_equiv_pos_site_id
 _symmetry_equiv_pos_as_xyz
  1  'x, y, z'
loop_
 _atom_site_type_symbol
 _atom_site_label
 _atom_site_symmetry_multiplicity
 _atom_site_fract_x
 _atom_site_fract_y
 _atom_site_fract_z
 _atom_site_occupancy
  Hf  Hf0  1  0.613815  0.020470  0.750000  1
  Hf  Hf1  1  0.979530  0.593346  0.750000  1
  Hf  Hf2  1  0.406654  0.386185  0.750000  1
  Hf  Hf3  1  0.977278  0.592143  0.250000  1
  Hf  Hf4  1  0.614865  0.022722  0.250000  1
  Hf  Hf5  1  0.407857  0.385135  0.250000  1
  Al  Al6  1  0.728742  0.731810  0.999830  1
  Al  Al7  1  0.268190  0.996932  0.999830  1
  Al  Al8  1  0.003068  0.271258  0.999830  1
  Al  Al9  1  0.728742  0.731810  0.500170  1
  Al  Al10  1  0.268190  0.996932  0.500170  1
  Al  Al11  1  0.003068  0.271258  0.500170  1
  Os  Os12  1  0.666667  0.333333  0.998569  1
  Os  Os13  1  0.666667  0.333333  0.501431  1
  Au  Au14  1  0.000000  0.000000  0.750000  1
  Au  Au15  1  0.000000  0.000000  0.250000  1
  Au  Au16  1  0.333333  0.666667  0.497877  1
  Au  Au17  1  0.333333  0.666667  0.002124  1
