# generated using pymatgen
data_Hf8Co8Si11Ge3
_symmetry_space_group_name_H-M   'P 1'
_cell_length_a   9.47527621
_cell_length_b   9.47527612
_cell_length_c   9.47527569
_cell_angle_alpha   94.11049213
_cell_angle_beta   94.20613873
_cell_angle_gamma   148.75695716
_symmetry_Int_Tables_number   1
_chemical_formula_structural   Hf8Co8Si11Ge3
_chemical_formula_sum   'Hf8 Co8 Si11 Ge3'
_cell_volume   424.93266222
_cell_formula_units_Z   1
loop_
 _symmetry_equiv_pos_site_id
 _symmetry_equiv_pos_as_xyz
  1  'x, y, z'
loop_
 _atom_site_type_symbol
 _atom_site_label
 _atom_site_symmetry_multiplicity
 _atom_site_fract_x
 _atom_site_fract_y
 _atom_site_fract_z
 _atom_site_occupancy
  Hf  Hf0  1  0.141104  0.137104  0.278208  1
  Hf  Hf1  1  0.860868  0.860991  0.721858  1
  Hf  Hf2  1  0.139132  0.860991  0.000122  1
  Hf  Hf3  1  0.858896  0.137104  0.996000  1
  Hf  Hf4  1  0.301434  0.500148  0.801582  1
  Hf  Hf5  1  0.698566  0.500148  0.198714  1
  Hf  Hf6  1  0.500000  0.697353  0.197353  1
  Hf  Hf7  1  0.500000  0.301677  0.801677  1
  Co  Co8  1  0.602076  0.398454  0.500322  1
  Co  Co9  1  0.898288  0.101565  0.503188  1
  Co  Co10  1  0.101712  0.604901  0.203277  1
  Co  Co11  1  0.397924  0.898246  0.796379  1
  Co  Co12  1  0.598377  0.101565  0.203277  1
  Co  Co13  1  0.898132  0.398454  0.796379  1
  Co  Co14  1  0.101868  0.898246  0.500322  1
  Co  Co15  1  0.401623  0.604901  0.503188  1
  Si  Si16  1  0.291075  0.290837  0.581912  1
  Si  Si17  1  0.709243  0.709437  0.418681  1
  Si  Si18  1  0.290757  0.709437  0.000195  1
  Si  Si19  1  0.708925  0.290837  0.999762  1
  Si  Si20  1  0.091271  0.500700  0.591970  1
  Si  Si21  1  0.908729  0.500700  0.409429  1
  Si  Si22  1  0.500000  0.909511  0.409511  1
  Si  Si23  1  0.500000  0.091658  0.591658  1
  Si  Si24  1  0.300472  0.000205  0.300677  1
  Si  Si25  1  0.699528  0.000205  0.699733  1
  Si  Si26  1  0.000000  0.700207  0.700207  1
  Ge  Ge27  1  0.000000  0.294640  0.294640  1
  Ge  Ge28  1  0.250649  0.250539  0.999890  1
  Ge  Ge29  1  0.749351  0.749241  0.999890  1
