# generated using pymatgen
data_Sm2Mg(Al3Cu4)3
_symmetry_space_group_name_H-M   'P 1'
_cell_length_a   10.43611370
_cell_length_b   8.23722194
_cell_length_c   7.93313092
_cell_angle_alpha   80.36519545
_cell_angle_beta   51.09299702
_cell_angle_gamma   48.54180094
_symmetry_Int_Tables_number   1
_chemical_formula_structural   Sm2Mg(Al3Cu4)3
_chemical_formula_sum   'Sm2 Mg1 Al9 Cu12'
_cell_volume   359.81800076
_cell_formula_units_Z   1
loop_
 _symmetry_equiv_pos_site_id
 _symmetry_equiv_pos_as_xyz
  1  'x, y, z'
loop_
 _atom_site_type_symbol
 _atom_site_label
 _atom_site_symmetry_multiplicity
 _atom_site_fract_x
 _atom_site_fract_y
 _atom_site_fract_z
 _atom_site_occupancy
  Sm  Sm0  1  0.000000  0.000000  0.000000  1
  Sm  Sm1  1  0.250000  0.250000  0.250000  1
  Mg  Mg2  1  0.500000  0.500000  0.500000  1
  Al  Al3  1  0.750000  0.750000  0.750000  1
  Al  Al4  1  0.757836  0.069609  0.831175  1
  Al  Al5  1  0.831175  0.341383  0.757836  1
  Al  Al6  1  0.069609  0.757836  0.341383  1
  Al  Al7  1  0.341383  0.831175  0.069609  1
  Al  Al8  1  0.492958  0.179072  0.417365  1
  Al  Al9  1  0.417365  0.910603  0.492958  1
  Al  Al10  1  0.179072  0.492958  0.910603  1
  Al  Al11  1  0.910603  0.417365  0.179072  1
  Cu  Cu12  1  0.625432  0.122653  0.627095  1
  Cu  Cu13  1  0.627095  0.624819  0.625432  1
  Cu  Cu14  1  0.122653  0.625432  0.624819  1
  Cu  Cu15  1  0.624819  0.627095  0.122653  1
  Cu  Cu16  1  0.488936  0.434775  0.181771  1
  Cu  Cu17  1  0.181771  0.894517  0.488936  1
  Cu  Cu18  1  0.434775  0.488936  0.894517  1
  Cu  Cu19  1  0.894517  0.181771  0.434775  1
  Cu  Cu20  1  0.760375  0.814324  0.065375  1
  Cu  Cu21  1  0.065375  0.359927  0.760375  1
  Cu  Cu22  1  0.814324  0.760375  0.359927  1
  Cu  Cu23  1  0.359927  0.065375  0.814324  1
