# generated using pymatgen
data_Tb12Ho3Th(InIr)4
_symmetry_space_group_name_H-M   'P 1'
_cell_length_a   9.72335147
_cell_length_b   9.72872642
_cell_length_c   9.71441727
_cell_angle_alpha   60.07424986
_cell_angle_beta   60.04742647
_cell_angle_gamma   60.10028782
_symmetry_Int_Tables_number   1
_chemical_formula_structural   Tb12Ho3Th(InIr)4
_chemical_formula_sum   'Tb12 Ho3 Th1 In4 Ir4'
_cell_volume   650.88029453
_cell_formula_units_Z   1
loop_
 _symmetry_equiv_pos_site_id
 _symmetry_equiv_pos_as_xyz
  1  'x, y, z'
loop_
 _atom_site_type_symbol
 _atom_site_label
 _atom_site_symmetry_multiplicity
 _atom_site_fract_x
 _atom_site_fract_y
 _atom_site_fract_z
 _atom_site_occupancy
  Tb  Tb0  1  0.939792  0.558922  0.562239  1
  Tb  Tb1  1  0.310660  0.309565  0.689841  1
  Tb  Tb2  1  0.099342  0.100289  0.099397  1
  Tb  Tb3  1  0.561762  0.559008  0.939986  1
  Tb  Tb4  1  0.099366  0.100058  0.701098  1
  Tb  Tb5  1  0.690475  0.308923  0.689799  1
  Tb  Tb6  1  0.688737  0.689170  0.310700  1
  Tb  Tb7  1  0.690360  0.309250  0.310540  1
  Tb  Tb8  1  0.310689  0.689421  0.688350  1
  Tb  Tb9  1  0.559630  0.939885  0.559475  1
  Tb  Tb10  1  0.700327  0.100787  0.099427  1
  Tb  Tb11  1  0.559767  0.939465  0.941292  1
  Ho  Ho12  1  0.941324  0.939502  0.559660  1
  Ho  Ho13  1  0.939309  0.558942  0.939371  1
  Ho  Ho14  1  0.310862  0.689633  0.310992  1
  Th  Th15  1  0.096959  0.710074  0.096363  1
  In  In16  1  0.332846  0.333431  0.333043  1
  In  In17  1  0.001015  0.333080  0.332912  1
  In  In18  1  0.333094  0.999732  0.333445  1
  In  In19  1  0.332748  0.333189  0.001038  1
  Ir  Ir20  1  0.892481  0.890614  0.891765  1
  Ir  Ir21  1  0.892627  0.891350  0.324481  1
  Ir  Ir22  1  0.323848  0.891135  0.892682  1
  Ir  Ir23  1  0.891982  0.324576  0.892105  1
