# generated using pymatgen
data_Y8Hf11Si16Rh
_symmetry_space_group_name_H-M   'P 1'
_cell_length_a   7.27346347
_cell_length_b   7.27346347
_cell_length_c   13.23453465
_cell_angle_alpha   89.79275854
_cell_angle_beta   89.79275854
_cell_angle_gamma   90.09777671
_symmetry_Int_Tables_number   1
_chemical_formula_structural   Y8Hf11Si16Rh
_chemical_formula_sum   'Y8 Hf11 Si16 Rh1'
_cell_volume   700.13997664
_cell_formula_units_Z   1
loop_
 _symmetry_equiv_pos_site_id
 _symmetry_equiv_pos_as_xyz
  1  'x, y, z'
loop_
 _atom_site_type_symbol
 _atom_site_label
 _atom_site_symmetry_multiplicity
 _atom_site_fract_x
 _atom_site_fract_y
 _atom_site_fract_z
 _atom_site_occupancy
  Y  Y0  1  0.497816  0.154541  0.539051  1
  Y  Y1  1  0.505562  0.847237  0.032834  1
  Y  Y2  1  0.655127  0.006338  0.284961  1
  Y  Y3  1  0.349214  0.998044  0.783251  1
  Y  Y4  1  0.845459  0.502184  0.960949  1
  Y  Y5  1  0.152763  0.494438  0.467166  1
  Y  Y6  1  0.001956  0.650786  0.716749  1
  Y  Y7  1  0.993662  0.344873  0.215039  1
  Hf  Hf8  1  0.323937  0.676063  0.250000  1
  Hf  Hf9  1  0.821940  0.823218  0.501702  1
  Hf  Hf10  1  0.176782  0.178060  0.998298  1
  Hf  Hf11  1  0.497260  0.354534  0.122341  1
  Hf  Hf12  1  0.503099  0.645475  0.628271  1
  Hf  Hf13  1  0.854569  0.003781  0.872753  1
  Hf  Hf14  1  0.146249  0.997372  0.375925  1
  Hf  Hf15  1  0.645466  0.502740  0.377659  1
  Hf  Hf16  1  0.354525  0.496901  0.871729  1
  Hf  Hf17  1  0.002628  0.853751  0.124075  1
  Hf  Hf18  1  0.996219  0.145431  0.627247  1
  Si  Si19  1  0.795490  0.141678  0.065083  1
  Si  Si20  1  0.205123  0.859785  0.568664  1
  Si  Si21  1  0.637032  0.710665  0.818510  1
  Si  Si22  1  0.360508  0.293316  0.317704  1
  Si  Si23  1  0.858322  0.204510  0.434917  1
  Si  Si24  1  0.140215  0.794877  0.931336  1
  Si  Si25  1  0.706684  0.639492  0.182296  1
  Si  Si26  1  0.289335  0.362968  0.681490  1
  Si  Si27  1  0.557450  0.208545  0.931379  1
  Si  Si28  1  0.449626  0.796006  0.436133  1
  Si  Si29  1  0.709286  0.944325  0.686667  1
  Si  Si30  1  0.295889  0.050834  0.184782  1
  Si  Si31  1  0.791455  0.442550  0.568621  1
  Si  Si32  1  0.203994  0.550374  0.063867  1
  Si  Si33  1  0.949166  0.704111  0.315218  1
  Si  Si34  1  0.055675  0.290714  0.813333  1
  Rh  Rh35  1  0.670517  0.329483  0.750000  1
