# generated using pymatgen
data_DyLu3ReB12Rh
_symmetry_space_group_name_H-M   'P 1'
_cell_length_a   3.63088900
_cell_length_b   9.05926634
_cell_length_c   11.45198600
_cell_angle_alpha   90.38662482
_cell_angle_beta   90.00000000
_cell_angle_gamma   90.00000000
_symmetry_Int_Tables_number   1
_chemical_formula_structural   DyLu3ReB12Rh
_chemical_formula_sum   'Dy2 Lu6 Re2 B24 Rh2'
_cell_volume   376.68378088
_cell_formula_units_Z   2
loop_
 _symmetry_equiv_pos_site_id
 _symmetry_equiv_pos_as_xyz
  1  'x, y, z'
loop_
 _atom_site_type_symbol
 _atom_site_label
 _atom_site_symmetry_multiplicity
 _atom_site_fract_x
 _atom_site_fract_y
 _atom_site_fract_z
 _atom_site_occupancy
  Dy  Dy0  1  0.000000  0.318122  0.411091  1
  Dy  Dy1  1  0.000000  0.681878  0.588909  1
  Lu  Lu2  1  0.000000  0.825680  0.082191  1
  Lu  Lu3  1  0.000000  0.174320  0.917809  1
  Lu  Lu4  1  0.000000  0.945564  0.371641  1
  Lu  Lu5  1  0.000000  0.054436  0.628359  1
  Lu  Lu6  1  0.000000  0.442235  0.125978  1
  Lu  Lu7  1  0.000000  0.557765  0.874022  1
  Re  Re8  1  0.000000  0.138276  0.179201  1
  Re  Re9  1  0.000000  0.861724  0.820799  1
  B  B10  1  0.500000  0.554944  0.433803  1
  B  B11  1  0.500000  0.445056  0.566197  1
  B  B12  1  0.500000  0.052653  0.066587  1
  B  B13  1  0.500000  0.947347  0.933413  1
  B  B14  1  0.500000  0.750661  0.420666  1
  B  B15  1  0.500000  0.249339  0.579334  1
  B  B16  1  0.500000  0.249437  0.080285  1
  B  B17  1  0.500000  0.750563  0.919715  1
  B  B18  1  0.500000  0.792399  0.264012  1
  B  B19  1  0.500000  0.207601  0.735988  1
  B  B20  1  0.500000  0.293402  0.234324  1
  B  B21  1  0.500000  0.706598  0.765676  1
  B  B22  1  0.500000  0.632322  0.182068  1
  B  B23  1  0.500000  0.367678  0.817932  1
  B  B24  1  0.500000  0.130780  0.315083  1
  B  B25  1  0.500000  0.869220  0.684917  1
  B  B26  1  0.500000  0.981379  0.212778  1
  B  B27  1  0.500000  0.018621  0.787222  1
  B  B28  1  0.500000  0.483305  0.286710  1
  B  B29  1  0.500000  0.516695  0.713290  1
  B  B30  1  0.500000  0.604635  0.028974  1
  B  B31  1  0.500000  0.395365  0.971026  1
  B  B32  1  0.500000  0.103793  0.472098  1
  B  B33  1  0.500000  0.896207  0.527902  1
  Rh  Rh34  1  0.000000  0.639149  0.319761  1
  Rh  Rh35  1  0.000000  0.360851  0.680239  1
