# generated using pymatgen
data_Pr7Ho(GeO5)4
_symmetry_space_group_name_H-M   'P 1'
_cell_length_a   8.45340391
_cell_length_b   8.48825136
_cell_length_c   11.02895842
_cell_angle_alpha   61.56974837
_cell_angle_beta   61.26468908
_cell_angle_gamma   49.88296588
_symmetry_Int_Tables_number   1
_chemical_formula_structural   Pr7Ho(GeO5)4
_chemical_formula_sum   'Pr7 Ho1 Ge4 O20'
_cell_volume   514.08168511
_cell_formula_units_Z   1
loop_
 _symmetry_equiv_pos_site_id
 _symmetry_equiv_pos_as_xyz
  1  'x, y, z'
loop_
 _atom_site_type_symbol
 _atom_site_label
 _atom_site_symmetry_multiplicity
 _atom_site_fract_x
 _atom_site_fract_y
 _atom_site_fract_z
 _atom_site_occupancy
  Pr  Pr0  1  0.715551  0.211327  0.966186  1
  Pr  Pr1  1  0.789951  0.274135  0.538248  1
  Pr  Pr2  1  0.276426  0.795095  0.035621  1
  Pr  Pr3  1  0.208690  0.718626  0.463166  1
  Pr  Pr4  1  0.988920  0.732564  0.836383  1
  Pr  Pr5  1  0.269666  0.020224  0.657330  1
  Pr  Pr6  1  0.004710  0.269344  0.168732  1
  Ho  Ho7  1  0.747125  0.973423  0.336556  1
  Ge  Ge8  1  0.776350  0.593699  0.687598  1
  Ge  Ge9  1  0.406284  0.225472  0.810236  1
  Ge  Ge10  1  0.229677  0.405360  0.305193  1
  Ge  Ge11  1  0.589969  0.778786  0.195898  1
  O  O12  1  0.769806  0.639525  0.059591  1
  O  O13  1  0.392006  0.220490  0.427211  1
  O  O14  1  0.224716  0.365121  0.945698  1
  O  O15  1  0.640845  0.780494  0.550722  1
  O  O16  1  0.591740  0.581642  0.359739  1
  O  O17  1  0.398339  0.425483  0.129948  1
  O  O18  1  0.408920  0.414660  0.642945  1
  O  O19  1  0.586270  0.589385  0.855774  1
  O  O20  1  0.954456  0.645229  0.675683  1
  O  O21  1  0.348060  0.051178  0.825813  1
  O  O22  1  0.054839  0.338995  0.331157  1
  O  O23  1  0.650435  0.949484  0.184772  1
  O  O24  1  0.883247  0.069445  0.399122  1
  O  O25  1  0.911978  0.106267  0.114088  1
  O  O26  1  0.111700  0.922113  0.602676  1
  O  O27  1  0.075702  0.897970  0.893399  1
  O  O28  1  0.087062  0.671847  0.321090  1
  O  O29  1  0.323125  0.910362  0.185228  1
  O  O30  1  0.909821  0.329693  0.674332  1
  O  O31  1  0.673610  0.092562  0.819864  1
