# generated using pymatgen
data_Ce2Fe3Re14C3
_symmetry_space_group_name_H-M   'P 1'
_cell_length_a   6.94008064
_cell_length_b   6.94008247
_cell_length_c   6.94008169
_cell_angle_alpha   82.74595061
_cell_angle_beta   97.25405092
_cell_angle_gamma   97.25405121
_symmetry_Int_Tables_number   1
_chemical_formula_structural   Ce2Fe3Re14C3
_chemical_formula_sum   'Ce2 Fe3 Re14 C3'
_cell_volume   326.86386794
_cell_formula_units_Z   1
loop_
 _symmetry_equiv_pos_site_id
 _symmetry_equiv_pos_as_xyz
  1  'x, y, z'
loop_
 _atom_site_type_symbol
 _atom_site_label
 _atom_site_symmetry_multiplicity
 _atom_site_fract_x
 _atom_site_fract_y
 _atom_site_fract_z
 _atom_site_occupancy
  Ce  Ce0  1  0.650245  0.349756  0.349756  1
  Ce  Ce1  1  0.349756  0.650245  0.650245  1
  Fe  Fe2  1  0.500000  0.000000  0.000000  1
  Fe  Fe3  1  0.000000  0.500000  0.000000  1
  Fe  Fe4  1  0.000000  0.000000  0.500000  1
  Re  Re5  1  0.277429  0.277429  0.000000  1
  Re  Re6  1  0.722571  0.722571  0.000000  1
  Re  Re7  1  0.897651  0.102349  0.102350  1
  Re  Re8  1  0.345746  0.654255  0.138203  1
  Re  Re9  1  0.277428  0.000000  0.277428  1
  Re  Re10  1  0.000000  0.722571  0.277429  1
  Re  Re11  1  0.654255  0.861798  0.345745  1
  Re  Re12  1  0.138202  0.345744  0.345746  1
  Re  Re13  1  0.861798  0.654255  0.654255  1
  Re  Re14  1  0.345745  0.138202  0.654255  1
  Re  Re15  1  0.000000  0.277429  0.722571  1
  Re  Re16  1  0.722571  0.000000  0.722571  1
  Re  Re17  1  0.654254  0.345744  0.861799  1
  Re  Re18  1  0.102350  0.897650  0.897651  1
  C  C19  1  0.500001  0.500001  0.000000  1
  C  C20  1  0.000000  0.500001  0.500000  1
  C  C21  1  0.500000  0.000000  0.500000  1
