# generated using pymatgen
data_SrLa(CoO2)6
_symmetry_space_group_name_H-M   'P 1'
_cell_length_a   4.94115257
_cell_length_b   5.90043669
_cell_length_c   8.54666600
_cell_angle_alpha   89.99996350
_cell_angle_beta   90.00044570
_cell_angle_gamma   74.06675890
_symmetry_Int_Tables_number   1
_chemical_formula_structural   SrLa(CoO2)6
_chemical_formula_sum   'Sr1 La1 Co6 O12'
_cell_volume   239.60483048
_cell_formula_units_Z   1
loop_
 _symmetry_equiv_pos_site_id
 _symmetry_equiv_pos_as_xyz
  1  'x, y, z'
loop_
 _atom_site_type_symbol
 _atom_site_label
 _atom_site_symmetry_multiplicity
 _atom_site_fract_x
 _atom_site_fract_y
 _atom_site_fract_z
 _atom_site_occupancy
  Sr  Sr0  1  0.000002  0.500001  0.166692  1
  La  La1  1  0.500000  0.499998  0.666692  1
  Co  Co2  1  0.500001  0.000001  0.166659  1
  Co  Co3  1  0.500000  0.999999  0.834264  1
  Co  Co4  1  0.499999  0.000001  0.499059  1
  Co  Co5  1  0.000000  0.000000  0.666664  1
  Co  Co6  1  0.999999  0.000002  0.334290  1
  Co  Co7  1  0.000001  0.000000  0.999034  1
  O  O8  1  0.773168  0.171298  0.166670  1
  O  O9  1  0.274698  0.179614  0.666674  1
  O  O10  1  0.226833  0.828704  0.166673  1
  O  O11  1  0.725301  0.820385  0.666673  1
  O  O12  1  0.278377  0.172664  0.001339  1
  O  O13  1  0.772954  0.180481  0.500786  1
  O  O14  1  0.278368  0.172655  0.331986  1
  O  O15  1  0.772949  0.180486  0.832537  1
  O  O16  1  0.721626  0.827350  0.331985  1
  O  O17  1  0.227050  0.819512  0.832536  1
  O  O18  1  0.721628  0.827332  0.001338  1
  O  O19  1  0.227046  0.819519  0.500784  1
