# generated using pymatgen
data_Ac3Rh3Pb4
_symmetry_space_group_name_H-M   'P 1'
_cell_length_a   8.99240231
_cell_length_b   8.99240395
_cell_length_c   8.99240300
_cell_angle_alpha   109.47122075
_cell_angle_beta   109.47122445
_cell_angle_gamma   109.47121949
_symmetry_Int_Tables_number   1
_chemical_formula_structural   Ac3Rh3Pb4
_chemical_formula_sum   'Ac6 Rh6 Pb8'
_cell_volume   559.76455146
_cell_formula_units_Z   2
loop_
 _symmetry_equiv_pos_site_id
 _symmetry_equiv_pos_as_xyz
  1  'x, y, z'
loop_
 _atom_site_type_symbol
 _atom_site_label
 _atom_site_symmetry_multiplicity
 _atom_site_fract_x
 _atom_site_fract_y
 _atom_site_fract_z
 _atom_site_occupancy
  Ac  Ac0  1  0.625000  0.375000  0.750000  1
  Ac  Ac1  1  0.875000  0.125000  0.250000  1
  Ac  Ac2  1  0.375000  0.750000  0.625000  1
  Ac  Ac3  1  0.125000  0.250000  0.875000  1
  Ac  Ac4  1  0.750000  0.625000  0.375000  1
  Ac  Ac5  1  0.250000  0.875000  0.125000  1
  Rh  Rh6  1  0.125000  0.875000  0.750000  1
  Rh  Rh7  1  0.375000  0.625000  0.250000  1
  Rh  Rh8  1  0.875000  0.750000  0.125000  1
  Rh  Rh9  1  0.625000  0.250000  0.375000  1
  Rh  Rh10  1  0.750000  0.125000  0.875000  1
  Rh  Rh11  1  0.250000  0.375000  0.625000  1
  Pb  Pb12  1  0.842187  0.842187  0.842187  1
  Pb  Pb13  1  0.657813  0.000000  0.500000  1
  Pb  Pb14  1  0.500000  0.657813  0.000000  1
  Pb  Pb15  1  0.342187  0.342187  0.342187  1
  Pb  Pb16  1  0.000000  0.500000  0.657813  1
  Pb  Pb17  1  0.157813  0.000000  0.500000  1
  Pb  Pb18  1  0.000000  0.500000  0.157813  1
  Pb  Pb19  1  0.500000  0.157813  0.000000  1
