# generated using pymatgen
data_Tb9Y3Tc3Pt
_symmetry_space_group_name_H-M   'P 1'
_cell_length_a   6.33296311
_cell_length_b   7.42569324
_cell_length_c   9.24763329
_cell_angle_alpha   89.98040270
_cell_angle_beta   90.02119838
_cell_angle_gamma   90.09181788
_symmetry_Int_Tables_number   1
_chemical_formula_structural   Tb9Y3Tc3Pt
_chemical_formula_sum   'Tb9 Y3 Tc3 Pt1'
_cell_volume   434.88452075
_cell_formula_units_Z   1
loop_
 _symmetry_equiv_pos_site_id
 _symmetry_equiv_pos_as_xyz
  1  'x, y, z'
loop_
 _atom_site_type_symbol
 _atom_site_label
 _atom_site_symmetry_multiplicity
 _atom_site_fract_x
 _atom_site_fract_y
 _atom_site_fract_z
 _atom_site_occupancy
  Tb  Tb0  1  0.124738  0.039479  0.250029  1
  Tb  Tb1  1  0.629610  0.454904  0.749950  1
  Tb  Tb2  1  0.371158  0.543274  0.250043  1
  Tb  Tb3  1  0.665670  0.176981  0.064403  1
  Tb  Tb4  1  0.168447  0.319100  0.940485  1
  Tb  Tb5  1  0.828276  0.675161  0.432711  1
  Tb  Tb6  1  0.336541  0.827759  0.560663  1
  Tb  Tb7  1  0.336246  0.827364  0.939073  1
  Tb  Tb8  1  0.828540  0.675745  0.067719  1
  Y  Y9  1  0.870144  0.965071  0.749840  1
  Y  Y10  1  0.168741  0.319252  0.559097  1
  Y  Y11  1  0.665687  0.176977  0.436041  1
  Tc  Tc12  1  0.964478  0.387188  0.249764  1
  Tc  Tc13  1  0.456934  0.113821  0.750594  1
  Tc  Tc14  1  0.538378  0.884845  0.249300  1
  Pt  Pt15  1  0.046409  0.613077  0.750287  1
