# generated using pymatgen
data_CaYb2(Al3Pd2)3
_symmetry_space_group_name_H-M   'P 1'
_cell_length_a   4.24628700
_cell_length_b   9.42824817
_cell_length_c   9.42684676
_cell_angle_alpha   120.00456131
_cell_angle_beta   90.00000000
_cell_angle_gamma   90.00000000
_symmetry_Int_Tables_number   1
_chemical_formula_structural   CaYb2(Al3Pd2)3
_chemical_formula_sum   'Ca1 Yb2 Al9 Pd6'
_cell_volume   326.82665221
_cell_formula_units_Z   1
loop_
 _symmetry_equiv_pos_site_id
 _symmetry_equiv_pos_as_xyz
  1  'x, y, z'
loop_
 _atom_site_type_symbol
 _atom_site_label
 _atom_site_symmetry_multiplicity
 _atom_site_fract_x
 _atom_site_fract_y
 _atom_site_fract_z
 _atom_site_occupancy
  Ca  Ca0  1  0.000000  0.999980  0.000004  1
  Yb  Yb1  1  0.500000  0.333433  0.666871  1
  Yb  Yb2  1  0.500000  0.666559  0.333124  1
  Al  Al3  1  0.500000  0.305193  0.000003  1
  Al  Al4  1  0.500000  0.694944  0.694878  1
  Al  Al5  1  0.500000  0.000069  0.305123  1
  Al  Al6  1  0.500000  0.694798  0.000002  1
  Al  Al7  1  0.500000  0.305051  0.305123  1
  Al  Al8  1  0.500000  0.999930  0.694877  1
  Al  Al9  1  0.000000  0.499990  0.000001  1
  Al  Al10  1  0.000000  0.500000  0.499994  1
  Al  Al11  1  0.000000  0.000007  0.500001  1
  Pd  Pd12  1  0.000000  0.184601  0.369196  1
  Pd  Pd13  1  0.000000  0.184525  0.815426  1
  Pd  Pd14  1  0.000000  0.630867  0.815418  1
  Pd  Pd15  1  0.000000  0.815406  0.630807  1
  Pd  Pd16  1  0.000000  0.369101  0.184573  1
  Pd  Pd17  1  0.000000  0.815447  0.184580  1
