# generated using pymatgen
data_La8Y9Si16Ag3
_symmetry_space_group_name_H-M   'P 1'
_cell_length_a   7.29762900
_cell_length_b   7.84731155
_cell_length_c   14.95661800
_cell_angle_alpha   90.00000000
_cell_angle_beta   90.00000000
_cell_angle_gamma   89.82275273
_symmetry_Int_Tables_number   1
_chemical_formula_structural   La8Y9Si16Ag3
_chemical_formula_sum   'La8 Y9 Si16 Ag3'
_cell_volume   856.51307964
_cell_formula_units_Z   1
loop_
 _symmetry_equiv_pos_site_id
 _symmetry_equiv_pos_as_xyz
  1  'x, y, z'
loop_
 _atom_site_type_symbol
 _atom_site_label
 _atom_site_symmetry_multiplicity
 _atom_site_fract_x
 _atom_site_fract_y
 _atom_site_fract_z
 _atom_site_occupancy
  La  La0  1  0.023335  0.183676  0.395232  1
  La  La1  1  0.522391  0.313436  0.397297  1
  La  La2  1  0.473123  0.673651  0.899369  1
  La  La3  1  0.473123  0.673651  0.600631  1
  La  La4  1  0.984865  0.812227  0.599564  1
  La  La5  1  0.984865  0.812227  0.900436  1
  La  La6  1  0.522391  0.313436  0.102703  1
  La  La7  1  0.023335  0.183676  0.104768  1
  Y  Y8  1  0.316274  0.190715  0.625512  1
  Y  Y9  1  0.672415  0.820280  0.372984  1
  Y  Y10  1  0.650119  0.993579  0.750000  1
  Y  Y11  1  0.176359  0.684475  0.371081  1
  Y  Y12  1  0.833795  0.325467  0.874403  1
  Y  Y13  1  0.833795  0.325467  0.625597  1
  Y  Y14  1  0.316274  0.190715  0.874488  1
  Y  Y15  1  0.176359  0.684475  0.128919  1
  Y  Y16  1  0.672415  0.820280  0.127016  1
  Si  Si17  1  0.275192  0.889312  0.750000  1
  Si  Si18  1  0.479300  0.591479  0.250000  1
  Si  Si19  1  0.024129  0.092293  0.750000  1
  Si  Si20  1  0.533517  0.390481  0.750000  1
  Si  Si21  1  0.148606  0.463929  0.526884  1
  Si  Si22  1  0.974865  0.907491  0.250000  1
  Si  Si23  1  0.727603  0.110904  0.250000  1
  Si  Si24  1  0.848877  0.534933  0.035686  1
  Si  Si25  1  0.348346  0.964820  0.030282  1
  Si  Si26  1  0.148606  0.463929  0.973116  1
  Si  Si27  1  0.645995  0.027850  0.539987  1
  Si  Si28  1  0.348346  0.964820  0.469718  1
  Si  Si29  1  0.848877  0.534933  0.464314  1
  Si  Si30  1  0.769877  0.618326  0.750000  1
  Si  Si31  1  0.230799  0.389369  0.250000  1
  Si  Si32  1  0.645995  0.027850  0.960013  1
  Ag  Ag33  1  0.847013  0.481195  0.250000  1
  Ag  Ag34  1  0.347083  0.021930  0.250000  1
  Ag  Ag35  1  0.151741  0.522724  0.750000  1
