# generated using pymatgen
data_Zr6Ti3Al12MoOs7
_symmetry_space_group_name_H-M   'P 1'
_cell_length_a   8.81342009
_cell_length_b   8.81342035
_cell_length_c   8.80455580
_cell_angle_alpha   59.96668794
_cell_angle_beta   59.96668494
_cell_angle_gamma   60.00000367
_symmetry_Int_Tables_number   1
_chemical_formula_structural   Zr6Ti3Al12MoOs7
_chemical_formula_sum   'Zr6 Ti3 Al12 Mo1 Os7'
_cell_volume   483.35092459
_cell_formula_units_Z   1
loop_
 _symmetry_equiv_pos_site_id
 _symmetry_equiv_pos_as_xyz
  1  'x, y, z'
loop_
 _atom_site_type_symbol
 _atom_site_label
 _atom_site_symmetry_multiplicity
 _atom_site_fract_x
 _atom_site_fract_y
 _atom_site_fract_z
 _atom_site_occupancy
  Zr  Zr0  1  0.706955  0.706955  0.293448  1
  Zr  Zr1  1  0.292641  0.706955  0.293448  1
  Zr  Zr2  1  0.706955  0.292641  0.293448  1
  Zr  Zr3  1  0.295173  0.295173  0.703082  1
  Zr  Zr4  1  0.706573  0.295173  0.703082  1
  Zr  Zr5  1  0.295173  0.706573  0.703082  1
  Ti  Ti6  1  0.881150  0.359562  0.878134  1
  Ti  Ti7  1  0.359562  0.881150  0.878134  1
  Ti  Ti8  1  0.881150  0.881150  0.878134  1
  Al  Al9  1  0.119582  0.119582  0.641254  1
  Al  Al10  1  0.121370  0.639534  0.117725  1
  Al  Al11  1  0.639534  0.121370  0.117725  1
  Al  Al12  1  0.121370  0.121370  0.117725  1
  Al  Al13  1  0.665517  0.665517  0.003451  1
  Al  Al14  1  0.662128  0.010016  0.665727  1
  Al  Al15  1  0.010016  0.662128  0.665727  1
  Al  Al16  1  0.662128  0.662128  0.665727  1
  Al  Al17  1  0.335077  0.335077  0.994771  1
  Al  Al18  1  0.333860  0.996080  0.336200  1
  Al  Al19  1  0.996080  0.333860  0.336200  1
  Al  Al20  1  0.333860  0.333860  0.336200  1
  Mo  Mo21  1  0.878811  0.878811  0.363565  1
  Os  Os22  1  0.997959  0.997959  0.006123  1
  Os  Os23  1  0.998708  0.998708  0.499991  1
  Os  Os24  1  0.502591  0.998708  0.499991  1
  Os  Os25  1  0.998708  0.502591  0.499991  1
  Os  Os26  1  0.499979  0.499979  0.002638  1
  Os  Os27  1  0.997404  0.499979  0.002638  1
  Os  Os28  1  0.499979  0.997404  0.002638  1
