# generated using pymatgen
data_Nd2SiPtCl2
_symmetry_space_group_name_H-M   'P 1'
_cell_length_a   4.21838000
_cell_length_b   4.21838079
_cell_length_c   11.10278500
_cell_angle_alpha   90.00000000
_cell_angle_beta   90.00000000
_cell_angle_gamma   120.00002517
_symmetry_Int_Tables_number   1
_chemical_formula_structural   Nd2SiPtCl2
_chemical_formula_sum   'Nd2 Si1 Pt1 Cl2'
_cell_volume   171.10154510
_cell_formula_units_Z   1
loop_
 _symmetry_equiv_pos_site_id
 _symmetry_equiv_pos_as_xyz
  1  'x, y, z'
loop_
 _atom_site_type_symbol
 _atom_site_label
 _atom_site_symmetry_multiplicity
 _atom_site_fract_x
 _atom_site_fract_y
 _atom_site_fract_z
 _atom_site_occupancy
  Nd  Nd0  1  0.000000  0.000000  0.180120  1
  Nd  Nd1  1  0.000000  0.000000  0.818794  1
  Si  Si2  1  0.666667  0.333333  0.988673  1
  Pt  Pt3  1  0.333333  0.666667  0.012314  1
  Cl  Cl4  1  0.333333  0.666667  0.671623  1
  Cl  Cl5  1  0.666667  0.333333  0.328477  1
