# generated using pymatgen
data_Pr4Sm4Sc12Si15Hg
_symmetry_space_group_name_H-M   'P 1'
_cell_length_a   7.25644064
_cell_length_b   7.50724495
_cell_length_c   14.30040058
_cell_angle_alpha   89.97552066
_cell_angle_beta   89.64722631
_cell_angle_gamma   90.21765289
_symmetry_Int_Tables_number   1
_chemical_formula_structural   Pr4Sm4Sc12Si15Hg
_chemical_formula_sum   'Pr4 Sm4 Sc12 Si15 Hg1'
_cell_volume   779.00640138
_cell_formula_units_Z   1
loop_
 _symmetry_equiv_pos_site_id
 _symmetry_equiv_pos_as_xyz
  1  'x, y, z'
loop_
 _atom_site_type_symbol
 _atom_site_label
 _atom_site_symmetry_multiplicity
 _atom_site_fract_x
 _atom_site_fract_y
 _atom_site_fract_z
 _atom_site_occupancy
  Pr  Pr0  1  0.011942  0.172359  0.098304  1
  Pr  Pr1  1  0.987438  0.829165  0.904111  1
  Pr  Pr2  1  0.488813  0.672127  0.904648  1
  Pr  Pr3  1  0.989012  0.834238  0.596684  1
  Sm  Sm4  1  0.511605  0.325860  0.098645  1
  Sm  Sm5  1  0.007805  0.170541  0.396563  1
  Sm  Sm6  1  0.512191  0.324220  0.398084  1
  Sm  Sm7  1  0.496015  0.680283  0.600402  1
  Sc  Sc8  1  0.162062  0.498482  0.754352  1
  Sc  Sc9  1  0.837641  0.500509  0.250230  1
  Sc  Sc10  1  0.338624  0.997759  0.248885  1
  Sc  Sc11  1  0.664443  0.001095  0.752045  1
  Sc  Sc12  1  0.343144  0.169018  0.628782  1
  Sc  Sc13  1  0.664465  0.823664  0.372808  1
  Sc  Sc14  1  0.167956  0.677029  0.370855  1
  Sc  Sc15  1  0.669667  0.823939  0.125312  1
  Sc  Sc16  1  0.823368  0.325029  0.625163  1
  Sc  Sc17  1  0.329707  0.175122  0.875818  1
  Sc  Sc18  1  0.829115  0.324161  0.876250  1
  Sc  Sc19  1  0.169572  0.675083  0.125532  1
  Si  Si20  1  0.036562  0.129387  0.750939  1
  Si  Si21  1  0.963432  0.876374  0.249401  1
  Si  Si22  1  0.465210  0.620956  0.248361  1
  Si  Si23  1  0.535388  0.378555  0.751139  1
  Si  Si24  1  0.288250  0.880357  0.750500  1
  Si  Si25  1  0.709202  0.121165  0.249172  1
  Si  Si26  1  0.213509  0.378594  0.249671  1
  Si  Si27  1  0.789337  0.618580  0.750743  1
  Si  Si28  1  0.835222  0.538174  0.457227  1
  Si  Si29  1  0.344560  0.961832  0.459194  1
  Si  Si30  1  0.846120  0.535713  0.040456  1
  Si  Si31  1  0.652054  0.040054  0.536046  1
  Si  Si32  1  0.150626  0.462232  0.962030  1
  Si  Si33  1  0.649926  0.040178  0.961677  1
  Si  Si34  1  0.349395  0.964836  0.040965  1
  Hg  Hg35  1  0.166624  0.453331  0.539004  1
