# generated using pymatgen
data_HfAl2MoRu4
_symmetry_space_group_name_H-M   'P 1'
_cell_length_a   4.39023700
_cell_length_b   6.20397500
_cell_length_c   13.12689700
_cell_angle_alpha   90.00000436
_cell_angle_beta   90.00140306
_cell_angle_gamma   89.99997771
_symmetry_Int_Tables_number   1
_chemical_formula_structural   HfAl2MoRu4
_chemical_formula_sum   'Hf3 Al6 Mo3 Ru12'
_cell_volume   357.53625116
_cell_formula_units_Z   3
loop_
 _symmetry_equiv_pos_site_id
 _symmetry_equiv_pos_as_xyz
  1  'x, y, z'
loop_
 _atom_site_type_symbol
 _atom_site_label
 _atom_site_symmetry_multiplicity
 _atom_site_fract_x
 _atom_site_fract_y
 _atom_site_fract_z
 _atom_site_occupancy
  Hf  Hf0  1  0.500006  0.500014  0.499239  1
  Hf  Hf1  1  0.000063  0.000001  0.666697  1
  Hf  Hf2  1  0.500024  0.500014  0.834093  1
  Al  Al3  1  0.000014  0.500028  0.002152  1
  Al  Al4  1  0.499939  0.999950  0.166641  1
  Al  Al5  1  0.999963  0.500033  0.331128  1
  Al  Al6  1  0.500011  0.999989  0.499919  1
  Al  Al7  1  0.000045  0.499995  0.666644  1
  Al  Al8  1  0.500034  0.999991  0.833399  1
  Mo  Mo9  1  0.000011  0.000042  0.999459  1
  Mo  Mo10  1  0.499948  0.499949  0.166606  1
  Mo  Mo11  1  0.999964  0.000043  0.333925  1
  Ru  Ru12  1  0.499995  0.245341  0.006546  1
  Ru  Ru13  1  0.499999  0.754652  0.006538  1
  Ru  Ru14  1  0.999935  0.250842  0.166659  1
  Ru  Ru15  1  0.999935  0.749163  0.166658  1
  Ru  Ru16  1  0.499958  0.245488  0.326713  1
  Ru  Ru17  1  0.499958  0.754506  0.326722  1
  Ru  Ru18  1  0.000011  0.245134  0.492423  1
  Ru  Ru19  1  0.000011  0.754853  0.492428  1
  Ru  Ru20  1  0.500063  0.250865  0.666663  1
  Ru  Ru21  1  0.500064  0.749130  0.666663  1
  Ru  Ru22  1  0.000024  0.245015  0.841044  1
  Ru  Ru23  1  0.000025  0.754967  0.841038  1
