# generated using pymatgen
data_LiMgSc2V3O12
_symmetry_space_group_name_H-M   'P 1'
_cell_length_a   6.94790689
_cell_length_b   8.42761347
_cell_length_c   10.10124335
_cell_angle_alpha   105.28369860
_cell_angle_beta   105.58708043
_cell_angle_gamma   101.87281733
_symmetry_Int_Tables_number   1
_chemical_formula_structural   LiMgSc2V3O12
_chemical_formula_sum   'Li2 Mg2 Sc4 V6 O24'
_cell_volume   524.65867959
_cell_formula_units_Z   2
loop_
 _symmetry_equiv_pos_site_id
 _symmetry_equiv_pos_as_xyz
  1  'x, y, z'
loop_
 _atom_site_type_symbol
 _atom_site_label
 _atom_site_symmetry_multiplicity
 _atom_site_fract_x
 _atom_site_fract_y
 _atom_site_fract_z
 _atom_site_occupancy
  Li  Li0  1  0.229427  0.023183  0.053836  1
  Li  Li1  1  0.725699  0.973561  0.939756  1
  Mg  Mg2  1  0.716251  0.218039  0.708347  1
  Mg  Mg3  1  0.263925  0.780185  0.286649  1
  Sc  Sc4  1  0.947187  0.284269  0.481495  1
  Sc  Sc5  1  0.607950  0.548245  0.885525  1
  Sc  Sc6  1  0.372921  0.449807  0.110053  1
  Sc  Sc7  1  0.033494  0.713769  0.513905  1
  V  V8  1  0.223774  0.160978  0.769029  1
  V  V9  1  0.398815  0.215517  0.374754  1
  V  V10  1  0.886509  0.409675  0.165382  1
  V  V11  1  0.094317  0.587861  0.829689  1
  V  V12  1  0.580860  0.782681  0.620850  1
  V  V13  1  0.756662  0.837006  0.226617  1
  O  O14  1  0.797747  0.049603  0.311514  1
  O  O15  1  0.241845  0.195328  0.952368  1
  O  O16  1  0.007782  0.218299  0.674111  1
  O  O17  1  0.296415  0.005260  0.252165  1
  O  O18  1  0.464893  0.275248  0.765408  1
  O  O19  1  0.642257  0.243109  0.507486  1
  O  O20  1  0.846468  0.202398  0.077717  1
  O  O21  1  0.859944  0.471027  0.841496  1
  O  O22  1  0.225674  0.262476  0.461102  1
  O  O23  1  0.919161  0.445714  0.352723  1
  O  O24  1  0.313782  0.526964  0.916717  1
  O  O25  1  0.427896  0.342596  0.267758  1
  O  O26  1  0.551033  0.657049  0.728947  1
  O  O27  1  0.667039  0.470846  0.078829  1
  O  O28  1  0.061619  0.551907  0.642320  1
  O  O29  1  0.755770  0.736466  0.535919  1
  O  O30  1  0.120340  0.527085  0.153401  1
  O  O31  1  0.134611  0.795017  0.917181  1
  O  O32  1  0.337821  0.754128  0.487292  1
  O  O33  1  0.515565  0.723004  0.230481  1
  O  O34  1  0.680203  0.993152  0.742866  1
  O  O35  1  0.972262  0.779281  0.321225  1
  O  O36  1  0.737582  0.802912  0.043066  1
  O  O37  1  0.183498  0.948451  0.684122  1
