# generated using pymatgen
data_La7Nd13(Ir3Pt)3
_symmetry_space_group_name_H-M   'P 1'
_cell_length_a   11.41797901
_cell_length_b   11.41103775
_cell_length_c   6.57563876
_cell_angle_alpha   89.88414662
_cell_angle_beta   89.83942000
_cell_angle_gamma   90.20903826
_symmetry_Int_Tables_number   1
_chemical_formula_structural   La7Nd13(Ir3Pt)3
_chemical_formula_sum   'La7 Nd13 Ir9 Pt3'
_cell_volume   856.73564392
_cell_formula_units_Z   1
loop_
 _symmetry_equiv_pos_site_id
 _symmetry_equiv_pos_as_xyz
  1  'x, y, z'
loop_
 _atom_site_type_symbol
 _atom_site_label
 _atom_site_symmetry_multiplicity
 _atom_site_fract_x
 _atom_site_fract_y
 _atom_site_fract_z
 _atom_site_occupancy
  La  La0  1  0.087399  0.288938  0.115431  1
  La  La1  1  0.791552  0.405052  0.114688  1
  La  La2  1  0.209033  0.590007  0.114366  1
  La  La3  1  0.908503  0.708617  0.114912  1
  La  La4  1  0.411104  0.791422  0.385714  1
  La  La5  1  0.595306  0.207553  0.385345  1
  La  La6  1  0.292027  0.091002  0.385344  1
  Nd  Nd7  1  0.710314  0.912839  0.383755  1
  Nd  Nd8  1  0.410989  0.205780  0.877619  1
  Nd  Nd9  1  0.707546  0.090471  0.882701  1
  Nd  Nd10  1  0.293975  0.910842  0.878309  1
  Nd  Nd11  1  0.590511  0.795699  0.876991  1
  Nd  Nd12  1  0.089062  0.705964  0.621845  1
  Nd  Nd13  1  0.908570  0.292475  0.616923  1
  Nd  Nd14  1  0.204814  0.410075  0.622905  1
  Nd  Nd15  1  0.794204  0.589390  0.622012  1
  Nd  Nd16  1  0.997937  0.001160  0.997161  1
  Nd  Nd17  1  0.500486  0.500281  0.996924  1
  Nd  Nd18  1  0.499911  0.499587  0.503017  1
  Nd  Nd19  1  0.998072  0.001462  0.503006  1
  Ir  Ir20  1  0.846166  0.152748  0.250779  1
  Ir  Ir21  1  0.347129  0.653135  0.749976  1
  Ir  Ir22  1  0.154655  0.153453  0.749514  1
  Ir  Ir23  1  0.847198  0.845048  0.750905  1
  Ir  Ir24  1  0.652439  0.347517  0.750013  1
  Ir  Ir25  1  0.000060  0.501197  0.375523  1
  Ir  Ir26  1  0.498520  0.999908  0.124089  1
  Ir  Ir27  1  0.499980  0.999269  0.616534  1
  Ir  Ir28  1  0.000400  0.500150  0.883283  1
  Pt  Pt29  1  0.153204  0.846671  0.250063  1
  Pt  Pt30  1  0.345222  0.346536  0.249659  1
  Pt  Pt31  1  0.653712  0.655752  0.250693  1
