# generated using pymatgen
data_Dy16In3Rh4Au
_symmetry_space_group_name_H-M   'P 1'
_cell_length_a   9.62127496
_cell_length_b   9.62221982
_cell_length_c   9.60364433
_cell_angle_alpha   59.93310214
_cell_angle_beta   59.93086638
_cell_angle_gamma   59.92605159
_symmetry_Int_Tables_number   1
_chemical_formula_structural   Dy16In3Rh4Au
_chemical_formula_sum   'Dy16 In3 Rh4 Au1'
_cell_volume   627.68091568
_cell_formula_units_Z   1
loop_
 _symmetry_equiv_pos_site_id
 _symmetry_equiv_pos_as_xyz
  1  'x, y, z'
loop_
 _atom_site_type_symbol
 _atom_site_label
 _atom_site_symmetry_multiplicity
 _atom_site_fract_x
 _atom_site_fract_y
 _atom_site_fract_z
 _atom_site_occupancy
  Dy  Dy0  1  0.690638  0.310398  0.309373  1
  Dy  Dy1  1  0.689980  0.689960  0.311892  1
  Dy  Dy2  1  0.310373  0.690631  0.309385  1
  Dy  Dy3  1  0.936955  0.936954  0.554426  1
  Dy  Dy4  1  0.148966  0.148921  0.550608  1
  Dy  Dy5  1  0.569289  0.938491  0.554102  1
  Dy  Dy6  1  0.151418  0.151369  0.149357  1
  Dy  Dy7  1  0.309766  0.309783  0.691047  1
  Dy  Dy8  1  0.938526  0.569233  0.554094  1
  Dy  Dy9  1  0.563373  0.563361  0.935700  1
  Dy  Dy10  1  0.563995  0.936869  0.933941  1
  Dy  Dy11  1  0.936907  0.563950  0.933983  1
  Dy  Dy12  1  0.147793  0.552543  0.147905  1
  Dy  Dy13  1  0.310795  0.690690  0.691086  1
  Dy  Dy14  1  0.690681  0.310815  0.691075  1
  Dy  Dy15  1  0.552455  0.147790  0.147947  1
  In  In16  1  0.244116  0.917568  0.922822  1
  In  In17  1  0.917497  0.244190  0.922885  1
  In  In18  1  0.917301  0.917300  0.921700  1
  Rh  Rh19  1  0.356959  0.357003  0.357463  1
  Rh  Rh20  1  0.926827  0.357612  0.357372  1
  Rh  Rh21  1  0.357762  0.357831  0.926082  1
  Rh  Rh22  1  0.357602  0.926757  0.357417  1
  Au  Au23  1  0.910026  0.909978  0.268336  1
