# generated using pymatgen
data_Gd5Y2Tm(ReC2)4
_symmetry_space_group_name_H-M   'P 1'
_cell_length_a   5.15173000
_cell_length_b   6.60156729
_cell_length_c   9.91271949
_cell_angle_alpha   90.14655652
_cell_angle_beta   90.00000000
_cell_angle_gamma   90.00000000
_symmetry_Int_Tables_number   1
_chemical_formula_structural   Gd5Y2Tm(ReC2)4
_chemical_formula_sum   'Gd5 Y2 Tm1 Re4 C8'
_cell_volume   337.12545364
_cell_formula_units_Z   1
loop_
 _symmetry_equiv_pos_site_id
 _symmetry_equiv_pos_as_xyz
  1  'x, y, z'
loop_
 _atom_site_type_symbol
 _atom_site_label
 _atom_site_symmetry_multiplicity
 _atom_site_fract_x
 _atom_site_fract_y
 _atom_site_fract_z
 _atom_site_occupancy
  Gd  Gd0  1  0.250000  0.467716  0.783258  1
  Gd  Gd1  1  0.750000  0.033151  0.285283  1
  Gd  Gd2  1  0.250000  0.967829  0.714734  1
  Gd  Gd3  1  0.750000  0.531931  0.216559  1
  Gd  Gd4  1  0.250000  0.818756  0.054905  1
  Y  Y5  1  0.750000  0.678453  0.555142  1
  Y  Y6  1  0.750000  0.180279  0.943830  1
  Tm  Tm7  1  0.250000  0.323772  0.443555  1
  Re  Re8  1  0.250000  0.277893  0.137505  1
  Re  Re9  1  0.750000  0.221986  0.633919  1
  Re  Re10  1  0.250000  0.777980  0.365871  1
  Re  Re11  1  0.750000  0.722265  0.862929  1
  C  C12  1  0.250000  0.179573  0.953943  1
  C  C13  1  0.750000  0.821503  0.046144  1
  C  C14  1  0.250000  0.673882  0.547616  1
  C  C15  1  0.750000  0.323383  0.451314  1
  C  C16  1  0.250000  0.046005  0.262123  1
  C  C17  1  0.750000  0.454614  0.758457  1
  C  C18  1  0.250000  0.543523  0.243404  1
  C  C19  1  0.750000  0.955505  0.739515  1
