# generated using pymatgen
data_V4Co2NiSe12
_symmetry_space_group_name_H-M   'P 1'
_cell_length_a   7.02302583
_cell_length_b   7.02302637
_cell_length_c   18.87951431
_cell_angle_alpha   68.58385989
_cell_angle_beta   68.58385865
_cell_angle_gamma   27.12989489
_symmetry_Int_Tables_number   1
_chemical_formula_structural   V4Co2NiSe12
_chemical_formula_sum   'V4 Co2 Ni1 Se12'
_cell_volume   393.53866390
_cell_formula_units_Z   1
loop_
 _symmetry_equiv_pos_site_id
 _symmetry_equiv_pos_as_xyz
  1  'x, y, z'
loop_
 _atom_site_type_symbol
 _atom_site_label
 _atom_site_symmetry_multiplicity
 _atom_site_fract_x
 _atom_site_fract_y
 _atom_site_fract_z
 _atom_site_occupancy
  V  V0  1  0.621864  0.621864  0.851022  1
  V  V1  1  0.378136  0.378136  0.148978  1
  V  V2  1  0.743903  0.743903  0.594398  1
  V  V3  1  0.256097  0.256097  0.405602  1
  Co  Co4  1  0.230541  0.230541  0.717793  1
  Co  Co5  1  0.769459  0.769459  0.282207  1
  Ni  Ni6  1  0.000000  0.000000  0.000000  1
  Se  Se7  1  0.972978  0.972978  0.886655  1
  Se  Se8  1  0.027022  0.027022  0.113345  1
  Se  Se9  1  0.627022  0.627022  0.398467  1
  Se  Se10  1  0.372978  0.372978  0.601533  1
  Se  Se11  1  0.139594  0.139594  0.549704  1
  Se  Se12  1  0.860406  0.860406  0.450296  1
  Se  Se13  1  0.807149  0.807149  0.768048  1
  Se  Se14  1  0.192851  0.192851  0.231952  1
  Se  Se15  1  0.179721  0.179721  0.927779  1
  Se  Se16  1  0.820279  0.820279  0.072221  1
  Se  Se17  1  0.603173  0.603173  0.721853  1
  Se  Se18  1  0.396827  0.396827  0.278147  1
