# generated using pymatgen
data_Nd16AlAg3Pt4
_symmetry_space_group_name_H-M   'P 1'
_cell_length_a   9.92953920
_cell_length_b   9.99236644
_cell_length_c   9.99236700
_cell_angle_alpha   60.00000147
_cell_angle_beta   59.79047420
_cell_angle_gamma   59.79047611
_symmetry_Int_Tables_number   1
_chemical_formula_structural   Nd16AlAg3Pt4
_chemical_formula_sum   'Nd16 Al1 Ag3 Pt4'
_cell_volume   698.82454418
_cell_formula_units_Z   1
loop_
 _symmetry_equiv_pos_site_id
 _symmetry_equiv_pos_as_xyz
  1  'x, y, z'
loop_
 _atom_site_type_symbol
 _atom_site_label
 _atom_site_symmetry_multiplicity
 _atom_site_fract_x
 _atom_site_fract_y
 _atom_site_fract_z
 _atom_site_occupancy
  Nd  Nd0  1  0.353185  0.353417  0.353417  1
  Nd  Nd1  1  0.353185  0.353417  0.939980  1
  Nd  Nd2  1  0.353185  0.939980  0.353417  1
  Nd  Nd3  1  0.939681  0.353439  0.353439  1
  Nd  Nd4  1  0.811432  0.189308  0.189308  1
  Nd  Nd5  1  0.193524  0.804974  0.804974  1
  Nd  Nd6  1  0.193524  0.804974  0.196529  1
  Nd  Nd7  1  0.811432  0.189308  0.809954  1
  Nd  Nd8  1  0.193524  0.196529  0.804974  1
  Nd  Nd9  1  0.811432  0.809954  0.189308  1
  Nd  Nd10  1  0.931969  0.565147  0.565147  1
  Nd  Nd11  1  0.562371  0.936382  0.936382  1
  Nd  Nd12  1  0.562371  0.936382  0.564866  1
  Nd  Nd13  1  0.931969  0.565147  0.937737  1
  Nd  Nd14  1  0.562371  0.564866  0.936382  1
  Nd  Nd15  1  0.931969  0.937737  0.565147  1
  Al  Al16  1  0.266673  0.577776  0.577776  1
  Ag  Ag17  1  0.577793  0.582442  0.582442  1
  Ag  Ag18  1  0.577793  0.582442  0.257324  1
  Ag  Ag19  1  0.577793  0.257324  0.582442  1
  Pt  Pt20  1  0.144513  0.143011  0.143011  1
  Pt  Pt21  1  0.144513  0.143011  0.569465  1
  Pt  Pt22  1  0.144513  0.569465  0.143011  1
  Pt  Pt23  1  0.569289  0.143570  0.143570  1
