# generated using pymatgen
data_CeHo9(Sn3C)2
_symmetry_space_group_name_H-M   'P 1'
_cell_length_a   8.96429257
_cell_length_b   8.96429280
_cell_length_c   6.51540700
_cell_angle_alpha   90.00000000
_cell_angle_beta   90.00000000
_cell_angle_gamma   120.26831788
_symmetry_Int_Tables_number   1
_chemical_formula_structural   CeHo9(Sn3C)2
_chemical_formula_sum   'Ce1 Ho9 Sn6 C2'
_cell_volume   452.19281069
_cell_formula_units_Z   1
loop_
 _symmetry_equiv_pos_site_id
 _symmetry_equiv_pos_as_xyz
  1  'x, y, z'
loop_
 _atom_site_type_symbol
 _atom_site_label
 _atom_site_symmetry_multiplicity
 _atom_site_fract_x
 _atom_site_fract_y
 _atom_site_fract_z
 _atom_site_occupancy
  Ce  Ce0  1  0.788910  0.788910  0.250000  1
  Ho  Ho1  1  0.667591  0.333529  0.500767  1
  Ho  Ho2  1  0.333529  0.667591  0.500767  1
  Ho  Ho3  1  0.333529  0.667591  0.999233  1
  Ho  Ho4  1  0.667591  0.333529  0.999233  1
  Ho  Ho5  1  0.215805  0.001307  0.250000  1
  Ho  Ho6  1  0.001307  0.215805  0.250000  1
  Ho  Ho7  1  0.213698  0.213698  0.750000  1
  Ho  Ho8  1  0.786856  0.000611  0.750000  1
  Ho  Ho9  1  0.000611  0.786856  0.750000  1
  Sn  Sn10  1  0.407984  0.407984  0.250000  1
  Sn  Sn11  1  0.591316  0.002423  0.250000  1
  Sn  Sn12  1  0.002423  0.591316  0.250000  1
  Sn  Sn13  1  0.591989  0.591989  0.750000  1
  Sn  Sn14  1  0.405498  0.000924  0.750000  1
  Sn  Sn15  1  0.000924  0.405498  0.750000  1
  C  C16  1  0.995219  0.995219  0.498360  1
  C  C17  1  0.995219  0.995219  0.001640  1
