# generated using pymatgen
data_Y2PaSn3PtRh2
_symmetry_space_group_name_H-M   'P 1'
_cell_length_a   7.55018507
_cell_length_b   7.50100873
_cell_length_c   3.99894400
_cell_angle_alpha   90.00000000
_cell_angle_beta   90.00000000
_cell_angle_gamma   120.55034365
_symmetry_Int_Tables_number   1
_chemical_formula_structural   Y2PaSn3PtRh2
_chemical_formula_sum   'Y2 Pa1 Sn3 Pt1 Rh2'
_cell_volume   195.03743400
_cell_formula_units_Z   1
loop_
 _symmetry_equiv_pos_site_id
 _symmetry_equiv_pos_as_xyz
  1  'x, y, z'
loop_
 _atom_site_type_symbol
 _atom_site_label
 _atom_site_symmetry_multiplicity
 _atom_site_fract_x
 _atom_site_fract_y
 _atom_site_fract_z
 _atom_site_occupancy
  Y  Y0  1  0.999664  0.405358  0.500000  1
  Y  Y1  1  0.594169  0.593574  0.500000  1
  Pa  Pa2  1  0.416080  0.008639  0.500000  1
  Sn  Sn3  1  0.758174  0.002822  0.000000  1
  Sn  Sn4  1  0.985394  0.730941  0.000000  1
  Sn  Sn5  1  0.255130  0.266874  0.000000  1
  Pt  Pt6  1  0.334742  0.689187  0.000000  1
  Rh  Rh7  1  0.639714  0.303936  0.000000  1
  Rh  Rh8  1  0.016932  0.998669  0.500000  1
