# generated using pymatgen
data_Ho2Tm3(OsO6)2
_symmetry_space_group_name_H-M   'P 1'
_cell_length_a   6.80972752
_cell_length_b   6.80972671
_cell_length_c   7.41627604
_cell_angle_alpha   74.10124565
_cell_angle_beta   74.10124576
_cell_angle_gamma   48.77147185
_symmetry_Int_Tables_number   1
_chemical_formula_structural   Ho2Tm3(OsO6)2
_chemical_formula_sum   'Ho2 Tm3 Os2 O12'
_cell_volume   246.67402092
_cell_formula_units_Z   1
loop_
 _symmetry_equiv_pos_site_id
 _symmetry_equiv_pos_as_xyz
  1  'x, y, z'
loop_
 _atom_site_type_symbol
 _atom_site_label
 _atom_site_symmetry_multiplicity
 _atom_site_fract_x
 _atom_site_fract_y
 _atom_site_fract_z
 _atom_site_occupancy
  Ho  Ho0  1  0.800778  0.800778  0.358097  1
  Ho  Ho1  1  0.199222  0.199222  0.641903  1
  Tm  Tm2  1  0.187911  0.187911  0.172316  1
  Tm  Tm3  1  0.812089  0.812089  0.827684  1
  Tm  Tm4  1  0.500000  0.500000  0.500000  1
  Os  Os5  1  0.280658  0.719342  0.000000  1
  Os  Os6  1  0.719342  0.280658  0.000000  1
  O  O7  1  0.414469  0.921023  0.914048  1
  O  O8  1  0.078977  0.585531  0.085952  1
  O  O9  1  0.585531  0.078977  0.085952  1
  O  O10  1  0.921023  0.414469  0.914048  1
  O  O11  1  0.599963  0.096843  0.573654  1
  O  O12  1  0.903157  0.400037  0.426346  1
  O  O13  1  0.400037  0.903157  0.426346  1
  O  O14  1  0.999892  0.999892  0.823605  1
  O  O15  1  0.000108  0.000108  0.176395  1
  O  O16  1  0.498586  0.498586  0.793971  1
  O  O17  1  0.501414  0.501414  0.206029  1
  O  O18  1  0.096843  0.599963  0.573654  1
