# generated using pymatgen
data_Sc4Re6MoW
_symmetry_space_group_name_H-M   'P 1'
_cell_length_a   5.32743500
_cell_length_b   5.32743608
_cell_length_c   8.65060800
_cell_angle_alpha   90.00000000
_cell_angle_beta   90.00000000
_cell_angle_gamma   119.99999953
_symmetry_Int_Tables_number   1
_chemical_formula_structural   Sc4Re6MoW
_chemical_formula_sum   'Sc4 Re6 Mo1 W1'
_cell_volume   212.62468005
_cell_formula_units_Z   1
loop_
 _symmetry_equiv_pos_site_id
 _symmetry_equiv_pos_as_xyz
  1  'x, y, z'
loop_
 _atom_site_type_symbol
 _atom_site_label
 _atom_site_symmetry_multiplicity
 _atom_site_fract_x
 _atom_site_fract_y
 _atom_site_fract_z
 _atom_site_occupancy
  Sc  Sc0  1  0.333333  0.666667  0.437381  1
  Sc  Sc1  1  0.666667  0.333333  0.937401  1
  Sc  Sc2  1  0.666667  0.333333  0.562619  1
  Sc  Sc3  1  0.333333  0.666667  0.062599  1
  Re  Re4  1  0.656509  0.828255  0.749988  1
  Re  Re5  1  0.343491  0.171745  0.250012  1
  Re  Re6  1  0.828255  0.171745  0.250012  1
  Re  Re7  1  0.171745  0.343491  0.749988  1
  Re  Re8  1  0.171745  0.828255  0.749988  1
  Re  Re9  1  0.828255  0.656509  0.250012  1
  Mo  Mo10  1  0.000000  0.000000  0.000000  1
  W  W11  1  0.000000  0.000000  0.500000  1
