# generated using pymatgen
data_La3Tb2Sn10Ir3Rh
_symmetry_space_group_name_H-M   'P 1'
_cell_length_a   14.21901515
_cell_length_b   14.22586515
_cell_length_c   4.64190800
_cell_angle_alpha   90.00000000
_cell_angle_beta   90.00000000
_cell_angle_gamma   90.06299844
_symmetry_Int_Tables_number   1
_chemical_formula_structural   La3Tb2Sn10Ir3Rh
_chemical_formula_sum   'La6 Tb4 Sn20 Ir6 Rh2'
_cell_volume   938.95433365
_cell_formula_units_Z   2
loop_
 _symmetry_equiv_pos_site_id
 _symmetry_equiv_pos_as_xyz
  1  'x, y, z'
loop_
 _atom_site_type_symbol
 _atom_site_label
 _atom_site_symmetry_multiplicity
 _atom_site_fract_x
 _atom_site_fract_y
 _atom_site_fract_z
 _atom_site_occupancy
  La  La0  1  0.500000  0.500000  0.000000  1
  La  La1  1  0.000000  0.000000  0.000000  1
  La  La2  1  0.887752  0.386736  0.500000  1
  La  La3  1  0.112248  0.613264  0.500000  1
  La  La4  1  0.386931  0.113029  0.500000  1
  La  La5  1  0.613069  0.886971  0.500000  1
  Tb  Tb6  1  0.675802  0.175907  0.500000  1
  Tb  Tb7  1  0.324198  0.824093  0.500000  1
  Tb  Tb8  1  0.174719  0.323440  0.500000  1
  Tb  Tb9  1  0.825281  0.676560  0.500000  1
  Sn  Sn10  1  0.570001  0.069993  0.000000  1
  Sn  Sn11  1  0.429999  0.930007  0.000000  1
  Sn  Sn12  1  0.070586  0.430622  0.000000  1
  Sn  Sn13  1  0.929414  0.569378  0.000000  1
  Sn  Sn14  1  0.655496  0.697969  0.000000  1
  Sn  Sn15  1  0.344504  0.302031  0.000000  1
  Sn  Sn16  1  0.155397  0.801572  0.000000  1
  Sn  Sn17  1  0.844603  0.198428  0.000000  1
  Sn  Sn18  1  0.301888  0.654784  0.000000  1
  Sn  Sn19  1  0.698112  0.345216  0.000000  1
  Sn  Sn20  1  0.198414  0.155438  0.000000  1
  Sn  Sn21  1  0.801586  0.844562  0.000000  1
  Sn  Sn22  1  0.664342  0.506255  0.500000  1
  Sn  Sn23  1  0.335658  0.493745  0.500000  1
  Sn  Sn24  1  0.163325  0.993580  0.500000  1
  Sn  Sn25  1  0.836675  0.006420  0.500000  1
  Sn  Sn26  1  0.493531  0.663251  0.500000  1
  Sn  Sn27  1  0.506469  0.336749  0.500000  1
  Sn  Sn28  1  0.006214  0.163250  0.500000  1
  Sn  Sn29  1  0.993786  0.836750  0.500000  1
  Ir  Ir30  1  0.247562  0.970730  0.000000  1
  Ir  Ir31  1  0.752438  0.029270  0.000000  1
  Ir  Ir32  1  0.470561  0.747738  0.000000  1
  Ir  Ir33  1  0.529439  0.252262  0.000000  1
  Ir  Ir34  1  0.029787  0.247483  0.000000  1
  Ir  Ir35  1  0.970213  0.752517  0.000000  1
  Rh  Rh36  1  0.746360  0.529108  0.000000  1
  Rh  Rh37  1  0.253640  0.470892  0.000000  1
