# generated using pymatgen
data_CeLu7(ReB6)4
_symmetry_space_group_name_H-M   'P 1'
_cell_length_a   9.08284248
_cell_length_b   11.44584860
_cell_length_c   3.64039600
_cell_angle_alpha   90.00000000
_cell_angle_beta   90.00000000
_cell_angle_gamma   89.96279311
_symmetry_Int_Tables_number   1
_chemical_formula_structural   CeLu7(ReB6)4
_chemical_formula_sum   'Ce1 Lu7 Re4 B24'
_cell_volume   378.45854593
_cell_formula_units_Z   1
loop_
 _symmetry_equiv_pos_site_id
 _symmetry_equiv_pos_as_xyz
  1  'x, y, z'
loop_
 _atom_site_type_symbol
 _atom_site_label
 _atom_site_symmetry_multiplicity
 _atom_site_fract_x
 _atom_site_fract_y
 _atom_site_fract_z
 _atom_site_occupancy
  Ce  Ce0  1  0.822439  0.085817  0.000000  1
  Lu  Lu1  1  0.442739  0.129890  0.000000  1
  Lu  Lu2  1  0.943653  0.371739  0.000000  1
  Lu  Lu3  1  0.322684  0.414676  0.000000  1
  Lu  Lu4  1  0.676449  0.586082  0.000000  1
  Lu  Lu5  1  0.057018  0.628963  0.000000  1
  Lu  Lu6  1  0.555762  0.869361  0.000000  1
  Lu  Lu7  1  0.178017  0.913015  0.000000  1
  Re  Re8  1  0.139421  0.179821  0.000000  1
  Re  Re9  1  0.638846  0.321161  0.000000  1
  Re  Re10  1  0.361180  0.679134  0.000000  1
  Re  Re11  1  0.861343  0.819835  0.000000  1
  B  B12  1  0.597301  0.027025  0.500000  1
  B  B13  1  0.054607  0.067002  0.500000  1
  B  B14  1  0.251153  0.080716  0.500000  1
  B  B15  1  0.629546  0.185862  0.500000  1
  B  B16  1  0.983186  0.213314  0.500000  1
  B  B17  1  0.293409  0.235374  0.500000  1
  B  B18  1  0.792127  0.266604  0.500000  1
  B  B19  1  0.480770  0.288711  0.500000  1
  B  B20  1  0.131408  0.316449  0.500000  1
  B  B21  1  0.750115  0.420495  0.500000  1
  B  B22  1  0.552903  0.434146  0.500000  1
  B  B23  1  0.100104  0.472608  0.500000  1
  B  B24  1  0.900415  0.528070  0.500000  1
  B  B25  1  0.446927  0.566475  0.500000  1
  B  B26  1  0.249558  0.580685  0.500000  1
  B  B27  1  0.869972  0.683860  0.500000  1
  B  B28  1  0.518531  0.711741  0.500000  1
  B  B29  1  0.206899  0.735057  0.500000  1
  B  B30  1  0.706883  0.763675  0.500000  1
  B  B31  1  0.019387  0.786743  0.500000  1
  B  B32  1  0.369247  0.815253  0.500000  1
  B  B33  1  0.749471  0.916974  0.500000  1
  B  B34  1  0.947031  0.931832  0.500000  1
  B  B35  1  0.399502  0.971840  0.500000  1
