# generated using pymatgen
data_Ba3AgSbO6
_symmetry_space_group_name_H-M   'P 1'
_cell_length_a   7.27907820
_cell_length_b   7.27907766
_cell_length_c   7.27907710
_cell_angle_alpha   90.57942337
_cell_angle_beta   90.57941791
_cell_angle_gamma   90.57942420
_symmetry_Int_Tables_number   1
_chemical_formula_structural   Ba3AgSbO6
_chemical_formula_sum   'Ba6 Ag2 Sb2 O12'
_cell_volume   385.62215581
_cell_formula_units_Z   2
loop_
 _symmetry_equiv_pos_site_id
 _symmetry_equiv_pos_as_xyz
  1  'x, y, z'
loop_
 _atom_site_type_symbol
 _atom_site_label
 _atom_site_symmetry_multiplicity
 _atom_site_fract_x
 _atom_site_fract_y
 _atom_site_fract_z
 _atom_site_occupancy
  Ba  Ba0  1  0.250000  0.598932  0.901068  1
  Ba  Ba1  1  0.901068  0.250000  0.598932  1
  Ba  Ba2  1  0.598932  0.901068  0.250000  1
  Ba  Ba3  1  0.401068  0.098932  0.750000  1
  Ba  Ba4  1  0.750000  0.401068  0.098932  1
  Ba  Ba5  1  0.098932  0.750000  0.401068  1
  Ag  Ag6  1  0.250000  0.250000  0.250000  1
  Ag  Ag7  1  0.750000  0.750000  0.750000  1
  Sb  Sb8  1  0.000000  0.000000  0.000000  1
  Sb  Sb9  1  0.500000  0.500000  0.500000  1
  O  O10  1  0.942148  0.077003  0.264521  1
  O  O11  1  0.264521  0.942148  0.077003  1
  O  O12  1  0.077003  0.264521  0.942148  1
  O  O13  1  0.764521  0.577003  0.442148  1
  O  O14  1  0.442148  0.764521  0.577003  1
  O  O15  1  0.577003  0.442148  0.764521  1
  O  O16  1  0.057852  0.922997  0.735479  1
  O  O17  1  0.735479  0.057852  0.922997  1
  O  O18  1  0.922997  0.735479  0.057852  1
  O  O19  1  0.235479  0.422997  0.557852  1
  O  O20  1  0.557852  0.235479  0.422997  1
  O  O21  1  0.422997  0.557852  0.235479  1
