# generated using pymatgen
data_La2SbRuO8
_symmetry_space_group_name_H-M   'P 1'
_cell_length_a   5.14748800
_cell_length_b   5.42784522
_cell_length_c   13.53868239
_cell_angle_alpha   70.43871120
_cell_angle_beta   90.00000000
_cell_angle_gamma   90.00000000
_symmetry_Int_Tables_number   1
_chemical_formula_structural   La2SbRuO8
_chemical_formula_sum   'La4 Sb2 Ru2 O16'
_cell_volume   356.43550638
_cell_formula_units_Z   2
loop_
 _symmetry_equiv_pos_site_id
 _symmetry_equiv_pos_as_xyz
  1  'x, y, z'
loop_
 _atom_site_type_symbol
 _atom_site_label
 _atom_site_symmetry_multiplicity
 _atom_site_fract_x
 _atom_site_fract_y
 _atom_site_fract_z
 _atom_site_occupancy
  La  La0  1  0.801464  0.655283  0.338481  1
  La  La1  1  0.698536  0.655283  0.838481  1
  La  La2  1  0.196950  0.345559  0.661154  1
  La  La3  1  0.303050  0.345559  0.161154  1
  Sb  Sb4  1  0.246716  0.082024  0.930990  1
  Sb  Sb5  1  0.253284  0.082024  0.430990  1
  Ru  Ru6  1  0.750325  0.915339  0.070404  1
  Ru  Ru7  1  0.749675  0.915339  0.570404  1
  O  O8  1  0.438075  0.752959  0.029451  1
  O  O9  1  0.061925  0.752959  0.529451  1
  O  O10  1  0.558856  0.247555  0.973567  1
  O  O11  1  0.941144  0.247555  0.473567  1
  O  O12  1  0.605000  0.989205  0.186228  1
  O  O13  1  0.895000  0.989205  0.686228  1
  O  O14  1  0.399568  0.010281  0.810457  1
  O  O15  1  0.100432  0.010281  0.310457  1
  O  O16  1  0.065473  0.131456  0.059546  1
  O  O17  1  0.434527  0.131456  0.559546  1
  O  O18  1  0.929722  0.861125  0.943789  1
  O  O19  1  0.570278  0.861125  0.443789  1
  O  O20  1  0.881990  0.593942  0.165631  1
  O  O21  1  0.618010  0.593942  0.665631  1
  O  O22  1  0.115609  0.415270  0.830303  1
  O  O23  1  0.384391  0.415270  0.330303  1
