# generated using pymatgen
data_Ac3TiGa5O14
_symmetry_space_group_name_H-M   'P 1'
_cell_length_a   8.35392200
_cell_length_b   8.35392178
_cell_length_c   5.22075800
_cell_angle_alpha   90.00000000
_cell_angle_beta   90.00000000
_cell_angle_gamma   60.00000706
_symmetry_Int_Tables_number   1
_chemical_formula_structural   Ac3TiGa5O14
_chemical_formula_sum   'Ac3 Ti1 Ga5 O14'
_cell_volume   315.53318837
_cell_formula_units_Z   1
loop_
 _symmetry_equiv_pos_site_id
 _symmetry_equiv_pos_as_xyz
  1  'x, y, z'
loop_
 _atom_site_type_symbol
 _atom_site_label
 _atom_site_symmetry_multiplicity
 _atom_site_fract_x
 _atom_site_fract_y
 _atom_site_fract_z
 _atom_site_occupancy
  Ac  Ac0  1  0.424848  0.000000  0.000000  1
  Ac  Ac1  1  0.575152  0.424847  0.000000  1
  Ac  Ac2  1  0.000000  0.575153  0.000000  1
  Ti  Ti3  1  0.000000  0.000000  0.000000  1
  Ga  Ga4  1  0.666666  0.666666  0.474363  1
  Ga  Ga5  1  0.762775  0.000000  0.500000  1
  Ga  Ga6  1  0.237225  0.762775  0.500000  1
  Ga  Ga7  1  0.000000  0.237225  0.500000  1
  Ga  Ga8  1  0.333333  0.333333  0.525637  1
  O  O9  1  0.333333  0.333333  0.177113  1
  O  O10  1  0.134932  0.080873  0.232295  1
  O  O11  1  0.784195  0.134933  0.232295  1
  O  O12  1  0.080874  0.784195  0.232295  1
  O  O13  1  0.846822  0.454024  0.311660  1
  O  O14  1  0.454024  0.699153  0.311660  1
  O  O15  1  0.699153  0.846822  0.311660  1
  O  O16  1  0.545976  0.153177  0.688340  1
  O  O17  1  0.153178  0.300847  0.688340  1
  O  O18  1  0.300847  0.545975  0.688340  1
  O  O19  1  0.865068  0.215806  0.767704  1
  O  O20  1  0.919127  0.865068  0.767704  1
  O  O21  1  0.215805  0.919126  0.767704  1
  O  O22  1  0.666667  0.666667  0.822886  1
