# generated using pymatgen
data_Y6Lu4Si5Sn
_symmetry_space_group_name_H-M   'P 1'
_cell_length_a   8.46681800
_cell_length_b   8.48657545
_cell_length_c   6.29553100
_cell_angle_alpha   90.00000000
_cell_angle_beta   90.00000000
_cell_angle_gamma   119.92302525
_symmetry_Int_Tables_number   1
_chemical_formula_structural   Y6Lu4Si5Sn
_chemical_formula_sum   'Y6 Lu4 Si5 Sn1'
_cell_volume   392.05955031
_cell_formula_units_Z   1
loop_
 _symmetry_equiv_pos_site_id
 _symmetry_equiv_pos_as_xyz
  1  'x, y, z'
loop_
 _atom_site_type_symbol
 _atom_site_label
 _atom_site_symmetry_multiplicity
 _atom_site_fract_x
 _atom_site_fract_y
 _atom_site_fract_z
 _atom_site_occupancy
  Y  Y0  1  0.764431  0.000000  0.750000  1
  Y  Y1  1  0.755122  0.756391  0.250000  1
  Y  Y2  1  0.998731  0.243609  0.250000  1
  Y  Y3  1  0.989792  0.748493  0.750000  1
  Y  Y4  1  0.241298  0.251507  0.750000  1
  Y  Y5  1  0.241720  0.000000  0.250000  1
  Lu  Lu6  1  0.673461  0.341938  0.002844  1
  Lu  Lu7  1  0.331520  0.658062  0.497156  1
  Lu  Lu8  1  0.331520  0.658062  0.002844  1
  Lu  Lu9  1  0.673461  0.341938  0.497156  1
  Si  Si10  1  0.395063  0.394102  0.250000  1
  Si  Si11  1  0.000961  0.605898  0.250000  1
  Si  Si12  1  0.998700  0.395713  0.750000  1
  Si  Si13  1  0.602989  0.604287  0.750000  1
  Si  Si14  1  0.604399  0.000000  0.250000  1
  Sn  Sn15  1  0.396832  0.000000  0.750000  1
