# generated using pymatgen
data_CsRbPaBr6
_symmetry_space_group_name_H-M   'P 1'
_cell_length_a   8.07219086
_cell_length_b   8.07219097
_cell_length_c   11.52382500
_cell_angle_alpha   90.00000000
_cell_angle_beta   90.00000000
_cell_angle_gamma   90.06693341
_symmetry_Int_Tables_number   1
_chemical_formula_structural   CsRbPaBr6
_chemical_formula_sum   'Cs2 Rb2 Pa2 Br12'
_cell_volume   750.89499156
_cell_formula_units_Z   2
loop_
 _symmetry_equiv_pos_site_id
 _symmetry_equiv_pos_as_xyz
  1  'x, y, z'
loop_
 _atom_site_type_symbol
 _atom_site_label
 _atom_site_symmetry_multiplicity
 _atom_site_fract_x
 _atom_site_fract_y
 _atom_site_fract_z
 _atom_site_occupancy
  Cs  Cs0  1  0.500000  0.000000  0.750000  1
  Cs  Cs1  1  0.500000  0.000000  0.250000  1
  Rb  Rb2  1  0.000000  0.500000  0.250000  1
  Rb  Rb3  1  0.000000  0.500000  0.750000  1
  Pa  Pa4  1  0.000000  0.000000  0.000000  1
  Pa  Pa5  1  0.500000  0.500000  0.500000  1
  Br  Br6  1  0.789214  0.277092  0.000000  1
  Br  Br7  1  0.210786  0.722908  0.000000  1
  Br  Br8  1  0.500000  0.500000  0.255836  1
  Br  Br9  1  0.285738  0.226072  0.500000  1
  Br  Br10  1  0.273928  0.214262  0.000000  1
  Br  Br11  1  0.777092  0.289214  0.500000  1
  Br  Br12  1  0.000000  0.000000  0.244164  1
  Br  Br13  1  0.714262  0.773928  0.500000  1
  Br  Br14  1  0.222908  0.710786  0.500000  1
  Br  Br15  1  0.500000  0.500000  0.744164  1
  Br  Br16  1  0.726072  0.785738  0.000000  1
  Br  Br17  1  0.000000  0.000000  0.755836  1
