# generated using pymatgen
data_Gd11Dy(SiRu)8
_symmetry_space_group_name_H-M   'P 1'
_cell_length_a   5.61063931
_cell_length_b   7.63616573
_cell_length_c   13.36175700
_cell_angle_alpha   89.98897778
_cell_angle_beta   89.98081167
_cell_angle_gamma   89.97741164
_symmetry_Int_Tables_number   1
_chemical_formula_structural   Gd11Dy(SiRu)8
_chemical_formula_sum   'Gd11 Dy1 Si8 Ru8'
_cell_volume   572.46797903
_cell_formula_units_Z   1
loop_
 _symmetry_equiv_pos_site_id
 _symmetry_equiv_pos_as_xyz
  1  'x, y, z'
loop_
 _atom_site_type_symbol
 _atom_site_label
 _atom_site_symmetry_multiplicity
 _atom_site_fract_x
 _atom_site_fract_y
 _atom_site_fract_z
 _atom_site_occupancy
  Gd  Gd0  1  0.853223  0.598301  0.100792  1
  Gd  Gd1  1  0.146466  0.098009  0.400184  1
  Gd  Gd2  1  0.852747  0.901635  0.898915  1
  Gd  Gd3  1  0.852562  0.597963  0.400457  1
  Gd  Gd4  1  0.147531  0.402554  0.899375  1
  Gd  Gd5  1  0.853695  0.901807  0.600136  1
  Gd  Gd6  1  0.148059  0.096574  0.100405  1
  Gd  Gd7  1  0.630976  0.259801  0.748827  1
  Gd  Gd8  1  0.368314  0.740975  0.250515  1
  Gd  Gd9  1  0.631103  0.240607  0.250599  1
  Gd  Gd10  1  0.369300  0.759485  0.748418  1
  Dy  Dy11  1  0.146650  0.400733  0.600714  1
  Si  Si12  1  0.138763  0.110389  0.749564  1
  Si  Si13  1  0.860642  0.890867  0.250375  1
  Si  Si14  1  0.139079  0.390458  0.250216  1
  Si  Si15  1  0.862779  0.608581  0.749201  1
  Si  Si16  1  0.606561  0.250270  0.500431  1
  Si  Si17  1  0.393766  0.750144  0.999722  1
  Si  Si18  1  0.390916  0.749664  0.500394  1
  Si  Si19  1  0.606595  0.250128  0.999664  1
  Ru  Ru20  1  0.352066  0.031571  0.590433  1
  Ru  Ru21  1  0.646271  0.969910  0.091107  1
  Ru  Ru22  1  0.351984  0.468647  0.410008  1
  Ru  Ru23  1  0.646821  0.530761  0.908810  1
  Ru  Ru24  1  0.647262  0.969244  0.410236  1
  Ru  Ru25  1  0.354578  0.030622  0.908487  1
  Ru  Ru26  1  0.646472  0.530568  0.590794  1
  Ru  Ru27  1  0.354820  0.469732  0.091217  1
