# generated using pymatgen
data_Ta2(NbN2)3
_symmetry_space_group_name_H-M   'P 1'
_cell_length_a   5.24717000
_cell_length_b   5.24716955
_cell_length_c   10.45665100
_cell_angle_alpha   90.00000000
_cell_angle_beta   90.00000000
_cell_angle_gamma   120.00000283
_symmetry_Int_Tables_number   1
_chemical_formula_structural   Ta2(NbN2)3
_chemical_formula_sum   'Ta4 Nb6 N12'
_cell_volume   249.32938469
_cell_formula_units_Z   2
loop_
 _symmetry_equiv_pos_site_id
 _symmetry_equiv_pos_as_xyz
  1  'x, y, z'
loop_
 _atom_site_type_symbol
 _atom_site_label
 _atom_site_symmetry_multiplicity
 _atom_site_fract_x
 _atom_site_fract_y
 _atom_site_fract_z
 _atom_site_occupancy
  Ta  Ta0  1  0.666667  0.333333  0.000000  1
  Ta  Ta1  1  0.333333  0.666667  0.000000  1
  Ta  Ta2  1  0.333333  0.666667  0.500000  1
  Ta  Ta3  1  0.666667  0.333333  0.500000  1
  Nb  Nb4  1  0.676278  0.676278  0.750000  1
  Nb  Nb5  1  0.323722  0.000000  0.750000  1
  Nb  Nb6  1  0.000000  0.323722  0.750000  1
  Nb  Nb7  1  0.323722  0.323722  0.250000  1
  Nb  Nb8  1  0.676278  0.000000  0.250000  1
  Nb  Nb9  1  0.000000  0.676278  0.250000  1
  N  N10  1  0.658598  0.658598  0.380279  1
  N  N11  1  0.341402  0.000000  0.380279  1
  N  N12  1  0.000000  0.341402  0.380279  1
  N  N13  1  0.341402  0.341402  0.619721  1
  N  N14  1  0.658598  0.000000  0.619721  1
  N  N15  1  0.000000  0.658598  0.619721  1
  N  N16  1  0.341402  0.341402  0.880279  1
  N  N17  1  0.658598  0.000000  0.880279  1
  N  N18  1  0.000000  0.658598  0.880279  1
  N  N19  1  0.658598  0.658598  0.119721  1
  N  N20  1  0.341402  0.000000  0.119721  1
  N  N21  1  0.000000  0.341402  0.119721  1
