# generated using pymatgen
data_Tm5CuSe4
_symmetry_space_group_name_H-M   'P 1'
_cell_length_a   6.97297338
_cell_length_b   6.97299315
_cell_length_c   6.97297031
_cell_angle_alpha   99.59637290
_cell_angle_beta   99.59602163
_cell_angle_gamma   131.80494321
_symmetry_Int_Tables_number   1
_chemical_formula_structural   Tm5CuSe4
_chemical_formula_sum   'Tm5 Cu1 Se4'
_cell_volume   230.70372729
_cell_formula_units_Z   1
loop_
 _symmetry_equiv_pos_site_id
 _symmetry_equiv_pos_as_xyz
  1  'x, y, z'
loop_
 _atom_site_type_symbol
 _atom_site_label
 _atom_site_symmetry_multiplicity
 _atom_site_fract_x
 _atom_site_fract_y
 _atom_site_fract_z
 _atom_site_occupancy
  Tm  Tm0  1  0.403162  0.784881  0.188043  1
  Tm  Tm1  1  0.000000  0.000000  0.000000  1
  Tm  Tm2  1  0.596838  0.215119  0.811957  1
  Tm  Tm3  1  0.215119  0.403161  0.618281  1
  Tm  Tm4  1  0.784881  0.596839  0.381719  1
  Cu  Cu5  1  0.500000  0.500000  0.000000  1
  Se  Se6  1  0.092802  0.693803  0.786605  1
  Se  Se7  1  0.693802  0.907198  0.601001  1
  Se  Se8  1  0.306198  0.092802  0.398999  1
  Se  Se9  1  0.907198  0.306197  0.213395  1
