# generated using pymatgen
data_Ho5In4IrAu
_symmetry_space_group_name_H-M   'P 1'
_cell_length_a   8.18538421
_cell_length_b   18.35633167
_cell_length_c   3.61632200
_cell_angle_alpha   90.00000000
_cell_angle_beta   90.00000000
_cell_angle_gamma   90.07181652
_symmetry_Int_Tables_number   1
_chemical_formula_structural   Ho5In4IrAu
_chemical_formula_sum   'Ho10 In8 Ir2 Au2'
_cell_volume   543.36507164
_cell_formula_units_Z   2
loop_
 _symmetry_equiv_pos_site_id
 _symmetry_equiv_pos_as_xyz
  1  'x, y, z'
loop_
 _atom_site_type_symbol
 _atom_site_label
 _atom_site_symmetry_multiplicity
 _atom_site_fract_x
 _atom_site_fract_y
 _atom_site_fract_z
 _atom_site_occupancy
  Ho  Ho0  1  0.500000  0.500000  0.000000  1
  Ho  Ho1  1  0.000000  0.000000  0.000000  1
  Ho  Ho2  1  0.769148  0.282593  0.000000  1
  Ho  Ho3  1  0.230852  0.717407  0.000000  1
  Ho  Ho4  1  0.769738  0.776325  0.000000  1
  Ho  Ho5  1  0.230262  0.223675  0.000000  1
  Ho  Ho6  1  0.623204  0.081128  0.000000  1
  Ho  Ho7  1  0.376796  0.918872  0.000000  1
  Ho  Ho8  1  0.879616  0.585961  0.000000  1
  Ho  Ho9  1  0.120384  0.414039  0.000000  1
  In  In10  1  0.707000  0.932401  0.500000  1
  In  In11  1  0.293000  0.067599  0.500000  1
  In  In12  1  0.796015  0.433400  0.500000  1
  In  In13  1  0.203985  0.566600  0.500000  1
  In  In14  1  0.572422  0.647825  0.500000  1
  In  In15  1  0.427578  0.352175  0.500000  1
  In  In16  1  0.929495  0.148257  0.500000  1
  In  In17  1  0.070505  0.851743  0.500000  1
  Ir  Ir18  1  0.969402  0.695056  0.500000  1
  Ir  Ir19  1  0.030598  0.304944  0.500000  1
  Au  Au20  1  0.532355  0.198685  0.500000  1
  Au  Au21  1  0.467645  0.801315  0.500000  1
