# generated using pymatgen
data_Dy3Ho5(ReB6)4
_symmetry_space_group_name_H-M   'P 1'
_cell_length_a   3.67781400
_cell_length_b   9.16532200
_cell_length_c   11.54827800
_cell_angle_alpha   89.99897140
_cell_angle_beta   90.00000000
_cell_angle_gamma   90.00000000
_symmetry_Int_Tables_number   1
_chemical_formula_structural   Dy3Ho5(ReB6)4
_chemical_formula_sum   'Dy3 Ho5 Re4 B24'
_cell_volume   389.27339168
_cell_formula_units_Z   1
loop_
 _symmetry_equiv_pos_site_id
 _symmetry_equiv_pos_as_xyz
  1  'x, y, z'
loop_
 _atom_site_type_symbol
 _atom_site_label
 _atom_site_symmetry_multiplicity
 _atom_site_fract_x
 _atom_site_fract_y
 _atom_site_fract_z
 _atom_site_occupancy
  Dy  Dy0  1  0.000000  0.323583  0.413757  1
  Dy  Dy1  1  0.000000  0.676419  0.586263  1
  Dy  Dy2  1  0.000000  0.823608  0.086206  1
  Ho  Ho3  1  0.000000  0.176333  0.913787  1
  Ho  Ho4  1  0.000000  0.943367  0.370029  1
  Ho  Ho5  1  0.000000  0.056674  0.630008  1
  Ho  Ho6  1  0.000000  0.443306  0.129870  1
  Ho  Ho7  1  0.000000  0.556603  0.870087  1
  Re  Re8  1  0.000000  0.639063  0.320645  1
  Re  Re9  1  0.000000  0.360825  0.679489  1
  Re  Re10  1  0.000000  0.139063  0.179146  1
  Re  Re11  1  0.000000  0.861118  0.820733  1
  B  B12  1  0.500000  0.553489  0.432833  1
  B  B13  1  0.500000  0.446483  0.567191  1
  B  B14  1  0.500000  0.053546  0.066995  1
  B  B15  1  0.500000  0.946693  0.932860  1
  B  B16  1  0.500000  0.749412  0.418713  1
  B  B17  1  0.500000  0.250593  0.581332  1
  B  B18  1  0.500000  0.249374  0.081059  1
  B  B19  1  0.500000  0.750647  0.918700  1
  B  B20  1  0.500000  0.792409  0.265731  1
  B  B21  1  0.500000  0.207507  0.734427  1
  B  B22  1  0.500000  0.292399  0.234201  1
  B  B23  1  0.500000  0.707610  0.765759  1
  B  B24  1  0.500000  0.631092  0.185657  1
  B  B25  1  0.500000  0.368744  0.814478  1
  B  B26  1  0.500000  0.131119  0.314292  1
  B  B27  1  0.500000  0.868942  0.685720  1
  B  B28  1  0.500000  0.982674  0.212049  1
  B  B29  1  0.500000  0.017570  0.788018  1
  B  B30  1  0.500000  0.482624  0.287878  1
  B  B31  1  0.500000  0.517325  0.712140  1
  B  B32  1  0.500000  0.600037  0.027978  1
  B  B33  1  0.500000  0.399727  0.971949  1
  B  B34  1  0.500000  0.100011  0.472033  1
  B  B35  1  0.500000  0.900009  0.527985  1
