# generated using pymatgen
data_Yb3InP3
_symmetry_space_group_name_H-M   'P 1'
_cell_length_a   4.15198900
_cell_length_b   12.00904900
_cell_length_c   13.33845600
_cell_angle_alpha   90.00000000
_cell_angle_beta   90.00000000
_cell_angle_gamma   90.00000000
_symmetry_Int_Tables_number   1
_chemical_formula_structural   Yb3InP3
_chemical_formula_sum   'Yb12 In4 P12'
_cell_volume   665.07461485
_cell_formula_units_Z   4
loop_
 _symmetry_equiv_pos_site_id
 _symmetry_equiv_pos_as_xyz
  1  'x, y, z'
loop_
 _atom_site_type_symbol
 _atom_site_label
 _atom_site_symmetry_multiplicity
 _atom_site_fract_x
 _atom_site_fract_y
 _atom_site_fract_z
 _atom_site_occupancy
  Yb  Yb0  1  0.750000  0.846680  0.004905  1
  Yb  Yb1  1  0.750000  0.769601  0.288382  1
  Yb  Yb2  1  0.750000  0.346680  0.495095  1
  Yb  Yb3  1  0.250000  0.653320  0.504905  1
  Yb  Yb4  1  0.250000  0.153320  0.995095  1
  Yb  Yb5  1  0.250000  0.434354  0.897614  1
  Yb  Yb6  1  0.250000  0.934354  0.602386  1
  Yb  Yb7  1  0.750000  0.565646  0.102386  1
  Yb  Yb8  1  0.250000  0.230399  0.711618  1
  Yb  Yb9  1  0.250000  0.730399  0.788382  1
  Yb  Yb10  1  0.750000  0.065646  0.397614  1
  Yb  Yb11  1  0.750000  0.269601  0.211618  1
  In  In12  1  0.250000  0.448725  0.300275  1
  In  In13  1  0.750000  0.051275  0.800275  1
  In  In14  1  0.750000  0.551275  0.699725  1
  In  In15  1  0.250000  0.948725  0.199725  1
  P  P16  1  0.250000  0.948714  0.869215  1
  P  P17  1  0.750000  0.551286  0.369215  1
  P  P18  1  0.250000  0.244559  0.372574  1
  P  P19  1  0.750000  0.255441  0.872574  1
  P  P20  1  0.250000  0.395638  0.111570  1
  P  P21  1  0.250000  0.895638  0.388430  1
  P  P22  1  0.250000  0.744559  0.127426  1
  P  P23  1  0.750000  0.604362  0.888430  1
  P  P24  1  0.750000  0.755441  0.627426  1
  P  P25  1  0.250000  0.448714  0.630785  1
  P  P26  1  0.750000  0.104362  0.611570  1
  P  P27  1  0.750000  0.051286  0.130785  1
