# generated using pymatgen
data_Li4La2DyHoSi8
_symmetry_space_group_name_H-M   'P 1'
_cell_length_a   3.86634000
_cell_length_b   7.70286940
_cell_length_c   10.42313913
_cell_angle_alpha   89.57706734
_cell_angle_beta   90.00000000
_cell_angle_gamma   90.00000000
_symmetry_Int_Tables_number   1
_chemical_formula_structural   Li4La2DyHoSi8
_chemical_formula_sum   'Li4 La2 Dy1 Ho1 Si8'
_cell_volume   310.41255601
_cell_formula_units_Z   1
loop_
 _symmetry_equiv_pos_site_id
 _symmetry_equiv_pos_as_xyz
  1  'x, y, z'
loop_
 _atom_site_type_symbol
 _atom_site_label
 _atom_site_symmetry_multiplicity
 _atom_site_fract_x
 _atom_site_fract_y
 _atom_site_fract_z
 _atom_site_occupancy
  Li  Li0  1  0.250000  0.993582  0.389015  1
  Li  Li1  1  0.750000  0.006465  0.610922  1
  Li  Li2  1  0.250000  0.489927  0.106014  1
  Li  Li3  1  0.750000  0.509689  0.894173  1
  La  La4  1  0.250000  0.643475  0.636770  1
  La  La5  1  0.750000  0.356609  0.363141  1
  Dy  Dy6  1  0.250000  0.134790  0.866089  1
  Ho  Ho7  1  0.750000  0.865697  0.133961  1
  Si  Si8  1  0.750000  0.262383  0.063975  1
  Si  Si9  1  0.250000  0.737311  0.936671  1
  Si  Si10  1  0.750000  0.778719  0.421217  1
  Si  Si11  1  0.250000  0.221749  0.578140  1
  Si  Si12  1  0.750000  0.846178  0.827892  1
  Si  Si13  1  0.250000  0.153129  0.172522  1
  Si  Si14  1  0.750000  0.333449  0.684692  1
  Si  Si15  1  0.250000  0.666848  0.314806  1
