# generated using pymatgen
data_BaLiYSe3
_symmetry_space_group_name_H-M   'P 1'
_cell_length_a   7.38664257
_cell_length_b   7.38664231
_cell_length_c   10.76893000
_cell_angle_alpha   90.00000000
_cell_angle_beta   90.00000000
_cell_angle_gamma   146.29754202
_symmetry_Int_Tables_number   1
_chemical_formula_structural   BaLiYSe3
_chemical_formula_sum   'Ba2 Li2 Y2 Se6'
_cell_volume   326.03623656
_cell_formula_units_Z   2
loop_
 _symmetry_equiv_pos_site_id
 _symmetry_equiv_pos_as_xyz
  1  'x, y, z'
loop_
 _atom_site_type_symbol
 _atom_site_label
 _atom_site_symmetry_multiplicity
 _atom_site_fract_x
 _atom_site_fract_y
 _atom_site_fract_z
 _atom_site_occupancy
  Ba  Ba0  1  0.252060  0.747941  0.250000  1
  Ba  Ba1  1  0.747941  0.252060  0.750000  1
  Li  Li2  1  0.526723  0.473278  0.250000  1
  Li  Li3  1  0.473278  0.526723  0.750000  1
  Y  Y4  1  0.000000  0.000000  0.000000  1
  Y  Y5  1  0.000000  0.000000  0.500000  1
  Se  Se6  1  0.632164  0.367837  0.060107  1
  Se  Se7  1  0.929795  0.070206  0.250000  1
  Se  Se8  1  0.632164  0.367837  0.439893  1
  Se  Se9  1  0.367837  0.632164  0.560107  1
  Se  Se10  1  0.070206  0.929795  0.750000  1
  Se  Se11  1  0.367837  0.632164  0.939893  1
