# generated using pymatgen
data_Tm4Os6RuW
_symmetry_space_group_name_H-M   'P 1'
_cell_length_a   5.41868536
_cell_length_b   5.22172334
_cell_length_c   8.93809285
_cell_angle_alpha   89.95863529
_cell_angle_beta   89.99806450
_cell_angle_gamma   121.17711270
_symmetry_Int_Tables_number   1
_chemical_formula_structural   Tm4Os6RuW
_chemical_formula_sum   'Tm4 Os6 Ru1 W1'
_cell_volume   216.37576165
_cell_formula_units_Z   1
loop_
 _symmetry_equiv_pos_site_id
 _symmetry_equiv_pos_as_xyz
  1  'x, y, z'
loop_
 _atom_site_type_symbol
 _atom_site_label
 _atom_site_symmetry_multiplicity
 _atom_site_fract_x
 _atom_site_fract_y
 _atom_site_fract_z
 _atom_site_occupancy
  Tm  Tm0  1  0.671214  0.342795  0.563171  1
  Tm  Tm1  1  0.333968  0.667917  0.433319  1
  Tm  Tm2  1  0.333703  0.667503  0.067000  1
  Tm  Tm3  1  0.671427  0.343133  0.936763  1
  Os  Os4  1  0.006573  0.013654  0.497484  1
  Os  Os5  1  0.172085  0.822856  0.749591  1
  Os  Os6  1  0.650510  0.822961  0.749460  1
  Os  Os7  1  0.825177  0.649694  0.250767  1
  Os  Os8  1  0.829007  0.166312  0.250271  1
  Os  Os9  1  0.338019  0.166862  0.250260  1
  Ru  Ru10  1  0.007122  0.014376  0.001913  1
  W  W11  1  0.161196  0.321937  0.750001  1
