# generated using pymatgen
data_Tb10Si16Ge
_symmetry_space_group_name_H-M   'P 1'
_cell_length_a   11.06032142
_cell_length_b   11.04716406
_cell_length_c   11.06032102
_cell_angle_alpha   144.67652897
_cell_angle_beta   135.62258368
_cell_angle_gamma   57.97362592
_symmetry_Int_Tables_number   1
_chemical_formula_structural   Tb10Si16Ge
_chemical_formula_sum   'Tb10 Si16 Ge1'
_cell_volume   541.78972221
_cell_formula_units_Z   1
loop_
 _symmetry_equiv_pos_site_id
 _symmetry_equiv_pos_as_xyz
  1  'x, y, z'
loop_
 _atom_site_type_symbol
 _atom_site_label
 _atom_site_symmetry_multiplicity
 _atom_site_fract_x
 _atom_site_fract_y
 _atom_site_fract_z
 _atom_site_occupancy
  Tb  Tb0  1  0.755203  0.759716  0.515269  1
  Tb  Tb1  1  0.448970  0.964019  0.013798  1
  Tb  Tb2  1  0.848291  0.367706  0.015907  1
  Tb  Tb3  1  0.950221  0.964019  0.515049  1
  Tb  Tb4  1  0.151452  0.166464  0.519285  1
  Tb  Tb5  1  0.351799  0.367706  0.519414  1
  Tb  Tb6  1  0.244447  0.759716  0.004514  1
  Tb  Tb7  1  0.548534  0.561941  0.509123  1
  Tb  Tb8  1  0.052816  0.561941  0.013406  1
  Tb  Tb9  1  0.647179  0.166464  0.015012  1
  Si  Si10  1  0.199289  0.578124  0.378833  1
  Si  Si11  1  0.000214  0.082053  0.081839  1
  Si  Si12  1  0.698876  0.290313  0.591436  1
  Si  Si13  1  0.800648  0.180975  0.380327  1
  Si  Si14  1  0.895738  0.504362  0.608623  1
  Si  Si15  1  0.417360  0.871710  0.454351  1
  Si  Si16  1  0.104274  0.712851  0.608578  1
  Si  Si17  1  0.300769  0.896378  0.595609  1
  Si  Si18  1  0.581723  0.037620  0.455896  1
  Si  Si19  1  0.999905  0.431032  0.431127  1
  Si  Si20  1  0.881018  0.842780  0.961764  1
  Si  Si21  1  0.399892  0.500475  0.100583  1
  Si  Si22  1  0.119913  0.083700  0.963787  1
  Si  Si23  1  0.286073  0.240970  0.954898  1
  Si  Si24  1  0.499677  0.388964  0.889287  1
  Si  Si25  1  0.598675  0.701833  0.103157  1
  Ge  Ge26  1  0.717040  0.677665  0.960625  1
