# generated using pymatgen
data_Ta3TiMnCr6Si
_symmetry_space_group_name_H-M   'P 1'
_cell_length_a   4.83370900
_cell_length_b   4.83370943
_cell_length_c   8.07232700
_cell_angle_alpha   90.00000000
_cell_angle_beta   90.00000000
_cell_angle_gamma   120.00000388
_symmetry_Int_Tables_number   1
_chemical_formula_structural   Ta3TiMnCr6Si
_chemical_formula_sum   'Ta3 Ti1 Mn1 Cr6 Si1'
_cell_volume   163.33919192
_cell_formula_units_Z   1
loop_
 _symmetry_equiv_pos_site_id
 _symmetry_equiv_pos_as_xyz
  1  'x, y, z'
loop_
 _atom_site_type_symbol
 _atom_site_label
 _atom_site_symmetry_multiplicity
 _atom_site_fract_x
 _atom_site_fract_y
 _atom_site_fract_z
 _atom_site_occupancy
  Ta  Ta0  1  0.666667  0.333333  0.560139  1
  Ta  Ta1  1  0.666667  0.333333  0.935120  1
  Ta  Ta2  1  0.333333  0.666667  0.066118  1
  Ti  Ti3  1  0.333333  0.666667  0.437950  1
  Mn  Mn4  1  0.000000  0.000000  0.499834  1
  Cr  Cr5  1  0.829862  0.170138  0.253241  1
  Cr  Cr6  1  0.829862  0.659726  0.253241  1
  Cr  Cr7  1  0.340274  0.170138  0.253241  1
  Cr  Cr8  1  0.170117  0.829883  0.746936  1
  Cr  Cr9  1  0.170117  0.340232  0.746936  1
  Cr  Cr10  1  0.659768  0.829883  0.746936  1
  Si  Si11  1  0.000000  0.000000  0.000308  1
