# generated using pymatgen
data_PrSm20Co8Bi7C12
_symmetry_space_group_name_H-M   'P 1'
_cell_length_a   11.33375547
_cell_length_b   11.33375611
_cell_length_c   11.33375600
_cell_angle_alpha   60.00000033
_cell_angle_beta   59.99999844
_cell_angle_gamma   59.99999748
_symmetry_Int_Tables_number   1
_chemical_formula_structural   PrSm20Co8Bi7C12
_chemical_formula_sum   'Pr1 Sm20 Co8 Bi7 C12'
_cell_volume   1029.45306213
_cell_formula_units_Z   1
loop_
 _symmetry_equiv_pos_site_id
 _symmetry_equiv_pos_as_xyz
  1  'x, y, z'
loop_
 _atom_site_type_symbol
 _atom_site_label
 _atom_site_symmetry_multiplicity
 _atom_site_fract_x
 _atom_site_fract_y
 _atom_site_fract_z
 _atom_site_occupancy
  Pr  Pr0  1  0.500000  0.500000  0.500000  1
  Sm  Sm1  1  0.361179  0.916461  0.361179  1
  Sm  Sm2  1  0.000000  0.656876  0.343124  1
  Sm  Sm3  1  0.361179  0.361179  0.361179  1
  Sm  Sm4  1  0.638821  0.083539  0.638821  1
  Sm  Sm5  1  0.916461  0.361179  0.361179  1
  Sm  Sm6  1  0.656876  0.343124  0.000000  1
  Sm  Sm7  1  0.000000  0.343124  0.000000  1
  Sm  Sm8  1  0.638821  0.638821  0.638821  1
  Sm  Sm9  1  0.000000  0.000000  0.343124  1
  Sm  Sm10  1  0.638821  0.638821  0.083539  1
  Sm  Sm11  1  0.361179  0.361179  0.916461  1
  Sm  Sm12  1  0.656876  0.000000  0.000000  1
  Sm  Sm13  1  0.000000  0.000000  0.656876  1
  Sm  Sm14  1  0.656876  0.000000  0.343124  1
  Sm  Sm15  1  0.083539  0.638821  0.638821  1
  Sm  Sm16  1  0.343124  0.000000  0.000000  1
  Sm  Sm17  1  0.000000  0.343124  0.656876  1
  Sm  Sm18  1  0.343124  0.000000  0.656876  1
  Sm  Sm19  1  0.343124  0.656876  0.000000  1
  Sm  Sm20  1  0.000000  0.656876  0.000000  1
  Co  Co21  1  0.188094  0.435717  0.188094  1
  Co  Co22  1  0.188094  0.188094  0.435717  1
  Co  Co23  1  0.564283  0.811906  0.811906  1
  Co  Co24  1  0.188094  0.188094  0.188094  1
  Co  Co25  1  0.435717  0.188094  0.188094  1
  Co  Co26  1  0.811906  0.811906  0.811906  1
  Co  Co27  1  0.811906  0.811906  0.564283  1
  Co  Co28  1  0.811906  0.564283  0.811906  1
  Bi  Bi29  1  0.289348  0.710652  0.710652  1
  Bi  Bi30  1  0.710652  0.710652  0.289348  1
  Bi  Bi31  1  0.710652  0.289348  0.289348  1
  Bi  Bi32  1  0.710652  0.289348  0.710652  1
  Bi  Bi33  1  0.289348  0.710652  0.289348  1
  Bi  Bi34  1  0.000000  0.000000  0.000000  1
  Bi  Bi35  1  0.289348  0.289348  0.710652  1
  C  C36  1  0.109335  0.109335  0.390665  1
  C  C37  1  0.890665  0.890665  0.609335  1
  C  C38  1  0.109335  0.390665  0.390665  1
  C  C39  1  0.109335  0.390665  0.109335  1
  C  C40  1  0.609335  0.609335  0.890665  1
  C  C41  1  0.890665  0.609335  0.890665  1
  C  C42  1  0.390665  0.390665  0.109335  1
  C  C43  1  0.390665  0.109335  0.390665  1
  C  C44  1  0.890665  0.609335  0.609335  1
  C  C45  1  0.609335  0.890665  0.609335  1
  C  C46  1  0.390665  0.109335  0.109335  1
  C  C47  1  0.609335  0.890665  0.890665  1
