# generated using pymatgen
data_AgBiPt2O7
_symmetry_space_group_name_H-M   'P 1'
_cell_length_a   7.30054009
_cell_length_b   7.30054036
_cell_length_c   7.17605400
_cell_angle_alpha   60.56247949
_cell_angle_beta   60.56247829
_cell_angle_gamma   61.64672213
_symmetry_Int_Tables_number   1
_chemical_formula_structural   AgBiPt2O7
_chemical_formula_sum   'Ag2 Bi2 Pt4 O14'
_cell_volume   276.01254158
_cell_formula_units_Z   2
loop_
 _symmetry_equiv_pos_site_id
 _symmetry_equiv_pos_as_xyz
  1  'x, y, z'
loop_
 _atom_site_type_symbol
 _atom_site_label
 _atom_site_symmetry_multiplicity
 _atom_site_fract_x
 _atom_site_fract_y
 _atom_site_fract_z
 _atom_site_occupancy
  Ag  Ag0  1  0.125000  0.125000  0.625000  1
  Ag  Ag1  1  0.125000  0.125000  0.125000  1
  Bi  Bi2  1  0.125000  0.625000  0.125000  1
  Bi  Bi3  1  0.625000  0.125000  0.125000  1
  Pt  Pt4  1  0.625000  0.625000  0.125000  1
  Pt  Pt5  1  0.625000  0.125000  0.625000  1
  Pt  Pt6  1  0.125000  0.625000  0.625000  1
  Pt  Pt7  1  0.625000  0.625000  0.625000  1
  O  O8  1  0.242913  0.242913  0.257087  1
  O  O9  1  0.007087  0.007087  0.992913  1
  O  O10  1  0.546538  0.955417  0.538310  1
  O  O11  1  0.294583  0.703462  0.290265  1
  O  O12  1  0.538667  0.538667  0.961333  1
  O  O13  1  0.955417  0.546538  0.538310  1
  O  O14  1  0.546538  0.955417  0.959735  1
  O  O15  1  0.955343  0.955343  0.544657  1
  O  O16  1  0.955417  0.546538  0.959735  1
  O  O17  1  0.703462  0.294583  0.290265  1
  O  O18  1  0.294583  0.703462  0.711690  1
  O  O19  1  0.703462  0.294583  0.711690  1
  O  O20  1  0.294657  0.294657  0.705343  1
  O  O21  1  0.711333  0.711333  0.288667  1
