# generated using pymatgen
data_Er2B8IrRu
_symmetry_space_group_name_H-M   'P 1'
_cell_length_a   3.54906900
_cell_length_b   5.94714423
_cell_length_c   11.52275421
_cell_angle_alpha   89.88082213
_cell_angle_beta   90.00000000
_cell_angle_gamma   90.00000000
_symmetry_Int_Tables_number   1
_chemical_formula_structural   Er2B8IrRu
_chemical_formula_sum   'Er4 B16 Ir2 Ru2'
_cell_volume   243.20823299
_cell_formula_units_Z   2
loop_
 _symmetry_equiv_pos_site_id
 _symmetry_equiv_pos_as_xyz
  1  'x, y, z'
loop_
 _atom_site_type_symbol
 _atom_site_label
 _atom_site_symmetry_multiplicity
 _atom_site_fract_x
 _atom_site_fract_y
 _atom_site_fract_z
 _atom_site_occupancy
  Er  Er0  1  0.000000  0.630427  0.352472  1
  Er  Er1  1  0.000000  0.369573  0.647528  1
  Er  Er2  1  0.000000  0.131994  0.151044  1
  Er  Er3  1  0.000000  0.868006  0.848956  1
  B  B4  1  0.500000  0.791859  0.188282  1
  B  B5  1  0.500000  0.208141  0.811718  1
  B  B6  1  0.500000  0.290861  0.313927  1
  B  B7  1  0.500000  0.709139  0.686073  1
  B  B8  1  0.500000  0.864004  0.029181  1
  B  B9  1  0.500000  0.135996  0.970819  1
  B  B10  1  0.500000  0.364476  0.469530  1
  B  B11  1  0.500000  0.635524  0.530470  1
  B  B12  1  0.500000  0.887704  0.453406  1
  B  B13  1  0.500000  0.112296  0.546594  1
  B  B14  1  0.500000  0.387321  0.047728  1
  B  B15  1  0.500000  0.612679  0.952272  1
  B  B16  1  0.500000  0.976129  0.308187  1
  B  B17  1  0.500000  0.023871  0.691813  1
  B  B18  1  0.500000  0.476457  0.193448  1
  B  B19  1  0.500000  0.523543  0.806552  1
  Ir  Ir20  1  0.000000  0.645766  0.096294  1
  Ir  Ir21  1  0.000000  0.354234  0.903706  1
  Ru  Ru22  1  0.000000  0.141004  0.406683  1
  Ru  Ru23  1  0.000000  0.858996  0.593317  1
