# generated using pymatgen
data_Ca4Al15(SiRh2)3
_symmetry_space_group_name_H-M   'P 1'
_cell_length_a   7.52612168
_cell_length_b   7.48204726
_cell_length_c   9.56672213
_cell_angle_alpha   89.95868586
_cell_angle_beta   90.05292505
_cell_angle_gamma   119.50657115
_symmetry_Int_Tables_number   1
_chemical_formula_structural   Ca4Al15(SiRh2)3
_chemical_formula_sum   'Ca4 Al15 Si3 Rh6'
_cell_volume   468.83845854
_cell_formula_units_Z   1
loop_
 _symmetry_equiv_pos_site_id
 _symmetry_equiv_pos_as_xyz
  1  'x, y, z'
loop_
 _atom_site_type_symbol
 _atom_site_label
 _atom_site_symmetry_multiplicity
 _atom_site_fract_x
 _atom_site_fract_y
 _atom_site_fract_z
 _atom_site_occupancy
  Ca  Ca0  1  0.994012  0.664538  0.746519  1
  Ca  Ca1  1  0.007770  0.342578  0.254586  1
  Ca  Ca2  1  0.677317  0.002618  0.747619  1
  Ca  Ca3  1  0.318070  0.990152  0.249493  1
  Al  Al4  1  0.130912  0.128453  0.749448  1
  Al  Al5  1  0.870742  0.869701  0.249011  1
  Al  Al6  1  0.338626  0.003729  0.925408  1
  Al  Al7  1  0.001981  0.330432  0.933033  1
  Al  Al8  1  0.665566  0.001015  0.073802  1
  Al  Al9  1  0.662610  0.997927  0.424860  1
  Al  Al10  1  0.339350  0.003664  0.573743  1
  Al  Al11  1  0.333911  0.331599  0.053272  1
  Al  Al12  1  0.662443  0.667534  0.948398  1
  Al  Al13  1  0.662745  0.667518  0.551638  1
  Al  Al14  1  0.335585  0.331302  0.448096  1
  Al  Al15  1  0.336634  0.549906  0.749471  1
  Al  Al16  1  0.662880  0.449919  0.251686  1
  Al  Al17  1  0.546997  0.342886  0.749805  1
  Al  Al18  1  0.456606  0.658870  0.249947  1
  Si  Si19  1  0.006111  0.329495  0.574155  1
  Si  Si20  1  0.994298  0.670966  0.431523  1
  Si  Si21  1  0.995698  0.665606  0.063179  1
  Rh  Rh22  1  0.689669  0.338500  0.503037  1
  Rh  Rh23  1  0.311382  0.662363  0.496515  1
  Rh  Rh24  1  0.318857  0.669471  0.002523  1
  Rh  Rh25  1  0.679126  0.337210  0.000584  1
  Rh  Rh26  1  0.000132  0.999539  0.499105  1
  Rh  Rh27  1  0.999967  0.992509  0.999545  1
