# generated using pymatgen
data_Ti10CoSiSn6
_symmetry_space_group_name_H-M   'P 1'
_cell_length_a   8.23875700
_cell_length_b   8.23875774
_cell_length_c   5.50532400
_cell_angle_alpha   90.00000000
_cell_angle_beta   90.00000000
_cell_angle_gamma   119.99999302
_symmetry_Int_Tables_number   1
_chemical_formula_structural   Ti10CoSiSn6
_chemical_formula_sum   'Ti10 Co1 Si1 Sn6'
_cell_volume   323.62120581
_cell_formula_units_Z   1
loop_
 _symmetry_equiv_pos_site_id
 _symmetry_equiv_pos_as_xyz
  1  'x, y, z'
loop_
 _atom_site_type_symbol
 _atom_site_label
 _atom_site_symmetry_multiplicity
 _atom_site_fract_x
 _atom_site_fract_y
 _atom_site_fract_z
 _atom_site_occupancy
  Ti  Ti0  1  0.252490  0.000000  0.756499  1
  Ti  Ti1  1  0.747510  0.000000  0.243501  1
  Ti  Ti2  1  0.000000  0.252490  0.756499  1
  Ti  Ti3  1  0.000000  0.747510  0.243501  1
  Ti  Ti4  1  0.747510  0.747510  0.756499  1
  Ti  Ti5  1  0.252490  0.252490  0.243501  1
  Ti  Ti6  1  0.333333  0.666667  0.500000  1
  Ti  Ti7  1  0.666667  0.333333  0.500000  1
  Ti  Ti8  1  0.666667  0.333333  0.000000  1
  Ti  Ti9  1  0.333333  0.666667  0.000000  1
  Co  Co10  1  0.000000  0.000000  0.000000  1
  Si  Si11  1  0.000000  0.000000  0.500000  1
  Sn  Sn12  1  0.607304  0.000000  0.748341  1
  Sn  Sn13  1  0.392696  0.000000  0.251659  1
  Sn  Sn14  1  0.000000  0.607304  0.748341  1
  Sn  Sn15  1  0.000000  0.392696  0.251659  1
  Sn  Sn16  1  0.392696  0.392696  0.748341  1
  Sn  Sn17  1  0.607304  0.607304  0.251659  1
