# generated using pymatgen
data_MgBe4NbRu4
_symmetry_space_group_name_H-M   'P 1'
_cell_length_a   6.33947900
_cell_length_b   6.33947900
_cell_length_c   3.02899700
_cell_angle_alpha   90.00000000
_cell_angle_beta   90.00000000
_cell_angle_gamma   90.00000000
_symmetry_Int_Tables_number   1
_chemical_formula_structural   MgBe4NbRu4
_chemical_formula_sum   'Mg1 Be4 Nb1 Ru4'
_cell_volume   121.73234223
_cell_formula_units_Z   1
loop_
 _symmetry_equiv_pos_site_id
 _symmetry_equiv_pos_as_xyz
  1  'x, y, z'
loop_
 _atom_site_type_symbol
 _atom_site_label
 _atom_site_symmetry_multiplicity
 _atom_site_fract_x
 _atom_site_fract_y
 _atom_site_fract_z
 _atom_site_occupancy
  Mg  Mg0  1  0.000000  0.000000  0.000000  1
  Be  Be1  1  0.887393  0.375382  0.000000  1
  Be  Be2  1  0.375382  0.112607  0.000000  1
  Be  Be3  1  0.624618  0.887393  0.000000  1
  Be  Be4  1  0.112607  0.624618  0.000000  1
  Nb  Nb5  1  0.500000  0.500000  0.000000  1
  Ru  Ru6  1  0.658291  0.179569  0.500000  1
  Ru  Ru7  1  0.179569  0.341709  0.500000  1
  Ru  Ru8  1  0.820431  0.658291  0.500000  1
  Ru  Ru9  1  0.341709  0.820431  0.500000  1
