# generated using pymatgen
data_SmY15MgHg3Pt4
_symmetry_space_group_name_H-M   'P 1'
_cell_length_a   9.71257639
_cell_length_b   9.73018500
_cell_length_c   9.73018495
_cell_angle_alpha   60.04588038
_cell_angle_beta   59.97547015
_cell_angle_gamma   59.97546270
_symmetry_Int_Tables_number   1
_chemical_formula_structural   SmY15MgHg3Pt4
_chemical_formula_sum   'Sm1 Y15 Mg1 Hg3 Pt4'
_cell_volume   650.20565964
_cell_formula_units_Z   1
loop_
 _symmetry_equiv_pos_site_id
 _symmetry_equiv_pos_as_xyz
  1  'x, y, z'
loop_
 _atom_site_type_symbol
 _atom_site_label
 _atom_site_symmetry_multiplicity
 _atom_site_fract_x
 _atom_site_fract_y
 _atom_site_fract_z
 _atom_site_occupancy
  Sm  Sm0  1  0.603782  0.602166  0.602166  1
  Y  Y1  1  0.603472  0.601748  0.192419  1
  Y  Y2  1  0.603472  0.192419  0.601748  1
  Y  Y3  1  0.182338  0.605731  0.605731  1
  Y  Y4  1  0.058745  0.440918  0.440918  1
  Y  Y5  1  0.437985  0.061374  0.061374  1
  Y  Y6  1  0.436844  0.062349  0.439108  1
  Y  Y7  1  0.058022  0.441876  0.058738  1
  Y  Y8  1  0.436844  0.439108  0.062349  1
  Y  Y9  1  0.058022  0.058738  0.441876  1
  Y  Y10  1  0.184715  0.814441  0.814441  1
  Y  Y11  1  0.813114  0.186150  0.186150  1
  Y  Y12  1  0.813326  0.186209  0.814607  1
  Y  Y13  1  0.184494  0.814243  0.186868  1
  Y  Y14  1  0.813326  0.814607  0.186209  1
  Y  Y15  1  0.184494  0.186868  0.814243  1
  Mg  Mg16  1  0.534087  0.822926  0.822926  1
  Hg  Hg17  1  0.833077  0.838622  0.838622  1
  Hg  Hg18  1  0.834028  0.839489  0.489782  1
  Hg  Hg19  1  0.834028  0.489782  0.839489  1
  Pt  Pt20  1  0.391388  0.394940  0.394940  1
  Pt  Pt21  1  0.390003  0.393263  0.819917  1
  Pt  Pt22  1  0.390003  0.819917  0.393263  1
  Pt  Pt23  1  0.820398  0.392120  0.392120  1
