# generated using pymatgen
data_NdVP3Rh4
_symmetry_space_group_name_H-M   'P 1'
_cell_length_a   3.95800100
_cell_length_b   7.29726824
_cell_length_c   9.60211107
_cell_angle_alpha   79.21361596
_cell_angle_beta   90.00000000
_cell_angle_gamma   90.00000000
_symmetry_Int_Tables_number   1
_chemical_formula_structural   NdVP3Rh4
_chemical_formula_sum   'Nd2 V2 P6 Rh8'
_cell_volume   272.43388146
_cell_formula_units_Z   2
loop_
 _symmetry_equiv_pos_site_id
 _symmetry_equiv_pos_as_xyz
  1  'x, y, z'
loop_
 _atom_site_type_symbol
 _atom_site_label
 _atom_site_symmetry_multiplicity
 _atom_site_fract_x
 _atom_site_fract_y
 _atom_site_fract_z
 _atom_site_occupancy
  Nd  Nd0  1  0.250000  0.806264  0.785224  1
  Nd  Nd1  1  0.750000  0.193679  0.214819  1
  V  V2  1  0.250000  0.311361  0.719937  1
  V  V3  1  0.750000  0.688661  0.280096  1
  P  P4  1  0.250000  0.257170  0.968369  1
  P  P5  1  0.750000  0.742786  0.031785  1
  P  P6  1  0.250000  0.432422  0.337467  1
  P  P7  1  0.750000  0.567594  0.662501  1
  P  P8  1  0.250000  0.897443  0.341452  1
  P  P9  1  0.750000  0.102571  0.658477  1
  Rh  Rh10  1  0.250000  0.532503  0.097573  1
  Rh  Rh11  1  0.750000  0.467473  0.902452  1
  Rh  Rh12  1  0.250000  0.922794  0.097928  1
  Rh  Rh13  1  0.750000  0.077183  0.902062  1
  Rh  Rh14  1  0.250000  0.622600  0.502827  1
  Rh  Rh15  1  0.750000  0.377465  0.497087  1
  Rh  Rh16  1  0.250000  0.130903  0.477904  1
  Rh  Rh17  1  0.750000  0.869127  0.522040  1
