# generated using pymatgen
data_Cs2TbEuTe8
_symmetry_space_group_name_H-M   'P 1'
_cell_length_a   6.88014900
_cell_length_b   6.88014900
_cell_length_c   9.90079400
_cell_angle_alpha   90.00000000
_cell_angle_beta   90.00000000
_cell_angle_gamma   90.00000000
_symmetry_Int_Tables_number   1
_chemical_formula_structural   Cs2TbEuTe8
_chemical_formula_sum   'Cs2 Tb1 Eu1 Te8'
_cell_volume   468.66844274
_cell_formula_units_Z   1
loop_
 _symmetry_equiv_pos_site_id
 _symmetry_equiv_pos_as_xyz
  1  'x, y, z'
loop_
 _atom_site_type_symbol
 _atom_site_label
 _atom_site_symmetry_multiplicity
 _atom_site_fract_x
 _atom_site_fract_y
 _atom_site_fract_z
 _atom_site_occupancy
  Cs  Cs0  1  0.500000  0.500000  0.000000  1
  Cs  Cs1  1  0.000000  0.000000  0.000000  1
  Tb  Tb2  1  0.000000  0.000000  0.500000  1
  Eu  Eu3  1  0.500000  0.500000  0.500000  1
  Te  Te4  1  0.343373  0.864508  0.302079  1
  Te  Te5  1  0.135492  0.343373  0.302079  1
  Te  Te6  1  0.864508  0.656627  0.302079  1
  Te  Te7  1  0.343373  0.135492  0.697921  1
  Te  Te8  1  0.656627  0.864508  0.697921  1
  Te  Te9  1  0.656627  0.135492  0.302079  1
  Te  Te10  1  0.864508  0.343373  0.697921  1
  Te  Te11  1  0.135492  0.656627  0.697921  1
