# generated using pymatgen
data_Tm20(TcPt3)3
_symmetry_space_group_name_H-M   'P 1'
_cell_length_a   10.87260500
_cell_length_b   10.87260500
_cell_length_c   6.31301200
_cell_angle_alpha   90.00000000
_cell_angle_beta   90.00000000
_cell_angle_gamma   90.00000000
_symmetry_Int_Tables_number   1
_chemical_formula_structural   Tm20(TcPt3)3
_chemical_formula_sum   'Tm20 Tc3 Pt9'
_cell_volume   746.28349334
_cell_formula_units_Z   1
loop_
 _symmetry_equiv_pos_site_id
 _symmetry_equiv_pos_as_xyz
  1  'x, y, z'
loop_
 _atom_site_type_symbol
 _atom_site_label
 _atom_site_symmetry_multiplicity
 _atom_site_fract_x
 _atom_site_fract_y
 _atom_site_fract_z
 _atom_site_occupancy
  Tm  Tm0  1  0.297137  0.085258  0.371589  1
  Tm  Tm1  1  0.297422  0.915466  0.871882  1
  Tm  Tm2  1  0.702578  0.084534  0.871882  1
  Tm  Tm3  1  0.702863  0.914742  0.371589  1
  Tm  Tm4  1  0.584534  0.797422  0.871882  1
  Tm  Tm5  1  0.585258  0.202863  0.371589  1
  Tm  Tm6  1  0.414742  0.797137  0.371589  1
  Tm  Tm7  1  0.415466  0.202578  0.871882  1
  Tm  Tm8  1  0.207728  0.412691  0.634879  1
  Tm  Tm9  1  0.205128  0.587541  0.123814  1
  Tm  Tm10  1  0.794872  0.412459  0.123814  1
  Tm  Tm11  1  0.792272  0.587309  0.634879  1
  Tm  Tm12  1  0.912459  0.705128  0.123814  1
  Tm  Tm13  1  0.912691  0.292272  0.634879  1
  Tm  Tm14  1  0.087309  0.707728  0.634879  1
  Tm  Tm15  1  0.087541  0.294872  0.123814  1
  Tm  Tm16  1  0.000000  0.000000  0.497672  1
  Tm  Tm17  1  0.000000  0.000000  0.997336  1
  Tm  Tm18  1  0.500000  0.500000  0.997336  1
  Tm  Tm19  1  0.500000  0.500000  0.497672  1
  Tc  Tc20  1  0.500000  0.000000  0.128136  1
  Tc  Tc21  1  0.500000  0.000000  0.627630  1
  Tc  Tc22  1  0.000000  0.500000  0.871072  1
  Pt  Pt23  1  0.848432  0.154525  0.249390  1
  Pt  Pt24  1  0.847516  0.846084  0.749139  1
  Pt  Pt25  1  0.152484  0.153916  0.749139  1
  Pt  Pt26  1  0.151568  0.845475  0.249390  1
  Pt  Pt27  1  0.653916  0.347516  0.749139  1
  Pt  Pt28  1  0.654525  0.651568  0.249390  1
  Pt  Pt29  1  0.345475  0.348432  0.249390  1
  Pt  Pt30  1  0.346084  0.652484  0.749139  1
  Pt  Pt31  1  0.000000  0.500000  0.380372  1
