# generated using pymatgen
data_Zr6V(Fe3Co8)2
_symmetry_space_group_name_H-M   'P 1'
_cell_length_a   8.15673420
_cell_length_b   8.15881228
_cell_length_c   8.15702400
_cell_angle_alpha   60.00724217
_cell_angle_beta   59.99881661
_cell_angle_gamma   60.01440057
_symmetry_Int_Tables_number   1
_chemical_formula_structural   Zr6V(Fe3Co8)2
_chemical_formula_sum   'Zr6 V1 Fe6 Co16'
_cell_volume   383.90796337
_cell_formula_units_Z   1
loop_
 _symmetry_equiv_pos_site_id
 _symmetry_equiv_pos_as_xyz
  1  'x, y, z'
loop_
 _atom_site_type_symbol
 _atom_site_label
 _atom_site_symmetry_multiplicity
 _atom_site_fract_x
 _atom_site_fract_y
 _atom_site_fract_z
 _atom_site_occupancy
  Zr  Zr0  1  0.710664  0.289826  0.289375  1
  Zr  Zr1  1  0.289654  0.289481  0.710433  1
  Zr  Zr2  1  0.289336  0.710174  0.710625  1
  Zr  Zr3  1  0.710346  0.710519  0.289567  1
  Zr  Zr4  1  0.289336  0.710174  0.289865  1
  Zr  Zr5  1  0.710664  0.289826  0.710135  1
  V  V6  1  0.000000  0.000000  0.000000  1
  Fe  Fe7  1  0.000000  0.500000  0.000000  1
  Fe  Fe8  1  0.000000  0.000000  0.500000  1
  Fe  Fe9  1  0.500000  0.500000  0.000000  1
  Fe  Fe10  1  0.500000  0.000000  0.500000  1
  Fe  Fe11  1  0.500000  0.000000  0.000000  1
  Fe  Fe12  1  0.000000  0.500000  0.500000  1
  Co  Co13  1  0.121112  0.120800  0.637153  1
  Co  Co14  1  0.674388  0.976967  0.674322  1
  Co  Co15  1  0.362675  0.878759  0.879282  1
  Co  Co16  1  0.023405  0.325238  0.325679  1
  Co  Co17  1  0.976595  0.674762  0.674321  1
  Co  Co18  1  0.325622  0.325571  0.023205  1
  Co  Co19  1  0.674378  0.674429  0.976795  1
  Co  Co20  1  0.637325  0.121241  0.120718  1
  Co  Co21  1  0.674378  0.674429  0.674396  1
  Co  Co22  1  0.878888  0.879200  0.362847  1
  Co  Co23  1  0.121112  0.120800  0.120933  1
  Co  Co24  1  0.879566  0.362571  0.878931  1
  Co  Co25  1  0.878888  0.879200  0.879067  1
  Co  Co26  1  0.325622  0.325571  0.325604  1
  Co  Co27  1  0.120434  0.637429  0.121069  1
  Co  Co28  1  0.325612  0.023033  0.325678  1
