# generated using pymatgen
data_Ce5YZn4Pt13
_symmetry_space_group_name_H-M   'P 1'
_cell_length_a   8.37628189
_cell_length_b   8.37628207
_cell_length_c   8.37628300
_cell_angle_alpha   109.50706497
_cell_angle_beta   109.50706540
_cell_angle_gamma   109.39955597
_symmetry_Int_Tables_number   1
_chemical_formula_structural   Ce5YZn4Pt13
_chemical_formula_sum   'Ce5 Y1 Zn4 Pt13'
_cell_volume   452.40929208
_cell_formula_units_Z   1
loop_
 _symmetry_equiv_pos_site_id
 _symmetry_equiv_pos_as_xyz
  1  'x, y, z'
loop_
 _atom_site_type_symbol
 _atom_site_label
 _atom_site_symmetry_multiplicity
 _atom_site_fract_x
 _atom_site_fract_y
 _atom_site_fract_z
 _atom_site_occupancy
  Ce  Ce0  1  0.301287  0.999687  0.301134  1
  Ce  Ce1  1  0.000048  0.300977  0.300930  1
  Ce  Ce2  1  0.302562  0.302393  0.999831  1
  Ce  Ce3  1  0.698553  0.999687  0.698400  1
  Ce  Ce4  1  0.999884  0.699027  0.699143  1
  Y  Y5  1  0.696428  0.696400  0.999972  1
  Zn  Zn6  1  0.000061  0.000129  0.498632  1
  Zn  Zn7  1  0.999927  0.501881  0.000048  1
  Zn  Zn8  1  0.501497  0.000129  0.000068  1
  Zn  Zn9  1  0.501832  0.501881  0.501953  1
  Pt  Pt10  1  0.328176  0.328145  0.656512  1
  Pt  Pt11  1  0.672007  0.998207  0.326201  1
  Pt  Pt12  1  0.998207  0.671398  0.326857  1
  Pt  Pt13  1  0.671632  0.328145  0.999969  1
  Pt  Pt14  1  0.327959  0.656888  0.328930  1
  Pt  Pt15  1  0.998903  0.328661  0.670266  1
  Pt  Pt16  1  0.328079  0.671719  0.999968  1
  Pt  Pt17  1  0.328012  0.998876  0.670865  1
  Pt  Pt18  1  0.658395  0.328661  0.329758  1
  Pt  Pt19  1  0.671751  0.671719  0.343641  1
  Pt  Pt20  1  0.671953  0.345734  0.673780  1
  Pt  Pt21  1  0.344542  0.671398  0.673191  1
  Pt  Pt22  1  0.998308  0.998259  0.999950  1
