# generated using pymatgen
data_YbPr2DyIn4
_symmetry_space_group_name_H-M   'P 1'
_cell_length_a   6.70389300
_cell_length_b   6.70389250
_cell_length_c   10.23082000
_cell_angle_alpha   90.00000000
_cell_angle_beta   90.00000000
_cell_angle_gamma   99.02882629
_symmetry_Int_Tables_number   1
_chemical_formula_structural   YbPr2DyIn4
_chemical_formula_sum   'Yb2 Pr4 Dy2 In8'
_cell_volume   454.09824497
_cell_formula_units_Z   2
loop_
 _symmetry_equiv_pos_site_id
 _symmetry_equiv_pos_as_xyz
  1  'x, y, z'
loop_
 _atom_site_type_symbol
 _atom_site_label
 _atom_site_symmetry_multiplicity
 _atom_site_fract_x
 _atom_site_fract_y
 _atom_site_fract_z
 _atom_site_occupancy
  Yb  Yb0  1  0.536072  0.536072  0.250000  1
  Yb  Yb1  1  0.463928  0.463928  0.750000  1
  Pr  Pr2  1  0.251378  0.748622  0.500000  1
  Pr  Pr3  1  0.251378  0.748622  0.000000  1
  Pr  Pr4  1  0.748622  0.251378  0.500000  1
  Pr  Pr5  1  0.748622  0.251378  0.000000  1
  Dy  Dy6  1  0.962779  0.962779  0.250000  1
  Dy  Dy7  1  0.037221  0.037221  0.750000  1
  In  In8  1  0.249702  0.249702  0.026175  1
  In  In9  1  0.750298  0.750298  0.973825  1
  In  In10  1  0.249702  0.249702  0.473825  1
  In  In11  1  0.750298  0.750298  0.526175  1
  In  In12  1  0.474711  0.027749  0.250000  1
  In  In13  1  0.972251  0.525289  0.750000  1
  In  In14  1  0.525289  0.972251  0.750000  1
  In  In15  1  0.027749  0.474711  0.250000  1
