# generated using pymatgen
data_Yb2ErOsO6
_symmetry_space_group_name_H-M   'P 1'
_cell_length_a   5.50287833
_cell_length_b   5.78094800
_cell_length_c   9.62753030
_cell_angle_alpha   90.00000000
_cell_angle_beta   124.30074773
_cell_angle_gamma   90.00000000
_symmetry_Int_Tables_number   1
_chemical_formula_structural   Yb2ErOsO6
_chemical_formula_sum   'Yb4 Er2 Os2 O12'
_cell_volume   253.00652787
_cell_formula_units_Z   2
loop_
 _symmetry_equiv_pos_site_id
 _symmetry_equiv_pos_as_xyz
  1  'x, y, z'
loop_
 _atom_site_type_symbol
 _atom_site_label
 _atom_site_symmetry_multiplicity
 _atom_site_fract_x
 _atom_site_fract_y
 _atom_site_fract_z
 _atom_site_occupancy
  Yb  Yb0  1  0.230555  0.435842  0.750962  1
  Yb  Yb1  1  0.230555  0.064158  0.250962  1
  Yb  Yb2  1  0.769445  0.564158  0.249038  1
  Yb  Yb3  1  0.769445  0.935842  0.749038  1
  Er  Er4  1  0.500000  0.500000  0.500000  1
  Er  Er5  1  0.500000  0.000000  0.000000  1
  Os  Os6  1  0.000000  0.500000  0.000000  1
  Os  Os7  1  0.000000  0.000000  0.500000  1
  O  O8  1  0.766315  0.185062  0.558156  1
  O  O9  1  0.766315  0.314938  0.058156  1
  O  O10  1  0.233685  0.814938  0.441844  1
  O  O11  1  0.233685  0.685062  0.941844  1
  O  O12  1  0.886671  0.711581  0.564249  1
  O  O13  1  0.886671  0.788419  0.064249  1
  O  O14  1  0.113329  0.288419  0.435751  1
  O  O15  1  0.113329  0.211581  0.935751  1
  O  O16  1  0.350982  0.045400  0.734054  1
  O  O17  1  0.350982  0.454600  0.234054  1
  O  O18  1  0.649018  0.954600  0.265946  1
  O  O19  1  0.649018  0.545400  0.765946  1
