# generated using pymatgen
data_Ta6Al4CuRuC2
_symmetry_space_group_name_H-M   'P 1'
_cell_length_a   8.29850689
_cell_length_b   8.25918242
_cell_length_c   8.29850669
_cell_angle_alpha   60.15663290
_cell_angle_beta   60.37468442
_cell_angle_gamma   60.15663539
_symmetry_Int_Tables_number   1
_chemical_formula_structural   Ta6Al4CuRuC2
_chemical_formula_sum   'Ta12 Al8 Cu2 Ru2 C4'
_cell_volume   404.26548380
_cell_formula_units_Z   2
loop_
 _symmetry_equiv_pos_site_id
 _symmetry_equiv_pos_as_xyz
  1  'x, y, z'
loop_
 _atom_site_type_symbol
 _atom_site_label
 _atom_site_symmetry_multiplicity
 _atom_site_fract_x
 _atom_site_fract_y
 _atom_site_fract_z
 _atom_site_occupancy
  Ta  Ta0  1  0.563176  0.936824  0.563176  1
  Ta  Ta1  1  0.315795  0.690794  0.680046  1
  Ta  Ta2  1  0.680046  0.313365  0.315795  1
  Ta  Ta3  1  0.317292  0.682708  0.317292  1
  Ta  Ta4  1  0.680046  0.690794  0.315795  1
  Ta  Ta5  1  0.315795  0.313365  0.680046  1
  Ta  Ta6  1  0.569954  0.559206  0.934205  1
  Ta  Ta7  1  0.934205  0.559206  0.569954  1
  Ta  Ta8  1  0.569954  0.936635  0.934205  1
  Ta  Ta9  1  0.934205  0.936635  0.569954  1
  Ta  Ta10  1  0.686824  0.313176  0.686824  1
  Ta  Ta11  1  0.932708  0.567292  0.932708  1
  Al  Al12  1  0.919028  0.916370  0.919028  1
  Al  Al13  1  0.996512  0.335461  0.332564  1
  Al  Al14  1  0.330972  0.004423  0.330972  1
  Al  Al15  1  0.332564  0.335461  0.996512  1
  Al  Al16  1  0.919028  0.245577  0.919028  1
  Al  Al17  1  0.917436  0.914539  0.253488  1
  Al  Al18  1  0.253488  0.914539  0.917436  1
  Al  Al19  1  0.330972  0.333630  0.330972  1
  Cu  Cu20  1  0.125000  0.125000  0.125000  1
  Cu  Cu21  1  0.125000  0.625000  0.125000  1
  Ru  Ru22  1  0.625000  0.125000  0.125000  1
  Ru  Ru23  1  0.125000  0.125000  0.625000  1
  C  C24  1  0.625000  0.625000  0.625000  1
  C  C25  1  0.125000  0.625000  0.625000  1
  C  C26  1  0.625000  0.125000  0.625000  1
  C  C27  1  0.625000  0.625000  0.125000  1
