# generated using pymatgen
data_Ca2Dy2RuRh3O14
_symmetry_space_group_name_H-M   'P 1'
_cell_length_a   7.26391226
_cell_length_b   7.29304696
_cell_length_c   7.26391152
_cell_angle_alpha   59.56293315
_cell_angle_beta   59.23305959
_cell_angle_gamma   59.56293171
_symmetry_Int_Tables_number   1
_chemical_formula_structural   Ca2Dy2RuRh3O14
_chemical_formula_sum   'Ca2 Dy2 Ru1 Rh3 O14'
_cell_volume   268.71195129
_cell_formula_units_Z   1
loop_
 _symmetry_equiv_pos_site_id
 _symmetry_equiv_pos_as_xyz
  1  'x, y, z'
loop_
 _atom_site_type_symbol
 _atom_site_label
 _atom_site_symmetry_multiplicity
 _atom_site_fract_x
 _atom_site_fract_y
 _atom_site_fract_z
 _atom_site_occupancy
  Ca  Ca0  1  0.125000  0.125000  0.625000  1
  Ca  Ca1  1  0.625000  0.125000  0.125000  1
  Dy  Dy2  1  0.125000  0.625000  0.125000  1
  Dy  Dy3  1  0.125000  0.125000  0.125000  1
  Ru  Ru4  1  0.625000  0.625000  0.625000  1
  Rh  Rh5  1  0.625000  0.625000  0.125000  1
  Rh  Rh6  1  0.625000  0.125000  0.625000  1
  Rh  Rh7  1  0.125000  0.625000  0.625000  1
  O  O8  1  0.244236  0.256132  0.244236  1
  O  O9  1  0.005764  0.993868  0.005764  1
  O  O10  1  0.290019  0.705656  0.290019  1
  O  O11  1  0.553520  0.942986  0.553520  1
  O  O12  1  0.291699  0.294088  0.709704  1
  O  O13  1  0.709704  0.294088  0.291699  1
  O  O14  1  0.300730  0.695303  0.706993  1
  O  O15  1  0.706993  0.695303  0.300730  1
  O  O16  1  0.696480  0.307014  0.696480  1
  O  O17  1  0.949270  0.554697  0.543007  1
  O  O18  1  0.540296  0.955912  0.958301  1
  O  O19  1  0.959981  0.544344  0.959981  1
  O  O20  1  0.543007  0.554697  0.949270  1
  O  O21  1  0.958301  0.955912  0.540296  1
