# generated using pymatgen
data_Sm3ErAl18RePd5
_symmetry_space_group_name_H-M   'P 1'
_cell_length_a   7.64936599
_cell_length_b   7.65818393
_cell_length_c   9.55500140
_cell_angle_alpha   89.81591165
_cell_angle_beta   89.78069354
_cell_angle_gamma   119.31820639
_symmetry_Int_Tables_number   1
_chemical_formula_structural   Sm3ErAl18RePd5
_chemical_formula_sum   'Sm3 Er1 Al18 Re1 Pd5'
_cell_volume   488.02821055
_cell_formula_units_Z   1
loop_
 _symmetry_equiv_pos_site_id
 _symmetry_equiv_pos_as_xyz
  1  'x, y, z'
loop_
 _atom_site_type_symbol
 _atom_site_label
 _atom_site_symmetry_multiplicity
 _atom_site_fract_x
 _atom_site_fract_y
 _atom_site_fract_z
 _atom_site_occupancy
  Sm  Sm0  1  0.996315  0.673413  0.248668  1
  Sm  Sm1  1  0.004582  0.326366  0.751013  1
  Sm  Sm2  1  0.672900  0.995558  0.249098  1
  Er  Er3  1  0.324760  0.004684  0.752257  1
  Al  Al4  1  0.133587  0.132659  0.246802  1
  Al  Al5  1  0.867572  0.866867  0.752476  1
  Al  Al6  1  0.001460  0.330835  0.073266  1
  Al  Al7  1  0.000580  0.670031  0.924185  1
  Al  Al8  1  0.998843  0.664414  0.579550  1
  Al  Al9  1  0.336631  0.002806  0.425286  1
  Al  Al10  1  0.003496  0.337211  0.423014  1
  Al  Al11  1  0.660552  0.997462  0.579800  1
  Al  Al12  1  0.667248  0.998786  0.924531  1
  Al  Al13  1  0.331257  0.000976  0.071245  1
  Al  Al14  1  0.334630  0.333292  0.555452  1
  Al  Al15  1  0.665489  0.665430  0.447759  1
  Al  Al16  1  0.670035  0.669801  0.048545  1
  Al  Al17  1  0.330746  0.329509  0.948504  1
  Al  Al18  1  0.343583  0.548461  0.249147  1
  Al  Al19  1  0.654743  0.448956  0.750712  1
  Al  Al20  1  0.548342  0.342613  0.249274  1
  Al  Al21  1  0.450596  0.658239  0.750712  1
  Re  Re22  1  0.001325  0.000934  0.998249  1
  Pd  Pd23  1  0.671790  0.328249  0.999677  1
  Pd  Pd24  1  0.328438  0.672028  0.999822  1
  Pd  Pd25  1  0.328001  0.672508  0.500210  1
  Pd  Pd26  1  0.672002  0.327774  0.500252  1
  Pd  Pd27  1  0.000490  0.000136  0.500489  1
