# generated using pymatgen
data_Ho3ZnCu6(Ni3B)2
_symmetry_space_group_name_H-M   'P 1'
_cell_length_a   5.05638789
_cell_length_b   5.04282290
_cell_length_c   10.98876100
_cell_angle_alpha   90.00000000
_cell_angle_beta   90.00000000
_cell_angle_gamma   119.91127733
_symmetry_Int_Tables_number   1
_chemical_formula_structural   Ho3ZnCu6(Ni3B)2
_chemical_formula_sum   'Ho3 Zn1 Cu6 Ni6 B2'
_cell_volume   242.87400595
_cell_formula_units_Z   1
loop_
 _symmetry_equiv_pos_site_id
 _symmetry_equiv_pos_as_xyz
  1  'x, y, z'
loop_
 _atom_site_type_symbol
 _atom_site_label
 _atom_site_symmetry_multiplicity
 _atom_site_fract_x
 _atom_site_fract_y
 _atom_site_fract_z
 _atom_site_occupancy
  Ho  Ho0  1  0.000000  0.000000  0.000000  1
  Ho  Ho1  1  0.000000  0.000000  0.684944  1
  Ho  Ho2  1  0.000000  0.000000  0.315056  1
  Zn  Zn3  1  0.000000  0.500000  0.500000  1
  Cu  Cu4  1  0.500000  0.500000  0.500000  1
  Cu  Cu5  1  0.500000  0.000000  0.500000  1
  Cu  Cu6  1  0.663271  0.331635  0.686193  1
  Cu  Cu7  1  0.336729  0.668365  0.686193  1
  Cu  Cu8  1  0.336729  0.668365  0.313807  1
  Cu  Cu9  1  0.663271  0.331635  0.313807  1
  Ni  Ni10  1  0.500000  0.500000  0.872324  1
  Ni  Ni11  1  0.500000  0.000000  0.872324  1
  Ni  Ni12  1  0.000000  0.500000  0.871698  1
  Ni  Ni13  1  0.500000  0.500000  0.127676  1
  Ni  Ni14  1  0.500000  0.000000  0.127676  1
  Ni  Ni15  1  0.000000  0.500000  0.128302  1
  B  B16  1  0.667982  0.333991  0.000000  1
  B  B17  1  0.332018  0.666009  0.000000  1
