# generated using pymatgen
data_Ho12Al(InFe)2
_symmetry_space_group_name_H-M   'P 1'
_cell_length_a   8.37925865
_cell_length_b   8.37925964
_cell_length_c   8.37925895
_cell_angle_alpha   109.99904058
_cell_angle_beta   109.99904235
_cell_angle_gamma   108.42066014
_symmetry_Int_Tables_number   1
_chemical_formula_structural   Ho12Al(InFe)2
_chemical_formula_sum   'Ho12 Al1 In2 Fe2'
_cell_volume   452.77838161
_cell_formula_units_Z   1
loop_
 _symmetry_equiv_pos_site_id
 _symmetry_equiv_pos_as_xyz
  1  'x, y, z'
loop_
 _atom_site_type_symbol
 _atom_site_label
 _atom_site_symmetry_multiplicity
 _atom_site_fract_x
 _atom_site_fract_y
 _atom_site_fract_z
 _atom_site_occupancy
  Ho  Ho0  1  0.449626  0.205089  0.244537  1
  Ho  Ho1  1  0.550374  0.794911  0.755463  1
  Ho  Ho2  1  0.960551  0.205089  0.755463  1
  Ho  Ho3  1  0.205089  0.960551  0.755463  1
  Ho  Ho4  1  0.039449  0.794911  0.244537  1
  Ho  Ho5  1  0.794911  0.039449  0.244537  1
  Ho  Ho6  1  0.205089  0.449626  0.244537  1
  Ho  Ho7  1  0.794911  0.550374  0.755463  1
  Ho  Ho8  1  0.303818  0.303818  0.607637  1
  Ho  Ho9  1  0.696182  0.696182  0.392363  1
  Ho  Ho10  1  0.303818  0.696182  0.000000  1
  Ho  Ho11  1  0.696182  0.303818  0.000000  1
  Al  Al12  1  0.000000  0.000000  0.000000  1
  In  In13  1  0.500000  0.000000  0.500000  1
  In  In14  1  0.000000  0.500000  0.500000  1
  Fe  Fe15  1  0.388766  0.388766  0.000000  1
  Fe  Fe16  1  0.611234  0.611234  0.000000  1
