# generated using pymatgen
data_Ba4SmAuO8
_symmetry_space_group_name_H-M   'P 1'
_cell_length_a   7.49354358
_cell_length_b   7.49354204
_cell_length_c   6.04398800
_cell_angle_alpha   90.00000000
_cell_angle_beta   90.00000000
_cell_angle_gamma   132.42765561
_symmetry_Int_Tables_number   1
_chemical_formula_structural   Ba4SmAuO8
_chemical_formula_sum   'Ba4 Sm1 Au1 O8'
_cell_volume   250.51325347
_cell_formula_units_Z   1
loop_
 _symmetry_equiv_pos_site_id
 _symmetry_equiv_pos_as_xyz
  1  'x, y, z'
loop_
 _atom_site_type_symbol
 _atom_site_label
 _atom_site_symmetry_multiplicity
 _atom_site_fract_x
 _atom_site_fract_y
 _atom_site_fract_z
 _atom_site_occupancy
  Ba  Ba0  1  0.354266  0.645734  0.000000  1
  Ba  Ba1  1  0.853017  0.146983  0.500000  1
  Ba  Ba2  1  0.146983  0.853017  0.500000  1
  Ba  Ba3  1  0.645734  0.354266  0.000000  1
  Sm  Sm4  1  0.000000  0.000000  0.000000  1
  Au  Au5  1  0.500000  0.500000  0.500000  1
  O  O6  1  0.259882  0.259882  0.731714  1
  O  O7  1  0.740118  0.740118  0.268286  1
  O  O8  1  0.740118  0.740118  0.731714  1
  O  O9  1  0.259882  0.259882  0.268286  1
  O  O10  1  0.168699  0.831301  0.000000  1
  O  O11  1  0.653855  0.346145  0.500000  1
  O  O12  1  0.346145  0.653855  0.500000  1
  O  O13  1  0.831301  0.168699  0.000000  1
