# generated using pymatgen
data_Y8Nb12Si15B
_symmetry_space_group_name_H-M   'P 1'
_cell_length_a   6.86328520
_cell_length_b   7.05792903
_cell_length_c   13.43014100
_cell_angle_alpha   90.00000000
_cell_angle_beta   90.00000000
_cell_angle_gamma   89.63520732
_symmetry_Int_Tables_number   1
_chemical_formula_structural   Y8Nb12Si15B
_chemical_formula_sum   'Y8 Nb12 Si15 B1'
_cell_volume   650.55063169
_cell_formula_units_Z   1
loop_
 _symmetry_equiv_pos_site_id
 _symmetry_equiv_pos_as_xyz
  1  'x, y, z'
loop_
 _atom_site_type_symbol
 _atom_site_label
 _atom_site_symmetry_multiplicity
 _atom_site_fract_x
 _atom_site_fract_y
 _atom_site_fract_z
 _atom_site_occupancy
  Y  Y0  1  0.503556  0.666280  0.597770  1
  Y  Y1  1  0.004889  0.826726  0.901536  1
  Y  Y2  1  0.497521  0.329046  0.095743  1
  Y  Y3  1  0.996926  0.171848  0.404920  1
  Y  Y4  1  0.497521  0.329046  0.404257  1
  Y  Y5  1  0.996926  0.171848  0.095080  1
  Y  Y6  1  0.503556  0.666280  0.902230  1
  Y  Y7  1  0.004889  0.826726  0.598464  1
  Nb  Nb8  1  0.650301  0.186952  0.630757  1
  Nb  Nb9  1  0.171681  0.325345  0.871869  1
  Nb  Nb10  1  0.339178  0.825177  0.125082  1
  Nb  Nb11  1  0.837687  0.675523  0.374955  1
  Nb  Nb12  1  0.339178  0.825177  0.374918  1
  Nb  Nb13  1  0.837687  0.675523  0.125045  1
  Nb  Nb14  1  0.650301  0.186952  0.869243  1
  Nb  Nb15  1  0.171681  0.325345  0.628131  1
  Nb  Nb16  1  0.830391  0.490582  0.750000  1
  Nb  Nb17  1  0.337563  0.013450  0.750000  1
  Nb  Nb18  1  0.163167  0.509466  0.250000  1
  Nb  Nb19  1  0.663510  0.991768  0.250000  1
  Si  Si20  1  0.662418  0.963681  0.462237  1
  Si  Si21  1  0.163424  0.538273  0.039289  1
  Si  Si22  1  0.337375  0.035709  0.959274  1
  Si  Si23  1  0.839412  0.461806  0.541897  1
  Si  Si24  1  0.337375  0.035709  0.540726  1
  Si  Si25  1  0.839412  0.461806  0.958103  1
  Si  Si26  1  0.662418  0.963681  0.037763  1
  Si  Si27  1  0.163424  0.538273  0.460711  1
  Si  Si28  1  0.957096  0.125867  0.750000  1
  Si  Si29  1  0.542594  0.624331  0.250000  1
  Si  Si30  1  0.041838  0.876769  0.250000  1
  Si  Si31  1  0.703589  0.876341  0.750000  1
  Si  Si32  1  0.215229  0.613639  0.750000  1
  Si  Si33  1  0.295030  0.126618  0.250000  1
  Si  Si34  1  0.795998  0.373661  0.250000  1
  B  B35  1  0.445260  0.364778  0.750000  1
