# generated using pymatgen
data_Dy5GeBi2
_symmetry_space_group_name_H-M   'P 1'
_cell_length_a   8.08574900
_cell_length_b   9.23775400
_cell_length_c   12.07216100
_cell_angle_alpha   90.00000000
_cell_angle_beta   90.00000000
_cell_angle_gamma   90.00000000
_symmetry_Int_Tables_number   1
_chemical_formula_structural   Dy5GeBi2
_chemical_formula_sum   'Dy20 Ge4 Bi8'
_cell_volume   901.71992730
_cell_formula_units_Z   4
loop_
 _symmetry_equiv_pos_site_id
 _symmetry_equiv_pos_as_xyz
  1  'x, y, z'
loop_
 _atom_site_type_symbol
 _atom_site_label
 _atom_site_symmetry_multiplicity
 _atom_site_fract_x
 _atom_site_fract_y
 _atom_site_fract_z
 _atom_site_occupancy
  Dy  Dy0  1  0.819814  0.554470  0.062991  1
  Dy  Dy1  1  0.680186  0.945530  0.562991  1
  Dy  Dy2  1  0.180186  0.054470  0.937009  1
  Dy  Dy3  1  0.319814  0.445530  0.437009  1
  Dy  Dy4  1  0.180186  0.445530  0.937009  1
  Dy  Dy5  1  0.319814  0.054470  0.437009  1
  Dy  Dy6  1  0.819814  0.945530  0.062991  1
  Dy  Dy7  1  0.680186  0.554470  0.562991  1
  Dy  Dy8  1  0.167278  0.750000  0.213543  1
  Dy  Dy9  1  0.332722  0.750000  0.713543  1
  Dy  Dy10  1  0.832722  0.250000  0.786457  1
  Dy  Dy11  1  0.667278  0.250000  0.286457  1
  Dy  Dy12  1  0.462743  0.750000  0.001594  1
  Dy  Dy13  1  0.037257  0.750000  0.501594  1
  Dy  Dy14  1  0.537257  0.250000  0.998406  1
  Dy  Dy15  1  0.962743  0.250000  0.498406  1
  Dy  Dy16  1  0.639824  0.750000  0.294472  1
  Dy  Dy17  1  0.860176  0.750000  0.794472  1
  Dy  Dy18  1  0.360176  0.250000  0.705528  1
  Dy  Dy19  1  0.139824  0.250000  0.205528  1
  Ge  Ge20  1  0.409674  0.750000  0.476312  1
  Ge  Ge21  1  0.090326  0.750000  0.976312  1
  Ge  Ge22  1  0.590326  0.250000  0.523688  1
  Ge  Ge23  1  0.909674  0.250000  0.023688  1
  Bi  Bi24  1  0.934147  0.510426  0.325406  1
  Bi  Bi25  1  0.565853  0.989574  0.825406  1
  Bi  Bi26  1  0.065853  0.010426  0.674594  1
  Bi  Bi27  1  0.434147  0.489574  0.174594  1
  Bi  Bi28  1  0.065853  0.489574  0.674594  1
  Bi  Bi29  1  0.434147  0.010426  0.174594  1
  Bi  Bi30  1  0.934147  0.989574  0.325406  1
  Bi  Bi31  1  0.565853  0.510426  0.825406  1
