# generated using pymatgen
data_DyLu4Bi2Te
_symmetry_space_group_name_H-M   'P 1'
_cell_length_a   8.06045200
_cell_length_b   9.31943000
_cell_length_c   11.72638000
_cell_angle_alpha   90.00000000
_cell_angle_beta   90.00000000
_cell_angle_gamma   90.00000000
_symmetry_Int_Tables_number   1
_chemical_formula_structural   DyLu4Bi2Te
_chemical_formula_sum   'Dy4 Lu16 Bi8 Te4'
_cell_volume   880.87180716
_cell_formula_units_Z   4
loop_
 _symmetry_equiv_pos_site_id
 _symmetry_equiv_pos_as_xyz
  1  'x, y, z'
loop_
 _atom_site_type_symbol
 _atom_site_label
 _atom_site_symmetry_multiplicity
 _atom_site_fract_x
 _atom_site_fract_y
 _atom_site_fract_z
 _atom_site_occupancy
  Dy  Dy0  1  0.320008  0.250000  0.216381  1
  Dy  Dy1  1  0.820008  0.250000  0.283619  1
  Dy  Dy2  1  0.679992  0.750000  0.783619  1
  Dy  Dy3  1  0.179992  0.750000  0.716381  1
  Lu  Lu4  1  0.353592  0.750000  0.216196  1
  Lu  Lu5  1  0.853592  0.750000  0.283804  1
  Lu  Lu6  1  0.646408  0.250000  0.783804  1
  Lu  Lu7  1  0.146408  0.250000  0.716196  1
  Lu  Lu8  1  0.688394  0.565945  0.058450  1
  Lu  Lu9  1  0.188394  0.934055  0.441550  1
  Lu  Lu10  1  0.311606  0.065945  0.941550  1
  Lu  Lu11  1  0.811606  0.434055  0.558450  1
  Lu  Lu12  1  0.311606  0.434055  0.941550  1
  Lu  Lu13  1  0.811606  0.065945  0.558450  1
  Lu  Lu14  1  0.688394  0.934055  0.058450  1
  Lu  Lu15  1  0.188394  0.565945  0.441550  1
  Lu  Lu16  1  0.478937  0.250000  0.489818  1
  Lu  Lu17  1  0.978937  0.250000  0.010182  1
  Lu  Lu18  1  0.521063  0.750000  0.510182  1
  Lu  Lu19  1  0.021063  0.750000  0.989818  1
  Bi  Bi20  1  0.568872  0.994536  0.326314  1
  Bi  Bi21  1  0.068872  0.505464  0.173686  1
  Bi  Bi22  1  0.431128  0.494536  0.673686  1
  Bi  Bi23  1  0.931128  0.005464  0.826314  1
  Bi  Bi24  1  0.431128  0.005464  0.673686  1
  Bi  Bi25  1  0.931128  0.494536  0.826314  1
  Bi  Bi26  1  0.568872  0.505464  0.326314  1
  Bi  Bi27  1  0.068872  0.994536  0.173686  1
  Te  Te28  1  0.399881  0.750000  0.958939  1
  Te  Te29  1  0.899881  0.750000  0.541061  1
  Te  Te30  1  0.600119  0.250000  0.041061  1
  Te  Te31  1  0.100119  0.250000  0.458939  1
