# generated using pymatgen
data_Ho7Th(InNi)2
_symmetry_space_group_name_H-M   'P 1'
_cell_length_a   9.60173812
_cell_length_b   9.60173817
_cell_length_c   9.69730300
_cell_angle_alpha   59.67021547
_cell_angle_beta   59.67021528
_cell_angle_gamma   59.91248486
_symmetry_Int_Tables_number   1
_chemical_formula_structural   Ho7Th(InNi)2
_chemical_formula_sum   'Ho14 Th2 In4 Ni4'
_cell_volume   628.59020726
_cell_formula_units_Z   2
loop_
 _symmetry_equiv_pos_site_id
 _symmetry_equiv_pos_as_xyz
  1  'x, y, z'
loop_
 _atom_site_type_symbol
 _atom_site_label
 _atom_site_symmetry_multiplicity
 _atom_site_fract_x
 _atom_site_fract_y
 _atom_site_fract_z
 _atom_site_occupancy
  Ho  Ho0  1  0.348244  0.950217  0.350769  1
  Ho  Ho1  1  0.950217  0.348244  0.350769  1
  Ho  Ho2  1  0.812771  0.189649  0.186977  1
  Ho  Ho3  1  0.189649  0.812771  0.810602  1
  Ho  Ho4  1  0.189649  0.812771  0.186977  1
  Ho  Ho5  1  0.812771  0.189649  0.810602  1
  Ho  Ho6  1  0.188876  0.188876  0.811124  1
  Ho  Ho7  1  0.811550  0.811550  0.188450  1
  Ho  Ho8  1  0.936762  0.562679  0.564073  1
  Ho  Ho9  1  0.562679  0.936762  0.936486  1
  Ho  Ho10  1  0.562679  0.936762  0.564073  1
  Ho  Ho11  1  0.936762  0.562679  0.936486  1
  Ho  Ho12  1  0.561124  0.561124  0.938876  1
  Ho  Ho13  1  0.937205  0.937205  0.562795  1
  Th  Th14  1  0.343160  0.343160  0.351053  1
  Th  Th15  1  0.343160  0.343160  0.962626  1
  In  In16  1  0.585765  0.585765  0.582830  1
  In  In17  1  0.585765  0.585765  0.245641  1
  In  In18  1  0.585806  0.251800  0.581197  1
  In  In19  1  0.251800  0.585806  0.581197  1
  Ni  Ni20  1  0.143150  0.143150  0.141160  1
  Ni  Ni21  1  0.143150  0.143150  0.572539  1
  Ni  Ni22  1  0.145161  0.572148  0.141345  1
  Ni  Ni23  1  0.572148  0.145161  0.141345  1
