# generated using pymatgen
data_Ce3Er(CuSi3)2
_symmetry_space_group_name_H-M   'P 1'
_cell_length_a   8.05551826
_cell_length_b   8.11701634
_cell_length_c   5.78931004
_cell_angle_alpha   68.45707926
_cell_angle_beta   69.59370521
_cell_angle_gamma   41.94921428
_symmetry_Int_Tables_number   1
_chemical_formula_structural   Ce3Er(CuSi3)2
_chemical_formula_sum   'Ce3 Er1 Cu2 Si6'
_cell_volume   233.62386763
_cell_formula_units_Z   1
loop_
 _symmetry_equiv_pos_site_id
 _symmetry_equiv_pos_as_xyz
  1  'x, y, z'
loop_
 _atom_site_type_symbol
 _atom_site_label
 _atom_site_symmetry_multiplicity
 _atom_site_fract_x
 _atom_site_fract_y
 _atom_site_fract_z
 _atom_site_occupancy
  Ce  Ce0  1  0.755782  0.244218  0.244217  1
  Ce  Ce1  1  0.250559  0.249442  0.249441  1
  Ce  Ce2  1  0.750558  0.749442  0.749441  1
  Er  Er3  1  0.243626  0.756374  0.756374  1
  Cu  Cu4  1  0.664434  0.667274  0.335566  1
  Cu  Cu5  1  0.332726  0.335566  0.667273  1
  Si  Si6  1  0.833135  0.830607  0.166864  1
  Si  Si7  1  0.338710  0.829507  0.170603  1
  Si  Si8  1  0.170493  0.661290  0.338819  1
  Si  Si9  1  0.829397  0.338820  0.661289  1
  Si  Si10  1  0.661180  0.170603  0.829506  1
  Si  Si11  1  0.169393  0.166865  0.830607  1
