# generated using pymatgen
data_U4Al5(ReSi3)2
_symmetry_space_group_name_H-M   'P 1'
_cell_length_a   7.18634746
_cell_length_b   7.18634827
_cell_length_c   7.18634829
_cell_angle_alpha   109.75109247
_cell_angle_beta   108.91290933
_cell_angle_gamma   109.75108945
_symmetry_Int_Tables_number   1
_chemical_formula_structural   U4Al5(ReSi3)2
_chemical_formula_sum   'U4 Al5 Re2 Si6'
_cell_volume   285.67484443
_cell_formula_units_Z   1
loop_
 _symmetry_equiv_pos_site_id
 _symmetry_equiv_pos_as_xyz
  1  'x, y, z'
loop_
 _atom_site_type_symbol
 _atom_site_label
 _atom_site_symmetry_multiplicity
 _atom_site_fract_x
 _atom_site_fract_y
 _atom_site_fract_z
 _atom_site_occupancy
  U  U0  1  0.498524  0.997045  0.998523  1
  U  U1  1  0.001477  0.500001  0.998523  1
  U  U2  1  0.001477  0.002955  0.501478  1
  U  U3  1  0.498524  0.500001  0.501478  1
  Al  Al4  1  0.750000  0.499999  0.250000  1
  Al  Al5  1  0.500084  0.747851  0.247936  1
  Al  Al6  1  0.752064  0.252149  0.499914  1
  Al  Al7  1  0.247767  0.747851  0.499914  1
  Al  Al8  1  0.500084  0.252149  0.752233  1
  Re  Re9  1  0.000000  0.000000  0.000000  1
  Re  Re10  1  0.250000  0.499999  0.750000  1
  Si  Si11  1  0.299950  0.301793  0.998157  1
  Si  Si12  1  0.696363  0.698207  0.998157  1
  Si  Si13  1  0.294168  0.000000  0.294168  1
  Si  Si14  1  0.001843  0.301793  0.303637  1
  Si  Si15  1  0.705832  0.000000  0.705832  1
  Si  Si16  1  0.001843  0.698207  0.700050  1
