# generated using pymatgen
data_CsMgInP2
_symmetry_space_group_name_H-M   'P 1'
_cell_length_a   8.27990783
_cell_length_b   8.27990768
_cell_length_c   8.27990800
_cell_angle_alpha   149.75825322
_cell_angle_beta   149.75825137
_cell_angle_gamma   43.29638231
_symmetry_Int_Tables_number   1
_chemical_formula_structural   CsMgInP2
_chemical_formula_sum   'Cs1 Mg1 In1 P2'
_cell_volume   143.60603153
_cell_formula_units_Z   1
loop_
 _symmetry_equiv_pos_site_id
 _symmetry_equiv_pos_as_xyz
  1  'x, y, z'
loop_
 _atom_site_type_symbol
 _atom_site_label
 _atom_site_symmetry_multiplicity
 _atom_site_fract_x
 _atom_site_fract_y
 _atom_site_fract_z
 _atom_site_occupancy
  Cs  Cs0  1  0.000000  0.000000  0.000000  1
  Mg  Mg1  1  0.750000  0.250000  0.500000  1
  In  In2  1  0.250000  0.750000  0.500000  1
  P  P3  1  0.651658  0.651658  0.000000  1
  P  P4  1  0.348342  0.348342  0.000000  1
