# generated using pymatgen
data_Zr2NbGe2Mo
_symmetry_space_group_name_H-M   'P 1'
_cell_length_a   3.62409900
_cell_length_b   7.09173300
_cell_length_c   8.51888700
_cell_angle_alpha   90.00000000
_cell_angle_beta   90.00000000
_cell_angle_gamma   90.00000000
_symmetry_Int_Tables_number   1
_chemical_formula_structural   Zr2NbGe2Mo
_chemical_formula_sum   'Zr4 Nb2 Ge4 Mo2'
_cell_volume   218.94512850
_cell_formula_units_Z   2
loop_
 _symmetry_equiv_pos_site_id
 _symmetry_equiv_pos_as_xyz
  1  'x, y, z'
loop_
 _atom_site_type_symbol
 _atom_site_label
 _atom_site_symmetry_multiplicity
 _atom_site_fract_x
 _atom_site_fract_y
 _atom_site_fract_z
 _atom_site_occupancy
  Zr  Zr0  1  0.250000  0.548747  0.833912  1
  Zr  Zr1  1  0.250000  0.048747  0.666088  1
  Zr  Zr2  1  0.750000  0.454711  0.167194  1
  Zr  Zr3  1  0.750000  0.954711  0.332806  1
  Nb  Nb4  1  0.250000  0.626091  0.440664  1
  Nb  Nb5  1  0.250000  0.126091  0.059336  1
  Ge  Ge6  1  0.250000  0.751400  0.137495  1
  Ge  Ge7  1  0.250000  0.251400  0.362505  1
  Ge  Ge8  1  0.750000  0.248758  0.858150  1
  Ge  Ge9  1  0.750000  0.748758  0.641850  1
  Mo  Mo10  1  0.750000  0.370294  0.560972  1
  Mo  Mo11  1  0.750000  0.870294  0.939028  1
