# generated using pymatgen
data_SmHo(SbSe)2
_symmetry_space_group_name_H-M   'P 1'
_cell_length_a   4.16889800
_cell_length_b   4.17081200
_cell_length_c   17.95898600
_cell_angle_alpha   90.00000000
_cell_angle_beta   90.00000000
_cell_angle_gamma   90.00000000
_symmetry_Int_Tables_number   1
_chemical_formula_structural   SmHo(SbSe)2
_chemical_formula_sum   'Sm2 Ho2 Sb4 Se4'
_cell_volume   312.26527778
_cell_formula_units_Z   2
loop_
 _symmetry_equiv_pos_site_id
 _symmetry_equiv_pos_as_xyz
  1  'x, y, z'
loop_
 _atom_site_type_symbol
 _atom_site_label
 _atom_site_symmetry_multiplicity
 _atom_site_fract_x
 _atom_site_fract_y
 _atom_site_fract_z
 _atom_site_occupancy
  Sm  Sm0  1  0.250000  0.760814  0.147364  1
  Sm  Sm1  1  0.250000  0.739186  0.647364  1
  Ho  Ho2  1  0.750000  0.238375  0.852140  1
  Ho  Ho3  1  0.750000  0.261625  0.352140  1
  Sb  Sb4  1  0.250000  0.248104  0.498785  1
  Sb  Sb5  1  0.250000  0.251896  0.998785  1
  Sb  Sb6  1  0.750000  0.750701  0.498476  1
  Sb  Sb7  1  0.750000  0.749299  0.998476  1
  Se  Se8  1  0.750000  0.237242  0.688841  1
  Se  Se9  1  0.750000  0.262758  0.188841  1
  Se  Se10  1  0.250000  0.763032  0.314394  1
  Se  Se11  1  0.250000  0.736968  0.814394  1
