# generated using pymatgen
data_Yb5Co4I
_symmetry_space_group_name_H-M   'P 1'
_cell_length_a   3.93787800
_cell_length_b   3.93787717
_cell_length_c   18.96703500
_cell_angle_alpha   90.00000000
_cell_angle_beta   90.00000000
_cell_angle_gamma   119.99999020
_symmetry_Int_Tables_number   1
_chemical_formula_structural   Yb5Co4I
_chemical_formula_sum   'Yb5 Co4 I1'
_cell_volume   254.71501254
_cell_formula_units_Z   1
loop_
 _symmetry_equiv_pos_site_id
 _symmetry_equiv_pos_as_xyz
  1  'x, y, z'
loop_
 _atom_site_type_symbol
 _atom_site_label
 _atom_site_symmetry_multiplicity
 _atom_site_fract_x
 _atom_site_fract_y
 _atom_site_fract_z
 _atom_site_occupancy
  Yb  Yb0  1  0.333333  0.666667  0.750000  1
  Yb  Yb1  1  0.000000  0.000000  0.121631  1
  Yb  Yb2  1  0.000000  0.000000  0.378369  1
  Yb  Yb3  1  0.000000  0.000000  0.926283  1
  Yb  Yb4  1  0.000000  0.000000  0.573717  1
  Co  Co5  1  0.333333  0.666667  0.023499  1
  Co  Co6  1  0.666667  0.333333  0.022499  1
  Co  Co7  1  0.333333  0.666667  0.476501  1
  Co  Co8  1  0.666667  0.333333  0.477501  1
  I  I9  1  0.666667  0.333333  0.250000  1
