# generated using pymatgen
data_Nd4ReRu7
_symmetry_space_group_name_H-M   'P 1'
_cell_length_a   5.29320075
_cell_length_b   5.55445960
_cell_length_c   9.13300700
_cell_angle_alpha   90.00000000
_cell_angle_beta   90.00000000
_cell_angle_gamma   121.64662194
_symmetry_Int_Tables_number   1
_chemical_formula_structural   Nd4ReRu7
_chemical_formula_sum   'Nd4 Re1 Ru7'
_cell_volume   228.58974583
_cell_formula_units_Z   1
loop_
 _symmetry_equiv_pos_site_id
 _symmetry_equiv_pos_as_xyz
  1  'x, y, z'
loop_
 _atom_site_type_symbol
 _atom_site_label
 _atom_site_symmetry_multiplicity
 _atom_site_fract_x
 _atom_site_fract_y
 _atom_site_fract_z
 _atom_site_occupancy
  Nd  Nd0  1  0.324850  0.662426  0.431085  1
  Nd  Nd1  1  0.650933  0.325466  0.565353  1
  Nd  Nd2  1  0.650933  0.325466  0.934647  1
  Nd  Nd3  1  0.324850  0.662426  0.068915  1
  Re  Re4  1  0.706422  0.853211  0.750000  1
  Ru  Ru5  1  0.971517  0.985758  0.500923  1
  Ru  Ru6  1  0.971517  0.985758  0.999077  1
  Ru  Ru7  1  0.837174  0.164128  0.250000  1
  Ru  Ru8  1  0.837174  0.673046  0.250000  1
  Ru  Ru9  1  0.359652  0.179826  0.250000  1
  Ru  Ru10  1  0.182488  0.818920  0.750000  1
  Ru  Ru11  1  0.182488  0.363569  0.750000  1
