# generated using pymatgen
data_Gd6Mn4Al3Pt16
_symmetry_space_group_name_H-M   'P 1'
_cell_length_a   8.97547156
_cell_length_b   9.00333086
_cell_length_c   8.97547100
_cell_angle_alpha   59.89727170
_cell_angle_beta   60.20547045
_cell_angle_gamma   59.89727047
_symmetry_Int_Tables_number   1
_chemical_formula_structural   Gd6Mn4Al3Pt16
_chemical_formula_sum   'Gd6 Mn4 Al3 Pt16'
_cell_volume   512.85475015
_cell_formula_units_Z   1
loop_
 _symmetry_equiv_pos_site_id
 _symmetry_equiv_pos_as_xyz
  1  'x, y, z'
loop_
 _atom_site_type_symbol
 _atom_site_label
 _atom_site_symmetry_multiplicity
 _atom_site_fract_x
 _atom_site_fract_y
 _atom_site_fract_z
 _atom_site_occupancy
  Gd  Gd0  1  0.708651  0.708651  0.291349  1
  Gd  Gd1  1  0.289138  0.710862  0.289138  1
  Gd  Gd2  1  0.708651  0.291349  0.291349  1
  Gd  Gd3  1  0.291349  0.291349  0.708651  1
  Gd  Gd4  1  0.710862  0.289138  0.710862  1
  Gd  Gd5  1  0.291349  0.708651  0.708651  1
  Mn  Mn6  1  0.000000  0.000000  0.500000  1
  Mn  Mn7  1  0.000000  0.500000  0.500000  1
  Mn  Mn8  1  0.500000  0.500000  0.000000  1
  Mn  Mn9  1  0.500000  0.000000  0.000000  1
  Al  Al10  1  0.000000  0.000000  0.000000  1
  Al  Al11  1  0.500000  0.000000  0.500000  1
  Al  Al12  1  0.000000  0.500000  0.000000  1
  Pt  Pt13  1  0.882600  0.881082  0.355239  1
  Pt  Pt14  1  0.881082  0.355239  0.881082  1
  Pt  Pt15  1  0.355239  0.881082  0.882600  1
  Pt  Pt16  1  0.881082  0.882600  0.881082  1
  Pt  Pt17  1  0.117400  0.118918  0.644761  1
  Pt  Pt18  1  0.118918  0.644761  0.118918  1
  Pt  Pt19  1  0.644761  0.118918  0.117400  1
  Pt  Pt20  1  0.118918  0.117400  0.118918  1
  Pt  Pt21  1  0.669530  0.663183  0.004104  1
  Pt  Pt22  1  0.663183  0.004104  0.663183  1
  Pt  Pt23  1  0.004104  0.663183  0.669530  1
  Pt  Pt24  1  0.663183  0.669530  0.663183  1
  Pt  Pt25  1  0.330470  0.336817  0.995896  1
  Pt  Pt26  1  0.336817  0.995896  0.336817  1
  Pt  Pt27  1  0.995896  0.336817  0.330470  1
  Pt  Pt28  1  0.336817  0.330470  0.336817  1
