# generated using pymatgen
data_RbTb(SO4)2
_symmetry_space_group_name_H-M   'P 1'
_cell_length_a   5.28281620
_cell_length_b   5.28281538
_cell_length_c   8.60643521
_cell_angle_alpha   93.25492754
_cell_angle_beta   93.25492693
_cell_angle_gamma   63.20777840
_symmetry_Int_Tables_number   1
_chemical_formula_structural   RbTb(SO4)2
_chemical_formula_sum   'Rb1 Tb1 S2 O8'
_cell_volume   213.92757814
_cell_formula_units_Z   1
loop_
 _symmetry_equiv_pos_site_id
 _symmetry_equiv_pos_as_xyz
  1  'x, y, z'
loop_
 _atom_site_type_symbol
 _atom_site_label
 _atom_site_symmetry_multiplicity
 _atom_site_fract_x
 _atom_site_fract_y
 _atom_site_fract_z
 _atom_site_occupancy
  Rb  Rb0  1  0.000000  0.000000  0.500000  1
  Tb  Tb1  1  0.000000  0.000000  0.000000  1
  S  S2  1  0.365571  0.365571  0.214227  1
  S  S3  1  0.634430  0.634430  0.785773  1
  O  O4  1  0.237587  0.237587  0.094295  1
  O  O5  1  0.677629  0.239387  0.186431  1
  O  O6  1  0.239387  0.677629  0.186431  1
  O  O7  1  0.317591  0.317591  0.372602  1
  O  O8  1  0.682410  0.682410  0.627398  1
  O  O9  1  0.760613  0.322371  0.813570  1
  O  O10  1  0.322371  0.760613  0.813570  1
  O  O11  1  0.762413  0.762413  0.905705  1
