# generated using pymatgen
data_CeHf(SnIr)2
_symmetry_space_group_name_H-M   'P 1'
_cell_length_a   7.42354500
_cell_length_b   7.42354390
_cell_length_c   7.84168100
_cell_angle_alpha   90.00000000
_cell_angle_beta   90.00000000
_cell_angle_gamma   120.00000935
_symmetry_Int_Tables_number   1
_chemical_formula_structural   CeHf(SnIr)2
_chemical_formula_sum   'Ce3 Hf3 Sn6 Ir6'
_cell_volume   374.25049957
_cell_formula_units_Z   3
loop_
 _symmetry_equiv_pos_site_id
 _symmetry_equiv_pos_as_xyz
  1  'x, y, z'
loop_
 _atom_site_type_symbol
 _atom_site_label
 _atom_site_symmetry_multiplicity
 _atom_site_fract_x
 _atom_site_fract_y
 _atom_site_fract_z
 _atom_site_occupancy
  Ce  Ce0  1  0.000085  0.408483  0.750000  1
  Ce  Ce1  1  0.591517  0.591602  0.750000  1
  Ce  Ce2  1  0.408398  0.999915  0.750000  1
  Hf  Hf3  1  0.999308  0.391720  0.250000  1
  Hf  Hf4  1  0.608280  0.607589  0.250000  1
  Hf  Hf5  1  0.392411  0.000692  0.250000  1
  Sn  Sn6  1  0.262739  0.263129  0.490138  1
  Sn  Sn7  1  0.000389  0.737261  0.490138  1
  Sn  Sn8  1  0.000389  0.737261  0.009862  1
  Sn  Sn9  1  0.736871  0.999611  0.490138  1
  Sn  Sn10  1  0.736871  0.999611  0.009862  1
  Sn  Sn11  1  0.262739  0.263129  0.009862  1
  Ir  Ir12  1  0.333333  0.666667  0.459720  1
  Ir  Ir13  1  0.666667  0.333333  0.461585  1
  Ir  Ir14  1  0.333333  0.666667  0.040280  1
  Ir  Ir15  1  0.000000  0.000000  0.750000  1
  Ir  Ir16  1  0.000000  0.000000  0.250000  1
  Ir  Ir17  1  0.666667  0.333333  0.038415  1
