# generated using pymatgen
data_Pr2Tm4CoBr10
_symmetry_space_group_name_H-M   'P 1'
_cell_length_a   7.34438106
_cell_length_b   9.21343237
_cell_length_c   9.23361547
_cell_angle_alpha   106.81575508
_cell_angle_beta   95.48178092
_cell_angle_gamma   105.93447961
_symmetry_Int_Tables_number   1
_chemical_formula_structural   Pr2Tm4CoBr10
_chemical_formula_sum   'Pr2 Tm4 Co1 Br10'
_cell_volume   564.62877069
_cell_formula_units_Z   1
loop_
 _symmetry_equiv_pos_site_id
 _symmetry_equiv_pos_as_xyz
  1  'x, y, z'
loop_
 _atom_site_type_symbol
 _atom_site_label
 _atom_site_symmetry_multiplicity
 _atom_site_fract_x
 _atom_site_fract_y
 _atom_site_fract_z
 _atom_site_occupancy
  Pr  Pr0  1  0.876874  0.952964  0.241289  1
  Pr  Pr1  1  0.123126  0.047036  0.758711  1
  Tm  Tm2  1  0.028501  0.708559  0.911065  1
  Tm  Tm3  1  0.971499  0.291441  0.088935  1
  Tm  Tm4  1  0.648608  0.870319  0.833057  1
  Tm  Tm5  1  0.351392  0.129681  0.166943  1
  Co  Co6  1  0.000000  0.000000  0.000000  1
  Br  Br7  1  0.656818  0.556857  0.734543  1
  Br  Br8  1  0.343182  0.443143  0.265457  1
  Br  Br9  1  0.731323  0.911852  0.550734  1
  Br  Br10  1  0.268677  0.088148  0.449266  1
  Br  Br11  1  0.079822  0.380662  0.830638  1
  Br  Br12  1  0.920178  0.619338  0.169362  1
  Br  Br13  1  0.445124  0.820890  0.084198  1
  Br  Br14  1  0.554876  0.179110  0.915802  1
  Br  Br15  1  0.229313  0.738628  0.665574  1
  Br  Br16  1  0.770687  0.261372  0.334426  1
