# generated using pymatgen
data_TbTm15In2Ag2IrRh3
_symmetry_space_group_name_H-M   'P 1'
_cell_length_a   9.46776103
_cell_length_b   9.51599101
_cell_length_c   9.50518614
_cell_angle_alpha   59.74523908
_cell_angle_beta   59.62127478
_cell_angle_gamma   59.78779109
_symmetry_Int_Tables_number   1
_chemical_formula_structural   TbTm15In2Ag2IrRh3
_chemical_formula_sum   'Tb1 Tm15 In2 Ag2 Ir1 Rh3'
_cell_volume   601.66590218
_cell_formula_units_Z   1
loop_
 _symmetry_equiv_pos_site_id
 _symmetry_equiv_pos_as_xyz
  1  'x, y, z'
loop_
 _atom_site_type_symbol
 _atom_site_label
 _atom_site_symmetry_multiplicity
 _atom_site_fract_x
 _atom_site_fract_y
 _atom_site_fract_z
 _atom_site_occupancy
  Tb  Tb0  1  0.067028  0.435546  0.435397  1
  Tm  Tm1  1  0.809714  0.808876  0.191561  1
  Tm  Tm2  1  0.810226  0.190750  0.809877  1
  Tm  Tm3  1  0.188642  0.188857  0.813940  1
  Tm  Tm4  1  0.646831  0.052497  0.648983  1
  Tm  Tm5  1  0.064211  0.063107  0.435520  1
  Tm  Tm6  1  0.443465  0.439087  0.057489  1
  Tm  Tm7  1  0.649942  0.650254  0.648796  1
  Tm  Tm8  1  0.811386  0.189764  0.190914  1
  Tm  Tm9  1  0.190861  0.810807  0.809242  1
  Tm  Tm10  1  0.049860  0.648298  0.649448  1
  Tm  Tm11  1  0.436519  0.069157  0.059304  1
  Tm  Tm12  1  0.438210  0.065027  0.434356  1
  Tm  Tm13  1  0.068236  0.437291  0.057526  1
  Tm  Tm14  1  0.649303  0.650129  0.052386  1
  Tm  Tm15  1  0.189621  0.812119  0.189533  1
  In  In16  1  0.416106  0.743717  0.421390  1
  In  In17  1  0.742208  0.417195  0.421273  1
  Ag  Ag18  1  0.418331  0.414279  0.419761  1
  Ag  Ag19  1  0.414804  0.414686  0.752304  1
  Ir  Ir20  1  0.853825  0.426793  0.859376  1
  Rh  Rh21  1  0.857232  0.857182  0.857521  1
  Rh  Rh22  1  0.856117  0.858525  0.426591  1
  Rh  Rh23  1  0.427322  0.856058  0.857513  1
