# generated using pymatgen
data_Gd7Er9(TmSn4)4
_symmetry_space_group_name_H-M   'P 1'
_cell_length_a   8.07858133
_cell_length_b   8.24420807
_cell_length_c   15.54746600
_cell_angle_alpha   90.03472826
_cell_angle_beta   90.28412608
_cell_angle_gamma   89.59424471
_symmetry_Int_Tables_number   1
_chemical_formula_structural   Gd7Er9(TmSn4)4
_chemical_formula_sum   'Gd7 Er9 Tm4 Sn16'
_cell_volume   1035.44577532
_cell_formula_units_Z   1
loop_
 _symmetry_equiv_pos_site_id
 _symmetry_equiv_pos_as_xyz
  1  'x, y, z'
loop_
 _atom_site_type_symbol
 _atom_site_label
 _atom_site_symmetry_multiplicity
 _atom_site_fract_x
 _atom_site_fract_y
 _atom_site_fract_z
 _atom_site_occupancy
  Gd  Gd0  1  0.015594  0.179485  0.597103  1
  Gd  Gd1  1  0.484227  0.678591  0.403570  1
  Gd  Gd2  1  0.984300  0.822007  0.095239  1
  Gd  Gd3  1  0.483209  0.678422  0.095593  1
  Gd  Gd4  1  0.984844  0.820620  0.404189  1
  Gd  Gd5  1  0.514959  0.322464  0.596320  1
  Gd  Gd6  1  0.016155  0.179480  0.904190  1
  Er  Er7  1  0.360211  0.837467  0.877334  1
  Er  Er8  1  0.858052  0.662027  0.623534  1
  Er  Er9  1  0.641141  0.162943  0.376134  1
  Er  Er10  1  0.138437  0.338990  0.122332  1
  Er  Er11  1  0.638339  0.162271  0.122827  1
  Er  Er12  1  0.140868  0.336900  0.376347  1
  Er  Er13  1  0.359949  0.837111  0.624762  1
  Er  Er14  1  0.861537  0.661827  0.877992  1
  Er  Er15  1  0.518888  0.320727  0.903352  1
  Tm  Tm16  1  0.193410  0.502227  0.750716  1
  Tm  Tm17  1  0.692979  0.997665  0.751051  1
  Tm  Tm18  1  0.806011  0.497483  0.249012  1
  Tm  Tm19  1  0.307262  0.002271  0.249538  1
  Sn  Sn20  1  0.300132  0.040257  0.041944  1
  Sn  Sn21  1  0.801434  0.459748  0.457633  1
  Sn  Sn22  1  0.697391  0.961443  0.542378  1
  Sn  Sn23  1  0.204701  0.536049  0.956699  1
  Sn  Sn24  1  0.699399  0.962965  0.957406  1
  Sn  Sn25  1  0.198097  0.541462  0.541799  1
  Sn  Sn26  1  0.302693  0.038111  0.457886  1
  Sn  Sn27  1  0.796342  0.458467  0.041072  1
  Sn  Sn28  1  0.558170  0.620734  0.751279  1
  Sn  Sn29  1  0.056715  0.877967  0.750519  1
  Sn  Sn30  1  0.441843  0.378148  0.249381  1
  Sn  Sn31  1  0.943263  0.122008  0.248941  1
  Sn  Sn32  1  0.327199  0.148342  0.751519  1
  Sn  Sn33  1  0.823654  0.353091  0.750848  1
  Sn  Sn34  1  0.675027  0.852682  0.249847  1
  Sn  Sn35  1  0.173571  0.647548  0.249714  1
