# generated using pymatgen
data_Ce4Zn6OsRh
_symmetry_space_group_name_H-M   'P 1'
_cell_length_a   5.45633750
_cell_length_b   5.42697040
_cell_length_c   8.59849900
_cell_angle_alpha   90.00000000
_cell_angle_beta   90.00000000
_cell_angle_gamma   116.37014213
_symmetry_Int_Tables_number   1
_chemical_formula_structural   Ce4Zn6OsRh
_chemical_formula_sum   'Ce4 Zn6 Os1 Rh1'
_cell_volume   228.11921669
_cell_formula_units_Z   1
loop_
 _symmetry_equiv_pos_site_id
 _symmetry_equiv_pos_as_xyz
  1  'x, y, z'
loop_
 _atom_site_type_symbol
 _atom_site_label
 _atom_site_symmetry_multiplicity
 _atom_site_fract_x
 _atom_site_fract_y
 _atom_site_fract_z
 _atom_site_occupancy
  Ce  Ce0  1  0.353103  0.654771  0.454510  1
  Ce  Ce1  1  0.653096  0.340144  0.581263  1
  Ce  Ce2  1  0.653096  0.340144  0.918737  1
  Ce  Ce3  1  0.353103  0.654771  0.045490  1
  Zn  Zn4  1  0.998812  0.998759  0.494832  1
  Zn  Zn5  1  0.998812  0.998759  0.005168  1
  Zn  Zn6  1  0.832335  0.169110  0.250000  1
  Zn  Zn7  1  0.847788  0.658078  0.250000  1
  Zn  Zn8  1  0.340349  0.152905  0.250000  1
  Zn  Zn9  1  0.156943  0.841291  0.750000  1
  Os  Os10  1  0.658960  0.851720  0.750000  1
  Rh  Rh11  1  0.153601  0.339550  0.750000  1
