# generated using pymatgen
data_Yb5SnRh2
_symmetry_space_group_name_H-M   'P 1'
_cell_length_a   8.90205482
_cell_length_b   8.90205588
_cell_length_c   8.90205489
_cell_angle_alpha   129.33470342
_cell_angle_beta   129.33471363
_cell_angle_gamma   74.47260470
_symmetry_Int_Tables_number   1
_chemical_formula_structural   Yb5SnRh2
_chemical_formula_sum   'Yb10 Sn2 Rh4'
_cell_volume   411.29509504
_cell_formula_units_Z   2
loop_
 _symmetry_equiv_pos_site_id
 _symmetry_equiv_pos_as_xyz
  1  'x, y, z'
loop_
 _atom_site_type_symbol
 _atom_site_label
 _atom_site_symmetry_multiplicity
 _atom_site_fract_x
 _atom_site_fract_y
 _atom_site_fract_z
 _atom_site_occupancy
  Yb  Yb0  1  0.000000  0.000000  0.000000  1
  Yb  Yb1  1  0.500000  0.500000  0.000000  1
  Yb  Yb2  1  0.796926  0.296926  0.833881  1
  Yb  Yb3  1  0.203074  0.703074  0.166119  1
  Yb  Yb4  1  0.463045  0.963045  0.166119  1
  Yb  Yb5  1  0.296926  0.463045  0.500000  1
  Yb  Yb6  1  0.036955  0.203074  0.500000  1
  Yb  Yb7  1  0.536955  0.036955  0.833881  1
  Yb  Yb8  1  0.703074  0.536955  0.500000  1
  Yb  Yb9  1  0.963045  0.796926  0.500000  1
  Sn  Sn10  1  0.250000  0.250000  0.000000  1
  Sn  Sn11  1  0.750000  0.750000  0.000000  1
  Rh  Rh12  1  0.131059  0.631059  0.762120  1
  Rh  Rh13  1  0.868941  0.368941  0.237880  1
  Rh  Rh14  1  0.631059  0.868941  0.500000  1
  Rh  Rh15  1  0.368941  0.131059  0.500000  1
