# generated using pymatgen
data_Ho4CrFeRu6
_symmetry_space_group_name_H-M   'P 1'
_cell_length_a   5.44323908
_cell_length_b   5.11440454
_cell_length_c   8.88371900
_cell_angle_alpha   90.00000000
_cell_angle_beta   90.00000000
_cell_angle_gamma   122.02679291
_symmetry_Int_Tables_number   1
_chemical_formula_structural   Ho4CrFeRu6
_chemical_formula_sum   'Ho4 Cr1 Fe1 Ru6'
_cell_volume   209.67218218
_cell_formula_units_Z   1
loop_
 _symmetry_equiv_pos_site_id
 _symmetry_equiv_pos_as_xyz
  1  'x, y, z'
loop_
 _atom_site_type_symbol
 _atom_site_label
 _atom_site_symmetry_multiplicity
 _atom_site_fract_x
 _atom_site_fract_y
 _atom_site_fract_z
 _atom_site_occupancy
  Ho  Ho0  1  0.668543  0.336631  0.566968  1
  Ho  Ho1  1  0.327410  0.655246  0.434762  1
  Ho  Ho2  1  0.327410  0.655246  0.065238  1
  Ho  Ho3  1  0.668543  0.336631  0.933032  1
  Cr  Cr4  1  0.849115  0.698852  0.250000  1
  Fe  Fe5  1  0.161167  0.320904  0.750000  1
  Ru  Ru6  1  0.993005  0.986833  0.498880  1
  Ru  Ru7  1  0.993005  0.986833  0.001120  1
  Ru  Ru8  1  0.175155  0.825284  0.750000  1
  Ru  Ru9  1  0.650695  0.826056  0.750000  1
  Ru  Ru10  1  0.826923  0.185953  0.250000  1
  Ru  Ru11  1  0.359029  0.185529  0.250000  1
