# generated using pymatgen
data_Tb2ErAl3Ga2Ir
_symmetry_space_group_name_H-M   'P 1'
_cell_length_a   6.95598837
_cell_length_b   6.95598864
_cell_length_c   4.30585400
_cell_angle_alpha   90.00000000
_cell_angle_beta   90.00000000
_cell_angle_gamma   119.88363879
_symmetry_Int_Tables_number   1
_chemical_formula_structural   Tb2ErAl3Ga2Ir
_chemical_formula_sum   'Tb2 Er1 Al3 Ga2 Ir1'
_cell_volume   180.64072777
_cell_formula_units_Z   1
loop_
 _symmetry_equiv_pos_site_id
 _symmetry_equiv_pos_as_xyz
  1  'x, y, z'
loop_
 _atom_site_type_symbol
 _atom_site_label
 _atom_site_symmetry_multiplicity
 _atom_site_fract_x
 _atom_site_fract_y
 _atom_site_fract_z
 _atom_site_occupancy
  Tb  Tb0  1  0.417176  0.000644  0.500000  1
  Tb  Tb1  1  0.000644  0.417176  0.500000  1
  Er  Er2  1  0.584755  0.584755  0.500000  1
  Al  Al3  1  0.769816  0.999268  0.000000  1
  Al  Al4  1  0.999268  0.769816  0.000000  1
  Al  Al5  1  0.230182  0.230182  0.000000  1
  Ga  Ga6  1  0.334723  0.666173  0.000000  1
  Ga  Ga7  1  0.666173  0.334723  0.000000  1
  Ir  Ir8  1  0.997262  0.997262  0.500000  1
