# generated using pymatgen
data_DySb3IF24
_symmetry_space_group_name_H-M   'P 1'
_cell_length_a   10.59032757
_cell_length_b   10.59032812
_cell_length_c   9.82899800
_cell_angle_alpha   88.47753159
_cell_angle_beta   88.47753151
_cell_angle_gamma   119.43878601
_symmetry_Int_Tables_number   1
_chemical_formula_structural   DySb3IF24
_chemical_formula_sum   'Dy2 Sb6 I2 F48'
_cell_volume   958.70124965
_cell_formula_units_Z   2
loop_
 _symmetry_equiv_pos_site_id
 _symmetry_equiv_pos_as_xyz
  1  'x, y, z'
loop_
 _atom_site_type_symbol
 _atom_site_label
 _atom_site_symmetry_multiplicity
 _atom_site_fract_x
 _atom_site_fract_y
 _atom_site_fract_z
 _atom_site_occupancy
  Dy  Dy0  1  0.000000  0.000000  0.500000  1
  Dy  Dy1  1  0.000000  0.000000  0.000000  1
  Sb  Sb2  1  0.347396  0.171630  0.742263  1
  Sb  Sb3  1  0.828370  0.652604  0.757737  1
  Sb  Sb4  1  0.824066  0.175934  0.750000  1
  Sb  Sb5  1  0.171630  0.347396  0.242263  1
  Sb  Sb6  1  0.175934  0.824066  0.250000  1
  Sb  Sb7  1  0.652604  0.828370  0.257737  1
  I  I8  1  0.333472  0.666528  0.750000  1
  I  I9  1  0.666528  0.333472  0.250000  1
  F  F10  1  0.306558  0.297503  0.844477  1
  F  F11  1  0.984108  0.667893  0.858891  1
  F  F12  1  0.688624  0.011534  0.857517  1
  F  F13  1  0.297503  0.306558  0.344477  1
  F  F14  1  0.011534  0.688624  0.357517  1
  F  F15  1  0.667893  0.984108  0.358891  1
  F  F16  1  0.693442  0.702497  0.155523  1
  F  F17  1  0.015892  0.332107  0.141109  1
  F  F18  1  0.311376  0.988466  0.142483  1
  F  F19  1  0.702497  0.693442  0.655523  1
  F  F20  1  0.988466  0.311376  0.642483  1
  F  F21  1  0.332107  0.015892  0.641109  1
  F  F22  1  0.480179  0.319621  0.619468  1
  F  F23  1  0.833025  0.520651  0.636159  1
  F  F24  1  0.686572  0.171408  0.630099  1
  F  F25  1  0.319621  0.480179  0.119468  1
  F  F26  1  0.171408  0.686572  0.130099  1
  F  F27  1  0.520651  0.833025  0.136159  1
  F  F28  1  0.519821  0.680379  0.380532  1
  F  F29  1  0.166975  0.479349  0.363841  1
  F  F30  1  0.313428  0.828592  0.369901  1
  F  F31  1  0.680379  0.519821  0.880532  1
  F  F32  1  0.828592  0.313428  0.869901  1
  F  F33  1  0.479349  0.166975  0.863841  1
  F  F34  1  0.182152  0.515591  0.865091  1
  F  F35  1  0.329391  0.810814  0.861685  1
  F  F36  1  0.476519  0.661666  0.862696  1
  F  F37  1  0.515591  0.182152  0.365091  1
  F  F38  1  0.661666  0.476519  0.362696  1
  F  F39  1  0.810814  0.329391  0.361685  1
  F  F40  1  0.817848  0.484409  0.134909  1
  F  F41  1  0.670609  0.189186  0.138315  1
  F  F42  1  0.523481  0.338334  0.137304  1
  F  F43  1  0.484409  0.817848  0.634909  1
  F  F44  1  0.338334  0.523481  0.637304  1
  F  F45  1  0.189186  0.670609  0.638315  1
  F  F46  1  0.178491  0.145003  0.627909  1
  F  F47  1  0.980973  0.821481  0.636491  1
  F  F48  1  0.849319  0.030505  0.636057  1
  F  F49  1  0.145003  0.178491  0.127909  1
  F  F50  1  0.030505  0.849319  0.136057  1
  F  F51  1  0.821481  0.980973  0.136491  1
  F  F52  1  0.821509  0.854997  0.372091  1
  F  F53  1  0.019027  0.178519  0.363509  1
  F  F54  1  0.150681  0.969495  0.363943  1
  F  F55  1  0.854997  0.821509  0.872091  1
  F  F56  1  0.969495  0.150681  0.863943  1
  F  F57  1  0.178519  0.019027  0.863509  1
