# generated using pymatgen
data_LaPr3Th4(ZnRh)8
_symmetry_space_group_name_H-M   'P 1'
_cell_length_a   3.99558100
_cell_length_b   7.47675790
_cell_length_c   16.66531120
_cell_angle_alpha   90.37094162
_cell_angle_beta   90.00000000
_cell_angle_gamma   90.00000000
_symmetry_Int_Tables_number   1
_chemical_formula_structural   LaPr3Th4(ZnRh)8
_chemical_formula_sum   'La1 Pr3 Th4 Zn8 Rh8'
_cell_volume   497.84893637
_cell_formula_units_Z   1
loop_
 _symmetry_equiv_pos_site_id
 _symmetry_equiv_pos_as_xyz
  1  'x, y, z'
loop_
 _atom_site_type_symbol
 _atom_site_label
 _atom_site_symmetry_multiplicity
 _atom_site_fract_x
 _atom_site_fract_y
 _atom_site_fract_z
 _atom_site_occupancy
  La  La0  1  0.750000  0.440510  0.215462  1
  Pr  Pr1  1  0.250000  0.557987  0.785485  1
  Pr  Pr2  1  0.750000  0.328143  0.441070  1
  Pr  Pr3  1  0.250000  0.675387  0.559839  1
  Th  Th4  1  0.750000  0.946445  0.285628  1
  Th  Th5  1  0.750000  0.825172  0.060408  1
  Th  Th6  1  0.250000  0.053361  0.714149  1
  Th  Th7  1  0.250000  0.171180  0.939172  1
  Zn  Zn8  1  0.250000  0.001921  0.442650  1
  Zn  Zn9  1  0.750000  0.503513  0.938114  1
  Zn  Zn10  1  0.750000  0.003156  0.557615  1
  Zn  Zn11  1  0.250000  0.616472  0.349571  1
  Zn  Zn12  1  0.750000  0.387665  0.652947  1
  Zn  Zn13  1  0.750000  0.878688  0.848841  1
  Zn  Zn14  1  0.250000  0.493171  0.060052  1
  Zn  Zn15  1  0.250000  0.116778  0.150121  1
  Rh  Rh16  1  0.250000  0.243300  0.571930  1
  Rh  Rh17  1  0.750000  0.239316  0.057359  1
  Rh  Rh18  1  0.250000  0.227557  0.311389  1
  Rh  Rh19  1  0.750000  0.242737  0.815464  1
  Rh  Rh20  1  0.250000  0.758300  0.942546  1
  Rh  Rh21  1  0.750000  0.774794  0.687190  1
  Rh  Rh22  1  0.750000  0.762514  0.428560  1
  Rh  Rh23  1  0.250000  0.751934  0.184439  1
