# generated using pymatgen
data_Pr2Al8Cu3Ge2Au
_symmetry_space_group_name_H-M   'P 1'
_cell_length_a   6.03770200
_cell_length_b   6.03770200
_cell_length_c   8.02810100
_cell_angle_alpha   90.00000000
_cell_angle_beta   90.00000000
_cell_angle_gamma   90.00000000
_symmetry_Int_Tables_number   1
_chemical_formula_structural   Pr2Al8Cu3Ge2Au
_chemical_formula_sum   'Pr2 Al8 Cu3 Ge2 Au1'
_cell_volume   292.65515304
_cell_formula_units_Z   1
loop_
 _symmetry_equiv_pos_site_id
 _symmetry_equiv_pos_as_xyz
  1  'x, y, z'
loop_
 _atom_site_type_symbol
 _atom_site_label
 _atom_site_symmetry_multiplicity
 _atom_site_fract_x
 _atom_site_fract_y
 _atom_site_fract_z
 _atom_site_occupancy
  Pr  Pr0  1  0.750000  0.250000  0.500000  1
  Pr  Pr1  1  0.250000  0.750000  0.500000  1
  Al  Al2  1  0.497931  0.484274  0.175646  1
  Al  Al3  1  0.002069  0.484274  0.175646  1
  Al  Al4  1  0.497931  0.015726  0.175646  1
  Al  Al5  1  0.002069  0.015726  0.175646  1
  Al  Al6  1  0.984274  0.997931  0.824355  1
  Al  Al7  1  0.515725  0.997931  0.824355  1
  Al  Al8  1  0.984274  0.502068  0.824355  1
  Al  Al9  1  0.515725  0.502068  0.824355  1
  Cu  Cu10  1  0.750000  0.250000  0.000000  1
  Cu  Cu11  1  0.250000  0.250000  0.346539  1
  Cu  Cu12  1  0.750000  0.750000  0.653460  1
  Ge  Ge13  1  0.750000  0.750000  0.357169  1
  Ge  Ge14  1  0.250000  0.250000  0.642830  1
  Au  Au15  1  0.250000  0.750000  0.000000  1
