# generated using pymatgen
data_Ho20In4GaOs7
_symmetry_space_group_name_H-M   'P 1'
_cell_length_a   7.78379314
_cell_length_b   7.78375914
_cell_length_c   13.35839702
_cell_angle_alpha   90.00473388
_cell_angle_beta   89.99522943
_cell_angle_gamma   89.89721215
_symmetry_Int_Tables_number   1
_chemical_formula_structural   Ho20In4GaOs7
_chemical_formula_sum   'Ho20 In4 Ga1 Os7'
_cell_volume   809.34617634
_cell_formula_units_Z   1
loop_
 _symmetry_equiv_pos_site_id
 _symmetry_equiv_pos_as_xyz
  1  'x, y, z'
loop_
 _atom_site_type_symbol
 _atom_site_label
 _atom_site_symmetry_multiplicity
 _atom_site_fract_x
 _atom_site_fract_y
 _atom_site_fract_z
 _atom_site_occupancy
  Ho  Ho0  1  0.003698  0.501409  0.749889  1
  Ho  Ho1  1  0.998177  0.499639  0.250006  1
  Ho  Ho2  1  0.500358  0.001827  0.250018  1
  Ho  Ho3  1  0.498583  0.996310  0.750070  1
  Ho  Ho4  1  0.661823  0.672931  0.613561  1
  Ho  Ho5  1  0.654584  0.345475  0.117693  1
  Ho  Ho6  1  0.844641  0.844211  0.382031  1
  Ho  Ho7  1  0.163468  0.836555  0.881490  1
  Ho  Ho8  1  0.327044  0.338489  0.613395  1
  Ho  Ho9  1  0.343141  0.656564  0.118396  1
  Ho  Ho10  1  0.155814  0.155015  0.381953  1
  Ho  Ho11  1  0.852092  0.147773  0.885007  1
  Ho  Ho12  1  0.654536  0.345411  0.382324  1
  Ho  Ho13  1  0.327056  0.338152  0.886426  1
  Ho  Ho14  1  0.163412  0.836565  0.618471  1
  Ho  Ho15  1  0.844981  0.844173  0.118061  1
  Ho  Ho16  1  0.343431  0.656864  0.381632  1
  Ho  Ho17  1  0.661529  0.672976  0.886590  1
  Ho  Ho18  1  0.852247  0.147888  0.614983  1
  Ho  Ho19  1  0.155803  0.155368  0.117986  1
  In  In20  1  0.996552  0.500801  0.499033  1
  In  In21  1  0.996473  0.500916  0.000574  1
  In  In22  1  0.499052  0.003517  0.499426  1
  In  In23  1  0.499249  0.003466  0.000963  1
  Ga  Ga24  1  0.634084  0.365915  0.750004  1
  Os  Os25  1  0.858964  0.861514  0.750090  1
  Os  Os26  1  0.854894  0.145110  0.250013  1
  Os  Os27  1  0.644596  0.646201  0.249993  1
  Os  Os28  1  0.372927  0.627071  0.750010  1
  Os  Os29  1  0.138480  0.141034  0.749915  1
  Os  Os30  1  0.144522  0.855472  0.249996  1
  Os  Os31  1  0.353791  0.355388  0.250001  1
