# generated using pymatgen
data_Ho3Np(NiAs)4
_symmetry_space_group_name_H-M   'P 1'
_cell_length_a   4.04827700
_cell_length_b   4.04827662
_cell_length_c   15.28355800
_cell_angle_alpha   90.00000000
_cell_angle_beta   90.00000000
_cell_angle_gamma   120.00001125
_symmetry_Int_Tables_number   1
_chemical_formula_structural   Ho3Np(NiAs)4
_chemical_formula_sum   'Ho3 Np1 Ni4 As4'
_cell_volume   216.91793112
_cell_formula_units_Z   1
loop_
 _symmetry_equiv_pos_site_id
 _symmetry_equiv_pos_as_xyz
  1  'x, y, z'
loop_
 _atom_site_type_symbol
 _atom_site_label
 _atom_site_symmetry_multiplicity
 _atom_site_fract_x
 _atom_site_fract_y
 _atom_site_fract_z
 _atom_site_occupancy
  Ho  Ho0  1  0.000000  0.000000  0.250410  1
  Ho  Ho1  1  0.000000  0.000000  0.749590  1
  Ho  Ho2  1  0.000000  0.000000  0.500000  1
  Np  Np3  1  0.000000  0.000000  0.000000  1
  Ni  Ni4  1  0.333333  0.666667  0.135275  1
  Ni  Ni5  1  0.666667  0.333333  0.864725  1
  Ni  Ni6  1  0.666667  0.333333  0.635440  1
  Ni  Ni7  1  0.333333  0.666667  0.364560  1
  As  As8  1  0.333333  0.666667  0.620150  1
  As  As9  1  0.666667  0.333333  0.379850  1
  As  As10  1  0.666667  0.333333  0.120128  1
  As  As11  1  0.333333  0.666667  0.879872  1
