# generated using pymatgen
data_SbSF34
_symmetry_space_group_name_H-M   'P 1'
_cell_length_a   8.73375782
_cell_length_b   8.30957275
_cell_length_c   10.06847499
_cell_angle_alpha   82.00034126
_cell_angle_beta   87.68528115
_cell_angle_gamma   66.87208059
_symmetry_Int_Tables_number   1
_chemical_formula_structural   SbSF34
_chemical_formula_sum   'Sb1 S1 F34'
_cell_volume   665.35978180
_cell_formula_units_Z   1
loop_
 _symmetry_equiv_pos_site_id
 _symmetry_equiv_pos_as_xyz
  1  'x, y, z'
loop_
 _atom_site_type_symbol
 _atom_site_label
 _atom_site_symmetry_multiplicity
 _atom_site_fract_x
 _atom_site_fract_y
 _atom_site_fract_z
 _atom_site_occupancy
  Sb  Sb0  1  0.138323  0.747975  0.238600  1
  S  S1  1  0.863591  0.248421  0.761786  1
  F  F2  1  0.616297  0.200155  0.484466  1
  F  F3  1  0.398417  0.783389  0.512507  1
  F  F4  1  0.827383  0.713609  0.715449  1
  F  F5  1  0.166233  0.314576  0.298814  1
  F  F6  1  0.095579  0.743931  0.866470  1
  F  F7  1  0.914538  0.231624  0.143039  1
  F  F8  1  0.555872  0.149869  0.374170  1
  F  F9  1  0.438085  0.853984  0.622120  1
  F  F10  1  0.675477  0.315592  0.707967  1
  F  F11  1  0.360898  0.668706  0.308059  1
  F  F12  1  0.918081  0.089400  0.674181  1
  F  F13  1  0.061043  0.926864  0.357976  1
  F  F14  1  0.902202  0.369067  0.638363  1
  F  F15  1  0.086776  0.606364  0.390670  1
  F  F16  1  0.870049  0.802739  0.598349  1
  F  F17  1  0.145993  0.172716  0.383688  1
  F  F18  1  0.808985  0.408478  0.848884  1
  F  F19  1  0.205818  0.547303  0.142698  1
  F  F20  1  0.213878  0.692497  0.763178  1
  F  F21  1  0.777956  0.321162  0.223517  1
  F  F22  1  0.918415  0.825728  0.166335  1
  F  F23  1  0.050370  0.182426  0.816005  1
  F  F24  1  0.823600  0.128013  0.884293  1
  F  F25  1  0.187885  0.899930  0.099001  1
  F  F26  1  0.493785  0.595251  0.982697  1
  F  F27  1  0.514260  0.415196  0.006905  1
  F  F28  1  0.447901  0.097638  0.868599  1
  F  F29  1  0.533237  0.925275  0.138075  1
  F  F30  1  0.285721  0.248719  0.605231  1
  F  F31  1  0.709184  0.746850  0.390585  1
  F  F32  1  0.256341  0.397727  0.672507  1
  F  F33  1  0.746286  0.596667  0.323677  1
  F  F34  1  0.552489  0.927976  0.835311  1
  F  F35  1  0.439052  0.104186  0.155831  1
