# generated using pymatgen
data_Eu2ZnAgP3
_symmetry_space_group_name_H-M   'P 1'
_cell_length_a   8.03216049
_cell_length_b   8.03216007
_cell_length_c   11.66678046
_cell_angle_alpha   55.46289613
_cell_angle_beta   55.46289802
_cell_angle_gamma   29.75946113
_symmetry_Int_Tables_number   1
_chemical_formula_structural   Eu2ZnAgP3
_chemical_formula_sum   'Eu4 Zn2 Ag2 P6'
_cell_volume   302.57096366
_cell_formula_units_Z   2
loop_
 _symmetry_equiv_pos_site_id
 _symmetry_equiv_pos_as_xyz
  1  'x, y, z'
loop_
 _atom_site_type_symbol
 _atom_site_label
 _atom_site_symmetry_multiplicity
 _atom_site_fract_x
 _atom_site_fract_y
 _atom_site_fract_z
 _atom_site_occupancy
  Eu  Eu0  1  0.270639  0.270639  0.333246  1
  Eu  Eu1  1  0.729361  0.729361  0.666754  1
  Eu  Eu2  1  0.391561  0.391561  0.947819  1
  Eu  Eu3  1  0.608439  0.608439  0.052181  1
  Zn  Zn4  1  0.410622  0.410622  0.656653  1
  Zn  Zn5  1  0.589378  0.589378  0.343347  1
  Ag  Ag6  1  0.047350  0.047350  0.679823  1
  Ag  Ag7  1  0.952650  0.952650  0.320177  1
  P  P8  1  0.071783  0.071783  0.887434  1
  P  P9  1  0.928217  0.928217  0.112566  1
  P  P10  1  0.161235  0.161235  0.193040  1
  P  P11  1  0.838765  0.838765  0.806960  1
  P  P12  1  0.379092  0.379092  0.477045  1
  P  P13  1  0.620908  0.620908  0.522955  1
