# generated using pymatgen
data_Tb4MnGe3F28
_symmetry_space_group_name_H-M   'P 1'
_cell_length_a   5.43568204
_cell_length_b   8.75562118
_cell_length_c   11.73730010
_cell_angle_alpha   62.18142954
_cell_angle_beta   90.01227093
_cell_angle_gamma   90.00162823
_symmetry_Int_Tables_number   1
_chemical_formula_structural   Tb4MnGe3F28
_chemical_formula_sum   'Tb4 Mn1 Ge3 F28'
_cell_volume   494.05187883
_cell_formula_units_Z   1
loop_
 _symmetry_equiv_pos_site_id
 _symmetry_equiv_pos_as_xyz
  1  'x, y, z'
loop_
 _atom_site_type_symbol
 _atom_site_label
 _atom_site_symmetry_multiplicity
 _atom_site_fract_x
 _atom_site_fract_y
 _atom_site_fract_z
 _atom_site_occupancy
  Tb  Tb0  1  0.260559  0.810478  0.263257  1
  Tb  Tb1  1  0.740004  0.189897  0.736061  1
  Tb  Tb2  1  0.760206  0.190618  0.235428  1
  Tb  Tb3  1  0.239540  0.810263  0.764276  1
  Mn  Mn4  1  0.741466  0.726223  0.542490  1
  Ge  Ge5  1  0.757773  0.726320  0.042240  1
  Ge  Ge6  1  0.242366  0.273841  0.957583  1
  Ge  Ge7  1  0.257721  0.273640  0.457794  1
  F  F8  1  0.930602  0.707378  0.420047  1
  F  F9  1  0.069895  0.292578  0.579125  1
  F  F10  1  0.430122  0.292551  0.079152  1
  F  F11  1  0.569889  0.707371  0.920905  1
  F  F12  1  0.481336  0.727994  0.130797  1
  F  F13  1  0.518755  0.271904  0.869274  1
  F  F14  1  0.981120  0.271838  0.369178  1
  F  F15  1  0.021449  0.728001  0.630773  1
  F  F16  1  0.943805  0.739603  0.168520  1
  F  F17  1  0.056196  0.260280  0.831595  1
  F  F18  1  0.444031  0.260240  0.331560  1
  F  F19  1  0.554786  0.739955  0.669760  1
  F  F20  1  0.770217  0.491333  0.135722  1
  F  F21  1  0.229736  0.508731  0.864259  1
  F  F22  1  0.270044  0.508807  0.364303  1
  F  F23  1  0.730136  0.488454  0.636842  1
  F  F24  1  0.956433  0.281920  0.039017  1
  F  F25  1  0.043611  0.718021  0.961041  1
  F  F26  1  0.454233  0.718226  0.460279  1
  F  F27  1  0.543648  0.281875  0.538998  1
  F  F28  1  0.739205  0.962792  0.452752  1
  F  F29  1  0.261206  0.038830  0.546778  1
  F  F30  1  0.238781  0.038877  0.046836  1
  F  F31  1  0.761242  0.961097  0.953240  1
  F  F32  1  0.597128  0.967411  0.227848  1
  F  F33  1  0.403043  0.032750  0.772244  1
  F  F34  1  0.096712  0.032589  0.272284  1
  F  F35  1  0.903007  0.967313  0.727744  1
