# generated using pymatgen
data_La4NdSm3(TeO6)4
_symmetry_space_group_name_H-M   'P 1'
_cell_length_a   5.52028434
_cell_length_b   9.44967205
_cell_length_c   10.35177864
_cell_angle_alpha   89.99131530
_cell_angle_beta   89.96077993
_cell_angle_gamma   90.00860470
_symmetry_Int_Tables_number   1
_chemical_formula_structural   La4NdSm3(TeO6)4
_chemical_formula_sum   'La4 Nd1 Sm3 Te4 O24'
_cell_volume   539.99911681
_cell_formula_units_Z   1
loop_
 _symmetry_equiv_pos_site_id
 _symmetry_equiv_pos_as_xyz
  1  'x, y, z'
loop_
 _atom_site_type_symbol
 _atom_site_label
 _atom_site_symmetry_multiplicity
 _atom_site_fract_x
 _atom_site_fract_y
 _atom_site_fract_z
 _atom_site_occupancy
  La  La0  1  0.530698  0.219008  0.358056  1
  La  La1  1  0.030397  0.281318  0.641992  1
  La  La2  1  0.469054  0.718690  0.142415  1
  La  La3  1  0.969516  0.780876  0.857611  1
  Nd  Nd4  1  0.523789  0.104179  0.956364  1
  Sm  Sm5  1  0.022565  0.397746  0.044184  1
  Sm  Sm6  1  0.476717  0.603289  0.543705  1
  Sm  Sm7  1  0.976844  0.896584  0.456266  1
  Te  Te8  1  0.462803  0.992058  0.640003  1
  Te  Te9  1  0.962943  0.507599  0.358997  1
  Te  Te10  1  0.536738  0.493308  0.858740  1
  Te  Te11  1  0.037428  0.006912  0.142051  1
  O  O12  1  0.304899  0.139425  0.172671  1
  O  O13  1  0.804117  0.359755  0.830090  1
  O  O14  1  0.694775  0.639930  0.329772  1
  O  O15  1  0.194790  0.859729  0.670011  1
  O  O16  1  0.723644  0.108203  0.562716  1
  O  O17  1  0.223513  0.391960  0.437024  1
  O  O18  1  0.276298  0.609138  0.936624  1
  O  O19  1  0.776453  0.891660  0.063662  1
  O  O20  1  0.674303  0.634328  0.744349  1
  O  O21  1  0.174194  0.865318  0.256120  1
  O  O22  1  0.324605  0.134146  0.753247  1
  O  O23  1  0.825953  0.365895  0.244778  1
  O  O24  1  0.665783  0.946806  0.786405  1
  O  O25  1  0.165231  0.551891  0.211657  1
  O  O26  1  0.334763  0.448270  0.711616  1
  O  O27  1  0.833974  0.051579  0.288565  1
  O  O28  1  0.255807  0.078694  0.504724  1
  O  O29  1  0.755806  0.421082  0.494512  1
  O  O30  1  0.744040  0.579494  0.994210  1
  O  O31  1  0.242489  0.918721  0.006675  1
  O  O32  1  0.088917  0.655917  0.471938  1
  O  O33  1  0.588628  0.843706  0.527200  1
  O  O34  1  0.917545  0.156169  0.028266  1
  O  O35  1  0.409978  0.346616  0.972782  1
