# generated using pymatgen
data_Yb10AgIr3
_symmetry_space_group_name_H-M   'P 1'
_cell_length_a   8.58141002
_cell_length_b   8.54578000
_cell_length_c   7.60096571
_cell_angle_alpha   82.56053192
_cell_angle_beta   83.17421753
_cell_angle_gamma   44.14878766
_symmetry_Int_Tables_number   1
_chemical_formula_structural   Yb10AgIr3
_chemical_formula_sum   'Yb10 Ag1 Ir3'
_cell_volume   384.71339387
_cell_formula_units_Z   1
loop_
 _symmetry_equiv_pos_site_id
 _symmetry_equiv_pos_as_xyz
  1  'x, y, z'
loop_
 _atom_site_type_symbol
 _atom_site_label
 _atom_site_symmetry_multiplicity
 _atom_site_fract_x
 _atom_site_fract_y
 _atom_site_fract_z
 _atom_site_occupancy
  Yb  Yb0  1  0.056356  0.776230  0.914467  1
  Yb  Yb1  1  0.203073  0.973511  0.582308  1
  Yb  Yb2  1  0.981246  0.206061  0.080635  1
  Yb  Yb3  1  0.803299  0.029858  0.435472  1
  Yb  Yb4  1  0.355174  0.198042  0.807172  1
  Yb  Yb5  1  0.792918  0.640494  0.677775  1
  Yb  Yb6  1  0.633696  0.787939  0.177650  1
  Yb  Yb7  1  0.182532  0.374719  0.334649  1
  Yb  Yb8  1  0.576939  0.433886  0.732768  1
  Yb  Yb9  1  0.417414  0.586890  0.261628  1
  Ag  Ag10  1  0.596563  0.183465  0.075577  1
  Ir  Ir11  1  0.181291  0.597031  0.581995  1
  Ir  Ir12  1  0.395673  0.818511  0.920544  1
  Ir  Ir13  1  0.823828  0.393365  0.417357  1
