# generated using pymatgen
data_NdEr4(TcB3)2
_symmetry_space_group_name_H-M   'P 1'
_cell_length_a   5.50047738
_cell_length_b   5.50047790
_cell_length_c   8.59994029
_cell_angle_alpha   71.34933147
_cell_angle_beta   71.34932852
_cell_angle_gamma   60.00000345
_symmetry_Int_Tables_number   1
_chemical_formula_structural   NdEr4(TcB3)2
_chemical_formula_sum   'Nd1 Er4 Tc2 B6'
_cell_volume   209.40794108
_cell_formula_units_Z   1
loop_
 _symmetry_equiv_pos_site_id
 _symmetry_equiv_pos_as_xyz
  1  'x, y, z'
loop_
 _atom_site_type_symbol
 _atom_site_label
 _atom_site_symmetry_multiplicity
 _atom_site_fract_x
 _atom_site_fract_y
 _atom_site_fract_z
 _atom_site_occupancy
  Nd  Nd0  1  0.000000  0.000000  0.000000  1
  Er  Er1  1  0.245843  0.245843  0.262470  1
  Er  Er2  1  0.754157  0.754157  0.737530  1
  Er  Er3  1  0.420557  0.420557  0.738328  1
  Er  Er4  1  0.579443  0.579443  0.261672  1
  Tc  Tc5  1  0.111432  0.111432  0.665704  1
  Tc  Tc6  1  0.888568  0.888568  0.334296  1
  B  B7  1  0.170889  0.829111  0.500000  1
  B  B8  1  0.829111  0.500000  0.500000  1
  B  B9  1  0.500000  0.170889  0.500000  1
  B  B10  1  0.170889  0.500000  0.500000  1
  B  B11  1  0.500000  0.829111  0.500000  1
  B  B12  1  0.829111  0.170889  0.500000  1
