# generated using pymatgen
data_Ho10Tl5In3PdAu3
_symmetry_space_group_name_H-M   'P 1'
_cell_length_a   3.65990400
_cell_length_b   8.24407603
_cell_length_c   18.45370857
_cell_angle_alpha   90.00932296
_cell_angle_beta   90.00000000
_cell_angle_gamma   90.00000000
_symmetry_Int_Tables_number   1
_chemical_formula_structural   Ho10Tl5In3PdAu3
_chemical_formula_sum   'Ho10 Tl5 In3 Pd1 Au3'
_cell_volume   556.79500981
_cell_formula_units_Z   1
loop_
 _symmetry_equiv_pos_site_id
 _symmetry_equiv_pos_as_xyz
  1  'x, y, z'
loop_
 _atom_site_type_symbol
 _atom_site_label
 _atom_site_symmetry_multiplicity
 _atom_site_fract_x
 _atom_site_fract_y
 _atom_site_fract_z
 _atom_site_occupancy
  Ho  Ho0  1  0.000000  0.500641  0.496912  1
  Ho  Ho1  1  0.000000  0.000354  0.001084  1
  Ho  Ho2  1  0.000000  0.749290  0.284191  1
  Ho  Ho3  1  0.000000  0.261084  0.716169  1
  Ho  Ho4  1  0.000000  0.760851  0.784051  1
  Ho  Ho5  1  0.000000  0.233647  0.218628  1
  Ho  Ho6  1  0.000000  0.619776  0.083481  1
  Ho  Ho7  1  0.000000  0.379322  0.919501  1
  Ho  Ho8  1  0.000000  0.881957  0.581098  1
  Ho  Ho9  1  0.000000  0.115767  0.414071  1
  Tl  Tl10  1  0.500000  0.711540  0.935981  1
  Tl  Tl11  1  0.500000  0.288416  0.066869  1
  Tl  Tl12  1  0.500000  0.790978  0.433243  1
  Tl  Tl13  1  0.500000  0.208733  0.561774  1
  Tl  Tl14  1  0.500000  0.581826  0.644743  1
  In  In15  1  0.500000  0.413043  0.351353  1
  In  In16  1  0.500000  0.919922  0.149212  1
  In  In17  1  0.500000  0.082099  0.854108  1
  Pd  Pd18  1  0.500000  0.031371  0.301820  1
  Au  Au19  1  0.500000  0.531506  0.200064  1
  Au  Au20  1  0.500000  0.467038  0.803233  1
  Au  Au21  1  0.500000  0.970837  0.698412  1
