# generated using pymatgen
data_CrHgAsO5
_symmetry_space_group_name_H-M   'P 1'
_cell_length_a   6.26395000
_cell_length_b   8.09604100
_cell_length_c   8.58126700
_cell_angle_alpha   90.00000000
_cell_angle_beta   90.00000000
_cell_angle_gamma   90.00000000
_symmetry_Int_Tables_number   1
_chemical_formula_structural   CrHgAsO5
_chemical_formula_sum   'Cr4 Hg4 As4 O20'
_cell_volume   435.18347549
_cell_formula_units_Z   4
loop_
 _symmetry_equiv_pos_site_id
 _symmetry_equiv_pos_as_xyz
  1  'x, y, z'
loop_
 _atom_site_type_symbol
 _atom_site_label
 _atom_site_symmetry_multiplicity
 _atom_site_fract_x
 _atom_site_fract_y
 _atom_site_fract_z
 _atom_site_occupancy
  Cr  Cr0  1  0.248851  0.750873  0.998667  1
  Cr  Cr1  1  0.251149  0.249127  0.498667  1
  Cr  Cr2  1  0.751149  0.250873  0.501333  1
  Cr  Cr3  1  0.748851  0.749127  0.001333  1
  Hg  Hg4  1  0.998711  0.818494  0.660195  1
  Hg  Hg5  1  0.501289  0.181506  0.160195  1
  Hg  Hg6  1  0.001289  0.318494  0.839805  1
  Hg  Hg7  1  0.498711  0.681506  0.339805  1
  As  As8  1  0.497841  0.070213  0.789733  1
  As  As9  1  0.002159  0.929787  0.289733  1
  As  As10  1  0.502159  0.570213  0.710267  1
  As  As11  1  0.997841  0.429787  0.210267  1
  O  O12  1  0.499927  0.885446  0.897772  1
  O  O13  1  0.000073  0.114554  0.397772  1
  O  O14  1  0.500073  0.385446  0.602228  1
  O  O15  1  0.999927  0.614554  0.102228  1
  O  O16  1  0.485258  0.230677  0.923246  1
  O  O17  1  0.014742  0.769323  0.423246  1
  O  O18  1  0.514742  0.730677  0.576754  1
  O  O19  1  0.985258  0.269323  0.076754  1
  O  O20  1  0.728758  0.088309  0.683139  1
  O  O21  1  0.771242  0.911691  0.183139  1
  O  O22  1  0.271242  0.588309  0.816861  1
  O  O23  1  0.228758  0.411691  0.316861  1
  O  O24  1  0.273057  0.081945  0.675915  1
  O  O25  1  0.226943  0.918055  0.175915  1
  O  O26  1  0.726943  0.581945  0.824085  1
  O  O27  1  0.773057  0.418055  0.324085  1
  O  O28  1  0.996867  0.853146  0.898134  1
  O  O29  1  0.503133  0.146854  0.398134  1
  O  O30  1  0.003133  0.353146  0.601866  1
  O  O31  1  0.496867  0.646854  0.101866  1
