# generated using pymatgen
data_Ba8Dy3Tl(FeO5)4
_symmetry_space_group_name_H-M   'P 1'
_cell_length_a   6.13848865
_cell_length_b   7.97392953
_cell_length_c   12.76025581
_cell_angle_alpha   91.84711440
_cell_angle_beta   89.99770117
_cell_angle_gamma   89.94764103
_symmetry_Int_Tables_number   1
_chemical_formula_structural   Ba8Dy3Tl(FeO5)4
_chemical_formula_sum   'Ba8 Dy3 Tl1 Fe4 O20'
_cell_volume   624.26261542
_cell_formula_units_Z   1
loop_
 _symmetry_equiv_pos_site_id
 _symmetry_equiv_pos_as_xyz
  1  'x, y, z'
loop_
 _atom_site_type_symbol
 _atom_site_label
 _atom_site_symmetry_multiplicity
 _atom_site_fract_x
 _atom_site_fract_y
 _atom_site_fract_z
 _atom_site_occupancy
  Ba  Ba0  1  0.761725  0.484670  0.347451  1
  Ba  Ba1  1  0.738850  0.982592  0.844432  1
  Ba  Ba2  1  0.229040  0.514285  0.653177  1
  Ba  Ba3  1  0.262024  0.015071  0.151708  1
  Ba  Ba4  1  0.757278  0.993484  0.380986  1
  Ba  Ba5  1  0.742827  0.492437  0.879254  1
  Ba  Ba6  1  0.235150  0.007261  0.621565  1
  Ba  Ba7  1  0.257171  0.507321  0.119648  1
  Dy  Dy8  1  0.750142  0.767010  0.129270  1
  Dy  Dy9  1  0.249911  0.733193  0.370575  1
  Dy  Dy10  1  0.251804  0.233096  0.872369  1
  Tl  Tl11  1  0.746725  0.268053  0.628552  1
  Fe  Fe12  1  0.731753  0.741249  0.582428  1
  Fe  Fe13  1  0.765960  0.243069  0.083194  1
  Fe  Fe14  1  0.264608  0.256616  0.416154  1
  Fe  Fe15  1  0.233126  0.756371  0.916591  1
  O  O16  1  0.768823  0.964621  0.633501  1
  O  O17  1  0.738636  0.472405  0.130911  1
  O  O18  1  0.237155  0.027876  0.369138  1
  O  O19  1  0.263395  0.526408  0.870312  1
  O  O20  1  0.733571  0.061701  0.174837  1
  O  O21  1  0.777449  0.577700  0.683424  1
  O  O22  1  0.268019  0.939736  0.826347  1
  O  O23  1  0.233560  0.437814  0.324910  1
  O  O24  1  0.546130  0.746402  0.273570  1
  O  O25  1  0.963575  0.245950  0.770435  1
  O  O26  1  0.455018  0.254802  0.727403  1
  O  O27  1  0.047681  0.754462  0.225413  1
  O  O28  1  0.552932  0.221442  0.974708  1
  O  O29  1  0.944454  0.720233  0.472628  1
  O  O30  1  0.445574  0.776969  0.025793  1
  O  O31  1  0.050402  0.278503  0.523673  1
  O  O32  1  0.049132  0.231557  0.020872  1
  O  O33  1  0.446303  0.729055  0.522721  1
  O  O34  1  0.949085  0.768082  0.977091  1
  O  O35  1  0.551010  0.268504  0.474957  1
