# generated using pymatgen
data_Ta9NbGa4(GeB)2
_symmetry_space_group_name_H-M   'P 1'
_cell_length_a   7.78061602
_cell_length_b   7.78064987
_cell_length_c   5.34160600
_cell_angle_alpha   89.99788880
_cell_angle_beta   89.99684831
_cell_angle_gamma   120.02251615
_symmetry_Int_Tables_number   1
_chemical_formula_structural   Ta9NbGa4(GeB)2
_chemical_formula_sum   'Ta9 Nb1 Ga4 Ge2 B2'
_cell_volume   279.98434966
_cell_formula_units_Z   1
loop_
 _symmetry_equiv_pos_site_id
 _symmetry_equiv_pos_as_xyz
  1  'x, y, z'
loop_
 _atom_site_type_symbol
 _atom_site_label
 _atom_site_symmetry_multiplicity
 _atom_site_fract_x
 _atom_site_fract_y
 _atom_site_fract_z
 _atom_site_occupancy
  Ta  Ta0  1  0.332564  0.666661  0.498539  1
  Ta  Ta1  1  0.332742  0.666667  0.001467  1
  Ta  Ta2  1  0.666738  0.332744  0.001689  1
  Ta  Ta3  1  0.756159  0.756596  0.249732  1
  Ta  Ta4  1  0.243120  0.998979  0.249742  1
  Ta  Ta5  1  0.999866  0.243542  0.249682  1
  Ta  Ta6  1  0.241917  0.242444  0.750122  1
  Ta  Ta7  1  0.758166  0.000579  0.750052  1
  Ta  Ta8  1  0.001383  0.758591  0.750126  1
  Nb  Nb9  1  0.666585  0.332453  0.498790  1
  Ga  Ga10  1  0.401375  0.401232  0.249929  1
  Ga  Ga11  1  0.599616  0.999313  0.249870  1
  Ga  Ga12  1  0.999058  0.599478  0.249961  1
  Ga  Ga13  1  0.598361  0.598273  0.750076  1
  Ge  Ge14  1  0.403191  0.000130  0.750158  1
  Ge  Ge15  1  0.000021  0.403191  0.750107  1
  B  B16  1  0.999573  0.999547  0.499254  1
  B  B17  1  0.999562  0.999579  0.000706  1
