# generated using pymatgen
data_Lu4Mg4Ir3Rh
_symmetry_space_group_name_H-M   'P 1'
_cell_length_a   4.04143900
_cell_length_b   6.98309889
_cell_length_c   8.47069371
_cell_angle_alpha   89.53421900
_cell_angle_beta   90.00000000
_cell_angle_gamma   90.00000000
_symmetry_Int_Tables_number   1
_chemical_formula_structural   Lu4Mg4Ir3Rh
_chemical_formula_sum   'Lu4 Mg4 Ir3 Rh1'
_cell_volume   239.05005492
_cell_formula_units_Z   1
loop_
 _symmetry_equiv_pos_site_id
 _symmetry_equiv_pos_as_xyz
  1  'x, y, z'
loop_
 _atom_site_type_symbol
 _atom_site_label
 _atom_site_symmetry_multiplicity
 _atom_site_fract_x
 _atom_site_fract_y
 _atom_site_fract_z
 _atom_site_occupancy
  Lu  Lu0  1  0.250000  0.541480  0.173097  1
  Lu  Lu1  1  0.750000  0.464059  0.830241  1
  Lu  Lu2  1  0.750000  0.954346  0.671400  1
  Lu  Lu3  1  0.250000  0.039290  0.325814  1
  Mg  Mg4  1  0.250000  0.633242  0.559013  1
  Mg  Mg5  1  0.750000  0.363376  0.441738  1
  Mg  Mg6  1  0.750000  0.866777  0.059076  1
  Mg  Mg7  1  0.250000  0.136199  0.941507  1
  Ir  Ir8  1  0.250000  0.751705  0.865768  1
  Ir  Ir9  1  0.750000  0.252510  0.132478  1
  Ir  Ir10  1  0.750000  0.750744  0.367715  1
  Rh  Rh11  1  0.250000  0.246273  0.632153  1
