# generated using pymatgen
data_U6Fe3Co3Sb8
_symmetry_space_group_name_H-M   'P 1'
_cell_length_a   8.07542256
_cell_length_b   8.07542349
_cell_length_c   8.07334274
_cell_angle_alpha   109.53837821
_cell_angle_beta   109.44699956
_cell_angle_gamma   109.43874900
_symmetry_Int_Tables_number   1
_chemical_formula_structural   U6Fe3Co3Sb8
_chemical_formula_sum   'U6 Fe3 Co3 Sb8'
_cell_volume   405.23379513
_cell_formula_units_Z   1
loop_
 _symmetry_equiv_pos_site_id
 _symmetry_equiv_pos_as_xyz
  1  'x, y, z'
loop_
 _atom_site_type_symbol
 _atom_site_label
 _atom_site_symmetry_multiplicity
 _atom_site_fract_x
 _atom_site_fract_y
 _atom_site_fract_z
 _atom_site_occupancy
  U  U0  1  0.875025  0.750519  0.126084  1
  U  U1  1  0.124316  0.374317  0.250000  1
  U  U2  1  0.624436  0.248941  0.373916  1
  U  U3  1  0.749796  0.874956  0.623669  1
  U  U4  1  0.375666  0.125666  0.750000  1
  U  U5  1  0.251289  0.626127  0.876331  1
  Fe  Fe6  1  0.751990  0.375255  0.125530  1
  Fe  Fe7  1  0.623302  0.873302  0.250000  1
  Fe  Fe8  1  0.249725  0.126460  0.374471  1
  Co  Co9  1  0.374815  0.747923  0.624610  1
  Co  Co10  1  0.876154  0.626155  0.750000  1
  Co  Co11  1  0.123312  0.250203  0.875389  1
  Sb  Sb12  1  0.163858  0.999997  0.998368  1
  Sb  Sb13  1  0.664146  0.998747  0.998588  1
  Sb  Sb14  1  0.498481  0.497646  0.163489  1
  Sb  Sb15  1  0.334156  0.834993  0.336512  1
  Sb  Sb16  1  0.001630  0.665489  0.501632  1
  Sb  Sb17  1  0.000158  0.165558  0.501412  1
  Sb  Sb18  1  0.502041  0.501103  0.665398  1
  Sb  Sb19  1  0.835704  0.336642  0.834601  1
