# generated using pymatgen
data_U(InCl3)2
_symmetry_space_group_name_H-M   'P 1'
_cell_length_a   8.21196975
_cell_length_b   8.21197024
_cell_length_c   8.62991630
_cell_angle_alpha   89.57661892
_cell_angle_beta   89.57662211
_cell_angle_gamma   118.56520037
_symmetry_Int_Tables_number   1
_chemical_formula_structural   U(InCl3)2
_chemical_formula_sum   'U2 In4 Cl12'
_cell_volume   511.07619396
_cell_formula_units_Z   2
loop_
 _symmetry_equiv_pos_site_id
 _symmetry_equiv_pos_as_xyz
  1  'x, y, z'
loop_
 _atom_site_type_symbol
 _atom_site_label
 _atom_site_symmetry_multiplicity
 _atom_site_fract_x
 _atom_site_fract_y
 _atom_site_fract_z
 _atom_site_occupancy
  U  U0  1  0.061683  0.938317  0.750000  1
  U  U1  1  0.938317  0.061683  0.250000  1
  In  In2  1  0.356519  0.667610  0.997094  1
  In  In3  1  0.667610  0.356519  0.497094  1
  In  In4  1  0.643481  0.332390  0.002906  1
  In  In5  1  0.332390  0.643481  0.502906  1
  Cl  Cl6  1  0.300884  0.294034  0.264010  1
  Cl  Cl7  1  0.699116  0.705966  0.735990  1
  Cl  Cl8  1  0.871921  0.091168  0.949353  1
  Cl  Cl9  1  0.128079  0.908832  0.050647  1
  Cl  Cl10  1  0.705966  0.699116  0.235990  1
  Cl  Cl11  1  0.908832  0.128079  0.550647  1
  Cl  Cl12  1  0.022712  0.580528  0.766764  1
  Cl  Cl13  1  0.580528  0.022712  0.266764  1
  Cl  Cl14  1  0.977288  0.419472  0.233236  1
  Cl  Cl15  1  0.091168  0.871921  0.449353  1
  Cl  Cl16  1  0.419472  0.977288  0.733236  1
  Cl  Cl17  1  0.294034  0.300884  0.764010  1
