# generated using pymatgen
data_Tb3YPd3PtO14
_symmetry_space_group_name_H-M   'P 1'
_cell_length_a   7.27745731
_cell_length_b   7.27745720
_cell_length_c   7.27304018
_cell_angle_alpha   60.07336559
_cell_angle_beta   60.07337061
_cell_angle_gamma   60.09518493
_symmetry_Int_Tables_number   1
_chemical_formula_structural   Tb3YPd3PtO14
_chemical_formula_sum   'Tb3 Y1 Pd3 Pt1 O14'
_cell_volume   272.86835574
_cell_formula_units_Z   1
loop_
 _symmetry_equiv_pos_site_id
 _symmetry_equiv_pos_as_xyz
  1  'x, y, z'
loop_
 _atom_site_type_symbol
 _atom_site_label
 _atom_site_symmetry_multiplicity
 _atom_site_fract_x
 _atom_site_fract_y
 _atom_site_fract_z
 _atom_site_occupancy
  Tb  Tb0  1  0.125000  0.625000  0.125000  1
  Tb  Tb1  1  0.625000  0.125000  0.125000  1
  Tb  Tb2  1  0.125000  0.125000  0.125000  1
  Y  Y3  1  0.125000  0.125000  0.625000  1
  Pd  Pd4  1  0.125000  0.625000  0.625000  1
  Pd  Pd5  1  0.625000  0.625000  0.125000  1
  Pd  Pd6  1  0.625000  0.125000  0.625000  1
  Pt  Pt7  1  0.625000  0.625000  0.625000  1
  O  O8  1  0.286064  0.715155  0.714990  1
  O  O9  1  0.535484  0.964636  0.964629  1
  O  O10  1  0.715037  0.715037  0.286108  1
  O  O11  1  0.285331  0.285331  0.714477  1
  O  O12  1  0.000123  0.000123  0.999148  1
  O  O13  1  0.285364  0.714516  0.285371  1
  O  O14  1  0.715155  0.286064  0.714990  1
  O  O15  1  0.964636  0.535484  0.964629  1
  O  O16  1  0.534963  0.534963  0.963892  1
  O  O17  1  0.964669  0.964669  0.535523  1
  O  O18  1  0.249877  0.249877  0.250852  1
  O  O19  1  0.534845  0.963936  0.535010  1
  O  O20  1  0.714516  0.285364  0.285371  1
  O  O21  1  0.963936  0.534845  0.535010  1
