# generated using pymatgen
data_TbTm15(CdPd)4
_symmetry_space_group_name_H-M   'P 1'
_cell_length_a   9.58569004
_cell_length_b   9.58569072
_cell_length_c   9.57478500
_cell_angle_alpha   60.03763140
_cell_angle_beta   60.03762905
_cell_angle_gamma   59.96557702
_symmetry_Int_Tables_number   1
_chemical_formula_structural   TbTm15(CdPd)4
_chemical_formula_sum   'Tb1 Tm15 Cd4 Pd4'
_cell_volume   622.29222248
_cell_formula_units_Z   1
loop_
 _symmetry_equiv_pos_site_id
 _symmetry_equiv_pos_as_xyz
  1  'x, y, z'
loop_
 _atom_site_type_symbol
 _atom_site_label
 _atom_site_symmetry_multiplicity
 _atom_site_fract_x
 _atom_site_fract_y
 _atom_site_fract_z
 _atom_site_occupancy
  Tb  Tb0  1  0.934384  0.934384  0.565616  1
  Tm  Tm1  1  0.567548  0.567548  0.932452  1
  Tm  Tm2  1  0.354451  0.354451  0.350339  1
  Tm  Tm3  1  0.354451  0.354451  0.940761  1
  Tm  Tm4  1  0.358752  0.932248  0.354501  1
  Tm  Tm5  1  0.932248  0.358752  0.354501  1
  Tm  Tm6  1  0.811247  0.190106  0.188056  1
  Tm  Tm7  1  0.190106  0.811247  0.810590  1
  Tm  Tm8  1  0.190106  0.811247  0.188056  1
  Tm  Tm9  1  0.811247  0.190106  0.810590  1
  Tm  Tm10  1  0.189914  0.189914  0.810086  1
  Tm  Tm11  1  0.812126  0.812126  0.187874  1
  Tm  Tm12  1  0.934458  0.564554  0.565518  1
  Tm  Tm13  1  0.564554  0.934458  0.935469  1
  Tm  Tm14  1  0.564554  0.934458  0.565518  1
  Tm  Tm15  1  0.934458  0.564554  0.935469  1
  Cd  Cd16  1  0.581917  0.581917  0.584202  1
  Cd  Cd17  1  0.581917  0.581917  0.251962  1
  Cd  Cd18  1  0.579767  0.252830  0.583702  1
  Cd  Cd19  1  0.252830  0.579767  0.583702  1
  Pd  Pd20  1  0.144932  0.144932  0.146554  1
  Pd  Pd21  1  0.144932  0.144932  0.563583  1
  Pd  Pd22  1  0.141979  0.567117  0.145452  1
  Pd  Pd23  1  0.567117  0.141979  0.145452  1
