# generated using pymatgen
data_Rb(CrSe)3
_symmetry_space_group_name_H-M   'P 1'
_cell_length_a   9.42304500
_cell_length_b   9.42304481
_cell_length_c   4.19162300
_cell_angle_alpha   90.00000000
_cell_angle_beta   90.00000000
_cell_angle_gamma   119.99999013
_symmetry_Int_Tables_number   1
_chemical_formula_structural   Rb(CrSe)3
_chemical_formula_sum   'Rb2 Cr6 Se6'
_cell_volume   322.32605378
_cell_formula_units_Z   2
loop_
 _symmetry_equiv_pos_site_id
 _symmetry_equiv_pos_as_xyz
  1  'x, y, z'
loop_
 _atom_site_type_symbol
 _atom_site_label
 _atom_site_symmetry_multiplicity
 _atom_site_fract_x
 _atom_site_fract_y
 _atom_site_fract_z
 _atom_site_occupancy
  Rb  Rb0  1  0.333333  0.666667  0.250000  1
  Rb  Rb1  1  0.666667  0.333333  0.750000  1
  Cr  Cr2  1  0.135429  0.159142  0.250000  1
  Cr  Cr3  1  0.864571  0.840858  0.750000  1
  Cr  Cr4  1  0.840858  0.976287  0.250000  1
  Cr  Cr5  1  0.023713  0.864571  0.250000  1
  Cr  Cr6  1  0.976287  0.135429  0.750000  1
  Cr  Cr7  1  0.159142  0.023713  0.750000  1
  Se  Se8  1  0.950956  0.277773  0.250000  1
  Se  Se9  1  0.049044  0.722227  0.750000  1
  Se  Se10  1  0.722227  0.673182  0.250000  1
  Se  Se11  1  0.326818  0.049044  0.250000  1
  Se  Se12  1  0.673182  0.950956  0.750000  1
  Se  Se13  1  0.277773  0.326818  0.750000  1
