# generated using pymatgen
data_YbDy(YRu4)2
_symmetry_space_group_name_H-M   'P 1'
_cell_length_a   5.24555310
_cell_length_b   5.24569203
_cell_length_c   8.98820200
_cell_angle_alpha   90.00205633
_cell_angle_beta   89.99723132
_cell_angle_gamma   120.01615531
_symmetry_Int_Tables_number   1
_chemical_formula_structural   YbDy(YRu4)2
_chemical_formula_sum   'Yb1 Dy1 Y2 Ru8'
_cell_volume   214.15430546
_cell_formula_units_Z   1
loop_
 _symmetry_equiv_pos_site_id
 _symmetry_equiv_pos_as_xyz
  1  'x, y, z'
loop_
 _atom_site_type_symbol
 _atom_site_label
 _atom_site_symmetry_multiplicity
 _atom_site_fract_x
 _atom_site_fract_y
 _atom_site_fract_z
 _atom_site_occupancy
  Yb  Yb0  1  0.666662  0.333337  0.935368  1
  Dy  Dy1  1  0.666646  0.333349  0.572615  1
  Y  Y2  1  0.333364  0.666638  0.432360  1
  Y  Y3  1  0.333374  0.666629  0.062552  1
  Ru  Ru4  1  0.000014  0.999992  0.498266  1
  Ru  Ru5  1  0.000030  0.999977  0.999372  1
  Ru  Ru6  1  0.170498  0.341118  0.749678  1
  Ru  Ru7  1  0.170534  0.829455  0.749679  1
  Ru  Ru8  1  0.658886  0.829496  0.749678  1
  Ru  Ru9  1  0.828637  0.657178  0.250140  1
  Ru  Ru10  1  0.828527  0.171470  0.250150  1
  Ru  Ru11  1  0.342826  0.171362  0.250141  1
