# generated using pymatgen
data_Dy7Y(AgRh)2
_symmetry_space_group_name_H-M   'P 1'
_cell_length_a   9.54988123
_cell_length_b   9.54404432
_cell_length_c   9.54421928
_cell_angle_alpha   60.03785299
_cell_angle_beta   59.98139352
_cell_angle_gamma   59.98151001
_symmetry_Int_Tables_number   1
_chemical_formula_structural   Dy7Y(AgRh)2
_chemical_formula_sum   'Dy14 Y2 Ag4 Rh4'
_cell_volume   615.11742702
_cell_formula_units_Z   2
loop_
 _symmetry_equiv_pos_site_id
 _symmetry_equiv_pos_as_xyz
  1  'x, y, z'
loop_
 _atom_site_type_symbol
 _atom_site_label
 _atom_site_symmetry_multiplicity
 _atom_site_fract_x
 _atom_site_fract_y
 _atom_site_fract_z
 _atom_site_occupancy
  Dy  Dy0  1  0.603385  0.603419  0.603457  1
  Dy  Dy1  1  0.603403  0.603361  0.189782  1
  Dy  Dy2  1  0.603456  0.189762  0.603365  1
  Dy  Dy3  1  0.189731  0.603460  0.603417  1
  Dy  Dy4  1  0.062652  0.437351  0.437353  1
  Dy  Dy5  1  0.437354  0.062641  0.062642  1
  Dy  Dy6  1  0.436839  0.063156  0.436837  1
  Dy  Dy7  1  0.063161  0.436834  0.063167  1
  Dy  Dy8  1  0.437055  0.437056  0.062941  1
  Dy  Dy9  1  0.062930  0.062940  0.437065  1
  Dy  Dy10  1  0.185803  0.814192  0.814201  1
  Dy  Dy11  1  0.814192  0.185816  0.185791  1
  Dy  Dy12  1  0.814520  0.185482  0.814528  1
  Dy  Dy13  1  0.185457  0.814540  0.185477  1
  Y  Y14  1  0.814471  0.814471  0.185531  1
  Y  Y15  1  0.185535  0.185535  0.814473  1
  Ag  Ag16  1  0.832085  0.832105  0.832090  1
  Ag  Ag17  1  0.832110  0.832064  0.503727  1
  Ag  Ag18  1  0.832067  0.503759  0.832065  1
  Ag  Ag19  1  0.503724  0.832072  0.832123  1
  Rh  Rh20  1  0.393981  0.393609  0.393871  1
  Rh  Rh21  1  0.393606  0.393989  0.818523  1
  Rh  Rh22  1  0.393852  0.818547  0.393976  1
  Rh  Rh23  1  0.818634  0.393842  0.393599  1
