# generated using pymatgen
data_SrMn2Be3(SiO4)3
_symmetry_space_group_name_H-M   'P 1'
_cell_length_a   7.80298100
_cell_length_b   8.21782855
_cell_length_c   16.46096626
_cell_angle_alpha   60.02771978
_cell_angle_beta   90.00000000
_cell_angle_gamma   90.00000000
_symmetry_Int_Tables_number   1
_chemical_formula_structural   SrMn2Be3(SiO4)3
_chemical_formula_sum   'Sr4 Mn8 Be12 Si12 O48'
_cell_volume   914.37600967
_cell_formula_units_Z   4
loop_
 _symmetry_equiv_pos_site_id
 _symmetry_equiv_pos_as_xyz
  1  'x, y, z'
loop_
 _atom_site_type_symbol
 _atom_site_label
 _atom_site_symmetry_multiplicity
 _atom_site_fract_x
 _atom_site_fract_y
 _atom_site_fract_z
 _atom_site_occupancy
  Sr  Sr0  1  0.995701  0.499059  0.750966  1
  Sr  Sr1  1  0.495701  0.500941  0.749034  1
  Sr  Sr2  1  0.004299  0.500941  0.249034  1
  Sr  Sr3  1  0.504299  0.499059  0.250967  1
  Mn  Mn4  1  0.035653  0.168285  0.591176  1
  Mn  Mn5  1  0.464347  0.168285  0.091177  1
  Mn  Mn6  1  0.964347  0.831715  0.408824  1
  Mn  Mn7  1  0.535653  0.831715  0.908824  1
  Mn  Mn8  1  0.960064  0.832572  0.929290  1
  Mn  Mn9  1  0.460064  0.167428  0.570710  1
  Mn  Mn10  1  0.039936  0.167428  0.070710  1
  Mn  Mn11  1  0.539936  0.832572  0.429290  1
  Be  Be12  1  0.662380  0.153295  0.264780  1
  Be  Be13  1  0.837227  0.529302  0.908925  1
  Be  Be14  1  0.337227  0.470698  0.591075  1
  Be  Be15  1  0.162773  0.470698  0.091075  1
  Be  Be16  1  0.662773  0.529302  0.408926  1
  Be  Be17  1  0.338484  0.180587  0.922209  1
  Be  Be18  1  0.838484  0.819413  0.577791  1
  Be  Be19  1  0.661516  0.819413  0.077791  1
  Be  Be20  1  0.161516  0.180587  0.422209  1
  Be  Be21  1  0.837620  0.153295  0.764780  1
  Be  Be22  1  0.337620  0.846705  0.735220  1
  Be  Be23  1  0.162380  0.846705  0.235220  1
  Si  Si24  1  0.274292  0.150492  0.266309  1
  Si  Si25  1  0.774292  0.849508  0.233691  1
  Si  Si26  1  0.725708  0.849508  0.733691  1
  Si  Si27  1  0.225708  0.150492  0.766309  1
  Si  Si28  1  0.775119  0.183040  0.424924  1
  Si  Si29  1  0.275119  0.816960  0.075076  1
  Si  Si30  1  0.224881  0.816960  0.575076  1
  Si  Si31  1  0.724881  0.183040  0.924924  1
  Si  Si32  1  0.272359  0.532601  0.408566  1
  Si  Si33  1  0.772359  0.467399  0.091434  1
  Si  Si34  1  0.727641  0.467399  0.591434  1
  Si  Si35  1  0.227641  0.532601  0.908566  1
  O  O36  1  0.361539  0.702138  0.545236  1
  O  O37  1  0.467601  0.104960  0.313431  1
  O  O38  1  0.967601  0.895040  0.186569  1
  O  O39  1  0.532399  0.895040  0.686569  1
  O  O40  1  0.032399  0.104960  0.813431  1
  O  O41  1  0.969014  0.223665  0.450124  1
  O  O42  1  0.469014  0.776335  0.049876  1
  O  O43  1  0.030986  0.776335  0.549876  1
  O  O44  1  0.530986  0.223665  0.950124  1
  O  O45  1  0.467204  0.622525  0.388681  1
  O  O46  1  0.967204  0.377475  0.111319  1
  O  O47  1  0.532796  0.377475  0.611319  1
  O  O48  1  0.363401  0.708294  0.850692  1
  O  O49  1  0.863401  0.291706  0.649308  1
  O  O50  1  0.636599  0.291706  0.149308  1
  O  O51  1  0.136599  0.708294  0.350692  1
  O  O52  1  0.861539  0.297862  0.954764  1
  O  O53  1  0.032796  0.622525  0.888681  1
  O  O54  1  0.138461  0.702138  0.045236  1
  O  O55  1  0.638461  0.297862  0.454764  1
  O  O56  1  0.738156  0.591232  0.977104  1
  O  O57  1  0.864552  0.911900  0.647391  1
  O  O58  1  0.635448  0.911900  0.147391  1
  O  O59  1  0.135448  0.088100  0.352609  1
  O  O60  1  0.758570  0.622644  0.307752  1
  O  O61  1  0.258570  0.377356  0.192248  1
  O  O62  1  0.241430  0.377356  0.692248  1
  O  O63  1  0.741430  0.622644  0.807752  1
  O  O64  1  0.759946  0.261003  0.311889  1
  O  O65  1  0.259946  0.738997  0.188111  1
  O  O66  1  0.240054  0.738997  0.688111  1
  O  O67  1  0.740054  0.261003  0.811889  1
  O  O68  1  0.257131  0.384990  0.368848  1
  O  O69  1  0.757131  0.615010  0.131152  1
  O  O70  1  0.742869  0.615010  0.631152  1
  O  O71  1  0.242869  0.384990  0.868848  1
  O  O72  1  0.752538  0.952520  0.297173  1
  O  O73  1  0.252538  0.047480  0.202827  1
  O  O74  1  0.247462  0.047480  0.702827  1
  O  O75  1  0.747462  0.952520  0.797173  1
  O  O76  1  0.736906  0.954979  0.479670  1
  O  O77  1  0.236906  0.045021  0.020330  1
  O  O78  1  0.263094  0.045021  0.520330  1
  O  O79  1  0.763094  0.954979  0.979670  1
  O  O80  1  0.761844  0.591232  0.477104  1
  O  O81  1  0.261844  0.408768  0.022896  1
  O  O82  1  0.238156  0.408768  0.522896  1
  O  O83  1  0.364552  0.088100  0.852609  1
