# generated using pymatgen
data_DyEr3(Si5Os3)2
_symmetry_space_group_name_H-M   'P 1'
_cell_length_a   8.11951621
_cell_length_b   8.12010013
_cell_length_c   5.77863810
_cell_angle_alpha   70.58637822
_cell_angle_beta   70.54545291
_cell_angle_gamma   94.08084686
_symmetry_Int_Tables_number   1
_chemical_formula_structural   DyEr3(Si5Os3)2
_chemical_formula_sum   'Dy1 Er3 Si10 Os6'
_cell_volume   331.65462448
_cell_formula_units_Z   1
loop_
 _symmetry_equiv_pos_site_id
 _symmetry_equiv_pos_as_xyz
  1  'x, y, z'
loop_
 _atom_site_type_symbol
 _atom_site_label
 _atom_site_symmetry_multiplicity
 _atom_site_fract_x
 _atom_site_fract_y
 _atom_site_fract_z
 _atom_site_occupancy
  Dy  Dy0  1  0.867942  0.602370  0.752775  1
  Er  Er1  1  0.400010  0.129960  0.746773  1
  Er  Er2  1  0.130506  0.399278  0.246544  1
  Er  Er3  1  0.601077  0.868090  0.254503  1
  Si  Si4  1  0.069843  0.261551  0.833262  1
  Si  Si5  1  0.737511  0.933130  0.667137  1
  Si  Si6  1  0.931804  0.738612  0.166117  1
  Si  Si7  1  0.261844  0.068930  0.333480  1
  Si  Si8  1  0.206404  0.794098  0.749737  1
  Si  Si9  1  0.793564  0.205741  0.251256  1
  Si  Si10  1  0.511856  0.486253  0.750121  1
  Si  Si11  1  0.486816  0.511954  0.250088  1
  Si  Si12  1  0.774926  0.224873  0.749479  1
  Si  Si13  1  0.225238  0.774949  0.249646  1
  Os  Os14  1  0.255562  0.544117  0.630924  1
  Os  Os15  1  0.455686  0.744104  0.868777  1
  Os  Os16  1  0.744345  0.456012  0.368672  1
  Os  Os17  1  0.544484  0.254804  0.130982  1
  Os  Os18  1  0.002709  0.998233  0.749804  1
  Os  Os19  1  0.997874  0.002937  0.249925  1
