# generated using pymatgen
data_TlRh2F12
_symmetry_space_group_name_H-M   'P 1'
_cell_length_a   7.18942925
_cell_length_b   7.18942888
_cell_length_c   10.34135800
_cell_angle_alpha   68.83965820
_cell_angle_beta   68.83965936
_cell_angle_gamma   77.70302689
_symmetry_Int_Tables_number   1
_chemical_formula_structural   TlRh2F12
_chemical_formula_sum   'Tl2 Rh4 F24'
_cell_volume   462.76631989
_cell_formula_units_Z   2
loop_
 _symmetry_equiv_pos_site_id
 _symmetry_equiv_pos_as_xyz
  1  'x, y, z'
loop_
 _atom_site_type_symbol
 _atom_site_label
 _atom_site_symmetry_multiplicity
 _atom_site_fract_x
 _atom_site_fract_y
 _atom_site_fract_z
 _atom_site_occupancy
  Tl  Tl0  1  0.173378  0.826622  0.750000  1
  Tl  Tl1  1  0.826622  0.173378  0.250000  1
  Rh  Rh2  1  0.245380  0.258799  0.374793  1
  Rh  Rh3  1  0.258799  0.245380  0.874793  1
  Rh  Rh4  1  0.754620  0.741201  0.625207  1
  Rh  Rh5  1  0.741201  0.754620  0.125207  1
  F  F6  1  0.862823  0.871732  0.221696  1
  F  F7  1  0.137177  0.128268  0.778304  1
  F  F8  1  0.287912  0.984360  0.506499  1
  F  F9  1  0.987983  0.288111  0.505498  1
  F  F10  1  0.288111  0.987983  0.005498  1
  F  F11  1  0.368805  0.358621  0.464908  1
  F  F12  1  0.358621  0.368805  0.964908  1
  F  F13  1  0.871732  0.862823  0.721696  1
  F  F14  1  0.791296  0.483431  0.262115  1
  F  F15  1  0.015640  0.712088  0.993501  1
  F  F16  1  0.712088  0.015640  0.493501  1
  F  F17  1  0.984360  0.287912  0.006499  1
  F  F18  1  0.509189  0.214270  0.741019  1
  F  F19  1  0.631195  0.641379  0.535092  1
  F  F20  1  0.208704  0.516569  0.737885  1
  F  F21  1  0.641379  0.631195  0.035092  1
  F  F22  1  0.483431  0.791296  0.762115  1
  F  F23  1  0.785730  0.490811  0.758981  1
  F  F24  1  0.516569  0.208704  0.237885  1
  F  F25  1  0.490811  0.785730  0.258981  1
  F  F26  1  0.214270  0.509189  0.241019  1
  F  F27  1  0.711889  0.012017  0.994502  1
  F  F28  1  0.128268  0.137177  0.278304  1
  F  F29  1  0.012017  0.711889  0.494502  1
