# generated using pymatgen
data_Sn3Pb4WO13
_symmetry_space_group_name_H-M   'P 1'
_cell_length_a   7.65415132
_cell_length_b   7.65415176
_cell_length_c   7.65415149
_cell_angle_alpha   59.30388374
_cell_angle_beta   59.30388302
_cell_angle_gamma   59.30388267
_symmetry_Int_Tables_number   1
_chemical_formula_structural   Sn3Pb4WO13
_chemical_formula_sum   'Sn3 Pb4 W1 O13'
_cell_volume   312.05945409
_cell_formula_units_Z   1
loop_
 _symmetry_equiv_pos_site_id
 _symmetry_equiv_pos_as_xyz
  1  'x, y, z'
loop_
 _atom_site_type_symbol
 _atom_site_label
 _atom_site_symmetry_multiplicity
 _atom_site_fract_x
 _atom_site_fract_y
 _atom_site_fract_z
 _atom_site_occupancy
  Sn  Sn0  1  0.000226  0.499693  0.499693  1
  Sn  Sn1  1  0.499693  0.000226  0.499693  1
  Sn  Sn2  1  0.499693  0.499693  0.000226  1
  Pb  Pb3  1  0.500430  0.999124  0.999124  1
  Pb  Pb4  1  0.999124  0.500430  0.999124  1
  Pb  Pb5  1  0.999124  0.999124  0.500430  1
  Pb  Pb6  1  0.999598  0.999598  0.999598  1
  W  W7  1  0.499492  0.499492  0.499492  1
  O  O8  1  0.830156  0.830156  0.425539  1
  O  O9  1  0.432457  0.432457  0.806047  1
  O  O10  1  0.830156  0.425539  0.830156  1
  O  O11  1  0.432457  0.806047  0.432457  1
  O  O12  1  0.425539  0.830156  0.830156  1
  O  O13  1  0.806047  0.432457  0.432457  1
  O  O14  1  0.172070  0.172070  0.572229  1
  O  O15  1  0.565600  0.565600  0.195579  1
  O  O16  1  0.172070  0.572229  0.172070  1
  O  O17  1  0.565600  0.195579  0.565600  1
  O  O18  1  0.572229  0.172070  0.172070  1
  O  O19  1  0.195579  0.565600  0.565600  1
  O  O20  1  0.127662  0.127662  0.127662  1
