# generated using pymatgen
data_Pr3Pd2RhAu3
_symmetry_space_group_name_H-M   'P 1'
_cell_length_a   7.69917000
_cell_length_b   7.69916917
_cell_length_c   3.89065000
_cell_angle_alpha   90.00000000
_cell_angle_beta   90.00000000
_cell_angle_gamma   119.99998640
_symmetry_Int_Tables_number   1
_chemical_formula_structural   Pr3Pd2RhAu3
_chemical_formula_sum   'Pr3 Pd2 Rh1 Au3'
_cell_volume   199.72876938
_cell_formula_units_Z   1
loop_
 _symmetry_equiv_pos_site_id
 _symmetry_equiv_pos_as_xyz
  1  'x, y, z'
loop_
 _atom_site_type_symbol
 _atom_site_label
 _atom_site_symmetry_multiplicity
 _atom_site_fract_x
 _atom_site_fract_y
 _atom_site_fract_z
 _atom_site_occupancy
  Pr  Pr0  1  0.397821  0.388150  0.500000  1
  Pr  Pr1  1  0.611850  0.009671  0.500000  1
  Pr  Pr2  1  0.990329  0.602179  0.500000  1
  Pd  Pd3  1  0.333333  0.666667  0.000000  1
  Pd  Pd4  1  0.000000  0.000000  0.500000  1
  Rh  Rh5  1  0.666667  0.333333  0.000000  1
  Au  Au6  1  0.733934  0.737133  0.000000  1
  Au  Au7  1  0.262867  0.996802  0.000000  1
  Au  Au8  1  0.003198  0.266066  0.000000  1
