# generated using pymatgen
data_Sr2Ti6BCl17
_symmetry_space_group_name_H-M   'P 1'
_cell_length_a   9.31388893
_cell_length_b   9.31388956
_cell_length_c   9.31389037
_cell_angle_alpha   104.86947038
_cell_angle_beta   104.86946830
_cell_angle_gamma   119.12813955
_symmetry_Int_Tables_number   1
_chemical_formula_structural   Sr2Ti6BCl17
_chemical_formula_sum   'Sr2 Ti6 B1 Cl17'
_cell_volume   608.52548545
_cell_formula_units_Z   1
loop_
 _symmetry_equiv_pos_site_id
 _symmetry_equiv_pos_as_xyz
  1  'x, y, z'
loop_
 _atom_site_type_symbol
 _atom_site_label
 _atom_site_symmetry_multiplicity
 _atom_site_fract_x
 _atom_site_fract_y
 _atom_site_fract_z
 _atom_site_occupancy
  Sr  Sr0  1  0.250000  0.750000  0.500000  1
  Sr  Sr1  1  0.750000  0.250000  0.500000  1
  Ti  Ti2  1  0.230718  0.230718  0.000000  1
  Ti  Ti3  1  0.769282  0.769282  0.000000  1
  Ti  Ti4  1  0.179337  0.061446  0.240784  1
  Ti  Ti5  1  0.938554  0.179337  0.117891  1
  Ti  Ti6  1  0.820663  0.938554  0.759216  1
  Ti  Ti7  1  0.061446  0.820663  0.882109  1
  B  B8  1  0.000000  0.000000  0.000000  1
  Cl  Cl9  1  0.868558  0.730942  0.599500  1
  Cl  Cl10  1  0.269058  0.868558  0.137616  1
  Cl  Cl11  1  0.125333  0.597644  0.722977  1
  Cl  Cl12  1  0.546459  0.675600  0.727454  1
  Cl  Cl13  1  0.874667  0.402356  0.277023  1
  Cl  Cl14  1  0.453541  0.324400  0.272546  1
  Cl  Cl15  1  0.819005  0.546459  0.870860  1
  Cl  Cl16  1  0.402356  0.125333  0.527689  1
  Cl  Cl17  1  0.597644  0.874667  0.472311  1
  Cl  Cl18  1  0.131442  0.269058  0.400500  1
  Cl  Cl19  1  0.324400  0.051856  0.870860  1
  Cl  Cl20  1  0.948144  0.819005  0.272546  1
  Cl  Cl21  1  0.730942  0.131442  0.862384  1
  Cl  Cl22  1  0.500000  0.500000  0.000000  1
  Cl  Cl23  1  0.180995  0.453541  0.129140  1
  Cl  Cl24  1  0.051856  0.180995  0.727454  1
  Cl  Cl25  1  0.675600  0.948144  0.129140  1
