# generated using pymatgen
data_SmGa2Ni2Ru
_symmetry_space_group_name_H-M   'P 1'
_cell_length_a   9.19554000
_cell_length_b   9.19553979
_cell_length_c   3.92525800
_cell_angle_alpha   90.00000000
_cell_angle_beta   90.00000000
_cell_angle_gamma   120.00000075
_symmetry_Int_Tables_number   1
_chemical_formula_structural   SmGa2Ni2Ru
_chemical_formula_sum   'Sm3 Ga6 Ni6 Ru3'
_cell_volume   287.44403569
_cell_formula_units_Z   3
loop_
 _symmetry_equiv_pos_site_id
 _symmetry_equiv_pos_as_xyz
  1  'x, y, z'
loop_
 _atom_site_type_symbol
 _atom_site_label
 _atom_site_symmetry_multiplicity
 _atom_site_fract_x
 _atom_site_fract_y
 _atom_site_fract_z
 _atom_site_occupancy
  Sm  Sm0  1  0.000000  0.000000  0.000000  1
  Sm  Sm1  1  0.333333  0.666667  0.500000  1
  Sm  Sm2  1  0.666667  0.333333  0.500000  1
  Ga  Ga3  1  0.313752  0.313752  0.500000  1
  Ga  Ga4  1  0.686248  0.000000  0.500000  1
  Ga  Ga5  1  0.686248  0.686248  0.500000  1
  Ga  Ga6  1  0.000000  0.313752  0.500000  1
  Ga  Ga7  1  0.000000  0.686248  0.500000  1
  Ga  Ga8  1  0.313752  0.000000  0.500000  1
  Ni  Ni9  1  0.176034  0.352067  0.000000  1
  Ni  Ni10  1  0.823966  0.647933  0.000000  1
  Ni  Ni11  1  0.176034  0.823966  0.000000  1
  Ni  Ni12  1  0.647933  0.823966  0.000000  1
  Ni  Ni13  1  0.352067  0.176034  0.000000  1
  Ni  Ni14  1  0.823966  0.176034  0.000000  1
  Ru  Ru15  1  0.500000  0.000000  0.000000  1
  Ru  Ru16  1  0.000000  0.500000  0.000000  1
  Ru  Ru17  1  0.500000  0.500000  0.000000  1
