# generated using pymatgen
data_NdDy5Co16(MoP6)2
_symmetry_space_group_name_H-M   'P 1'
_cell_length_a   3.73913500
_cell_length_b   10.60433900
_cell_length_c   12.30469000
_cell_angle_alpha   90.00000000
_cell_angle_beta   90.00000000
_cell_angle_gamma   90.00000000
_symmetry_Int_Tables_number   1
_chemical_formula_structural   NdDy5Co16(MoP6)2
_chemical_formula_sum   'Nd1 Dy5 Co16 Mo2 P12'
_cell_volume   487.89394126
_cell_formula_units_Z   1
loop_
 _symmetry_equiv_pos_site_id
 _symmetry_equiv_pos_as_xyz
  1  'x, y, z'
loop_
 _atom_site_type_symbol
 _atom_site_label
 _atom_site_symmetry_multiplicity
 _atom_site_fract_x
 _atom_site_fract_y
 _atom_site_fract_z
 _atom_site_occupancy
  Nd  Nd0  1  0.000000  0.500000  0.525013  1
  Dy  Dy1  1  0.500000  0.000000  0.475730  1
  Dy  Dy2  1  0.500000  0.819168  0.204651  1
  Dy  Dy3  1  0.500000  0.180832  0.204651  1
  Dy  Dy4  1  0.000000  0.681420  0.795925  1
  Dy  Dy5  1  0.000000  0.318580  0.795925  1
  Co  Co6  1  0.500000  0.500000  0.704189  1
  Co  Co7  1  0.000000  0.000000  0.297908  1
  Co  Co8  1  0.000000  0.500000  0.986662  1
  Co  Co9  1  0.500000  0.000000  0.013399  1
  Co  Co10  1  0.500000  0.332163  0.990315  1
  Co  Co11  1  0.500000  0.667837  0.990315  1
  Co  Co12  1  0.000000  0.167346  0.009621  1
  Co  Co13  1  0.000000  0.832654  0.009621  1
  Co  Co14  1  0.500000  0.293370  0.430649  1
  Co  Co15  1  0.500000  0.706630  0.430649  1
  Co  Co16  1  0.000000  0.202445  0.569141  1
  Co  Co17  1  0.000000  0.797555  0.569141  1
  Co  Co18  1  0.500000  0.879066  0.707579  1
  Co  Co19  1  0.500000  0.120934  0.707579  1
  Co  Co20  1  0.000000  0.622047  0.291723  1
  Co  Co21  1  0.000000  0.377953  0.291723  1
  Mo  Mo22  1  0.500000  0.500000  0.154657  1
  Mo  Mo23  1  0.000000  0.000000  0.843925  1
  P  P24  1  0.500000  0.500000  0.882310  1
  P  P25  1  0.000000  0.000000  0.118355  1
  P  P26  1  0.500000  0.500000  0.345675  1
  P  P27  1  0.000000  0.000000  0.651208  1
  P  P28  1  0.500000  0.307777  0.616964  1
  P  P29  1  0.500000  0.692223  0.616964  1
  P  P30  1  0.000000  0.188741  0.384111  1
  P  P31  1  0.000000  0.811259  0.384111  1
  P  P32  1  0.500000  0.845163  0.893434  1
  P  P33  1  0.500000  0.154837  0.893434  1
  P  P34  1  0.000000  0.655361  0.106371  1
  P  P35  1  0.000000  0.344639  0.106371  1
