# generated using pymatgen
data_Y6Ni16As13Pd4
_symmetry_space_group_name_H-M   'P 1'
_cell_length_a   13.31226000
_cell_length_b   13.31226194
_cell_length_c   3.92086200
_cell_angle_alpha   90.00000000
_cell_angle_beta   90.00000000
_cell_angle_gamma   120.00000016
_symmetry_Int_Tables_number   1
_chemical_formula_structural   Y6Ni16As13Pd4
_chemical_formula_sum   'Y6 Ni16 As13 Pd4'
_cell_volume   601.74963222
_cell_formula_units_Z   1
loop_
 _symmetry_equiv_pos_site_id
 _symmetry_equiv_pos_as_xyz
  1  'x, y, z'
loop_
 _atom_site_type_symbol
 _atom_site_label
 _atom_site_symmetry_multiplicity
 _atom_site_fract_x
 _atom_site_fract_y
 _atom_site_fract_z
 _atom_site_occupancy
  Y  Y0  1  0.186221  0.469253  0.000000  1
  Y  Y1  1  0.530747  0.716968  0.000000  1
  Y  Y2  1  0.283032  0.813779  0.000000  1
  Y  Y3  1  0.719201  0.188749  0.500000  1
  Y  Y4  1  0.811251  0.530451  0.500000  1
  Y  Y5  1  0.469549  0.280799  0.500000  1
  Ni  Ni6  1  0.091263  0.201630  0.000000  1
  Ni  Ni7  1  0.798370  0.889633  0.000000  1
  Ni  Ni8  1  0.110367  0.908737  0.000000  1
  Ni  Ni9  1  0.666667  0.333333  0.000000  1
  Ni  Ni10  1  0.421393  0.439761  0.000000  1
  Ni  Ni11  1  0.560239  0.981632  0.000000  1
  Ni  Ni12  1  0.018368  0.578607  0.000000  1
  Ni  Ni13  1  0.243883  0.317383  0.500000  1
  Ni  Ni14  1  0.682617  0.926500  0.500000  1
  Ni  Ni15  1  0.073500  0.756117  0.500000  1
  Ni  Ni16  1  0.439193  0.026572  0.500000  1
  Ni  Ni17  1  0.973428  0.412622  0.500000  1
  Ni  Ni18  1  0.587378  0.560807  0.500000  1
  Ni  Ni19  1  0.921549  0.244601  0.000000  1
  Ni  Ni20  1  0.755399  0.676948  0.000000  1
  Ni  Ni21  1  0.323052  0.078451  0.000000  1
  As  As22  1  0.388253  0.517359  0.500000  1
  As  As23  1  0.482641  0.870893  0.500000  1
  As  As24  1  0.129107  0.611747  0.500000  1
  As  As25  1  0.049994  0.288201  0.500000  1
  As  As26  1  0.711799  0.761792  0.500000  1
  As  As27  1  0.238208  0.950006  0.500000  1
  As  As28  1  0.525538  0.141473  0.000000  1
  As  As29  1  0.858527  0.384065  0.000000  1
  As  As30  1  0.615935  0.474462  0.000000  1
  As  As31  1  0.760959  0.047591  0.000000  1
  As  As32  1  0.952409  0.713368  0.000000  1
  As  As33  1  0.286632  0.239041  0.000000  1
  As  As34  1  0.000000  0.000000  0.000000  1
  Pd  Pd35  1  0.333333  0.666667  0.500000  1
  Pd  Pd36  1  0.917744  0.071957  0.500000  1
  Pd  Pd37  1  0.928043  0.845787  0.500000  1
  Pd  Pd38  1  0.154213  0.082256  0.500000  1
