# generated using pymatgen
data_Tb3(HoS2)4
_symmetry_space_group_name_H-M   'P 1'
_cell_length_a   7.78701740
_cell_length_b   7.78738640
_cell_length_c   7.78701740
_cell_angle_alpha   119.98263752
_cell_angle_beta   90.03602392
_cell_angle_gamma   119.98263752
_symmetry_Int_Tables_number   1
_chemical_formula_structural   Tb3(HoS2)4
_chemical_formula_sum   'Tb3 Ho4 S8'
_cell_volume   333.97222332
_cell_formula_units_Z   1
loop_
 _symmetry_equiv_pos_site_id
 _symmetry_equiv_pos_as_xyz
  1  'x, y, z'
loop_
 _atom_site_type_symbol
 _atom_site_label
 _atom_site_symmetry_multiplicity
 _atom_site_fract_x
 _atom_site_fract_y
 _atom_site_fract_z
 _atom_site_occupancy
  Tb  Tb0  1  0.249982  0.000000  0.249984  1
  Tb  Tb1  1  0.249981  0.000000  0.750020  1
  Tb  Tb2  1  0.750016  0.000000  0.750018  1
  Ho  Ho3  1  0.249980  0.499958  0.249982  1
  Ho  Ho4  1  0.750019  0.000000  0.249982  1
  Ho  Ho5  1  0.250005  0.500001  0.749998  1
  Ho  Ho6  1  0.750018  0.500041  0.750020  1
  S  S7  1  0.999167  0.000000  0.000833  1
  S  S8  1  0.500835  0.000000  0.499165  1
  S  S9  1  0.999123  0.999953  0.499124  1
  S  S10  1  0.998997  0.498313  0.499000  1
  S  S11  1  0.500067  0.500001  0.499936  1
  S  S12  1  0.999936  0.500001  0.000066  1
  S  S13  1  0.501001  0.501689  0.001003  1
  S  S14  1  0.500877  0.000046  0.000877  1
