# generated using pymatgen
data_NaPrPbI6
_symmetry_space_group_name_H-M   'P 1'
_cell_length_a   8.77450655
_cell_length_b   8.77457921
_cell_length_c   8.77448100
_cell_angle_alpha   54.55970838
_cell_angle_beta   54.56031642
_cell_angle_gamma   54.55967423
_symmetry_Int_Tables_number   1
_chemical_formula_structural   NaPrPbI6
_chemical_formula_sum   'Na1 Pr1 Pb1 I6'
_cell_volume   417.12887325
_cell_formula_units_Z   1
loop_
 _symmetry_equiv_pos_site_id
 _symmetry_equiv_pos_as_xyz
  1  'x, y, z'
loop_
 _atom_site_type_symbol
 _atom_site_label
 _atom_site_symmetry_multiplicity
 _atom_site_fract_x
 _atom_site_fract_y
 _atom_site_fract_z
 _atom_site_occupancy
  Na  Na0  1  0.670085  0.670076  0.670081  1
  Pr  Pr1  1  0.000019  0.000028  0.000030  1
  Pb  Pb2  1  0.330616  0.330616  0.330616  1
  I  I3  1  0.243076  0.599146  0.914511  1
  I  I4  1  0.599132  0.914515  0.243084  1
  I  I5  1  0.914525  0.243077  0.599127  1
  I  I6  1  0.754235  0.398993  0.089317  1
  I  I7  1  0.398988  0.089318  0.754240  1
  I  I8  1  0.089324  0.754232  0.398992  1
