# generated using pymatgen
data_NbVNi20B6Sb
_symmetry_space_group_name_H-M   'P 1'
_cell_length_a   7.47324217
_cell_length_b   7.47278429
_cell_length_c   7.47311300
_cell_angle_alpha   59.99786526
_cell_angle_beta   59.99974612
_cell_angle_gamma   60.00384663
_symmetry_Int_Tables_number   1
_chemical_formula_structural   NbVNi20B6Sb
_chemical_formula_sum   'Nb1 V1 Ni20 B6 Sb1'
_cell_volume   295.10925946
_cell_formula_units_Z   1
loop_
 _symmetry_equiv_pos_site_id
 _symmetry_equiv_pos_as_xyz
  1  'x, y, z'
loop_
 _atom_site_type_symbol
 _atom_site_label
 _atom_site_symmetry_multiplicity
 _atom_site_fract_x
 _atom_site_fract_y
 _atom_site_fract_z
 _atom_site_occupancy
  Nb  Nb0  1  0.749972  0.749986  0.750033  1
  V  V1  1  0.000002  0.000000  0.999992  1
  Ni  Ni2  1  0.341850  0.997006  0.997011  1
  Ni  Ni3  1  0.664142  0.997012  0.996992  1
  Ni  Ni4  1  0.996997  0.341842  0.664160  1
  Ni  Ni5  1  0.997015  0.664160  0.341820  1
  Ni  Ni6  1  0.997005  0.341843  0.997019  1
  Ni  Ni7  1  0.664132  0.997027  0.341840  1
  Ni  Ni8  1  0.997029  0.664127  0.997000  1
  Ni  Ni9  1  0.341859  0.997009  0.664108  1
  Ni  Ni10  1  0.997017  0.997029  0.341833  1
  Ni  Ni11  1  0.997028  0.997016  0.664095  1
  Ni  Ni12  1  0.664090  0.341855  0.997031  1
  Ni  Ni13  1  0.341854  0.664078  0.997026  1
  Ni  Ni14  1  0.383781  0.383785  0.383835  1
  Ni  Ni15  1  0.614713  0.614709  0.614680  1
  Ni  Ni16  1  0.383780  0.383762  0.848638  1
  Ni  Ni17  1  0.383800  0.848643  0.383772  1
  Ni  Ni18  1  0.614696  0.614691  0.155943  1
  Ni  Ni19  1  0.614707  0.155895  0.614697  1
  Ni  Ni20  1  0.848665  0.383787  0.383776  1
  Ni  Ni21  1  0.155862  0.614715  0.614710  1
  B  B22  1  0.731168  0.268838  0.268817  1
  B  B23  1  0.268832  0.731169  0.731175  1
  B  B24  1  0.268833  0.731168  0.268815  1
  B  B25  1  0.731173  0.268830  0.731173  1
  B  B26  1  0.268823  0.268818  0.731177  1
  B  B27  1  0.731186  0.731182  0.268811  1
  Sb  Sb28  1  0.249989  0.250017  0.250017  1
