# generated using pymatgen
data_La6TcBr10
_symmetry_space_group_name_H-M   'P 1'
_cell_length_a   7.91990499
_cell_length_b   9.69711149
_cell_length_c   9.63822630
_cell_angle_alpha   108.93749216
_cell_angle_beta   106.13090571
_cell_angle_gamma   97.11871154
_symmetry_Int_Tables_number   1
_chemical_formula_structural   La6TcBr10
_chemical_formula_sum   'La6 Tc1 Br10'
_cell_volume   653.65018392
_cell_formula_units_Z   1
loop_
 _symmetry_equiv_pos_site_id
 _symmetry_equiv_pos_as_xyz
  1  'x, y, z'
loop_
 _atom_site_type_symbol
 _atom_site_label
 _atom_site_symmetry_multiplicity
 _atom_site_fract_x
 _atom_site_fract_y
 _atom_site_fract_z
 _atom_site_occupancy
  La  La0  1  0.379247  0.200247  0.148060  1
  La  La1  1  0.029149  0.905738  0.706631  1
  La  La2  1  0.128146  0.762367  0.051438  1
  La  La3  1  0.620753  0.799753  0.851940  1
  La  La4  1  0.871854  0.237633  0.948562  1
  La  La5  1  0.970851  0.094262  0.293369  1
  Tc  Tc6  1  0.000000  0.000000  0.000000  1
  Br  Br7  1  0.452717  0.075094  0.826846  1
  Br  Br8  1  0.754905  0.543765  0.918886  1
  Br  Br9  1  0.245095  0.456235  0.081114  1
  Br  Br10  1  0.913470  0.167473  0.630250  1
  Br  Br11  1  0.643282  0.725809  0.540894  1
  Br  Br12  1  0.547283  0.924906  0.173154  1
  Br  Br13  1  0.086530  0.832527  0.369750  1
  Br  Br14  1  0.801385  0.351967  0.256939  1
  Br  Br15  1  0.198615  0.648033  0.743061  1
  Br  Br16  1  0.356718  0.274191  0.459106  1
