# generated using pymatgen
data_DyLu7(AlIr)2
_symmetry_space_group_name_H-M   'P 1'
_cell_length_a   9.38283786
_cell_length_b   9.38283728
_cell_length_c   9.36867500
_cell_angle_alpha   60.04991385
_cell_angle_beta   60.04991591
_cell_angle_gamma   59.90016902
_symmetry_Int_Tables_number   1
_chemical_formula_structural   DyLu7(AlIr)2
_chemical_formula_sum   'Dy2 Lu14 Al4 Ir4'
_cell_volume   583.21621777
_cell_formula_units_Z   2
loop_
 _symmetry_equiv_pos_site_id
 _symmetry_equiv_pos_as_xyz
  1  'x, y, z'
loop_
 _atom_site_type_symbol
 _atom_site_label
 _atom_site_symmetry_multiplicity
 _atom_site_fract_x
 _atom_site_fract_y
 _atom_site_fract_z
 _atom_site_occupancy
  Dy  Dy0  1  0.814233  0.814233  0.185767  1
  Dy  Dy1  1  0.185767  0.185767  0.814233  1
  Lu  Lu2  1  0.603344  0.603344  0.600625  1
  Lu  Lu3  1  0.603344  0.603344  0.192686  1
  Lu  Lu4  1  0.600625  0.192686  0.603344  1
  Lu  Lu5  1  0.192686  0.600625  0.603344  1
  Lu  Lu6  1  0.055365  0.444635  0.444635  1
  Lu  Lu7  1  0.444635  0.055365  0.055365  1
  Lu  Lu8  1  0.444635  0.055365  0.444635  1
  Lu  Lu9  1  0.055365  0.444635  0.055365  1
  Lu  Lu10  1  0.445429  0.445429  0.054571  1
  Lu  Lu11  1  0.054571  0.054571  0.445429  1
  Lu  Lu12  1  0.190563  0.809437  0.809437  1
  Lu  Lu13  1  0.809437  0.190563  0.190563  1
  Lu  Lu14  1  0.809437  0.190563  0.809437  1
  Lu  Lu15  1  0.190563  0.809437  0.190563  1
  Al  Al16  1  0.829100  0.829100  0.828038  1
  Al  Al17  1  0.829100  0.829100  0.513762  1
  Al  Al18  1  0.828038  0.513762  0.829100  1
  Al  Al19  1  0.513762  0.828038  0.829100  1
  Ir  Ir20  1  0.392260  0.392260  0.389518  1
  Ir  Ir21  1  0.392260  0.392260  0.825962  1
  Ir  Ir22  1  0.389518  0.825962  0.392260  1
  Ir  Ir23  1  0.825962  0.389518  0.392260  1
