# generated using pymatgen
data_Er3Pa(Ga3Ir)6
_symmetry_space_group_name_H-M   'P 1'
_cell_length_a   7.60825852
_cell_length_b   7.61952017
_cell_length_c   9.43146100
_cell_angle_alpha   90.00000000
_cell_angle_beta   90.00000000
_cell_angle_gamma   119.94089506
_symmetry_Int_Tables_number   1
_chemical_formula_structural   Er3Pa(Ga3Ir)6
_chemical_formula_sum   'Er3 Pa1 Ga18 Ir6'
_cell_volume   473.78448850
_cell_formula_units_Z   1
loop_
 _symmetry_equiv_pos_site_id
 _symmetry_equiv_pos_as_xyz
  1  'x, y, z'
loop_
 _atom_site_type_symbol
 _atom_site_label
 _atom_site_symmetry_multiplicity
 _atom_site_fract_x
 _atom_site_fract_y
 _atom_site_fract_z
 _atom_site_occupancy
  Er  Er0  1  0.996838  0.668357  0.750000  1
  Er  Er1  1  0.003509  0.331178  0.250000  1
  Er  Er2  1  0.668340  0.996257  0.750000  1
  Pa  Pa3  1  0.331590  0.002858  0.250000  1
  Ga  Ga4  1  0.125830  0.126529  0.750000  1
  Ga  Ga5  1  0.870484  0.870856  0.250000  1
  Ga  Ga6  1  0.998088  0.334031  0.581706  1
  Ga  Ga7  1  0.998429  0.662544  0.419655  1
  Ga  Ga8  1  0.998429  0.662544  0.080345  1
  Ga  Ga9  1  0.334107  0.998215  0.916560  1
  Ga  Ga10  1  0.998088  0.334031  0.918294  1
  Ga  Ga11  1  0.669151  0.001882  0.080311  1
  Ga  Ga12  1  0.669151  0.001882  0.419689  1
  Ga  Ga13  1  0.334107  0.998215  0.583440  1
  Ga  Ga14  1  0.331757  0.335025  0.066220  1
  Ga  Ga15  1  0.668455  0.668475  0.931945  1
  Ga  Ga16  1  0.668455  0.668475  0.568055  1
  Ga  Ga17  1  0.331757  0.335025  0.433780  1
  Ga  Ga18  1  0.339165  0.547279  0.750000  1
  Ga  Ga19  1  0.660981  0.455909  0.250000  1
  Ga  Ga20  1  0.547659  0.339742  0.750000  1
  Ga  Ga21  1  0.454845  0.660296  0.250000  1
  Ir  Ir22  1  0.669302  0.326607  0.498259  1
  Ir  Ir23  1  0.328641  0.673391  0.498040  1
  Ir  Ir24  1  0.328641  0.673391  0.001960  1
  Ir  Ir25  1  0.669302  0.326607  0.001741  1
  Ir  Ir26  1  0.002449  0.000200  0.498041  1
  Ir  Ir27  1  0.002449  0.000200  0.001959  1
