# generated using pymatgen
data_Co2Ni2Mo3W5C2
_symmetry_space_group_name_H-M   'P 1'
_cell_length_a   8.00718659
_cell_length_b   7.99762210
_cell_length_c   7.99731100
_cell_angle_alpha   60.00128265
_cell_angle_beta   60.04078608
_cell_angle_gamma   60.00826041
_symmetry_Int_Tables_number   1
_chemical_formula_structural   Co2Ni2Mo3W5C2
_chemical_formula_sum   'Co4 Ni4 Mo6 W10 C4'
_cell_volume   362.27205830
_cell_formula_units_Z   2
loop_
 _symmetry_equiv_pos_site_id
 _symmetry_equiv_pos_as_xyz
  1  'x, y, z'
loop_
 _atom_site_type_symbol
 _atom_site_label
 _atom_site_symmetry_multiplicity
 _atom_site_fract_x
 _atom_site_fract_y
 _atom_site_fract_z
 _atom_site_occupancy
  Co  Co0  1  0.240196  0.918998  0.920402  1
  Co  Co1  1  0.920230  0.919705  0.919678  1
  Co  Co2  1  0.920230  0.919705  0.240386  1
  Co  Co3  1  0.330026  0.007241  0.331367  1
  Ni  Ni4  1  0.916375  0.249445  0.917090  1
  Ni  Ni5  1  0.333486  0.333035  0.000495  1
  Ni  Ni6  1  0.000054  0.332904  0.333521  1
  Ni  Ni7  1  0.333486  0.333035  0.332984  1
  Mo  Mo8  1  0.564118  0.936432  0.564278  1
  Mo  Mo9  1  0.564118  0.936432  0.935173  1
  Mo  Mo10  1  0.939227  0.563554  0.558211  1
  Mo  Mo11  1  0.939227  0.563554  0.939007  1
  Mo  Mo12  1  0.310481  0.310952  0.689283  1
  Mo  Mo13  1  0.557761  0.563015  0.939612  1
  W  W14  1  0.124241  0.626390  0.124685  1
  W  W15  1  0.127193  0.120319  0.625800  1
  W  W16  1  0.625263  0.119826  0.127455  1
  W  W17  1  0.127193  0.120319  0.126688  1
  W  W18  1  0.935950  0.936932  0.563559  1
  W  W19  1  0.689854  0.310397  0.309799  1
  W  W20  1  0.313038  0.689199  0.685017  1
  W  W21  1  0.684225  0.688714  0.313530  1
  W  W22  1  0.689854  0.310397  0.689949  1
  W  W23  1  0.313038  0.689199  0.312744  1
  C  C24  1  0.624380  0.128564  0.623528  1
  C  C25  1  0.625492  0.623756  0.125290  1
  C  C26  1  0.125769  0.624222  0.625005  1
  C  C27  1  0.625492  0.623756  0.625462  1
