# generated using pymatgen
data_Ho20CoBi8Rh3
_symmetry_space_group_name_H-M   'P 1'
_cell_length_a   8.00078965
_cell_length_b   8.96476200
_cell_length_c   12.41242540
_cell_angle_alpha   90.00000000
_cell_angle_beta   89.85198976
_cell_angle_gamma   90.00000000
_symmetry_Int_Tables_number   1
_chemical_formula_structural   Ho20CoBi8Rh3
_chemical_formula_sum   'Ho20 Co1 Bi8 Rh3'
_cell_volume   890.28041311
_cell_formula_units_Z   1
loop_
 _symmetry_equiv_pos_site_id
 _symmetry_equiv_pos_as_xyz
  1  'x, y, z'
loop_
 _atom_site_type_symbol
 _atom_site_label
 _atom_site_symmetry_multiplicity
 _atom_site_fract_x
 _atom_site_fract_y
 _atom_site_fract_z
 _atom_site_occupancy
  Ho  Ho0  1  0.345709  0.750000  0.699452  1
  Ho  Ho1  1  0.657625  0.250000  0.294440  1
  Ho  Ho2  1  0.842860  0.250000  0.794260  1
  Ho  Ho3  1  0.157299  0.750000  0.205308  1
  Ho  Ho4  1  0.879922  0.750000  0.806313  1
  Ho  Ho5  1  0.120524  0.250000  0.193164  1
  Ho  Ho6  1  0.379465  0.250000  0.693334  1
  Ho  Ho7  1  0.614456  0.750000  0.311809  1
  Ho  Ho8  1  0.676396  0.545218  0.563987  1
  Ho  Ho9  1  0.324218  0.465346  0.436524  1
  Ho  Ho10  1  0.177667  0.457609  0.934455  1
  Ho  Ho11  1  0.324218  0.034654  0.436524  1
  Ho  Ho12  1  0.821962  0.541766  0.065498  1
  Ho  Ho13  1  0.676396  0.954782  0.563987  1
  Ho  Ho14  1  0.821962  0.958234  0.065498  1
  Ho  Ho15  1  0.177667  0.042391  0.934455  1
  Ho  Ho16  1  0.051768  0.750000  0.498921  1
  Ho  Ho17  1  0.949832  0.250000  0.501231  1
  Ho  Ho18  1  0.548041  0.250000  0.000739  1
  Ho  Ho19  1  0.450906  0.750000  0.998464  1
  Co  Co20  1  0.432334  0.750000  0.491691  1
  Bi  Bi21  1  0.571095  0.509890  0.826154  1
  Bi  Bi22  1  0.428863  0.490979  0.173757  1
  Bi  Bi23  1  0.071808  0.490559  0.672787  1
  Bi  Bi24  1  0.428863  0.009021  0.173757  1
  Bi  Bi25  1  0.928363  0.510115  0.327417  1
  Bi  Bi26  1  0.571095  0.990110  0.826154  1
  Bi  Bi27  1  0.928363  0.989885  0.327417  1
  Bi  Bi28  1  0.071808  0.009441  0.672787  1
  Rh  Rh29  1  0.070107  0.750000  0.990610  1
  Rh  Rh30  1  0.928885  0.250000  0.009955  1
  Rh  Rh31  1  0.569523  0.250000  0.509152  1
