# generated using pymatgen
data_Hf3SiTc3GeAs
_symmetry_space_group_name_H-M   'P 1'
_cell_length_a   7.80383341
_cell_length_b   7.80379361
_cell_length_c   7.80379431
_cell_angle_alpha   126.69222091
_cell_angle_beta   127.65018108
_cell_angle_gamma   77.97389806
_symmetry_Int_Tables_number   1
_chemical_formula_structural   Hf3SiTc3GeAs
_chemical_formula_sum   'Hf6 Si2 Tc6 Ge2 As2'
_cell_volume   292.39582096
_cell_formula_units_Z   2
loop_
 _symmetry_equiv_pos_site_id
 _symmetry_equiv_pos_as_xyz
  1  'x, y, z'
loop_
 _atom_site_type_symbol
 _atom_site_label
 _atom_site_symmetry_multiplicity
 _atom_site_fract_x
 _atom_site_fract_y
 _atom_site_fract_z
 _atom_site_occupancy
  Hf  Hf0  1  0.450347  0.653606  0.703585  1
  Hf  Hf1  1  0.549653  0.253238  0.203259  1
  Hf  Hf2  1  0.748562  0.853410  0.602249  1
  Hf  Hf3  1  0.251438  0.853688  0.104847  1
  Hf  Hf4  1  0.050531  0.253291  0.703052  1
  Hf  Hf5  1  0.949469  0.652521  0.202761  1
  Si  Si6  1  0.250853  0.254121  0.503919  1
  Si  Si7  1  0.749147  0.253066  0.003269  1
  Tc  Tc8  1  0.500000  0.502985  0.002985  1
  Tc  Tc9  1  0.000000  0.503539  0.503539  1
  Tc  Tc10  1  0.123923  0.252592  0.127244  1
  Tc  Tc11  1  0.876077  0.003322  0.128669  1
  Tc  Tc12  1  0.374226  0.003633  0.627977  1
  Tc  Tc13  1  0.625774  0.253751  0.629407  1
  Ge  Ge14  1  0.333218  0.586472  0.252883  1
  Ge  Ge15  1  0.666782  0.919664  0.253253  1
  As  As16  1  0.166687  0.920280  0.753109  1
  As  As17  1  0.833313  0.586423  0.753593  1
