# generated using pymatgen
data_Er3Tm5Re3B24Ru
_symmetry_space_group_name_H-M   'P 1'
_cell_length_a   3.64215200
_cell_length_b   9.10438851
_cell_length_c   11.47617501
_cell_angle_alpha   89.89485813
_cell_angle_beta   90.00000000
_cell_angle_gamma   90.00000000
_symmetry_Int_Tables_number   1
_chemical_formula_structural   Er3Tm5Re3B24Ru
_chemical_formula_sum   'Er3 Tm5 Re3 B24 Ru1'
_cell_volume   380.54435152
_cell_formula_units_Z   1
loop_
 _symmetry_equiv_pos_site_id
 _symmetry_equiv_pos_as_xyz
  1  'x, y, z'
loop_
 _atom_site_type_symbol
 _atom_site_label
 _atom_site_symmetry_multiplicity
 _atom_site_fract_x
 _atom_site_fract_y
 _atom_site_fract_z
 _atom_site_occupancy
  Er  Er0  1  0.000000  0.322697  0.413704  1
  Er  Er1  1  0.000000  0.675658  0.584284  1
  Er  Er2  1  0.000000  0.822275  0.087637  1
  Tm  Tm3  1  0.000000  0.178671  0.914136  1
  Tm  Tm4  1  0.000000  0.943125  0.371171  1
  Tm  Tm5  1  0.000000  0.056839  0.630278  1
  Tm  Tm6  1  0.000000  0.443586  0.128954  1
  Tm  Tm7  1  0.000000  0.558194  0.870000  1
  Re  Re8  1  0.000000  0.638557  0.320457  1
  Re  Re9  1  0.000000  0.361273  0.680178  1
  Re  Re10  1  0.000000  0.138040  0.178164  1
  B  B11  1  0.500000  0.552661  0.433101  1
  B  B12  1  0.500000  0.446833  0.566640  1
  B  B13  1  0.500000  0.052757  0.066231  1
  B  B14  1  0.500000  0.946478  0.932922  1
  B  B15  1  0.500000  0.749314  0.419199  1
  B  B16  1  0.500000  0.249803  0.581116  1
  B  B17  1  0.500000  0.250082  0.080394  1
  B  B18  1  0.500000  0.751066  0.918798  1
  B  B19  1  0.500000  0.792623  0.265625  1
  B  B20  1  0.500000  0.207436  0.735491  1
  B  B21  1  0.500000  0.292507  0.234342  1
  B  B22  1  0.500000  0.708722  0.765274  1
  B  B23  1  0.500000  0.630817  0.184870  1
  B  B24  1  0.500000  0.369315  0.815740  1
  B  B25  1  0.500000  0.130217  0.314665  1
  B  B26  1  0.500000  0.868997  0.685293  1
  B  B27  1  0.500000  0.981042  0.212154  1
  B  B28  1  0.500000  0.017480  0.788218  1
  B  B29  1  0.500000  0.481383  0.287389  1
  B  B30  1  0.500000  0.518569  0.712116  1
  B  B31  1  0.500000  0.601888  0.027857  1
  B  B32  1  0.500000  0.400048  0.971602  1
  B  B33  1  0.500000  0.100590  0.472425  1
  B  B34  1  0.500000  0.898750  0.528761  1
  Ru  Ru35  1  0.000000  0.861704  0.820814  1
