# generated using pymatgen
data_Y4Ho6Ru3Rh
_symmetry_space_group_name_H-M   'P 1'
_cell_length_a   6.34917854
_cell_length_b   7.30743891
_cell_length_c   8.47138335
_cell_angle_alpha   96.84266534
_cell_angle_beta   112.06840405
_cell_angle_gamma   90.09407603
_symmetry_Int_Tables_number   1
_chemical_formula_structural   Y4Ho6Ru3Rh
_chemical_formula_sum   'Y4 Ho6 Ru3 Rh1'
_cell_volume   361.18984735
_cell_formula_units_Z   1
loop_
 _symmetry_equiv_pos_site_id
 _symmetry_equiv_pos_as_xyz
  1  'x, y, z'
loop_
 _atom_site_type_symbol
 _atom_site_label
 _atom_site_symmetry_multiplicity
 _atom_site_fract_x
 _atom_site_fract_y
 _atom_site_fract_z
 _atom_site_occupancy
  Y  Y0  1  0.978496  0.918490  0.186498  1
  Y  Y1  1  0.790202  0.584129  0.810088  1
  Y  Y2  1  0.021855  0.084061  0.812695  1
  Y  Y3  1  0.210693  0.414787  0.186474  1
  Ho  Ho4  1  0.639882  0.816836  0.435917  1
  Ho  Ho5  1  0.209276  0.685558  0.567932  1
  Ho  Ho6  1  0.357984  0.185164  0.565587  1
  Ho  Ho7  1  0.793486  0.312964  0.435652  1
  Ho  Ho8  1  0.419918  0.750816  0.999714  1
  Ho  Ho9  1  0.577713  0.247820  0.998278  1
  Ru  Ru10  1  0.600836  0.923626  0.778957  1
  Ru  Ru11  1  0.178105  0.425756  0.777933  1
  Ru  Ru12  1  0.401431  0.075263  0.221656  1
  Rh  Rh13  1  0.820123  0.574730  0.222617  1
