# generated using pymatgen
data_ErU3(ZnIr)4
_symmetry_space_group_name_H-M   'P 1'
_cell_length_a   3.92620500
_cell_length_b   6.95846840
_cell_length_c   8.28622884
_cell_angle_alpha   89.13867492
_cell_angle_beta   90.00000000
_cell_angle_gamma   90.00000000
_symmetry_Int_Tables_number   1
_chemical_formula_structural   ErU3(ZnIr)4
_chemical_formula_sum   'Er1 U3 Zn4 Ir4'
_cell_volume   226.35728675
_cell_formula_units_Z   1
loop_
 _symmetry_equiv_pos_site_id
 _symmetry_equiv_pos_as_xyz
  1  'x, y, z'
loop_
 _atom_site_type_symbol
 _atom_site_label
 _atom_site_symmetry_multiplicity
 _atom_site_fract_x
 _atom_site_fract_y
 _atom_site_fract_z
 _atom_site_occupancy
  Er  Er0  1  0.750000  0.452449  0.813867  1
  U  U1  1  0.250000  0.041483  0.312490  1
  U  U2  1  0.250000  0.545979  0.186354  1
  U  U3  1  0.750000  0.953478  0.689469  1
  Zn  Zn4  1  0.250000  0.620722  0.564628  1
  Zn  Zn5  1  0.250000  0.140933  0.939435  1
  Zn  Zn6  1  0.750000  0.369829  0.443311  1
  Zn  Zn7  1  0.750000  0.873210  0.058261  1
  Ir  Ir8  1  0.250000  0.220145  0.619978  1
  Ir  Ir9  1  0.250000  0.758709  0.864129  1
  Ir  Ir10  1  0.750000  0.761198  0.370034  1
  Ir  Ir11  1  0.750000  0.261862  0.138047  1
