# generated using pymatgen
data_YbEu(NiPt)2
_symmetry_space_group_name_H-M   'P 1'
_cell_length_a   5.48882125
_cell_length_b   5.27482114
_cell_length_c   5.27482194
_cell_angle_alpha   58.74835878
_cell_angle_beta   58.64864386
_cell_angle_gamma   58.64862711
_symmetry_Int_Tables_number   1
_chemical_formula_structural   YbEu(NiPt)2
_chemical_formula_sum   'Yb1 Eu1 Ni2 Pt2'
_cell_volume   104.73593859
_cell_formula_units_Z   1
loop_
 _symmetry_equiv_pos_site_id
 _symmetry_equiv_pos_as_xyz
  1  'x, y, z'
loop_
 _atom_site_type_symbol
 _atom_site_label
 _atom_site_symmetry_multiplicity
 _atom_site_fract_x
 _atom_site_fract_y
 _atom_site_fract_z
 _atom_site_occupancy
  Yb  Yb0  1  0.495785  0.504215  0.504215  1
  Eu  Eu1  1  0.751873  0.748127  0.748127  1
  Ni  Ni2  1  0.126255  0.624055  0.123434  1
  Ni  Ni3  1  0.126255  0.123434  0.624055  1
  Pt  Pt4  1  0.624248  0.125084  0.125084  1
  Pt  Pt5  1  0.125582  0.125084  0.125084  1
