# generated using pymatgen
data_Ba6LaY(Tc2O9)2
_symmetry_space_group_name_H-M   'P 1'
_cell_length_a   6.02398600
_cell_length_b   6.02398521
_cell_length_c   14.86229400
_cell_angle_alpha   90.00000000
_cell_angle_beta   90.00000000
_cell_angle_gamma   120.00000432
_symmetry_Int_Tables_number   1
_chemical_formula_structural   Ba6LaY(Tc2O9)2
_chemical_formula_sum   'Ba6 La1 Y1 Tc4 O18'
_cell_volume   467.07251508
_cell_formula_units_Z   1
loop_
 _symmetry_equiv_pos_site_id
 _symmetry_equiv_pos_as_xyz
  1  'x, y, z'
loop_
 _atom_site_type_symbol
 _atom_site_label
 _atom_site_symmetry_multiplicity
 _atom_site_fract_x
 _atom_site_fract_y
 _atom_site_fract_z
 _atom_site_occupancy
  Ba  Ba0  1  0.333333  0.666667  0.595518  1
  Ba  Ba1  1  0.666667  0.333333  0.112180  1
  Ba  Ba2  1  0.666667  0.333333  0.404482  1
  Ba  Ba3  1  0.333333  0.666667  0.887820  1
  Ba  Ba4  1  0.000000  0.000000  0.745287  1
  Ba  Ba5  1  0.000000  0.000000  0.254713  1
  La  La6  1  0.000000  0.000000  0.000000  1
  Y  Y7  1  0.000000  0.000000  0.500000  1
  Tc  Tc8  1  0.666667  0.333333  0.660632  1
  Tc  Tc9  1  0.333333  0.666667  0.170781  1
  Tc  Tc10  1  0.666667  0.333333  0.829219  1
  Tc  Tc11  1  0.333333  0.666667  0.339368  1
  O  O12  1  0.177526  0.822474  0.098150  1
  O  O13  1  0.177526  0.355053  0.098150  1
  O  O14  1  0.644947  0.822474  0.098150  1
  O  O15  1  0.351419  0.175709  0.587526  1
  O  O16  1  0.822474  0.644947  0.901850  1
  O  O17  1  0.824291  0.175709  0.587526  1
  O  O18  1  0.824291  0.648581  0.587526  1
  O  O19  1  0.175709  0.824291  0.412474  1
  O  O20  1  0.648581  0.824291  0.412474  1
  O  O21  1  0.355053  0.177526  0.901850  1
  O  O22  1  0.822474  0.177526  0.901850  1
  O  O23  1  0.175709  0.351419  0.412474  1
  O  O24  1  0.491796  0.983593  0.255304  1
  O  O25  1  0.508204  0.491796  0.744696  1
  O  O26  1  0.983593  0.491796  0.744696  1
  O  O27  1  0.016407  0.508204  0.255304  1
  O  O28  1  0.491796  0.508204  0.255304  1
  O  O29  1  0.508204  0.016407  0.744696  1
