# generated using pymatgen
data_Ac3Sn5
_symmetry_space_group_name_H-M   'P 1'
_cell_length_a   6.90984300
_cell_length_b   6.90984239
_cell_length_c   10.98631600
_cell_angle_alpha   90.00000000
_cell_angle_beta   90.00000000
_cell_angle_gamma   101.84188362
_symmetry_Int_Tables_number   1
_chemical_formula_structural   Ac3Sn5
_chemical_formula_sum   'Ac6 Sn10'
_cell_volume   513.38813055
_cell_formula_units_Z   2
loop_
 _symmetry_equiv_pos_site_id
 _symmetry_equiv_pos_as_xyz
  1  'x, y, z'
loop_
 _atom_site_type_symbol
 _atom_site_label
 _atom_site_symmetry_multiplicity
 _atom_site_fract_x
 _atom_site_fract_y
 _atom_site_fract_z
 _atom_site_occupancy
  Ac  Ac0  1  0.795737  0.204263  0.000000  1
  Ac  Ac1  1  0.204263  0.795737  0.000000  1
  Ac  Ac2  1  0.204263  0.795737  0.500000  1
  Ac  Ac3  1  0.795737  0.204263  0.500000  1
  Ac  Ac4  1  0.628868  0.628868  0.250000  1
  Ac  Ac5  1  0.371132  0.371132  0.750000  1
  Sn  Sn6  1  0.076513  0.489635  0.250000  1
  Sn  Sn7  1  0.923488  0.510365  0.750000  1
  Sn  Sn8  1  0.489635  0.076512  0.250000  1
  Sn  Sn9  1  0.510365  0.923488  0.750000  1
  Sn  Sn10  1  0.029605  0.029605  0.250000  1
  Sn  Sn11  1  0.970395  0.970395  0.750000  1
  Sn  Sn12  1  0.310405  0.310405  0.051099  1
  Sn  Sn13  1  0.689595  0.689595  0.948901  1
  Sn  Sn14  1  0.689595  0.689595  0.551099  1
  Sn  Sn15  1  0.310405  0.310405  0.448901  1
