# generated using pymatgen
data_Tb4Dy8Co4CuBi
_symmetry_space_group_name_H-M   'P 1'
_cell_length_a   8.36608567
_cell_length_b   8.36608661
_cell_length_c   8.36608560
_cell_angle_alpha   111.37746866
_cell_angle_beta   109.72461565
_cell_angle_gamma   107.33690652
_symmetry_Int_Tables_number   1
_chemical_formula_structural   Tb4Dy8Co4CuBi
_chemical_formula_sum   'Tb4 Dy8 Co4 Cu1 Bi1'
_cell_volume   450.19519836
_cell_formula_units_Z   1
loop_
 _symmetry_equiv_pos_site_id
 _symmetry_equiv_pos_as_xyz
  1  'x, y, z'
loop_
 _atom_site_type_symbol
 _atom_site_label
 _atom_site_symmetry_multiplicity
 _atom_site_fract_x
 _atom_site_fract_y
 _atom_site_fract_z
 _atom_site_occupancy
  Tb  Tb0  1  0.588760  0.790173  0.798588  1
  Tb  Tb1  1  0.411240  0.209827  0.201412  1
  Tb  Tb2  1  0.991585  0.790173  0.201412  1
  Tb  Tb3  1  0.008415  0.209827  0.798588  1
  Dy  Dy4  1  0.816901  0.709137  0.526037  1
  Dy  Dy5  1  0.183099  0.290863  0.473963  1
  Dy  Dy6  1  0.183099  0.709137  0.892237  1
  Dy  Dy7  1  0.816901  0.290863  0.107763  1
  Dy  Dy8  1  0.686206  0.377334  0.691128  1
  Dy  Dy9  1  0.313794  0.622666  0.308872  1
  Dy  Dy10  1  0.686206  0.995077  0.308872  1
  Dy  Dy11  1  0.313794  0.004923  0.691128  1
  Co  Co12  1  0.623168  0.000000  0.623168  1
  Co  Co13  1  0.376832  0.000000  0.376832  1
  Co  Co14  1  0.112032  0.612032  0.500000  1
  Co  Co15  1  0.887968  0.387968  0.500000  1
  Cu  Cu16  1  0.000000  0.000000  0.000000  1
  Bi  Bi17  1  0.500000  0.500000  0.000000  1
