# generated using pymatgen
data_La2LuMgSn2
_symmetry_space_group_name_H-M   'P 1'
_cell_length_a   9.02120463
_cell_length_b   9.02120451
_cell_length_c   9.02120436
_cell_angle_alpha   150.42640897
_cell_angle_beta   150.04540433
_cell_angle_gamma   42.59604571
_symmetry_Int_Tables_number   1
_chemical_formula_structural   La2LuMgSn2
_chemical_formula_sum   'La2 Lu1 Mg1 Sn2'
_cell_volume   180.46984081
_cell_formula_units_Z   1
loop_
 _symmetry_equiv_pos_site_id
 _symmetry_equiv_pos_as_xyz
  1  'x, y, z'
loop_
 _atom_site_type_symbol
 _atom_site_label
 _atom_site_symmetry_multiplicity
 _atom_site_fract_x
 _atom_site_fract_y
 _atom_site_fract_z
 _atom_site_occupancy
  La  La0  1  0.669569  0.669569  0.000000  1
  La  La1  1  0.330431  0.330431  0.000000  1
  Lu  Lu2  1  0.000000  0.500000  0.500000  1
  Mg  Mg3  1  0.500000  0.000000  0.500000  1
  Sn  Sn4  1  0.871570  0.871570  0.000000  1
  Sn  Sn5  1  0.128430  0.128430  0.000000  1
