# generated using pymatgen
data_Ho4Re3OsRu4
_symmetry_space_group_name_H-M   'P 1'
_cell_length_a   5.28100264
_cell_length_b   5.12052858
_cell_length_c   9.07384800
_cell_angle_alpha   90.00000000
_cell_angle_beta   90.00000000
_cell_angle_gamma   116.87728438
_symmetry_Int_Tables_number   1
_chemical_formula_structural   Ho4Re3OsRu4
_chemical_formula_sum   'Ho4 Re3 Os1 Ru4'
_cell_volume   218.86496827
_cell_formula_units_Z   1
loop_
 _symmetry_equiv_pos_site_id
 _symmetry_equiv_pos_as_xyz
  1  'x, y, z'
loop_
 _atom_site_type_symbol
 _atom_site_label
 _atom_site_symmetry_multiplicity
 _atom_site_fract_x
 _atom_site_fract_y
 _atom_site_fract_z
 _atom_site_occupancy
  Ho  Ho0  1  0.672050  0.334452  0.565884  1
  Ho  Ho1  1  0.327693  0.665710  0.435743  1
  Ho  Ho2  1  0.327693  0.665710  0.064257  1
  Ho  Ho3  1  0.672050  0.334452  0.934116  1
  Re  Re4  1  0.165756  0.832007  0.750000  1
  Re  Re5  1  0.836259  0.664094  0.250000  1
  Re  Re6  1  0.837871  0.173364  0.250000  1
  Os  Os7  1  0.165296  0.339120  0.750000  1
  Ru  Ru8  1  0.997057  0.993821  0.500743  1
  Ru  Ru9  1  0.997057  0.993821  0.999257  1
  Ru  Ru10  1  0.650049  0.827355  0.750000  1
  Ru  Ru11  1  0.351167  0.176095  0.250000  1
