# generated using pymatgen
data_Tb4HfMo3O14
_symmetry_space_group_name_H-M   'P 1'
_cell_length_a   7.35229590
_cell_length_b   7.44960809
_cell_length_c   7.35229600
_cell_angle_alpha   60.43117844
_cell_angle_beta   59.99999956
_cell_angle_gamma   60.43117093
_symmetry_Int_Tables_number   1
_chemical_formula_structural   Tb4HfMo3O14
_chemical_formula_sum   'Tb4 Hf1 Mo3 O14'
_cell_volume   286.59211700
_cell_formula_units_Z   1
loop_
 _symmetry_equiv_pos_site_id
 _symmetry_equiv_pos_as_xyz
  1  'x, y, z'
loop_
 _atom_site_type_symbol
 _atom_site_label
 _atom_site_symmetry_multiplicity
 _atom_site_fract_x
 _atom_site_fract_y
 _atom_site_fract_z
 _atom_site_occupancy
  Tb  Tb0  1  0.125000  0.125000  0.125000  1
  Tb  Tb1  1  0.625000  0.125000  0.125000  1
  Tb  Tb2  1  0.125000  0.125000  0.625000  1
  Tb  Tb3  1  0.125000  0.625000  0.125000  1
  Hf  Hf4  1  0.625000  0.125000  0.625000  1
  Mo  Mo5  1  0.625000  0.625000  0.625000  1
  Mo  Mo6  1  0.125000  0.625000  0.625000  1
  Mo  Mo7  1  0.625000  0.625000  0.125000  1
  O  O8  1  0.001501  0.995497  0.001501  1
  O  O9  1  0.248499  0.254503  0.248499  1
  O  O10  1  0.283719  0.287851  0.714215  1
  O  O11  1  0.539326  0.534479  0.963098  1
  O  O12  1  0.714215  0.287851  0.714215  1
  O  O13  1  0.714215  0.287851  0.283719  1
  O  O14  1  0.286902  0.715521  0.710674  1
  O  O15  1  0.286902  0.715521  0.286902  1
  O  O16  1  0.710674  0.715521  0.286902  1
  O  O17  1  0.963098  0.534479  0.539326  1
  O  O18  1  0.535785  0.962149  0.966281  1
  O  O19  1  0.966281  0.962149  0.535785  1
  O  O20  1  0.963098  0.534479  0.963098  1
  O  O21  1  0.535785  0.962149  0.535785  1
