# generated using pymatgen
data_Sc2Be2ZnIr5
_symmetry_space_group_name_H-M   'P 1'
_cell_length_a   9.45999800
_cell_length_b   9.45999800
_cell_length_c   3.13264400
_cell_angle_alpha   90.00000000
_cell_angle_beta   90.00000000
_cell_angle_gamma   90.00000000
_symmetry_Int_Tables_number   1
_chemical_formula_structural   Sc2Be2ZnIr5
_chemical_formula_sum   'Sc4 Be4 Zn2 Ir10'
_cell_volume   280.34520525
_cell_formula_units_Z   2
loop_
 _symmetry_equiv_pos_site_id
 _symmetry_equiv_pos_as_xyz
  1  'x, y, z'
loop_
 _atom_site_type_symbol
 _atom_site_label
 _atom_site_symmetry_multiplicity
 _atom_site_fract_x
 _atom_site_fract_y
 _atom_site_fract_z
 _atom_site_occupancy
  Sc  Sc0  1  0.175288  0.675288  0.000000  1
  Sc  Sc1  1  0.675288  0.824712  0.000000  1
  Sc  Sc2  1  0.324712  0.175288  0.000000  1
  Sc  Sc3  1  0.824712  0.324712  0.000000  1
  Be  Be4  1  0.375263  0.875263  0.000000  1
  Be  Be5  1  0.875263  0.624737  0.000000  1
  Be  Be6  1  0.124737  0.375263  0.000000  1
  Be  Be7  1  0.624737  0.124737  0.000000  1
  Zn  Zn8  1  0.000000  0.000000  0.000000  1
  Zn  Zn9  1  0.500000  0.500000  0.000000  1
  Ir  Ir10  1  0.000000  0.500000  0.500000  1
  Ir  Ir11  1  0.500000  0.000000  0.500000  1
  Ir  Ir12  1  0.289810  0.431146  0.500000  1
  Ir  Ir13  1  0.710191  0.568854  0.500000  1
  Ir  Ir14  1  0.568854  0.289810  0.500000  1
  Ir  Ir15  1  0.431146  0.710191  0.500000  1
  Ir  Ir16  1  0.931146  0.789809  0.500000  1
  Ir  Ir17  1  0.789809  0.068854  0.500000  1
  Ir  Ir18  1  0.210190  0.931146  0.500000  1
  Ir  Ir19  1  0.068854  0.210190  0.500000  1
