# generated using pymatgen
data_Tb19InRh12
_symmetry_space_group_name_H-M   'P 1'
_cell_length_a   10.94320100
_cell_length_b   10.94320100
_cell_length_c   6.32009600
_cell_angle_alpha   90.00000000
_cell_angle_beta   90.00000000
_cell_angle_gamma   90.00000000
_symmetry_Int_Tables_number   1
_chemical_formula_structural   Tb19InRh12
_chemical_formula_sum   'Tb19 In1 Rh12'
_cell_volume   756.85455251
_cell_formula_units_Z   1
loop_
 _symmetry_equiv_pos_site_id
 _symmetry_equiv_pos_as_xyz
  1  'x, y, z'
loop_
 _atom_site_type_symbol
 _atom_site_label
 _atom_site_symmetry_multiplicity
 _atom_site_fract_x
 _atom_site_fract_y
 _atom_site_fract_z
 _atom_site_occupancy
  Tb  Tb0  1  0.282105  0.085578  0.380909  1
  Tb  Tb1  1  0.290453  0.910744  0.880750  1
  Tb  Tb2  1  0.709547  0.089256  0.880750  1
  Tb  Tb3  1  0.717895  0.914422  0.380909  1
  Tb  Tb4  1  0.589513  0.791324  0.883041  1
  Tb  Tb5  1  0.588027  0.208577  0.378969  1
  Tb  Tb6  1  0.411973  0.791423  0.378969  1
  Tb  Tb7  1  0.410487  0.208676  0.883041  1
  Tb  Tb8  1  0.208577  0.411973  0.621031  1
  Tb  Tb9  1  0.208676  0.589513  0.116959  1
  Tb  Tb10  1  0.791324  0.410487  0.116959  1
  Tb  Tb11  1  0.791423  0.588027  0.621031  1
  Tb  Tb12  1  0.910744  0.709547  0.119250  1
  Tb  Tb13  1  0.914422  0.282105  0.619091  1
  Tb  Tb14  1  0.085578  0.717895  0.619091  1
  Tb  Tb15  1  0.089256  0.290453  0.119250  1
  Tb  Tb16  1  0.000000  0.000000  0.000000  1
  Tb  Tb17  1  0.500000  0.500000  0.000000  1
  Tb  Tb18  1  0.500000  0.500000  0.500000  1
  In  In19  1  0.000000  0.000000  0.500000  1
  Rh  Rh20  1  0.845986  0.156122  0.244975  1
  Rh  Rh21  1  0.843878  0.845986  0.755025  1
  Rh  Rh22  1  0.156122  0.154014  0.755025  1
  Rh  Rh23  1  0.154014  0.843878  0.244975  1
  Rh  Rh24  1  0.655208  0.345942  0.746429  1
  Rh  Rh25  1  0.654058  0.655208  0.253571  1
  Rh  Rh26  1  0.345942  0.344792  0.253571  1
  Rh  Rh27  1  0.344792  0.654058  0.746429  1
  Rh  Rh28  1  0.500000  0.000000  0.125368  1
  Rh  Rh29  1  0.500000  0.000000  0.621441  1
  Rh  Rh30  1  0.000000  0.500000  0.874632  1
  Rh  Rh31  1  0.000000  0.500000  0.378559  1
