# generated using pymatgen
data_EuErCl8
_symmetry_space_group_name_H-M   'P 1'
_cell_length_a   7.06459336
_cell_length_b   7.06459405
_cell_length_c   9.26422500
_cell_angle_alpha   92.50026575
_cell_angle_beta   92.50026599
_cell_angle_gamma   119.69854673
_symmetry_Int_Tables_number   1
_chemical_formula_structural   EuErCl8
_chemical_formula_sum   'Eu1 Er1 Cl8'
_cell_volume   400.11156658
_cell_formula_units_Z   1
loop_
 _symmetry_equiv_pos_site_id
 _symmetry_equiv_pos_as_xyz
  1  'x, y, z'
loop_
 _atom_site_type_symbol
 _atom_site_label
 _atom_site_symmetry_multiplicity
 _atom_site_fract_x
 _atom_site_fract_y
 _atom_site_fract_z
 _atom_site_occupancy
  Eu  Eu0  1  0.832176  0.167824  0.000000  1
  Er  Er1  1  0.168346  0.831654  0.000000  1
  Cl  Cl2  1  0.901253  0.889031  0.163342  1
  Cl  Cl3  1  0.505175  0.140953  0.161148  1
  Cl  Cl4  1  0.153166  0.530977  0.161924  1
  Cl  Cl5  1  0.611384  0.610540  0.440912  1
  Cl  Cl6  1  0.389460  0.388616  0.559087  1
  Cl  Cl7  1  0.859047  0.494824  0.838852  1
  Cl  Cl8  1  0.469022  0.846834  0.838076  1
  Cl  Cl9  1  0.110969  0.098747  0.836659  1
