# generated using pymatgen
data_Sr14CdSb11
_symmetry_space_group_name_H-M   'P 1'
_cell_length_a   17.08800905
_cell_length_b   17.08800862
_cell_length_c   17.08800900
_cell_angle_alpha   117.77309881
_cell_angle_beta   117.77309805
_cell_angle_gamma   93.90242172
_symmetry_Int_Tables_number   1
_chemical_formula_structural   Sr14CdSb11
_chemical_formula_sum   'Sr56 Cd4 Sb44'
_cell_volume   3637.88176850
_cell_formula_units_Z   4
loop_
 _symmetry_equiv_pos_site_id
 _symmetry_equiv_pos_as_xyz
  1  'x, y, z'
loop_
 _atom_site_type_symbol
 _atom_site_label
 _atom_site_symmetry_multiplicity
 _atom_site_fract_x
 _atom_site_fract_y
 _atom_site_fract_z
 _atom_site_occupancy
  Sr  Sr0  1  0.350954  0.688675  0.976272  1
  Sr  Sr1  1  0.938675  0.100954  0.476272  1
  Sr  Sr2  1  0.776649  0.497122  0.367497  1
  Sr  Sr3  1  0.125000  0.519523  0.894523  1
  Sr  Sr4  1  0.625000  0.230477  0.105477  1
  Sr  Sr5  1  0.712403  0.374682  0.023728  1
  Sr  Sr6  1  0.002878  0.723351  0.632503  1
  Sr  Sr7  1  0.850954  0.874682  0.662279  1
  Sr  Sr8  1  0.124682  0.600954  0.162279  1
  Sr  Sr9  1  0.497302  0.145430  0.397115  1
  Sr  Sr10  1  0.895430  0.998316  0.148129  1
  Sr  Sr11  1  0.354570  0.002698  0.602885  1
  Sr  Sr12  1  0.973351  0.752878  0.132503  1
  Sr  Sr13  1  0.037597  0.875318  0.476272  1
  Sr  Sr14  1  0.537597  0.061325  0.162279  1
  Sr  Sr15  1  0.473351  0.340847  0.220474  1
  Sr  Sr16  1  0.399813  0.751684  0.397115  1
  Sr  Sr17  1  0.395430  0.247302  0.897115  1
  Sr  Sr18  1  0.899046  0.375318  0.837721  1
  Sr  Sr19  1  0.350187  0.498316  0.102885  1
  Sr  Sr20  1  0.480477  0.375000  0.605477  1
  Sr  Sr21  1  0.438675  0.962403  0.837721  1
  Sr  Sr22  1  0.629625  0.997122  0.720474  1
  Sr  Sr23  1  0.752698  0.649813  0.148129  1
  Sr  Sr24  1  0.311325  0.287597  0.662279  1
  Sr  Sr25  1  0.125318  0.787597  0.976272  1
  Sr  Sr26  1  0.247122  0.379625  0.220474  1
  Sr  Sr27  1  0.501684  0.604570  0.851871  1
  Sr  Sr28  1  0.811325  0.149046  0.023728  1
  Sr  Sr29  1  0.769523  0.875000  0.394523  1
  Sr  Sr30  1  0.659153  0.879625  0.132503  1
  Sr  Sr31  1  0.159153  0.026649  0.779526  1
  Sr  Sr32  1  0.997302  0.600187  0.351871  1
  Sr  Sr33  1  0.590847  0.223351  0.720474  1
  Sr  Sr34  1  0.850187  0.747302  0.851871  1
  Sr  Sr35  1  0.620375  0.840847  0.867497  1
  Sr  Sr36  1  0.624682  0.462403  0.523728  1
  Sr  Sr37  1  0.269523  0.875000  0.894523  1
  Sr  Sr38  1  0.276649  0.909153  0.279526  1
  Sr  Sr39  1  0.747122  0.526649  0.867497  1
  Sr  Sr40  1  0.899813  0.502698  0.648129  1
  Sr  Sr41  1  0.125000  0.019523  0.394523  1
  Sr  Sr42  1  0.248316  0.645430  0.648129  1
  Sr  Sr43  1  0.748316  0.100187  0.602885  1
  Sr  Sr44  1  0.980477  0.375000  0.105477  1
  Sr  Sr45  1  0.001684  0.149813  0.897115  1
  Sr  Sr46  1  0.212403  0.188675  0.337721  1
  Sr  Sr47  1  0.625000  0.730477  0.605477  1
  Sr  Sr48  1  0.854570  0.251684  0.351871  1
  Sr  Sr49  1  0.120375  0.252878  0.779526  1
  Sr  Sr50  1  0.502878  0.870375  0.279526  1
  Sr  Sr51  1  0.129625  0.409153  0.632503  1
  Sr  Sr52  1  0.625318  0.649046  0.337721  1
  Sr  Sr53  1  0.252698  0.104570  0.102885  1
  Sr  Sr54  1  0.090847  0.370375  0.367497  1
  Sr  Sr55  1  0.399046  0.561325  0.523728  1
  Cd  Cd56  1  0.500000  0.500000  0.000000  1
  Cd  Cd57  1  0.750000  0.250000  0.500000  1
  Cd  Cd58  1  0.250000  0.750000  0.500000  1
  Cd  Cd59  1  0.000000  0.000000  0.000000  1
  Sb  Sb60  1  0.897044  0.540919  0.093922  1
  Sb  Sb61  1  0.455859  0.811660  0.637671  1
  Sb  Sb62  1  0.852956  0.709081  0.406078  1
  Sb  Sb63  1  0.688340  0.044141  0.362329  1
  Sb  Sb64  1  0.553122  0.147044  0.856124  1
  Sb  Sb65  1  0.561660  0.423989  0.855800  1
  Sb  Sb66  1  0.882597  0.882597  0.265193  1
  Sb  Sb67  1  0.803002  0.209081  0.856124  1
  Sb  Sb68  1  0.500000  0.000000  0.500000  1
  Sb  Sb69  1  0.673989  0.311660  0.355800  1
  Sb  Sb70  1  0.076011  0.938340  0.144200  1
  Sb  Sb71  1  0.290919  0.696998  0.143876  1
  Sb  Sb72  1  0.576011  0.431812  0.137671  1
  Sb  Sb73  1  0.196878  0.102956  0.643876  1
  Sb  Sb74  1  0.750000  0.750000  0.000000  1
  Sb  Sb75  1  0.117403  0.382597  0.000000  1
  Sb  Sb76  1  0.068188  0.923989  0.862329  1
  Sb  Sb77  1  0.173989  0.818188  0.362329  1
  Sb  Sb78  1  0.794141  0.931812  0.855800  1
  Sb  Sb79  1  0.459081  0.553002  0.356124  1
  Sb  Sb80  1  0.188340  0.826011  0.644200  1
  Sb  Sb81  1  0.946998  0.040919  0.643876  1
  Sb  Sb82  1  0.250000  0.250000  0.000000  1
  Sb  Sb83  1  0.061660  0.205859  0.137671  1
  Sb  Sb84  1  0.132597  0.632597  0.765193  1
  Sb  Sb85  1  0.181812  0.544141  0.355800  1
  Sb  Sb86  1  0.959081  0.602956  0.906078  1
  Sb  Sb87  1  0.568188  0.705859  0.144200  1
  Sb  Sb88  1  0.303002  0.446878  0.593922  1
  Sb  Sb89  1  0.867403  0.367403  0.234807  1
  Sb  Sb90  1  0.617403  0.617403  0.734807  1
  Sb  Sb91  1  0.352956  0.946878  0.143876  1
  Sb  Sb92  1  0.367403  0.132597  0.500000  1
  Sb  Sb93  1  0.397044  0.303122  0.356124  1
  Sb  Sb94  1  0.294141  0.438340  0.862329  1
  Sb  Sb95  1  0.696878  0.053002  0.093922  1
  Sb  Sb96  1  0.446998  0.803122  0.906078  1
  Sb  Sb97  1  0.632597  0.867403  0.500000  1
  Sb  Sb98  1  0.000000  0.500000  0.500000  1
  Sb  Sb99  1  0.382597  0.117403  0.000000  1
  Sb  Sb100  1  0.955859  0.318188  0.644200  1
  Sb  Sb101  1  0.053122  0.196998  0.406078  1
  Sb  Sb102  1  0.681812  0.326011  0.637671  1
  Sb  Sb103  1  0.790919  0.647044  0.593922  1
