# generated using pymatgen
data_SmTmPa2(Al3Ir)6
_symmetry_space_group_name_H-M   'P 1'
_cell_length_a   7.59331872
_cell_length_b   7.60086054
_cell_length_c   9.36905500
_cell_angle_alpha   90.00000000
_cell_angle_beta   90.00000000
_cell_angle_gamma   119.66041845
_symmetry_Int_Tables_number   1
_chemical_formula_structural   SmTmPa2(Al3Ir)6
_chemical_formula_sum   'Sm1 Tm1 Pa2 Al18 Ir6'
_cell_volume   469.89059954
_cell_formula_units_Z   1
loop_
 _symmetry_equiv_pos_site_id
 _symmetry_equiv_pos_as_xyz
  1  'x, y, z'
loop_
 _atom_site_type_symbol
 _atom_site_label
 _atom_site_symmetry_multiplicity
 _atom_site_fract_x
 _atom_site_fract_y
 _atom_site_fract_z
 _atom_site_occupancy
  Sm  Sm0  1  0.669622  0.993127  0.250000  1
  Tm  Tm1  1  0.329712  0.006882  0.750000  1
  Pa  Pa2  1  0.998489  0.671476  0.250000  1
  Pa  Pa3  1  0.001683  0.328386  0.750000  1
  Al  Al4  1  0.132657  0.127671  0.250000  1
  Al  Al5  1  0.869520  0.872740  0.750000  1
  Al  Al6  1  0.001442  0.332428  0.076870  1
  Al  Al7  1  0.000073  0.668905  0.921268  1
  Al  Al8  1  0.000073  0.668905  0.578732  1
  Al  Al9  1  0.337582  0.003376  0.427147  1
  Al  Al10  1  0.001442  0.332428  0.423130  1
  Al  Al11  1  0.660805  0.996492  0.576122  1
  Al  Al12  1  0.660805  0.996492  0.923878  1
  Al  Al13  1  0.337582  0.003376  0.072853  1
  Al  Al14  1  0.335099  0.332951  0.554470  1
  Al  Al15  1  0.665048  0.665802  0.448189  1
  Al  Al16  1  0.665048  0.665802  0.051811  1
  Al  Al17  1  0.335099  0.332951  0.945530  1
  Al  Al18  1  0.339755  0.546415  0.250000  1
  Al  Al19  1  0.658096  0.451595  0.750000  1
  Al  Al20  1  0.549390  0.342435  0.250000  1
  Al  Al21  1  0.450190  0.659131  0.750000  1
  Ir  Ir22  1  0.675920  0.329865  0.998818  1
  Ir  Ir23  1  0.323462  0.669913  0.999807  1
  Ir  Ir24  1  0.323462  0.669913  0.500193  1
  Ir  Ir25  1  0.675920  0.329865  0.501182  1
  Ir  Ir26  1  0.001011  0.000339  0.999029  1
  Ir  Ir27  1  0.001011  0.000339  0.500971  1
