# generated using pymatgen
data_Dy3ZnGa(SiAg)2
_symmetry_space_group_name_H-M   'P 1'
_cell_length_a   7.00623938
_cell_length_b   7.00623997
_cell_length_c   4.27547400
_cell_angle_alpha   90.00000000
_cell_angle_beta   90.00000000
_cell_angle_gamma   120.69256808
_symmetry_Int_Tables_number   1
_chemical_formula_structural   Dy3ZnGa(SiAg)2
_chemical_formula_sum   'Dy3 Zn1 Ga1 Si2 Ag2'
_cell_volume   180.47270845
_cell_formula_units_Z   1
loop_
 _symmetry_equiv_pos_site_id
 _symmetry_equiv_pos_as_xyz
  1  'x, y, z'
loop_
 _atom_site_type_symbol
 _atom_site_label
 _atom_site_symmetry_multiplicity
 _atom_site_fract_x
 _atom_site_fract_y
 _atom_site_fract_z
 _atom_site_occupancy
  Dy  Dy0  1  0.425003  0.425003  0.500000  1
  Dy  Dy1  1  0.576609  0.001479  0.500000  1
  Dy  Dy2  1  0.001479  0.576609  0.500000  1
  Zn  Zn3  1  0.753486  0.753486  0.000000  1
  Ga  Ga4  1  0.991520  0.991520  0.500000  1
  Si  Si5  1  0.665821  0.339119  0.000000  1
  Si  Si6  1  0.339119  0.665821  0.000000  1
  Ag  Ag7  1  0.249906  0.997056  0.000000  1
  Ag  Ag8  1  0.997056  0.249906  0.000000  1
