# generated using pymatgen
data_NdU9O20
_symmetry_space_group_name_H-M   'P 1'
_cell_length_a   6.65094197
_cell_length_b   7.67574679
_cell_length_c   8.58616867
_cell_angle_alpha   102.97205409
_cell_angle_beta   97.40421369
_cell_angle_gamma   106.74299796
_symmetry_Int_Tables_number   1
_chemical_formula_structural   NdU9O20
_chemical_formula_sum   'Nd1 U9 O20'
_cell_volume   400.14381727
_cell_formula_units_Z   1
loop_
 _symmetry_equiv_pos_site_id
 _symmetry_equiv_pos_as_xyz
  1  'x, y, z'
loop_
 _atom_site_type_symbol
 _atom_site_label
 _atom_site_symmetry_multiplicity
 _atom_site_fract_x
 _atom_site_fract_y
 _atom_site_fract_z
 _atom_site_occupancy
  Nd  Nd0  1  0.000000  0.500000  0.000000  1
  U  U1  1  0.798706  0.600016  0.599657  1
  U  U2  1  0.601155  0.200252  0.200102  1
  U  U3  1  0.799840  0.099736  0.599244  1
  U  U4  1  0.398845  0.799748  0.799898  1
  U  U5  1  0.599761  0.700261  0.199087  1
  U  U6  1  0.201294  0.399984  0.400343  1
  U  U7  1  0.400239  0.299739  0.800913  1
  U  U8  1  0.000000  0.000000  0.000000  1
  U  U9  1  0.200160  0.900264  0.400756  1
  O  O10  1  0.647660  0.925429  0.049053  1
  O  O11  1  0.447315  0.525372  0.647413  1
  O  O12  1  0.639297  0.421654  0.053543  1
  O  O13  1  0.739844  0.370505  0.741913  1
  O  O14  1  0.255117  0.126154  0.250373  1
  O  O15  1  0.446551  0.022213  0.649275  1
  O  O16  1  0.050152  0.732884  0.844926  1
  O  O17  1  0.553449  0.977787  0.350725  1
  O  O18  1  0.744883  0.873846  0.749627  1
  O  O19  1  0.260156  0.629495  0.258087  1
  O  O20  1  0.360703  0.578346  0.946457  1
  O  O21  1  0.851701  0.325687  0.450740  1
  O  O22  1  0.052548  0.214943  0.844181  1
  O  O23  1  0.552685  0.474628  0.352587  1
  O  O24  1  0.150462  0.174707  0.547175  1
  O  O25  1  0.352340  0.074571  0.950947  1
  O  O26  1  0.849538  0.825293  0.452825  1
  O  O27  1  0.947452  0.785057  0.155819  1
  O  O28  1  0.148299  0.674313  0.549260  1
  O  O29  1  0.949848  0.267116  0.155074  1
