# generated using pymatgen
data_Zr6ZnAuC2
_symmetry_space_group_name_H-M   'P 1'
_cell_length_a   6.09329135
_cell_length_b   6.09329055
_cell_length_c   9.14190800
_cell_angle_alpha   90.00000000
_cell_angle_beta   90.00000000
_cell_angle_gamma   147.69103847
_symmetry_Int_Tables_number   1
_chemical_formula_structural   Zr6ZnAuC2
_chemical_formula_sum   'Zr6 Zn1 Au1 C2'
_cell_volume   181.41610274
_cell_formula_units_Z   1
loop_
 _symmetry_equiv_pos_site_id
 _symmetry_equiv_pos_as_xyz
  1  'x, y, z'
loop_
 _atom_site_type_symbol
 _atom_site_label
 _atom_site_symmetry_multiplicity
 _atom_site_fract_x
 _atom_site_fract_y
 _atom_site_fract_z
 _atom_site_occupancy
  Zr  Zr0  1  0.628277  0.371723  0.952852  1
  Zr  Zr1  1  0.373561  0.626439  0.449570  1
  Zr  Zr2  1  0.373561  0.626439  0.050430  1
  Zr  Zr3  1  0.628277  0.371723  0.547148  1
  Zr  Zr4  1  0.952922  0.047078  0.750000  1
  Zr  Zr5  1  0.048455  0.951545  0.250000  1
  Zn  Zn6  1  0.745374  0.254626  0.250000  1
  Au  Au7  1  0.251121  0.748879  0.750000  1
  C  C8  1  0.999225  0.000775  0.001017  1
  C  C9  1  0.999225  0.000775  0.498983  1
