# generated using pymatgen
data_Tb9HoSi5Sn
_symmetry_space_group_name_H-M   'P 1'
_cell_length_a   8.55445608
_cell_length_b   8.58484168
_cell_length_c   6.43471910
_cell_angle_alpha   90.01917160
_cell_angle_beta   89.99533759
_cell_angle_gamma   119.86763630
_symmetry_Int_Tables_number   1
_chemical_formula_structural   Tb9HoSi5Sn
_chemical_formula_sum   'Tb9 Ho1 Si5 Sn1'
_cell_volume   409.79117446
_cell_formula_units_Z   1
loop_
 _symmetry_equiv_pos_site_id
 _symmetry_equiv_pos_as_xyz
  1  'x, y, z'
loop_
 _atom_site_type_symbol
 _atom_site_label
 _atom_site_symmetry_multiplicity
 _atom_site_fract_x
 _atom_site_fract_y
 _atom_site_fract_z
 _atom_site_occupancy
  Tb  Tb0  1  0.989652  0.747940  0.749668  1
  Tb  Tb1  1  0.998755  0.243402  0.250505  1
  Tb  Tb2  1  0.755112  0.756847  0.250429  1
  Tb  Tb3  1  0.764453  0.999766  0.749600  1
  Tb  Tb4  1  0.241512  0.252123  0.749495  1
  Tb  Tb5  1  0.242210  0.999781  0.250370  1
  Tb  Tb6  1  0.673729  0.342475  0.003049  1
  Tb  Tb7  1  0.673758  0.342410  0.496929  1
  Tb  Tb8  1  0.331336  0.657554  0.003078  1
  Ho  Ho9  1  0.331306  0.657533  0.497049  1
  Si  Si10  1  0.392842  0.392330  0.251276  1
  Si  Si11  1  0.002710  0.608644  0.251088  1
  Si  Si12  1  0.999348  0.394817  0.748843  1
  Si  Si13  1  0.603460  0.606152  0.748825  1
  Si  Si14  1  0.605027  0.998987  0.250975  1
  Sn  Sn15  1  0.394789  0.999237  0.748821  1
