# generated using pymatgen
data_Tb16Lu4Ir11Au
_symmetry_space_group_name_H-M   'P 1'
_cell_length_a   10.94823006
_cell_length_b   10.94823006
_cell_length_c   6.34790913
_cell_angle_alpha   89.98364862
_cell_angle_beta   89.98364862
_cell_angle_gamma   89.77581305
_symmetry_Int_Tables_number   1
_chemical_formula_structural   Tb16Lu4Ir11Au
_chemical_formula_sum   'Tb16 Lu4 Ir11 Au1'
_cell_volume   760.87825273
_cell_formula_units_Z   1
loop_
 _symmetry_equiv_pos_site_id
 _symmetry_equiv_pos_as_xyz
  1  'x, y, z'
loop_
 _atom_site_type_symbol
 _atom_site_label
 _atom_site_symmetry_multiplicity
 _atom_site_fract_x
 _atom_site_fract_y
 _atom_site_fract_z
 _atom_site_occupancy
  Tb  Tb0  1  0.289606  0.087798  0.378352  1
  Tb  Tb1  1  0.290980  0.912000  0.877207  1
  Tb  Tb2  1  0.705713  0.084819  0.868349  1
  Tb  Tb3  1  0.707540  0.906655  0.380518  1
  Tb  Tb4  1  0.587184  0.789475  0.879635  1
  Tb  Tb5  1  0.580794  0.211524  0.380342  1
  Tb  Tb6  1  0.412008  0.790060  0.378188  1
  Tb  Tb7  1  0.411563  0.210327  0.878867  1
  Tb  Tb8  1  0.210525  0.412816  0.620365  1
  Tb  Tb9  1  0.209940  0.587992  0.121812  1
  Tb  Tb10  1  0.788476  0.419206  0.119658  1
  Tb  Tb11  1  0.789673  0.588437  0.621133  1
  Tb  Tb12  1  0.912202  0.710394  0.121648  1
  Tb  Tb13  1  0.915181  0.294287  0.631651  1
  Tb  Tb14  1  0.088000  0.709020  0.622793  1
  Tb  Tb15  1  0.093345  0.292460  0.119482  1
  Lu  Lu16  1  0.004141  0.996120  0.502791  1
  Lu  Lu17  1  0.003880  0.995859  0.997209  1
  Lu  Lu18  1  0.499522  0.500155  0.999431  1
  Lu  Lu19  1  0.499845  0.500478  0.500569  1
  Ir  Ir20  1  0.849586  0.850798  0.749610  1
  Ir  Ir21  1  0.149202  0.150414  0.750390  1
  Ir  Ir22  1  0.151067  0.848933  0.250000  1
  Ir  Ir23  1  0.651727  0.348273  0.750000  1
  Ir  Ir24  1  0.650672  0.650262  0.249514  1
  Ir  Ir25  1  0.349738  0.349328  0.250486  1
  Ir  Ir26  1  0.349208  0.650792  0.750000  1
  Ir  Ir27  1  0.500746  0.000268  0.124385  1
  Ir  Ir28  1  0.500113  0.000405  0.622100  1
  Ir  Ir29  1  0.999595  0.499887  0.877900  1
  Ir  Ir30  1  0.999732  0.499254  0.375615  1
  Au  Au31  1  0.848495  0.151505  0.250000  1
