# generated using pymatgen
data_LuNp7(ReB6)4
_symmetry_space_group_name_H-M   'P 1'
_cell_length_a   3.61763000
_cell_length_b   9.26745612
_cell_length_c   11.33016714
_cell_angle_alpha   89.98168455
_cell_angle_beta   90.00000000
_cell_angle_gamma   90.00000000
_symmetry_Int_Tables_number   1
_chemical_formula_structural   LuNp7(ReB6)4
_chemical_formula_sum   'Lu1 Np7 Re4 B24'
_cell_volume   379.85773938
_cell_formula_units_Z   1
loop_
 _symmetry_equiv_pos_site_id
 _symmetry_equiv_pos_as_xyz
  1  'x, y, z'
loop_
 _atom_site_type_symbol
 _atom_site_label
 _atom_site_symmetry_multiplicity
 _atom_site_fract_x
 _atom_site_fract_y
 _atom_site_fract_z
 _atom_site_occupancy
  Lu  Lu0  1  0.000000  0.336659  0.407193  1
  Np  Np1  1  0.000000  0.662678  0.593767  1
  Np  Np2  1  0.000000  0.837385  0.093996  1
  Np  Np3  1  0.000000  0.162618  0.907103  1
  Np  Np4  1  0.000000  0.959627  0.399688  1
  Np  Np5  1  0.000000  0.041839  0.598976  1
  Np  Np6  1  0.000000  0.458892  0.099183  1
  Np  Np7  1  0.000000  0.540470  0.900168  1
  Re  Re8  1  0.000000  0.647057  0.318727  1
  Re  Re9  1  0.000000  0.354380  0.681617  1
  Re  Re10  1  0.000000  0.145352  0.179903  1
  Re  Re11  1  0.000000  0.854204  0.818564  1
  B  B12  1  0.500000  0.551027  0.432094  1
  B  B13  1  0.500000  0.448527  0.568010  1
  B  B14  1  0.500000  0.051576  0.068236  1
  B  B15  1  0.500000  0.948315  0.932126  1
  B  B16  1  0.500000  0.742833  0.424106  1
  B  B17  1  0.500000  0.256596  0.576003  1
  B  B18  1  0.500000  0.243782  0.076585  1
  B  B19  1  0.500000  0.756765  0.923968  1
  B  B20  1  0.500000  0.804708  0.274295  1
  B  B21  1  0.500000  0.195217  0.725504  1
  B  B22  1  0.500000  0.304584  0.225572  1
  B  B23  1  0.500000  0.695165  0.774459  1
  B  B24  1  0.500000  0.644704  0.188417  1
  B  B25  1  0.500000  0.354340  0.811718  1
  B  B26  1  0.500000  0.145683  0.312076  1
  B  B27  1  0.500000  0.854551  0.687870  1
  B  B28  1  0.500000  0.987923  0.220550  1
  B  B29  1  0.500000  0.012525  0.779488  1
  B  B30  1  0.500000  0.487356  0.280189  1
  B  B31  1  0.500000  0.512532  0.719850  1
  B  B32  1  0.500000  0.642469  0.039596  1
  B  B33  1  0.500000  0.357690  0.960564  1
  B  B34  1  0.500000  0.142037  0.460595  1
  B  B35  1  0.500000  0.857936  0.539244  1
