# generated using pymatgen
data_Nd2Ho3TmTa2O14
_symmetry_space_group_name_H-M   'P 1'
_cell_length_a   6.48818527
_cell_length_b   6.48406285
_cell_length_c   7.58024804
_cell_angle_alpha   89.99648217
_cell_angle_beta   89.99055996
_cell_angle_gamma   109.15922100
_symmetry_Int_Tables_number   1
_chemical_formula_structural   Nd2Ho3TmTa2O14
_chemical_formula_sum   'Nd2 Ho3 Tm1 Ta2 O14'
_cell_volume   301.23573821
_cell_formula_units_Z   1
loop_
 _symmetry_equiv_pos_site_id
 _symmetry_equiv_pos_as_xyz
  1  'x, y, z'
loop_
 _atom_site_type_symbol
 _atom_site_label
 _atom_site_symmetry_multiplicity
 _atom_site_fract_x
 _atom_site_fract_y
 _atom_site_fract_z
 _atom_site_occupancy
  Nd  Nd0  1  0.512653  0.512101  0.499549  1
  Nd  Nd1  1  0.489056  0.489066  0.000481  1
  Ho  Ho2  1  0.999010  0.467050  0.746528  1
  Ho  Ho3  1  0.533477  0.001041  0.753600  1
  Ho  Ho4  1  0.466151  0.999094  0.253556  1
  Tm  Tm5  1  0.001473  0.532423  0.246521  1
  Ta  Ta6  1  0.001451  0.001624  0.499508  1
  Ta  Ta7  1  0.998501  0.998602  0.000559  1
  O  O8  1  0.935277  0.065891  0.750019  1
  O  O9  1  0.065477  0.933290  0.249996  1
  O  O10  1  0.353740  0.643340  0.250119  1
  O  O11  1  0.643626  0.356900  0.749944  1
  O  O12  1  0.363006  0.636644  0.749998  1
  O  O13  1  0.640358  0.364670  0.249754  1
  O  O14  1  0.323405  0.073592  0.970847  1
  O  O15  1  0.676229  0.926685  0.470897  1
  O  O16  1  0.316955  0.064439  0.537037  1
  O  O17  1  0.682563  0.935623  0.036991  1
  O  O18  1  0.061747  0.316386  0.460427  1
  O  O19  1  0.936905  0.682473  0.964264  1
  O  O20  1  0.927770  0.675981  0.527807  1
  O  O21  1  0.071168  0.323085  0.031598  1
