# generated using pymatgen
data_Dy2Er3IrPb3
_symmetry_space_group_name_H-M   'P 1'
_cell_length_a   9.17053700
_cell_length_b   9.17053761
_cell_length_c   6.83453500
_cell_angle_alpha   90.00000000
_cell_angle_beta   90.00000000
_cell_angle_gamma   119.99999420
_symmetry_Int_Tables_number   1
_chemical_formula_structural   Dy2Er3IrPb3
_chemical_formula_sum   'Dy4 Er6 Ir2 Pb6'
_cell_volume   497.77054332
_cell_formula_units_Z   2
loop_
 _symmetry_equiv_pos_site_id
 _symmetry_equiv_pos_as_xyz
  1  'x, y, z'
loop_
 _atom_site_type_symbol
 _atom_site_label
 _atom_site_symmetry_multiplicity
 _atom_site_fract_x
 _atom_site_fract_y
 _atom_site_fract_z
 _atom_site_occupancy
  Dy  Dy0  1  0.333333  0.666667  0.500000  1
  Dy  Dy1  1  0.666667  0.333333  0.500000  1
  Dy  Dy2  1  0.333333  0.666667  0.000000  1
  Dy  Dy3  1  0.666667  0.333333  0.000000  1
  Er  Er4  1  0.000000  0.764527  0.750000  1
  Er  Er5  1  0.235473  0.000000  0.250000  1
  Er  Er6  1  0.764527  0.000000  0.750000  1
  Er  Er7  1  0.000000  0.235473  0.250000  1
  Er  Er8  1  0.764527  0.764527  0.250000  1
  Er  Er9  1  0.235473  0.235473  0.750000  1
  Ir  Ir10  1  0.000000  0.000000  0.000000  1
  Ir  Ir11  1  0.000000  0.000000  0.500000  1
  Pb  Pb12  1  0.404749  0.404749  0.250000  1
  Pb  Pb13  1  0.000000  0.404749  0.750000  1
  Pb  Pb14  1  0.000000  0.595251  0.250000  1
  Pb  Pb15  1  0.595251  0.000000  0.250000  1
  Pb  Pb16  1  0.404749  0.000000  0.750000  1
  Pb  Pb17  1  0.595251  0.595251  0.750000  1
