# generated using pymatgen
data_Sc12Co2Ni3Bi
_symmetry_space_group_name_H-M   'P 1'
_cell_length_a   7.76430912
_cell_length_b   7.76430891
_cell_length_c   7.76430855
_cell_angle_alpha   111.11297982
_cell_angle_beta   110.17358464
_cell_angle_gamma   107.15312821
_symmetry_Int_Tables_number   1
_chemical_formula_structural   Sc12Co2Ni3Bi
_chemical_formula_sum   'Sc12 Co2 Ni3 Bi1'
_cell_volume   359.85306405
_cell_formula_units_Z   1
loop_
 _symmetry_equiv_pos_site_id
 _symmetry_equiv_pos_as_xyz
  1  'x, y, z'
loop_
 _atom_site_type_symbol
 _atom_site_label
 _atom_site_symmetry_multiplicity
 _atom_site_fract_x
 _atom_site_fract_y
 _atom_site_fract_z
 _atom_site_occupancy
  Sc  Sc0  1  0.819827  0.718897  0.538723  1
  Sc  Sc1  1  0.180173  0.281103  0.461277  1
  Sc  Sc2  1  0.180173  0.718897  0.899072  1
  Sc  Sc3  1  0.819827  0.281103  0.100928  1
  Sc  Sc4  1  0.684383  0.377536  0.693154  1
  Sc  Sc5  1  0.315617  0.622464  0.306846  1
  Sc  Sc6  1  0.684383  0.991229  0.306846  1
  Sc  Sc7  1  0.315617  0.008771  0.693154  1
  Sc  Sc8  1  0.581377  0.780039  0.801339  1
  Sc  Sc9  1  0.418623  0.219961  0.198661  1
  Sc  Sc10  1  0.978699  0.780039  0.198661  1
  Sc  Sc11  1  0.021301  0.219961  0.801339  1
  Co  Co12  1  0.120684  0.620684  0.500000  1
  Co  Co13  1  0.879316  0.379316  0.500000  1
  Ni  Ni14  1  0.643755  0.000000  0.643755  1
  Ni  Ni15  1  0.356245  0.000000  0.356245  1
  Ni  Ni16  1  0.000000  0.000000  0.000000  1
  Bi  Bi17  1  0.500000  0.500000  0.000000  1
