# generated using pymatgen
data_YHoFeCo16
_symmetry_space_group_name_H-M   'P 1'
_cell_length_a   6.26431326
_cell_length_b   6.26431194
_cell_length_c   6.26431391
_cell_angle_alpha   83.05394198
_cell_angle_beta   83.05395373
_cell_angle_gamma   83.05394680
_symmetry_Int_Tables_number   1
_chemical_formula_structural   YHoFeCo16
_chemical_formula_sum   'Y1 Ho1 Fe1 Co16'
_cell_volume   240.81273435
_cell_formula_units_Z   1
loop_
 _symmetry_equiv_pos_site_id
 _symmetry_equiv_pos_as_xyz
  1  'x, y, z'
loop_
 _atom_site_type_symbol
 _atom_site_label
 _atom_site_symmetry_multiplicity
 _atom_site_fract_x
 _atom_site_fract_y
 _atom_site_fract_z
 _atom_site_occupancy
  Y  Y0  1  0.345961  0.345961  0.345961  1
  Ho  Ho1  1  0.656231  0.656231  0.656231  1
  Fe  Fe2  1  0.095830  0.095830  0.095830  1
  Co  Co3  1  0.347118  0.849701  0.347118  1
  Co  Co4  1  0.347118  0.347118  0.849701  1
  Co  Co5  1  0.849701  0.347118  0.347118  1
  Co  Co6  1  0.654304  0.150911  0.654304  1
  Co  Co7  1  0.654304  0.654304  0.150911  1
  Co  Co8  1  0.150911  0.654304  0.654304  1
  Co  Co9  1  0.710557  0.289200  0.998905  1
  Co  Co10  1  0.998905  0.710557  0.289200  1
  Co  Co11  1  0.289200  0.998905  0.710557  1
  Co  Co12  1  0.998905  0.289200  0.710557  1
  Co  Co13  1  0.710557  0.998905  0.289200  1
  Co  Co14  1  0.289200  0.710557  0.998905  1
  Co  Co15  1  0.998696  0.998696  0.501686  1
  Co  Co16  1  0.501686  0.998696  0.998696  1
  Co  Co17  1  0.998696  0.501686  0.998696  1
  Co  Co18  1  0.902123  0.902123  0.902123  1
