# generated using pymatgen
data_SmYTc3Os
_symmetry_space_group_name_H-M   'P 1'
_cell_length_a   5.31898300
_cell_length_b   5.31898377
_cell_length_c   9.17663200
_cell_angle_alpha   90.00000000
_cell_angle_beta   90.00000000
_cell_angle_gamma   120.00000143
_symmetry_Int_Tables_number   1
_chemical_formula_structural   SmYTc3Os
_chemical_formula_sum   'Sm2 Y2 Tc6 Os2'
_cell_volume   224.83877416
_cell_formula_units_Z   2
loop_
 _symmetry_equiv_pos_site_id
 _symmetry_equiv_pos_as_xyz
  1  'x, y, z'
loop_
 _atom_site_type_symbol
 _atom_site_label
 _atom_site_symmetry_multiplicity
 _atom_site_fract_x
 _atom_site_fract_y
 _atom_site_fract_z
 _atom_site_occupancy
  Sm  Sm0  1  0.333333  0.666667  0.437325  1
  Sm  Sm1  1  0.666667  0.333333  0.562675  1
  Y  Y2  1  0.666667  0.333333  0.936475  1
  Y  Y3  1  0.333333  0.666667  0.063525  1
  Tc  Tc4  1  0.829637  0.170363  0.247262  1
  Tc  Tc5  1  0.829637  0.659276  0.247262  1
  Tc  Tc6  1  0.340724  0.170363  0.247262  1
  Tc  Tc7  1  0.170363  0.829637  0.752738  1
  Tc  Tc8  1  0.170363  0.340724  0.752738  1
  Tc  Tc9  1  0.659276  0.829637  0.752738  1
  Os  Os10  1  0.000000  0.000000  0.500000  1
  Os  Os11  1  0.000000  0.000000  0.000000  1
