# generated using pymatgen
data_Li3Nd3ZnPb4
_symmetry_space_group_name_H-M   'P 1'
_cell_length_a   4.79040150
_cell_length_b   7.37770340
_cell_length_c   8.99224897
_cell_angle_alpha   114.93380155
_cell_angle_beta   105.44794614
_cell_angle_gamma   89.99999621
_symmetry_Int_Tables_number   1
_chemical_formula_structural   Li3Nd3ZnPb4
_chemical_formula_sum   'Li3 Nd3 Zn1 Pb4'
_cell_volume   275.47137350
_cell_formula_units_Z   1
loop_
 _symmetry_equiv_pos_site_id
 _symmetry_equiv_pos_as_xyz
  1  'x, y, z'
loop_
 _atom_site_type_symbol
 _atom_site_label
 _atom_site_symmetry_multiplicity
 _atom_site_fract_x
 _atom_site_fract_y
 _atom_site_fract_z
 _atom_site_occupancy
  Li  Li0  1  0.327595  0.016097  0.655188  1
  Li  Li1  1  0.326235  0.640989  0.652469  1
  Li  Li2  1  0.671422  0.358233  0.342844  1
  Nd  Nd3  1  0.001236  0.004753  0.002473  1
  Nd  Nd4  1  0.127304  0.632775  0.254609  1
  Nd  Nd5  1  0.873556  0.363966  0.747112  1
  Zn  Zn6  1  0.673934  0.978240  0.347870  1
  Pb  Pb7  1  0.496964  0.702785  0.993929  1
  Pb  Pb8  1  0.500343  0.296548  0.000686  1
  Pb  Pb9  1  0.786259  0.785208  0.572519  1
  Pb  Pb10  1  0.215150  0.220406  0.430301  1
