# generated using pymatgen
data_La2TbY7(Al2Ru3)2
_symmetry_space_group_name_H-M   'P 1'
_cell_length_a   8.48314111
_cell_length_b   8.43002773
_cell_length_c   8.43085845
_cell_angle_alpha   109.54236238
_cell_angle_beta   109.81893836
_cell_angle_gamma   109.65455223
_symmetry_Int_Tables_number   1
_chemical_formula_structural   La2TbY7(Al2Ru3)2
_chemical_formula_sum   'La2 Tb1 Y7 Al4 Ru6'
_cell_volume   460.64206169
_cell_formula_units_Z   1
loop_
 _symmetry_equiv_pos_site_id
 _symmetry_equiv_pos_as_xyz
  1  'x, y, z'
loop_
 _atom_site_type_symbol
 _atom_site_label
 _atom_site_symmetry_multiplicity
 _atom_site_fract_x
 _atom_site_fract_y
 _atom_site_fract_z
 _atom_site_occupancy
  La  La0  1  0.939409  0.251995  0.191336  1
  La  La1  1  0.192433  0.935909  0.252980  1
  Tb  Tb2  1  0.784449  0.787645  0.781958  1
  Y  Y3  1  0.320633  0.569542  0.756013  1
  Y  Y4  1  0.752767  0.321320  0.571565  1
  Y  Y5  1  0.568117  0.748636  0.314952  1
  Y  Y6  1  0.714200  0.502640  0.996972  1
  Y  Y7  1  0.999927  0.717090  0.507093  1
  Y  Y8  1  0.500789  0.993032  0.713724  1
  Y  Y9  1  0.254078  0.186527  0.928925  1
  Al  Al10  1  0.421218  0.418019  0.417764  1
  Al  Al11  1  0.088811  0.492709  0.995235  1
  Al  Al12  1  0.996918  0.085727  0.501241  1
  Al  Al13  1  0.498173  0.006077  0.087327  1
  Ru  Ru14  1  0.873285  0.120135  0.740658  1
  Ru  Ru15  1  0.743048  0.884963  0.121180  1
  Ru  Ru16  1  0.125162  0.751878  0.887542  1
  Ru  Ru17  1  0.241573  0.607394  0.368579  1
  Ru  Ru18  1  0.364910  0.239984  0.612784  1
  Ru  Ru19  1  0.620101  0.378782  0.252170  1
