# generated using pymatgen
data_Nb4VFe6Ge
_symmetry_space_group_name_H-M   'P 1'
_cell_length_a   4.87805100
_cell_length_b   4.87805067
_cell_length_c   7.99035200
_cell_angle_alpha   90.00000000
_cell_angle_beta   90.00000000
_cell_angle_gamma   119.99999542
_symmetry_Int_Tables_number   1
_chemical_formula_structural   Nb4VFe6Ge
_chemical_formula_sum   'Nb4 V1 Fe6 Ge1'
_cell_volume   164.66041575
_cell_formula_units_Z   1
loop_
 _symmetry_equiv_pos_site_id
 _symmetry_equiv_pos_as_xyz
  1  'x, y, z'
loop_
 _atom_site_type_symbol
 _atom_site_label
 _atom_site_symmetry_multiplicity
 _atom_site_fract_x
 _atom_site_fract_y
 _atom_site_fract_z
 _atom_site_occupancy
  Nb  Nb0  1  0.666667  0.333333  0.922149  1
  Nb  Nb1  1  0.333333  0.666667  0.450174  1
  Nb  Nb2  1  0.666667  0.333333  0.549826  1
  Nb  Nb3  1  0.333333  0.666667  0.077851  1
  V  V4  1  0.000000  0.000000  0.500000  1
  Fe  Fe5  1  0.171499  0.828501  0.749658  1
  Fe  Fe6  1  0.657003  0.828501  0.749658  1
  Fe  Fe7  1  0.828501  0.171499  0.250342  1
  Fe  Fe8  1  0.171499  0.342997  0.749658  1
  Fe  Fe9  1  0.828501  0.657003  0.250342  1
  Fe  Fe10  1  0.342997  0.171499  0.250342  1
  Ge  Ge11  1  0.000000  0.000000  0.000000  1
