# generated using pymatgen
data_NpUSbH2
_symmetry_space_group_name_H-M   'P 1'
_cell_length_a   5.40467642
_cell_length_b   5.40467603
_cell_length_c   5.40467708
_cell_angle_alpha   135.32929105
_cell_angle_beta   135.32930962
_cell_angle_gamma   65.01898160
_symmetry_Int_Tables_number   1
_chemical_formula_structural   NpUSbH2
_chemical_formula_sum   'Np1 U1 Sb1 H2'
_cell_volume   76.90970947
_cell_formula_units_Z   1
loop_
 _symmetry_equiv_pos_site_id
 _symmetry_equiv_pos_as_xyz
  1  'x, y, z'
loop_
 _atom_site_type_symbol
 _atom_site_label
 _atom_site_symmetry_multiplicity
 _atom_site_fract_x
 _atom_site_fract_y
 _atom_site_fract_z
 _atom_site_occupancy
  Np  Np0  1  0.363783  0.363783  0.000000  1
  U  U1  1  0.637165  0.637165  0.000000  1
  Sb  Sb2  1  0.999297  0.999297  0.000000  1
  H  H3  1  0.749878  0.249878  0.500000  1
  H  H4  1  0.249878  0.749878  0.500000  1
