# generated using pymatgen
data_Er6Zn16Au7S
_symmetry_space_group_name_H-M   'P 1'
_cell_length_a   9.09967073
_cell_length_b   9.10668787
_cell_length_c   9.10672700
_cell_angle_alpha   60.00007944
_cell_angle_beta   59.97674877
_cell_angle_gamma   59.97637108
_symmetry_Int_Tables_number   1
_chemical_formula_structural   Er6Zn16Au7S
_chemical_formula_sum   'Er6 Zn16 Au7 S1'
_cell_volume   533.43284086
_cell_formula_units_Z   1
loop_
 _symmetry_equiv_pos_site_id
 _symmetry_equiv_pos_as_xyz
  1  'x, y, z'
loop_
 _atom_site_type_symbol
 _atom_site_label
 _atom_site_symmetry_multiplicity
 _atom_site_fract_x
 _atom_site_fract_y
 _atom_site_fract_z
 _atom_site_occupancy
  Er  Er0  1  0.714114  0.286853  0.286842  1
  Er  Er1  1  0.285773  0.710953  0.710958  1
  Er  Er2  1  0.285771  0.710968  0.292300  1
  Er  Er3  1  0.714108  0.286878  0.712183  1
  Er  Er4  1  0.285782  0.292273  0.710975  1
  Er  Er5  1  0.714098  0.712161  0.286873  1
  Zn  Zn6  1  0.367123  0.877617  0.877621  1
  Zn  Zn7  1  0.498474  0.998272  0.998256  1
  Zn  Zn8  1  0.999348  0.499371  0.499383  1
  Zn  Zn9  1  0.999344  0.499390  0.001897  1
  Zn  Zn10  1  0.498477  0.998277  0.504986  1
  Zn  Zn11  1  0.999336  0.001917  0.499371  1
  Zn  Zn12  1  0.498494  0.504990  0.998256  1
  Zn  Zn13  1  0.330474  0.331403  0.331397  1
  Zn  Zn14  1  0.669039  0.669194  0.669188  1
  Zn  Zn15  1  0.330480  0.331402  0.006716  1
  Zn  Zn16  1  0.330472  0.006718  0.331399  1
  Zn  Zn17  1  0.669034  0.669198  0.992581  1
  Zn  Zn18  1  0.669038  0.992591  0.669187  1
  Zn  Zn19  1  0.009233  0.330265  0.330253  1
  Zn  Zn20  1  0.990843  0.669728  0.669711  1
  Zn  Zn21  1  0.998040  0.000645  0.000660  1
  Au  Au22  1  0.126207  0.117986  0.117976  1
  Au  Au23  1  0.877150  0.878288  0.878247  1
  Au  Au24  1  0.126221  0.117946  0.637854  1
  Au  Au25  1  0.126232  0.637824  0.117970  1
  Au  Au26  1  0.877165  0.878265  0.366320  1
  Au  Au27  1  0.877234  0.366320  0.878257  1
  Au  Au28  1  0.630062  0.123270  0.123327  1
  S  S29  1  0.502835  0.499040  0.499059  1
