# generated using pymatgen
data_CsEu(DyTe2)2
_symmetry_space_group_name_H-M   'P 1'
_cell_length_a   4.50750500
_cell_length_b   4.50750526
_cell_length_c   32.03985500
_cell_angle_alpha   90.00000000
_cell_angle_beta   90.00000000
_cell_angle_gamma   119.99997610
_symmetry_Int_Tables_number   1
_chemical_formula_structural   CsEu(DyTe2)2
_chemical_formula_sum   'Cs2 Eu2 Dy4 Te8'
_cell_volume   563.75932339
_cell_formula_units_Z   2
loop_
 _symmetry_equiv_pos_site_id
 _symmetry_equiv_pos_as_xyz
  1  'x, y, z'
loop_
 _atom_site_type_symbol
 _atom_site_label
 _atom_site_symmetry_multiplicity
 _atom_site_fract_x
 _atom_site_fract_y
 _atom_site_fract_z
 _atom_site_occupancy
  Cs  Cs0  1  0.666667  0.333333  0.250000  1
  Cs  Cs1  1  0.333333  0.666667  0.750000  1
  Eu  Eu2  1  0.000000  0.000000  0.500000  1
  Eu  Eu3  1  0.000000  0.000000  0.000000  1
  Dy  Dy4  1  0.666667  0.333333  0.614574  1
  Dy  Dy5  1  0.666667  0.333333  0.885426  1
  Dy  Dy6  1  0.333333  0.666667  0.385426  1
  Dy  Dy7  1  0.333333  0.666667  0.114574  1
  Te  Te8  1  0.000000  0.000000  0.165968  1
  Te  Te9  1  0.666667  0.333333  0.440396  1
  Te  Te10  1  0.000000  0.000000  0.665968  1
  Te  Te11  1  0.333333  0.666667  0.940396  1
  Te  Te12  1  0.333333  0.666667  0.559604  1
  Te  Te13  1  0.000000  0.000000  0.334032  1
  Te  Te14  1  0.666667  0.333333  0.059604  1
  Te  Te15  1  0.000000  0.000000  0.834032  1
