# generated using pymatgen
data_La2Th6Zn8IrRh7
_symmetry_space_group_name_H-M   'P 1'
_cell_length_a   3.97611500
_cell_length_b   7.51733128
_cell_length_c   16.65791962
_cell_angle_alpha   90.03131699
_cell_angle_beta   90.00000000
_cell_angle_gamma   90.00000000
_symmetry_Int_Tables_number   1
_chemical_formula_structural   La2Th6Zn8IrRh7
_chemical_formula_sum   'La2 Th6 Zn8 Ir1 Rh7'
_cell_volume   497.90137286
_cell_formula_units_Z   1
loop_
 _symmetry_equiv_pos_site_id
 _symmetry_equiv_pos_as_xyz
  1  'x, y, z'
loop_
 _atom_site_type_symbol
 _atom_site_label
 _atom_site_symmetry_multiplicity
 _atom_site_fract_x
 _atom_site_fract_y
 _atom_site_fract_z
 _atom_site_occupancy
  La  La0  1  0.750000  0.447313  0.214779  1
  La  La1  1  0.750000  0.947633  0.285239  1
  Th  Th2  1  0.750000  0.326091  0.440407  1
  Th  Th3  1  0.250000  0.056321  0.715492  1
  Th  Th4  1  0.250000  0.554222  0.784832  1
  Th  Th5  1  0.250000  0.671924  0.560816  1
  Th  Th6  1  0.750000  0.825915  0.059686  1
  Th  Th7  1  0.250000  0.172211  0.939035  1
  Zn  Zn8  1  0.250000  0.119323  0.150888  1
  Zn  Zn9  1  0.250000  0.994058  0.440968  1
  Zn  Zn10  1  0.750000  0.881290  0.847189  1
  Zn  Zn11  1  0.750000  0.003292  0.560327  1
  Zn  Zn12  1  0.250000  0.494062  0.059014  1
  Zn  Zn13  1  0.750000  0.381447  0.652658  1
  Zn  Zn14  1  0.750000  0.503275  0.939770  1
  Zn  Zn15  1  0.250000  0.619505  0.349162  1
  Ir  Ir16  1  0.750000  0.255115  0.813485  1
  Rh  Rh17  1  0.250000  0.252653  0.322194  1
  Rh  Rh18  1  0.250000  0.752821  0.937161  1
  Rh  Rh19  1  0.250000  0.253143  0.562590  1
  Rh  Rh20  1  0.250000  0.752757  0.177824  1
  Rh  Rh21  1  0.750000  0.740469  0.441825  1
  Rh  Rh22  1  0.750000  0.241004  0.058689  1
  Rh  Rh23  1  0.750000  0.754152  0.685971  1
