# generated using pymatgen
data_YbDy(ThPt2)2
_symmetry_space_group_name_H-M   'P 1'
_cell_length_a   4.54101900
_cell_length_b   5.75267080
_cell_length_c   7.22447230
_cell_angle_alpha   88.43228477
_cell_angle_beta   90.00000000
_cell_angle_gamma   90.00000000
_symmetry_Int_Tables_number   1
_chemical_formula_structural   YbDy(ThPt2)2
_chemical_formula_sum   'Yb1 Dy1 Th2 Pt4'
_cell_volume   188.65415712
_cell_formula_units_Z   1
loop_
 _symmetry_equiv_pos_site_id
 _symmetry_equiv_pos_as_xyz
  1  'x, y, z'
loop_
 _atom_site_type_symbol
 _atom_site_label
 _atom_site_symmetry_multiplicity
 _atom_site_fract_x
 _atom_site_fract_y
 _atom_site_fract_z
 _atom_site_occupancy
  Yb  Yb0  1  0.250000  0.356036  0.680961  1
  Dy  Dy1  1  0.750000  0.640985  0.320400  1
  Th  Th2  1  0.250000  0.146557  0.184707  1
  Th  Th3  1  0.750000  0.853188  0.814875  1
  Pt  Pt4  1  0.750000  0.156483  0.450486  1
  Pt  Pt5  1  0.250000  0.843522  0.540981  1
  Pt  Pt6  1  0.250000  0.668005  0.047881  1
  Pt  Pt7  1  0.750000  0.335223  0.959710  1
