# generated using pymatgen
data_La4Pr11Th(CdIr)4
_symmetry_space_group_name_H-M   'P 1'
_cell_length_a   10.04100367
_cell_length_b   10.07386989
_cell_length_c   10.07387071
_cell_angle_alpha   60.02594400
_cell_angle_beta   60.22502780
_cell_angle_gamma   60.22501856
_symmetry_Int_Tables_number   1
_chemical_formula_structural   La4Pr11Th(CdIr)4
_chemical_formula_sum   'La4 Pr11 Th1 Cd4 Ir4'
_cell_volume   723.11818322
_cell_formula_units_Z   1
loop_
 _symmetry_equiv_pos_site_id
 _symmetry_equiv_pos_as_xyz
  1  'x, y, z'
loop_
 _atom_site_type_symbol
 _atom_site_label
 _atom_site_symmetry_multiplicity
 _atom_site_fract_x
 _atom_site_fract_y
 _atom_site_fract_z
 _atom_site_occupancy
  La  La0  1  0.347857  0.347350  0.957157  1
  La  La1  1  0.347857  0.957157  0.347350  1
  La  La2  1  0.955986  0.348604  0.348604  1
  La  La3  1  0.811905  0.188416  0.188416  1
  Pr  Pr4  1  0.189327  0.809861  0.809861  1
  Pr  Pr5  1  0.191312  0.808642  0.189825  1
  Pr  Pr6  1  0.809386  0.189579  0.808053  1
  Pr  Pr7  1  0.191312  0.189825  0.808642  1
  Pr  Pr8  1  0.809386  0.808053  0.189579  1
  Pr  Pr9  1  0.939923  0.562567  0.562567  1
  Pr  Pr10  1  0.561136  0.937803  0.937803  1
  Pr  Pr11  1  0.561571  0.939956  0.562576  1
  Pr  Pr12  1  0.938701  0.561537  0.937668  1
  Pr  Pr13  1  0.561571  0.562576  0.939956  1
  Pr  Pr14  1  0.938701  0.937668  0.561537  1
  Th  Th15  1  0.343878  0.345349  0.345349  1
  Cd  Cd16  1  0.579578  0.579651  0.579651  1
  Cd  Cd17  1  0.578046  0.579872  0.259400  1
  Cd  Cd18  1  0.578046  0.259400  0.579872  1
  Cd  Cd19  1  0.259465  0.578713  0.578713  1
  Ir  Ir20  1  0.138244  0.143601  0.143601  1
  Ir  Ir21  1  0.147607  0.146376  0.569343  1
  Ir  Ir22  1  0.147607  0.569343  0.146376  1
  Ir  Ir23  1  0.571593  0.148097  0.148097  1
