# generated using pymatgen
data_Tb2Cu2P3Pd
_symmetry_space_group_name_H-M   'P 1'
_cell_length_a   3.89727800
_cell_length_b   10.70050900
_cell_length_c   13.08736400
_cell_angle_alpha   90.00000000
_cell_angle_beta   90.00000000
_cell_angle_gamma   90.00000000
_symmetry_Int_Tables_number   1
_chemical_formula_structural   Tb2Cu2P3Pd
_chemical_formula_sum   'Tb8 Cu8 P12 Pd4'
_cell_volume   545.78048660
_cell_formula_units_Z   4
loop_
 _symmetry_equiv_pos_site_id
 _symmetry_equiv_pos_as_xyz
  1  'x, y, z'
loop_
 _atom_site_type_symbol
 _atom_site_label
 _atom_site_symmetry_multiplicity
 _atom_site_fract_x
 _atom_site_fract_y
 _atom_site_fract_z
 _atom_site_occupancy
  Tb  Tb0  1  0.250000  0.931593  0.791329  1
  Tb  Tb1  1  0.750000  0.431593  0.708671  1
  Tb  Tb2  1  0.250000  0.568407  0.291329  1
  Tb  Tb3  1  0.750000  0.068407  0.208671  1
  Tb  Tb4  1  0.250000  0.841663  0.502442  1
  Tb  Tb5  1  0.750000  0.341663  0.997558  1
  Tb  Tb6  1  0.250000  0.658337  0.002442  1
  Tb  Tb7  1  0.750000  0.158337  0.497558  1
  Cu  Cu8  1  0.250000  0.270862  0.329465  1
  Cu  Cu9  1  0.750000  0.770862  0.170535  1
  Cu  Cu10  1  0.250000  0.229138  0.829465  1
  Cu  Cu11  1  0.750000  0.729138  0.670535  1
  Cu  Cu12  1  0.250000  0.862825  0.280147  1
  Cu  Cu13  1  0.750000  0.362825  0.219853  1
  Cu  Cu14  1  0.250000  0.637175  0.780147  1
  Cu  Cu15  1  0.750000  0.137175  0.719853  1
  P  P16  1  0.250000  0.236076  0.648211  1
  P  P17  1  0.750000  0.736076  0.851789  1
  P  P18  1  0.250000  0.263924  0.148211  1
  P  P19  1  0.750000  0.763924  0.351789  1
  P  P20  1  0.250000  0.604756  0.604101  1
  P  P21  1  0.750000  0.104756  0.895899  1
  P  P22  1  0.250000  0.895244  0.104101  1
  P  P23  1  0.750000  0.395244  0.395899  1
  P  P24  1  0.250000  0.056738  0.370260  1
  P  P25  1  0.750000  0.556738  0.129740  1
  P  P26  1  0.250000  0.443262  0.870260  1
  P  P27  1  0.750000  0.943262  0.629740  1
  Pd  Pd28  1  0.250000  0.396214  0.511918  1
  Pd  Pd29  1  0.750000  0.896214  0.988082  1
  Pd  Pd30  1  0.250000  0.103786  0.011918  1
  Pd  Pd31  1  0.750000  0.603786  0.488082  1
