# generated using pymatgen
data_Tb16In4OsPd3
_symmetry_space_group_name_H-M   'P 1'
_cell_length_a   9.73503868
_cell_length_b   9.78796032
_cell_length_c   9.73503800
_cell_angle_alpha   60.17869754
_cell_angle_beta   60.00000231
_cell_angle_gamma   60.17869483
_symmetry_Int_Tables_number   1
_chemical_formula_structural   Tb16In4OsPd3
_chemical_formula_sum   'Tb16 In4 Os1 Pd3'
_cell_volume   657.68858318
_cell_formula_units_Z   1
loop_
 _symmetry_equiv_pos_site_id
 _symmetry_equiv_pos_as_xyz
  1  'x, y, z'
loop_
 _atom_site_type_symbol
 _atom_site_label
 _atom_site_symmetry_multiplicity
 _atom_site_fract_x
 _atom_site_fract_y
 _atom_site_fract_z
 _atom_site_occupancy
  Tb  Tb0  1  0.809566  0.810119  0.190158  1
  Tb  Tb1  1  0.810753  0.195541  0.810753  1
  Tb  Tb2  1  0.182954  0.195541  0.810753  1
  Tb  Tb3  1  0.647596  0.057213  0.647596  1
  Tb  Tb4  1  0.064642  0.061479  0.436940  1
  Tb  Tb5  1  0.442877  0.435853  0.060635  1
  Tb  Tb6  1  0.651503  0.643441  0.651503  1
  Tb  Tb7  1  0.810753  0.195541  0.182954  1
  Tb  Tb8  1  0.190158  0.810119  0.809566  1
  Tb  Tb9  1  0.053554  0.643441  0.651503  1
  Tb  Tb10  1  0.436940  0.061479  0.064642  1
  Tb  Tb11  1  0.436940  0.061479  0.436940  1
  Tb  Tb12  1  0.060635  0.435853  0.060635  1
  Tb  Tb13  1  0.651503  0.643441  0.053554  1
  Tb  Tb14  1  0.190158  0.810119  0.190158  1
  Tb  Tb15  1  0.060635  0.435853  0.442877  1
  In  In16  1  0.417310  0.416788  0.417310  1
  In  In17  1  0.417310  0.416788  0.748591  1
  In  In18  1  0.416517  0.750447  0.416517  1
  In  In19  1  0.748591  0.416788  0.417310  1
  Os  Os20  1  0.856786  0.429642  0.856786  1
  Pd  Pd21  1  0.856075  0.857678  0.856075  1
  Pd  Pd22  1  0.856075  0.857678  0.430172  1
  Pd  Pd23  1  0.430172  0.857678  0.856075  1
