# generated using pymatgen
data_Al4V2Si5O18
_symmetry_space_group_name_H-M   'P 1'
_cell_length_a   9.39334595
_cell_length_b   9.92464102
_cell_length_c   10.03967200
_cell_angle_alpha   60.37797219
_cell_angle_beta   90.02577697
_cell_angle_gamma   90.05230966
_symmetry_Int_Tables_number   1
_chemical_formula_structural   Al4V2Si5O18
_chemical_formula_sum   'Al8 V4 Si10 O36'
_cell_volume   813.62939108
_cell_formula_units_Z   2
loop_
 _symmetry_equiv_pos_site_id
 _symmetry_equiv_pos_as_xyz
  1  'x, y, z'
loop_
 _atom_site_type_symbol
 _atom_site_label
 _atom_site_symmetry_multiplicity
 _atom_site_fract_x
 _atom_site_fract_y
 _atom_site_fract_z
 _atom_site_occupancy
  Al  Al0  1  0.499990  0.257553  0.097548  1
  Al  Al1  1  0.000011  0.644900  0.097546  1
  Al  Al2  1  0.249721  0.000072  0.500010  1
  Al  Al3  1  0.750401  0.999678  0.500306  1
  Al  Al4  1  0.250278  0.499917  0.500009  1
  Al  Al5  1  0.749599  0.500016  0.500307  1
  Al  Al6  1  0.999859  0.355050  0.902231  1
  Al  Al7  1  0.500142  0.742719  0.902233  1
  V  V8  1  0.750001  0.662858  0.674285  1
  V  V9  1  0.249998  0.337040  0.325923  1
  V  V10  1  0.750003  0.337035  0.325926  1
  V  V11  1  0.249995  0.663082  0.673837  1
  Si  Si12  1  0.250002  0.500082  0.999836  1
  Si  Si13  1  0.749999  0.500100  0.999800  1
  Si  Si14  1  0.999872  0.098178  0.269095  1
  Si  Si15  1  0.500128  0.632725  0.269097  1
  Si  Si16  1  0.999968  0.730331  0.378573  1
  Si  Si17  1  0.500031  0.891095  0.378574  1
  Si  Si18  1  0.500187  0.109258  0.621380  1
  Si  Si19  1  0.999813  0.269363  0.621379  1
  Si  Si20  1  0.499873  0.367394  0.730983  1
  Si  Si21  1  0.000126  0.901622  0.730985  1
  O  O22  1  0.999476  0.203415  0.087742  1
  O  O23  1  0.500524  0.708839  0.087745  1
  O  O24  1  0.348980  0.353915  0.120707  1
  O  O25  1  0.651165  0.353773  0.120695  1
  O  O26  1  0.151024  0.525381  0.120704  1
  O  O27  1  0.848833  0.525534  0.120693  1
  O  O28  1  0.500737  0.066083  0.240218  1
  O  O29  1  0.999265  0.693698  0.240218  1
  O  O30  1  0.499912  0.762113  0.324197  1
  O  O31  1  0.000088  0.913689  0.324196  1
  O  O32  1  0.142137  0.131289  0.345915  1
  O  O33  1  0.857692  0.131088  0.346028  1
  O  O34  1  0.357863  0.522793  0.345916  1
  O  O35  1  0.642307  0.522882  0.346032  1
  O  O36  1  0.142375  0.651890  0.486244  1
  O  O37  1  0.858004  0.651609  0.487070  1
  O  O38  1  0.357620  0.861863  0.486240  1
  O  O39  1  0.641997  0.861322  0.487067  1
  O  O40  1  0.357963  0.138484  0.513371  1
  O  O41  1  0.642347  0.138133  0.513412  1
  O  O42  1  0.142033  0.348148  0.513364  1
  O  O43  1  0.857656  0.348459  0.513408  1
  O  O44  1  0.357383  0.476767  0.654589  1
  O  O45  1  0.642054  0.477533  0.654341  1
  O  O46  1  0.142615  0.868641  0.654593  1
  O  O47  1  0.857946  0.868125  0.654342  1
  O  O48  1  0.999235  0.086510  0.673863  1
  O  O49  1  0.500764  0.239628  0.673863  1
  O  O50  1  0.999991  0.304023  0.761007  1
  O  O51  1  0.500010  0.934970  0.761013  1
  O  O52  1  0.151160  0.474472  0.879038  1
  O  O53  1  0.848988  0.474673  0.879091  1
  O  O54  1  0.348843  0.646491  0.879033  1
  O  O55  1  0.651011  0.646236  0.879089  1
  O  O56  1  0.499689  0.289654  0.912539  1
  O  O57  1  0.000310  0.797809  0.912539  1
