# generated using pymatgen
data_Er12OsPd2Rh
_symmetry_space_group_name_H-M   'P 1'
_cell_length_a   6.35943267
_cell_length_b   7.11380285
_cell_length_c   9.32385100
_cell_angle_alpha   90.00000000
_cell_angle_beta   90.00000000
_cell_angle_gamma   89.72243812
_symmetry_Int_Tables_number   1
_chemical_formula_structural   Er12OsPd2Rh
_chemical_formula_sum   'Er12 Os1 Pd2 Rh1'
_cell_volume   421.80374126
_cell_formula_units_Z   1
loop_
 _symmetry_equiv_pos_site_id
 _symmetry_equiv_pos_as_xyz
  1  'x, y, z'
loop_
 _atom_site_type_symbol
 _atom_site_label
 _atom_site_symmetry_multiplicity
 _atom_site_fract_x
 _atom_site_fract_y
 _atom_site_fract_z
 _atom_site_occupancy
  Er  Er0  1  0.671371  0.184818  0.054934  1
  Er  Er1  1  0.179002  0.313587  0.939381  1
  Er  Er2  1  0.829776  0.677795  0.438000  1
  Er  Er3  1  0.329105  0.823536  0.561832  1
  Er  Er4  1  0.329105  0.823536  0.938168  1
  Er  Er5  1  0.829776  0.677795  0.062000  1
  Er  Er6  1  0.179002  0.313587  0.560619  1
  Er  Er7  1  0.671371  0.184818  0.445066  1
  Er  Er8  1  0.872158  0.974488  0.750000  1
  Er  Er9  1  0.363608  0.528200  0.250000  1
  Er  Er10  1  0.621066  0.463969  0.750000  1
  Er  Er11  1  0.121243  0.034092  0.250000  1
  Os  Os12  1  0.456568  0.112048  0.750000  1
  Pd  Pd13  1  0.047713  0.610644  0.750000  1
  Pd  Pd14  1  0.552002  0.891221  0.250000  1
  Rh  Rh15  1  0.947134  0.385865  0.250000  1
