# generated using pymatgen
data_Dy4Lu16ZnBi11
_symmetry_space_group_name_H-M   'P 1'
_cell_length_a   8.10760562
_cell_length_b   9.35198400
_cell_length_c   11.84284750
_cell_angle_alpha   90.00000000
_cell_angle_beta   90.29293487
_cell_angle_gamma   90.00000000
_symmetry_Int_Tables_number   1
_chemical_formula_structural   Dy4Lu16ZnBi11
_chemical_formula_sum   'Dy4 Lu16 Zn1 Bi11'
_cell_volume   897.93899310
_cell_formula_units_Z   1
loop_
 _symmetry_equiv_pos_site_id
 _symmetry_equiv_pos_as_xyz
  1  'x, y, z'
loop_
 _atom_site_type_symbol
 _atom_site_label
 _atom_site_symmetry_multiplicity
 _atom_site_fract_x
 _atom_site_fract_y
 _atom_site_fract_z
 _atom_site_occupancy
  Dy  Dy0  1  0.313752  0.250000  0.218616  1
  Dy  Dy1  1  0.811415  0.250000  0.282848  1
  Dy  Dy2  1  0.676815  0.750000  0.788557  1
  Dy  Dy3  1  0.189268  0.750000  0.720363  1
  Lu  Lu4  1  0.354882  0.750000  0.206318  1
  Lu  Lu5  1  0.851961  0.750000  0.282688  1
  Lu  Lu6  1  0.648624  0.250000  0.781852  1
  Lu  Lu7  1  0.150382  0.250000  0.718379  1
  Lu  Lu8  1  0.682310  0.573275  0.056096  1
  Lu  Lu9  1  0.192456  0.932858  0.438298  1
  Lu  Lu10  1  0.309860  0.049901  0.940927  1
  Lu  Lu11  1  0.807614  0.433010  0.560445  1
  Lu  Lu12  1  0.309860  0.450099  0.940927  1
  Lu  Lu13  1  0.807614  0.066990  0.560445  1
  Lu  Lu14  1  0.682310  0.926725  0.056096  1
  Lu  Lu15  1  0.192456  0.567142  0.438298  1
  Lu  Lu16  1  0.477797  0.250000  0.490206  1
  Lu  Lu17  1  0.981116  0.250000  0.009872  1
  Lu  Lu18  1  0.522437  0.750000  0.510274  1
  Lu  Lu19  1  0.035952  0.750000  0.990690  1
  Zn  Zn20  1  0.405201  0.750000  0.962079  1
  Bi  Bi21  1  0.902455  0.750000  0.542510  1
  Bi  Bi22  1  0.597572  0.250000  0.040818  1
  Bi  Bi23  1  0.097725  0.250000  0.459221  1
  Bi  Bi24  1  0.564091  0.994521  0.326718  1
  Bi  Bi25  1  0.062818  0.504722  0.175146  1
  Bi  Bi26  1  0.435939  0.495426  0.674442  1
  Bi  Bi27  1  0.936236  0.004878  0.825282  1
  Bi  Bi28  1  0.435939  0.004574  0.674442  1
  Bi  Bi29  1  0.936236  0.495122  0.825282  1
  Bi  Bi30  1  0.564091  0.505479  0.326718  1
  Bi  Bi31  1  0.062818  0.995278  0.175146  1
