# generated using pymatgen
data_Sm2Fe2Si2C
_symmetry_space_group_name_H-M   'P 1'
_cell_length_a   5.71370937
_cell_length_b   5.71370833
_cell_length_c   6.87465120
_cell_angle_alpha   53.62716244
_cell_angle_beta   53.62716741
_cell_angle_gamma   40.63059404
_symmetry_Int_Tables_number   1
_chemical_formula_structural   Sm2Fe2Si2C
_chemical_formula_sum   'Sm2 Fe2 Si2 C1'
_cell_volume   113.21421431
_cell_formula_units_Z   1
loop_
 _symmetry_equiv_pos_site_id
 _symmetry_equiv_pos_as_xyz
  1  'x, y, z'
loop_
 _atom_site_type_symbol
 _atom_site_label
 _atom_site_symmetry_multiplicity
 _atom_site_fract_x
 _atom_site_fract_y
 _atom_site_fract_z
 _atom_site_occupancy
  Sm  Sm0  1  0.440251  0.440251  0.297258  1
  Sm  Sm1  1  0.559749  0.559749  0.702742  1
  Fe  Fe2  1  0.801616  0.801616  0.091729  1
  Fe  Fe3  1  0.198384  0.198384  0.908271  1
  Si  Si4  1  0.831521  0.831521  0.728239  1
  Si  Si5  1  0.168479  0.168479  0.271761  1
  C  C6  1  0.000000  0.000000  0.000000  1
