# generated using pymatgen
data_Sr3CaCoO6
_symmetry_space_group_name_H-M   'P 1'
_cell_length_a   6.73790738
_cell_length_b   6.77901761
_cell_length_c   6.76973968
_cell_angle_alpha   91.47655237
_cell_angle_beta   91.44254086
_cell_angle_gamma   91.42190229
_symmetry_Int_Tables_number   1
_chemical_formula_structural   Sr3CaCoO6
_chemical_formula_sum   'Sr6 Ca2 Co2 O12'
_cell_volume   308.91632337
_cell_formula_units_Z   2
loop_
 _symmetry_equiv_pos_site_id
 _symmetry_equiv_pos_as_xyz
  1  'x, y, z'
loop_
 _atom_site_type_symbol
 _atom_site_label
 _atom_site_symmetry_multiplicity
 _atom_site_fract_x
 _atom_site_fract_y
 _atom_site_fract_z
 _atom_site_occupancy
  Sr  Sr0  1  0.883916  0.249903  0.616302  1
  Sr  Sr1  1  0.249574  0.616518  0.883351  1
  Sr  Sr2  1  0.616250  0.883230  0.250051  1
  Sr  Sr3  1  0.750303  0.383892  0.116081  1
  Sr  Sr4  1  0.383480  0.116580  0.749547  1
  Sr  Sr5  1  0.116626  0.750315  0.383219  1
  Ca  Ca6  1  0.749524  0.748235  0.752290  1
  Ca  Ca7  1  0.250772  0.252431  0.247035  1
  Co  Co8  1  0.999704  0.000404  0.000415  1
  Co  Co9  1  0.500345  0.499526  0.500226  1
  O  O10  1  0.227204  0.421857  0.549435  1
  O  O11  1  0.420512  0.552559  0.224063  1
  O  O12  1  0.550745  0.225042  0.420332  1
  O  O13  1  0.919491  0.724267  0.052694  1
  O  O14  1  0.725696  0.049616  0.923403  1
  O  O15  1  0.049745  0.920829  0.726115  1
  O  O16  1  0.773826  0.577005  0.450775  1
  O  O17  1  0.580275  0.447417  0.775629  1
  O  O18  1  0.449066  0.773675  0.580377  1
  O  O19  1  0.079545  0.276558  0.947303  1
  O  O20  1  0.273162  0.950474  0.077411  1
  O  O21  1  0.950241  0.079667  0.273947  1
