# generated using pymatgen
data_HoEr7Sc11Si16Os
_symmetry_space_group_name_H-M   'P 1'
_cell_length_a   6.97668901
_cell_length_b   7.32385130
_cell_length_c   13.80830506
_cell_angle_alpha   90.00963706
_cell_angle_beta   90.00376005
_cell_angle_gamma   90.11223204
_symmetry_Int_Tables_number   1
_chemical_formula_structural   HoEr7Sc11Si16Os
_chemical_formula_sum   'Ho1 Er7 Sc11 Si16 Os1'
_cell_volume   705.55100593
_cell_formula_units_Z   1
loop_
 _symmetry_equiv_pos_site_id
 _symmetry_equiv_pos_as_xyz
  1  'x, y, z'
loop_
 _atom_site_type_symbol
 _atom_site_label
 _atom_site_symmetry_multiplicity
 _atom_site_fract_x
 _atom_site_fract_y
 _atom_site_fract_z
 _atom_site_occupancy
  Ho  Ho0  1  0.012498  0.178771  0.092468  1
  Er  Er1  1  0.992855  0.818589  0.900851  1
  Er  Er2  1  0.489465  0.673159  0.903002  1
  Er  Er3  1  0.992860  0.818583  0.599109  1
  Er  Er4  1  0.511803  0.323019  0.094338  1
  Er  Er5  1  0.012548  0.178827  0.407454  1
  Er  Er6  1  0.511856  0.322970  0.405693  1
  Er  Er7  1  0.489480  0.673127  0.596957  1
  Sc  Sc8  1  0.843396  0.496385  0.250030  1
  Sc  Sc9  1  0.343650  0.003676  0.250033  1
  Sc  Sc10  1  0.655988  0.994607  0.750002  1
  Sc  Sc11  1  0.324454  0.175548  0.627497  1
  Sc  Sc12  1  0.673243  0.825021  0.373956  1
  Sc  Sc13  1  0.173404  0.673073  0.377034  1
  Sc  Sc14  1  0.673246  0.824977  0.126064  1
  Sc  Sc15  1  0.823262  0.331729  0.628721  1
  Sc  Sc16  1  0.324493  0.175510  0.872476  1
  Sc  Sc17  1  0.823222  0.331786  0.871269  1
  Sc  Sc18  1  0.173414  0.673038  0.122985  1
  Si  Si19  1  0.026293  0.116650  0.749993  1
  Si  Si20  1  0.975234  0.887305  0.250037  1
  Si  Si21  1  0.470757  0.613664  0.250005  1
  Si  Si22  1  0.511715  0.396719  0.749996  1
  Si  Si23  1  0.285276  0.856963  0.750005  1
  Si  Si24  1  0.718018  0.131808  0.250074  1
  Si  Si25  1  0.216108  0.369262  0.250071  1
  Si  Si26  1  0.794718  0.631708  0.749999  1
  Si  Si27  1  0.156371  0.466462  0.550084  1
  Si  Si28  1  0.842414  0.536182  0.464063  1
  Si  Si29  1  0.345240  0.964779  0.462832  1
  Si  Si30  1  0.842375  0.536314  0.035907  1
  Si  Si31  1  0.659295  0.034413  0.539660  1
  Si  Si32  1  0.156387  0.466570  0.949885  1
  Si  Si33  1  0.659219  0.034390  0.960330  1
  Si  Si34  1  0.345442  0.964691  0.037132  1
  Os  Os35  1  0.150004  0.499725  0.749988  1
