# generated using pymatgen
data_Fe3Tc10NiAs24
_symmetry_space_group_name_H-M   'P 1'
_cell_length_a   3.11972100
_cell_length_b   12.85039297
_cell_length_c   15.85160989
_cell_angle_alpha   90.12110224
_cell_angle_beta   90.00000000
_cell_angle_gamma   90.00000000
_symmetry_Int_Tables_number   1
_chemical_formula_structural   Fe3Tc10NiAs24
_chemical_formula_sum   'Fe3 Tc10 Ni1 As24'
_cell_volume   635.48392725
_cell_formula_units_Z   1
loop_
 _symmetry_equiv_pos_site_id
 _symmetry_equiv_pos_as_xyz
  1  'x, y, z'
loop_
 _atom_site_type_symbol
 _atom_site_label
 _atom_site_symmetry_multiplicity
 _atom_site_fract_x
 _atom_site_fract_y
 _atom_site_fract_z
 _atom_site_occupancy
  Fe  Fe0  1  0.000000  0.374811  0.842898  1
  Fe  Fe1  1  0.000000  0.626231  0.157370  1
  Fe  Fe2  1  0.500000  0.875420  0.655862  1
  Tc  Tc3  1  0.000000  0.184314  0.602376  1
  Tc  Tc4  1  0.000000  0.813498  0.396802  1
  Tc  Tc5  1  0.500000  0.684379  0.897020  1
  Tc  Tc6  1  0.500000  0.315883  0.101545  1
  Tc  Tc7  1  0.000000  0.585815  0.760078  1
  Tc  Tc8  1  0.000000  0.414300  0.238949  1
  Tc  Tc9  1  0.500000  0.084121  0.740213  1
  Tc  Tc10  1  0.500000  0.917146  0.262037  1
  Tc  Tc11  1  0.000000  0.000346  0.000988  1
  Tc  Tc12  1  0.500000  0.499087  0.499878  1
  Ni  Ni13  1  0.500000  0.127488  0.345919  1
  As  As14  1  0.000000  0.596161  0.596723  1
  As  As15  1  0.000000  0.403436  0.402689  1
  As  As16  1  0.500000  0.096253  0.903407  1
  As  As17  1  0.500000  0.902544  0.097342  1
  As  As18  1  0.000000  0.932302  0.760709  1
  As  As19  1  0.000000  0.065847  0.237243  1
  As  As20  1  0.500000  0.432411  0.739667  1
  As  As21  1  0.500000  0.567804  0.260352  1
  As  As22  1  0.000000  0.770804  0.242135  1
  As  As23  1  0.000000  0.229607  0.757973  1
  As  As24  1  0.500000  0.269977  0.254407  1
  As  As25  1  0.500000  0.730706  0.742373  1
  As  As26  1  0.000000  0.845296  0.905888  1
  As  As27  1  0.000000  0.156920  0.091433  1
  As  As28  1  0.500000  0.345436  0.594831  1
  As  As29  1  0.500000  0.653989  0.406508  1
  As  As30  1  0.000000  0.531682  0.920339  1
  As  As31  1  0.000000  0.469346  0.078948  1
  As  As32  1  0.500000  0.032485  0.580627  1
  As  As33  1  0.500000  0.963832  0.422242  1
  As  As34  1  0.000000  0.792563  0.560444  1
  As  As35  1  0.000000  0.208140  0.442901  1
  As  As36  1  0.500000  0.293578  0.938239  1
  As  As37  1  0.500000  0.706043  0.060645  1
