# generated using pymatgen
data_Dy4Zn2MoOs5
_symmetry_space_group_name_H-M   'P 1'
_cell_length_a   5.34248443
_cell_length_b   5.31370238
_cell_length_c   8.88854000
_cell_angle_alpha   90.00000000
_cell_angle_beta   90.00000000
_cell_angle_gamma   118.26485144
_symmetry_Int_Tables_number   1
_chemical_formula_structural   Dy4Zn2MoOs5
_chemical_formula_sum   'Dy4 Zn2 Mo1 Os5'
_cell_volume   222.24523576
_cell_formula_units_Z   1
loop_
 _symmetry_equiv_pos_site_id
 _symmetry_equiv_pos_as_xyz
  1  'x, y, z'
loop_
 _atom_site_type_symbol
 _atom_site_label
 _atom_site_symmetry_multiplicity
 _atom_site_fract_x
 _atom_site_fract_y
 _atom_site_fract_z
 _atom_site_occupancy
  Dy  Dy0  1  0.323132  0.667151  0.435894  1
  Dy  Dy1  1  0.656488  0.327834  0.558198  1
  Dy  Dy2  1  0.656488  0.327834  0.941802  1
  Dy  Dy3  1  0.323132  0.667151  0.064106  1
  Zn  Zn4  1  0.195580  0.840131  0.750000  1
  Zn  Zn5  1  0.188868  0.349284  0.750000  1
  Mo  Mo6  1  0.836831  0.162881  0.250000  1
  Os  Os7  1  0.973055  0.992040  0.503811  1
  Os  Os8  1  0.973055  0.992040  0.996189  1
  Os  Os9  1  0.825898  0.655869  0.250000  1
  Os  Os10  1  0.351842  0.174611  0.250000  1
  Os  Os11  1  0.695630  0.843174  0.750000  1
