# generated using pymatgen
data_TaNb2(AlRu2)3
_symmetry_space_group_name_H-M   'P 1'
_cell_length_a   4.38692200
_cell_length_b   6.20154500
_cell_length_c   13.15438400
_cell_angle_alpha   90.00000000
_cell_angle_beta   90.00000000
_cell_angle_gamma   90.00000000
_symmetry_Int_Tables_number   1
_chemical_formula_structural   TaNb2(AlRu2)3
_chemical_formula_sum   'Ta2 Nb4 Al6 Ru12'
_cell_volume   357.87414842
_cell_formula_units_Z   2
loop_
 _symmetry_equiv_pos_site_id
 _symmetry_equiv_pos_as_xyz
  1  'x, y, z'
loop_
 _atom_site_type_symbol
 _atom_site_label
 _atom_site_symmetry_multiplicity
 _atom_site_fract_x
 _atom_site_fract_y
 _atom_site_fract_z
 _atom_site_occupancy
  Ta  Ta0  1  0.000192  0.500000  0.666600  1
  Ta  Ta1  1  0.500192  0.000000  0.833400  1
  Nb  Nb2  1  0.999999  0.500000  0.000131  1
  Nb  Nb3  1  0.499799  0.000000  0.166725  1
  Nb  Nb4  1  0.999799  0.500000  0.333274  1
  Nb  Nb5  1  0.499999  0.000000  0.499869  1
  Al  Al6  1  0.999999  0.000000  0.000036  1
  Al  Al7  1  0.499777  0.500000  0.166710  1
  Al  Al8  1  0.999777  0.000000  0.333289  1
  Al  Al9  1  0.499999  0.500000  0.499964  1
  Al  Al10  1  0.000222  0.000000  0.666673  1
  Al  Al11  1  0.500222  0.500000  0.833326  1
  Ru  Ru12  1  0.500001  0.249594  0.999565  1
  Ru  Ru13  1  0.500001  0.750406  0.999565  1
  Ru  Ru14  1  0.999819  0.249968  0.166618  1
  Ru  Ru15  1  0.999819  0.750031  0.166618  1
  Ru  Ru16  1  0.499819  0.250031  0.333382  1
  Ru  Ru17  1  0.499819  0.749968  0.333382  1
  Ru  Ru18  1  0.000001  0.250405  0.500435  1
  Ru  Ru19  1  0.000001  0.749594  0.500435  1
  Ru  Ru20  1  0.500186  0.250526  0.667030  1
  Ru  Ru21  1  0.500186  0.749473  0.667030  1
  Ru  Ru22  1  0.000186  0.249473  0.832970  1
  Ru  Ru23  1  0.000186  0.750526  0.832970  1
