# generated using pymatgen
data_Lu9Hf7(Si4Mo)4
_symmetry_space_group_name_H-M   'P 1'
_cell_length_a   7.13220230
_cell_length_b   7.12371966
_cell_length_c   12.98473530
_cell_angle_alpha   89.87100064
_cell_angle_beta   90.06545578
_cell_angle_gamma   89.97829376
_symmetry_Int_Tables_number   1
_chemical_formula_structural   Lu9Hf7(Si4Mo)4
_chemical_formula_sum   'Lu9 Hf7 Si16 Mo4'
_cell_volume   659.72381019
_cell_formula_units_Z   1
loop_
 _symmetry_equiv_pos_site_id
 _symmetry_equiv_pos_as_xyz
  1  'x, y, z'
loop_
 _atom_site_type_symbol
 _atom_site_label
 _atom_site_symmetry_multiplicity
 _atom_site_fract_x
 _atom_site_fract_y
 _atom_site_fract_z
 _atom_site_occupancy
  Lu  Lu0  1  0.498484  0.154870  0.533585  1
  Lu  Lu1  1  0.500205  0.846008  0.033494  1
  Lu  Lu2  1  0.654298  0.000939  0.285537  1
  Lu  Lu3  1  0.344825  0.998037  0.782684  1
  Lu  Lu4  1  0.846872  0.501053  0.964434  1
  Lu  Lu5  1  0.153787  0.499103  0.467360  1
  Lu  Lu6  1  0.000870  0.654080  0.716399  1
  Lu  Lu7  1  0.000480  0.346629  0.216267  1
  Lu  Lu8  1  0.497248  0.355689  0.125136  1
  Hf  Hf9  1  0.506482  0.644230  0.624791  1
  Hf  Hf10  1  0.855655  0.006088  0.872783  1
  Hf  Hf11  1  0.144445  0.993365  0.375724  1
  Hf  Hf12  1  0.644197  0.507112  0.375981  1
  Hf  Hf13  1  0.353879  0.493205  0.874707  1
  Hf  Hf14  1  0.005682  0.855285  0.125315  1
  Hf  Hf15  1  0.993447  0.144355  0.625592  1
  Si  Si16  1  0.803478  0.141875  0.064818  1
  Si  Si17  1  0.203866  0.857782  0.568767  1
  Si  Si18  1  0.641483  0.703269  0.818066  1
  Si  Si19  1  0.356436  0.295660  0.321670  1
  Si  Si20  1  0.857530  0.204103  0.432377  1
  Si  Si21  1  0.141871  0.797311  0.931736  1
  Si  Si22  1  0.706096  0.647165  0.184688  1
  Si  Si23  1  0.296383  0.357539  0.681108  1
  Si  Si24  1  0.552207  0.200428  0.930605  1
  Si  Si25  1  0.447818  0.798973  0.433840  1
  Si  Si26  1  0.701163  0.948403  0.682689  1
  Si  Si27  1  0.297902  0.046856  0.184765  1
  Si  Si28  1  0.798484  0.448826  0.566746  1
  Si  Si29  1  0.199122  0.553134  0.065248  1
  Si  Si30  1  0.948764  0.702323  0.317534  1
  Si  Si31  1  0.051867  0.297931  0.816148  1
  Mo  Mo32  1  0.678605  0.321605  0.749165  1
  Mo  Mo33  1  0.318868  0.680026  0.251417  1
  Mo  Mo34  1  0.821905  0.823064  0.499961  1
  Mo  Mo35  1  0.175297  0.173680  0.998862  1
