# generated using pymatgen
data_YbYRh4
_symmetry_space_group_name_H-M   'P 1'
_cell_length_a   5.32979896
_cell_length_b   5.32979940
_cell_length_c   5.32980000
_cell_angle_alpha   59.99999627
_cell_angle_beta   59.99999357
_cell_angle_gamma   60.00000200
_symmetry_Int_Tables_number   1
_chemical_formula_structural   YbYRh4
_chemical_formula_sum   'Yb1 Y1 Rh4'
_cell_volume   107.05761878
_cell_formula_units_Z   1
loop_
 _symmetry_equiv_pos_site_id
 _symmetry_equiv_pos_as_xyz
  1  'x, y, z'
loop_
 _atom_site_type_symbol
 _atom_site_label
 _atom_site_symmetry_multiplicity
 _atom_site_fract_x
 _atom_site_fract_y
 _atom_site_fract_z
 _atom_site_occupancy
  Yb  Yb0  1  0.000000  0.000000  0.000000  1
  Y  Y1  1  0.250000  0.250000  0.250000  1
  Rh  Rh2  1  0.625058  0.625058  0.124826  1
  Rh  Rh3  1  0.625058  0.124826  0.625058  1
  Rh  Rh4  1  0.124826  0.625058  0.625058  1
  Rh  Rh5  1  0.625058  0.625058  0.625058  1
