# generated using pymatgen
data_TbY3Sc4(ReB6)4
_symmetry_space_group_name_H-M   'P 1'
_cell_length_a   3.58750100
_cell_length_b   9.01674100
_cell_length_c   11.40726700
_cell_angle_alpha   89.99841211
_cell_angle_beta   90.00000000
_cell_angle_gamma   90.00000000
_symmetry_Int_Tables_number   1
_chemical_formula_structural   TbY3Sc4(ReB6)4
_chemical_formula_sum   'Tb1 Y3 Sc4 Re4 B24'
_cell_volume   368.99733754
_cell_formula_units_Z   1
loop_
 _symmetry_equiv_pos_site_id
 _symmetry_equiv_pos_as_xyz
  1  'x, y, z'
loop_
 _atom_site_type_symbol
 _atom_site_label
 _atom_site_symmetry_multiplicity
 _atom_site_fract_x
 _atom_site_fract_y
 _atom_site_fract_z
 _atom_site_occupancy
  Tb  Tb0  1  0.000000  0.321630  0.414033  1
  Y  Y1  1  0.000000  0.678430  0.586071  1
  Y  Y2  1  0.000000  0.821598  0.085875  1
  Y  Y3  1  0.000000  0.178447  0.914057  1
  Sc  Sc4  1  0.000000  0.944172  0.370198  1
  Sc  Sc5  1  0.000000  0.055757  0.629848  1
  Sc  Sc6  1  0.000000  0.444282  0.129680  1
  Sc  Sc7  1  0.000000  0.555685  0.870199  1
  Re  Re8  1  0.000000  0.640941  0.318288  1
  Re  Re9  1  0.000000  0.359130  0.681822  1
  Re  Re10  1  0.000000  0.140841  0.181686  1
  Re  Re11  1  0.000000  0.859125  0.818243  1
  B  B12  1  0.500000  0.554486  0.432444  1
  B  B13  1  0.500000  0.445522  0.567641  1
  B  B14  1  0.500000  0.054420  0.067520  1
  B  B15  1  0.500000  0.945536  0.932447  1
  B  B16  1  0.500000  0.754810  0.418419  1
  B  B17  1  0.500000  0.245270  0.581725  1
  B  B18  1  0.500000  0.254778  0.081593  1
  B  B19  1  0.500000  0.745268  0.918381  1
  B  B20  1  0.500000  0.795310  0.264928  1
  B  B21  1  0.500000  0.204782  0.735084  1
  B  B22  1  0.500000  0.295288  0.234993  1
  B  B23  1  0.500000  0.704668  0.764935  1
  B  B24  1  0.500000  0.629043  0.183096  1
  B  B25  1  0.500000  0.370931  0.816832  1
  B  B26  1  0.500000  0.129001  0.316814  1
  B  B27  1  0.500000  0.870952  0.683145  1
  B  B28  1  0.500000  0.981582  0.213865  1
  B  B29  1  0.500000  0.018337  0.786145  1
  B  B30  1  0.500000  0.481688  0.286052  1
  B  B31  1  0.500000  0.518375  0.713903  1
  B  B32  1  0.500000  0.595310  0.026090  1
  B  B33  1  0.500000  0.404694  0.973918  1
  B  B34  1  0.500000  0.095174  0.473970  1
  B  B35  1  0.500000  0.904737  0.526062  1
