# generated using pymatgen
data_CeZn9Ag2
_symmetry_space_group_name_H-M   'P 1'
_cell_length_a   8.39517785
_cell_length_b   8.40100824
_cell_length_c   8.39517861
_cell_angle_alpha   100.09619329
_cell_angle_beta   99.88049791
_cell_angle_gamma   130.73262112
_symmetry_Int_Tables_number   1
_chemical_formula_structural   CeZn9Ag2
_chemical_formula_sum   'Ce2 Zn18 Ag4'
_cell_volume   407.97553395
_cell_formula_units_Z   2
loop_
 _symmetry_equiv_pos_site_id
 _symmetry_equiv_pos_as_xyz
  1  'x, y, z'
loop_
 _atom_site_type_symbol
 _atom_site_label
 _atom_site_symmetry_multiplicity
 _atom_site_fract_x
 _atom_site_fract_y
 _atom_site_fract_z
 _atom_site_occupancy
  Ce  Ce0  1  0.999929  0.000003  0.000074  1
  Ce  Ce1  1  0.250071  0.749997  0.499926  1
  Zn  Zn2  1  0.755283  0.167980  0.828616  1
  Zn  Zn3  1  0.072733  0.244420  0.412150  1
  Zn  Zn4  1  0.339364  0.167980  0.412697  1
  Zn  Zn5  1  0.073077  0.660839  0.828318  1
  Zn  Zn6  1  0.910636  0.582020  0.087303  1
  Zn  Zn7  1  0.339357  0.926852  0.171449  1
  Zn  Zn8  1  0.750183  0.250106  0.499923  1
  Zn  Zn9  1  0.910643  0.823148  0.328551  1
  Zn  Zn10  1  0.499817  0.499894  0.000077  1
  Zn  Zn11  1  0.417479  0.089161  0.912239  1
  Zn  Zn12  1  0.494717  0.582020  0.671384  1
  Zn  Zn13  1  0.176923  0.089161  0.671682  1
  Zn  Zn14  1  0.755403  0.926852  0.587495  1
  Zn  Zn15  1  0.832521  0.660839  0.587761  1
  Zn  Zn16  1  0.417730  0.505580  0.328314  1
  Zn  Zn17  1  0.494597  0.823148  0.912505  1
  Zn  Zn18  1  0.177267  0.505580  0.087850  1
  Zn  Zn19  1  0.832270  0.244420  0.171686  1
  Ag  Ag20  1  0.625000  0.875000  0.250000  1
  Ag  Ag21  1  0.625000  0.375000  0.250000  1
  Ag  Ag22  1  0.125000  0.375000  0.750000  1
  Ag  Ag23  1  0.625000  0.375000  0.750000  1
