# generated using pymatgen
data_Tb11TmIn2FeTc2
_symmetry_space_group_name_H-M   'P 1'
_cell_length_a   8.46865678
_cell_length_b   8.46191182
_cell_length_c   8.46191059
_cell_angle_alpha   108.77884867
_cell_angle_beta   108.80389652
_cell_angle_gamma   110.80652895
_symmetry_Int_Tables_number   1
_chemical_formula_structural   Tb11TmIn2FeTc2
_chemical_formula_sum   'Tb11 Tm1 In2 Fe1 Tc2'
_cell_volume   466.79383547
_cell_formula_units_Z   1
loop_
 _symmetry_equiv_pos_site_id
 _symmetry_equiv_pos_as_xyz
  1  'x, y, z'
loop_
 _atom_site_type_symbol
 _atom_site_label
 _atom_site_symmetry_multiplicity
 _atom_site_fract_x
 _atom_site_fract_y
 _atom_site_fract_z
 _atom_site_occupancy
  Tb  Tb0  1  0.303881  0.305443  0.611238  1
  Tb  Tb1  1  0.692325  0.693437  0.390021  1
  Tb  Tb2  1  0.692325  0.302304  0.998888  1
  Tb  Tb3  1  0.303881  0.692643  0.998437  1
  Tb  Tb4  1  0.191559  0.433159  0.242575  1
  Tb  Tb5  1  0.805418  0.569297  0.762176  1
  Tb  Tb6  1  0.191559  0.948984  0.758400  1
  Tb  Tb7  1  0.949238  0.189470  0.759769  1
  Tb  Tb8  1  0.805418  0.043243  0.236121  1
  Tb  Tb9  1  0.044199  0.806444  0.237754  1
  Tb  Tb10  1  0.431966  0.190577  0.241388  1
  Tm  Tm11  1  0.570942  0.807464  0.763478  1
  In  In12  1  0.997234  0.497348  0.499886  1
  In  In13  1  0.497567  0.996816  0.500751  1
  Fe  Fe14  1  0.630645  0.631451  0.999193  1
  Tc  Tc15  1  0.392291  0.391943  0.000347  1
  Tc  Tc16  1  0.999552  0.999974  0.999577  1
