# generated using pymatgen
data_TbMgIn4Rh
_symmetry_space_group_name_H-M   'P 1'
_cell_length_a   4.64616300
_cell_length_b   4.59991600
_cell_length_c   7.55601300
_cell_angle_alpha   90.00000000
_cell_angle_beta   90.00000000
_cell_angle_gamma   90.00000000
_symmetry_Int_Tables_number   1
_chemical_formula_structural   TbMgIn4Rh
_chemical_formula_sum   'Tb1 Mg1 In4 Rh1'
_cell_volume   161.48680399
_cell_formula_units_Z   1
loop_
 _symmetry_equiv_pos_site_id
 _symmetry_equiv_pos_as_xyz
  1  'x, y, z'
loop_
 _atom_site_type_symbol
 _atom_site_label
 _atom_site_symmetry_multiplicity
 _atom_site_fract_x
 _atom_site_fract_y
 _atom_site_fract_z
 _atom_site_occupancy
  Tb  Tb0  1  0.000000  0.000000  0.005778  1
  Mg  Mg1  1  0.500000  0.000000  0.692109  1
  In  In2  1  0.500000  0.500000  0.993438  1
  In  In3  1  0.000000  0.500000  0.302426  1
  In  In4  1  0.500000  0.000000  0.305295  1
  In  In5  1  0.000000  0.500000  0.700333  1
  Rh  Rh6  1  0.000000  0.000000  0.500620  1
