# generated using pymatgen
data_Cs4TbPaO6
_symmetry_space_group_name_H-M   'P 1'
_cell_length_a   6.49976061
_cell_length_b   6.49975324
_cell_length_c   7.35754537
_cell_angle_alpha   98.51066304
_cell_angle_beta   98.51079358
_cell_angle_gamma   119.78263455
_symmetry_Int_Tables_number   1
_chemical_formula_structural   Cs4TbPaO6
_chemical_formula_sum   'Cs4 Tb1 Pa1 O6'
_cell_volume   257.76946347
_cell_formula_units_Z   1
loop_
 _symmetry_equiv_pos_site_id
 _symmetry_equiv_pos_as_xyz
  1  'x, y, z'
loop_
 _atom_site_type_symbol
 _atom_site_label
 _atom_site_symmetry_multiplicity
 _atom_site_fract_x
 _atom_site_fract_y
 _atom_site_fract_z
 _atom_site_occupancy
  Cs  Cs0  1  0.500847  0.499154  0.999999  1
  Cs  Cs1  1  0.996344  0.003656  0.499999  1
  Cs  Cs2  1  0.660169  0.339832  0.500000  1
  Cs  Cs3  1  0.338542  0.661459  0.500000  1
  Tb  Tb4  1  0.834233  0.165768  0.000000  1
  Pa  Pa5  1  0.167164  0.832837  0.000000  1
  O  O6  1  0.985701  0.577385  0.178322  1
  O  O7  1  0.545359  0.968426  0.176666  1
  O  O8  1  0.153056  0.135606  0.173352  1
  O  O9  1  0.864396  0.846946  0.826648  1
  O  O10  1  0.031574  0.454639  0.823335  1
  O  O11  1  0.422617  0.014299  0.821679  1
