# generated using pymatgen
data_Ca3LuAl15(SiIr2)3
_symmetry_space_group_name_H-M   'P 1'
_cell_length_a   7.53549937
_cell_length_b   7.54601551
_cell_length_c   9.35609300
_cell_angle_alpha   90.00000000
_cell_angle_beta   90.00000000
_cell_angle_gamma   119.76482584
_symmetry_Int_Tables_number   1
_chemical_formula_structural   Ca3LuAl15(SiIr2)3
_chemical_formula_sum   'Ca3 Lu1 Al15 Si3 Ir6'
_cell_volume   461.82687435
_cell_formula_units_Z   1
loop_
 _symmetry_equiv_pos_site_id
 _symmetry_equiv_pos_as_xyz
  1  'x, y, z'
loop_
 _atom_site_type_symbol
 _atom_site_label
 _atom_site_symmetry_multiplicity
 _atom_site_fract_x
 _atom_site_fract_y
 _atom_site_fract_z
 _atom_site_occupancy
  Ca  Ca0  1  0.001036  0.674047  0.250000  1
  Ca  Ca1  1  0.003574  0.324724  0.750000  1
  Ca  Ca2  1  0.325964  0.005068  0.750000  1
  Lu  Lu3  1  0.668671  0.993106  0.250000  1
  Al  Al4  1  0.999050  0.334195  0.077266  1
  Al  Al5  1  0.001690  0.664832  0.926880  1
  Al  Al6  1  0.001690  0.664832  0.573120  1
  Al  Al7  1  0.336130  0.003706  0.424130  1
  Al  Al8  1  0.999050  0.334195  0.422734  1
  Al  Al9  1  0.663571  0.999145  0.573759  1
  Al  Al10  1  0.663571  0.999145  0.926241  1
  Al  Al11  1  0.336130  0.003706  0.075870  1
  Al  Al12  1  0.335730  0.335353  0.556318  1
  Al  Al13  1  0.667401  0.664406  0.444347  1
  Al  Al14  1  0.667401  0.664406  0.055653  1
  Al  Al15  1  0.335730  0.335353  0.943682  1
  Al  Al16  1  0.667472  0.455318  0.750000  1
  Al  Al17  1  0.546923  0.337454  0.250000  1
  Al  Al18  1  0.450553  0.665779  0.750000  1
  Si  Si19  1  0.120972  0.127276  0.250000  1
  Si  Si20  1  0.868014  0.867836  0.750000  1
  Si  Si21  1  0.336099  0.544202  0.250000  1
  Ir  Ir22  1  0.670610  0.329415  0.001947  1
  Ir  Ir23  1  0.332603  0.670712  0.009268  1
  Ir  Ir24  1  0.332603  0.670712  0.490732  1
  Ir  Ir25  1  0.670610  0.329415  0.498053  1
  Ir  Ir26  1  0.998576  0.000833  0.002730  1
  Ir  Ir27  1  0.998576  0.000833  0.497270  1
