# generated using pymatgen
data_Y3Sc3Al6NiAu5
_symmetry_space_group_name_H-M   'P 1'
_cell_length_a   7.21449000
_cell_length_b   7.21448983
_cell_length_c   7.75167300
_cell_angle_alpha   90.00000000
_cell_angle_beta   90.00000000
_cell_angle_gamma   119.99999159
_symmetry_Int_Tables_number   1
_chemical_formula_structural   Y3Sc3Al6NiAu5
_chemical_formula_sum   'Y3 Sc3 Al6 Ni1 Au5'
_cell_volume   349.41164429
_cell_formula_units_Z   1
loop_
 _symmetry_equiv_pos_site_id
 _symmetry_equiv_pos_as_xyz
  1  'x, y, z'
loop_
 _atom_site_type_symbol
 _atom_site_label
 _atom_site_symmetry_multiplicity
 _atom_site_fract_x
 _atom_site_fract_y
 _atom_site_fract_z
 _atom_site_occupancy
  Y  Y0  1  0.996521  0.578770  0.250000  1
  Y  Y1  1  0.582249  0.003479  0.250000  1
  Y  Y2  1  0.421230  0.417751  0.250000  1
  Sc  Sc3  1  0.600249  0.993959  0.750000  1
  Sc  Sc4  1  0.006041  0.606289  0.750000  1
  Sc  Sc5  1  0.393711  0.399751  0.750000  1
  Al  Al6  1  0.761200  0.759081  0.975999  1
  Al  Al7  1  0.240919  0.002119  0.975999  1
  Al  Al8  1  0.997881  0.238800  0.975999  1
  Al  Al9  1  0.761200  0.759081  0.524001  1
  Al  Al10  1  0.240919  0.002119  0.524001  1
  Al  Al11  1  0.997881  0.238800  0.524001  1
  Ni  Ni12  1  0.000000  0.000000  0.750000  1
  Au  Au13  1  0.000000  0.000000  0.250000  1
  Au  Au14  1  0.666667  0.333333  0.969566  1
  Au  Au15  1  0.666667  0.333333  0.530434  1
  Au  Au16  1  0.333333  0.666667  0.518336  1
  Au  Au17  1  0.333333  0.666667  0.981664  1
