# generated using pymatgen
data_TbY7Ti9Nb3Si16
_symmetry_space_group_name_H-M   'P 1'
_cell_length_a   7.06869846
_cell_length_b   7.06957888
_cell_length_c   13.01067283
_cell_angle_alpha   89.96362427
_cell_angle_beta   90.02690047
_cell_angle_gamma   89.96481331
_symmetry_Int_Tables_number   1
_chemical_formula_structural   TbY7Ti9Nb3Si16
_chemical_formula_sum   'Tb1 Y7 Ti9 Nb3 Si16'
_cell_volume   650.17840292
_cell_formula_units_Z   1
loop_
 _symmetry_equiv_pos_site_id
 _symmetry_equiv_pos_as_xyz
  1  'x, y, z'
loop_
 _atom_site_type_symbol
 _atom_site_label
 _atom_site_symmetry_multiplicity
 _atom_site_fract_x
 _atom_site_fract_y
 _atom_site_fract_z
 _atom_site_occupancy
  Tb  Tb0  1  0.998615  0.659655  0.033512  1
  Y  Y1  1  0.339931  0.001657  0.466298  1
  Y  Y2  1  0.498102  0.840306  0.717126  1
  Y  Y3  1  0.501574  0.158957  0.216969  1
  Y  Y4  1  0.840247  0.497990  0.282892  1
  Y  Y5  1  0.158962  0.501521  0.783012  1
  Y  Y6  1  0.659583  0.998933  0.966449  1
  Y  Y7  1  0.001624  0.340009  0.533730  1
  Ti  Ti8  1  0.673094  0.673129  0.499996  1
  Ti  Ti9  1  0.153137  0.009079  0.875027  1
  Ti  Ti10  1  0.490349  0.652823  0.126031  1
  Ti  Ti11  1  0.509711  0.346469  0.626482  1
  Ti  Ti12  1  0.652891  0.490188  0.873972  1
  Ti  Ti13  1  0.346561  0.509703  0.373580  1
  Ti  Ti14  1  0.847804  0.991853  0.374842  1
  Ti  Ti15  1  0.009295  0.153318  0.124975  1
  Ti  Ti16  1  0.991760  0.847796  0.625161  1
  Nb  Nb17  1  0.326825  0.326892  0.999989  1
  Nb  Nb18  1  0.173175  0.826796  0.250192  1
  Nb  Nb19  1  0.826783  0.173136  0.749775  1
  Si  Si20  1  0.203218  0.129192  0.684255  1
  Si  Si21  1  0.371224  0.703199  0.934251  1
  Si  Si22  1  0.629095  0.298327  0.434750  1
  Si  Si23  1  0.702978  0.370873  0.065625  1
  Si  Si24  1  0.298385  0.629141  0.565240  1
  Si  Si25  1  0.796656  0.870862  0.184804  1
  Si  Si26  1  0.129244  0.203210  0.315802  1
  Si  Si27  1  0.870810  0.796727  0.815323  1
  Si  Si28  1  0.291838  0.953505  0.063561  1
  Si  Si29  1  0.547668  0.791210  0.314883  1
  Si  Si30  1  0.452872  0.207984  0.813687  1
  Si  Si31  1  0.791154  0.547762  0.685147  1
  Si  Si32  1  0.208004  0.452851  0.186369  1
  Si  Si33  1  0.708044  0.045435  0.563497  1
  Si  Si34  1  0.953413  0.291452  0.936333  1
  Si  Si35  1  0.045379  0.708057  0.436472  1
