# generated using pymatgen
data_Zr6Al6ZnPt5
_symmetry_space_group_name_H-M   'P 1'
_cell_length_a   6.80748700
_cell_length_b   6.80748666
_cell_length_c   8.04905200
_cell_angle_alpha   90.00000000
_cell_angle_beta   90.00000000
_cell_angle_gamma   120.00000650
_symmetry_Int_Tables_number   1
_chemical_formula_structural   Zr6Al6ZnPt5
_chemical_formula_sum   'Zr6 Al6 Zn1 Pt5'
_cell_volume   323.03453632
_cell_formula_units_Z   1
loop_
 _symmetry_equiv_pos_site_id
 _symmetry_equiv_pos_as_xyz
  1  'x, y, z'
loop_
 _atom_site_type_symbol
 _atom_site_label
 _atom_site_symmetry_multiplicity
 _atom_site_fract_x
 _atom_site_fract_y
 _atom_site_fract_z
 _atom_site_occupancy
  Zr  Zr0  1  0.999284  0.583021  0.753621  1
  Zr  Zr1  1  0.000006  0.583183  0.246270  1
  Zr  Zr2  1  0.583177  0.999994  0.246270  1
  Zr  Zr3  1  0.583737  0.000716  0.753621  1
  Zr  Zr4  1  0.416817  0.416823  0.246270  1
  Zr  Zr5  1  0.416979  0.416263  0.753621  1
  Al  Al6  1  0.996347  0.246049  0.499939  1
  Al  Al7  1  0.751962  0.752997  0.999791  1
  Al  Al8  1  0.001035  0.248038  0.999791  1
  Al  Al9  1  0.249702  0.003653  0.499939  1
  Al  Al10  1  0.247003  0.998965  0.999791  1
  Al  Al11  1  0.753951  0.750298  0.499939  1
  Zn  Zn12  1  0.333333  0.666667  0.500869  1
  Pt  Pt13  1  0.666667  0.333333  0.500123  1
  Pt  Pt14  1  0.666667  0.333333  0.000590  1
  Pt  Pt15  1  0.000000  0.000000  0.250279  1
  Pt  Pt16  1  0.000000  0.000000  0.749740  1
  Pt  Pt17  1  0.333333  0.666667  0.999539  1
