# generated using pymatgen
data_Yb2Dy3Y3(B6Ru)4
_symmetry_space_group_name_H-M   'P 1'
_cell_length_a   3.66267400
_cell_length_b   9.15462460
_cell_length_c   11.54712707
_cell_angle_alpha   89.80654627
_cell_angle_beta   90.00000000
_cell_angle_gamma   90.00000000
_symmetry_Int_Tables_number   1
_chemical_formula_structural   Yb2Dy3Y3(B6Ru)4
_chemical_formula_sum   'Yb2 Dy3 Y3 B24 Ru4'
_cell_volume   387.17764620
_cell_formula_units_Z   1
loop_
 _symmetry_equiv_pos_site_id
 _symmetry_equiv_pos_as_xyz
  1  'x, y, z'
loop_
 _atom_site_type_symbol
 _atom_site_label
 _atom_site_symmetry_multiplicity
 _atom_site_fract_x
 _atom_site_fract_y
 _atom_site_fract_z
 _atom_site_occupancy
  Yb  Yb0  1  0.000000  0.325682  0.414913  1
  Yb  Yb1  1  0.000000  0.674332  0.585075  1
  Dy  Dy2  1  0.000000  0.058246  0.630302  1
  Dy  Dy3  1  0.000000  0.442594  0.131301  1
  Dy  Dy4  1  0.000000  0.557401  0.868691  1
  Y  Y5  1  0.000000  0.822826  0.086187  1
  Y  Y6  1  0.000000  0.177169  0.913811  1
  Y  Y7  1  0.000000  0.941872  0.370004  1
  B  B8  1  0.500000  0.554267  0.432550  1
  B  B9  1  0.500000  0.445724  0.567468  1
  B  B10  1  0.500000  0.053867  0.066998  1
  B  B11  1  0.500000  0.946132  0.932964  1
  B  B12  1  0.500000  0.747349  0.418238  1
  B  B13  1  0.500000  0.252566  0.581862  1
  B  B14  1  0.500000  0.247981  0.081401  1
  B  B15  1  0.500000  0.752037  0.918579  1
  B  B16  1  0.500000  0.790716  0.265185  1
  B  B17  1  0.500000  0.209275  0.734713  1
  B  B18  1  0.500000  0.289708  0.234432  1
  B  B19  1  0.500000  0.710309  0.765574  1
  B  B20  1  0.500000  0.631661  0.185747  1
  B  B21  1  0.500000  0.368318  0.814224  1
  B  B22  1  0.500000  0.131377  0.313860  1
  B  B23  1  0.500000  0.868747  0.686203  1
  B  B24  1  0.500000  0.983883  0.211579  1
  B  B25  1  0.500000  0.016060  0.788325  1
  B  B26  1  0.500000  0.484512  0.288632  1
  B  B27  1  0.500000  0.515466  0.711359  1
  B  B28  1  0.500000  0.604382  0.028761  1
  B  B29  1  0.500000  0.395614  0.971233  1
  B  B30  1  0.500000  0.100471  0.472138  1
  B  B31  1  0.500000  0.899541  0.527886  1
  Ru  Ru32  1  0.000000  0.639596  0.319406  1
  Ru  Ru33  1  0.000000  0.360222  0.680539  1
  Ru  Ru34  1  0.000000  0.137187  0.178009  1
  Ru  Ru35  1  0.000000  0.862911  0.821853  1
