# generated using pymatgen
data_Y2Ga9RuPt2
_symmetry_space_group_name_H-M   'P 1'
_cell_length_a   7.63994894
_cell_length_b   7.63995201
_cell_length_c   9.53226000
_cell_angle_alpha   90.00000000
_cell_angle_beta   90.00000000
_cell_angle_gamma   119.64131495
_symmetry_Int_Tables_number   1
_chemical_formula_structural   Y2Ga9RuPt2
_chemical_formula_sum   'Y4 Ga18 Ru2 Pt4'
_cell_volume   483.57737075
_cell_formula_units_Z   2
loop_
 _symmetry_equiv_pos_site_id
 _symmetry_equiv_pos_as_xyz
  1  'x, y, z'
loop_
 _atom_site_type_symbol
 _atom_site_label
 _atom_site_symmetry_multiplicity
 _atom_site_fract_x
 _atom_site_fract_y
 _atom_site_fract_z
 _atom_site_occupancy
  Y  Y0  1  0.998004  0.668252  0.250000  1
  Y  Y1  1  0.001996  0.331748  0.750000  1
  Y  Y2  1  0.668252  0.998004  0.250000  1
  Y  Y3  1  0.331748  0.001996  0.750000  1
  Ga  Ga4  1  0.120376  0.120376  0.250000  1
  Ga  Ga5  1  0.879624  0.879624  0.750000  1
  Ga  Ga6  1  0.999739  0.329348  0.081209  1
  Ga  Ga7  1  0.000261  0.670652  0.918791  1
  Ga  Ga8  1  0.000261  0.670652  0.581209  1
  Ga  Ga9  1  0.329349  0.999739  0.418791  1
  Ga  Ga10  1  0.999739  0.329348  0.418791  1
  Ga  Ga11  1  0.670651  0.000261  0.581209  1
  Ga  Ga12  1  0.670651  0.000261  0.918791  1
  Ga  Ga13  1  0.329349  0.999739  0.081209  1
  Ga  Ga14  1  0.324894  0.324894  0.566198  1
  Ga  Ga15  1  0.675106  0.675106  0.433802  1
  Ga  Ga16  1  0.675106  0.675106  0.066198  1
  Ga  Ga17  1  0.324894  0.324894  0.933802  1
  Ga  Ga18  1  0.343004  0.544314  0.250000  1
  Ga  Ga19  1  0.656996  0.455686  0.750000  1
  Ga  Ga20  1  0.544314  0.343004  0.250000  1
  Ga  Ga21  1  0.455686  0.656996  0.750000  1
  Ru  Ru22  1  0.000000  0.000000  0.000000  1
  Ru  Ru23  1  0.000000  0.000000  0.500000  1
  Pt  Pt24  1  0.671621  0.328379  0.000000  1
  Pt  Pt25  1  0.328379  0.671621  0.000000  1
  Pt  Pt26  1  0.328379  0.671621  0.500000  1
  Pt  Pt27  1  0.671621  0.328379  0.500000  1
