# generated using pymatgen
data_Ba2YBrO3
_symmetry_space_group_name_H-M   'P 1'
_cell_length_a   4.45612600
_cell_length_b   4.45612600
_cell_length_c   15.60634900
_cell_angle_alpha   90.00000000
_cell_angle_beta   90.00000000
_cell_angle_gamma   90.00000000
_symmetry_Int_Tables_number   1
_chemical_formula_structural   Ba2YBrO3
_chemical_formula_sum   'Ba4 Y2 Br2 O6'
_cell_volume   309.89619174
_cell_formula_units_Z   2
loop_
 _symmetry_equiv_pos_site_id
 _symmetry_equiv_pos_as_xyz
  1  'x, y, z'
loop_
 _atom_site_type_symbol
 _atom_site_label
 _atom_site_symmetry_multiplicity
 _atom_site_fract_x
 _atom_site_fract_y
 _atom_site_fract_z
 _atom_site_occupancy
  Ba  Ba0  1  0.000000  0.500000  0.660581  1
  Ba  Ba1  1  0.500000  0.000000  0.339419  1
  Ba  Ba2  1  0.500000  0.000000  0.091475  1
  Ba  Ba3  1  0.000000  0.500000  0.908525  1
  Y  Y4  1  0.000000  0.500000  0.209267  1
  Y  Y5  1  0.500000  0.000000  0.790733  1
  Br  Br6  1  0.500000  0.000000  0.577931  1
  Br  Br7  1  0.000000  0.500000  0.422069  1
  O  O8  1  0.000000  0.000000  0.768864  1
  O  O9  1  0.500000  0.500000  0.768864  1
  O  O10  1  0.000000  0.000000  0.231136  1
  O  O11  1  0.500000  0.000000  0.928937  1
  O  O12  1  0.500000  0.500000  0.231136  1
  O  O13  1  0.000000  0.500000  0.071063  1
