# generated using pymatgen
data_TbLuPa2(CoGe)4
_symmetry_space_group_name_H-M   'P 1'
_cell_length_a   4.30992800
_cell_length_b   7.20984566
_cell_length_c   6.94232739
_cell_angle_alpha   92.99404455
_cell_angle_beta   90.00000000
_cell_angle_gamma   90.00000000
_symmetry_Int_Tables_number   1
_chemical_formula_structural   TbLuPa2(CoGe)4
_chemical_formula_sum   'Tb1 Lu1 Pa2 Co4 Ge4'
_cell_volume   215.43082406
_cell_formula_units_Z   1
loop_
 _symmetry_equiv_pos_site_id
 _symmetry_equiv_pos_as_xyz
  1  'x, y, z'
loop_
 _atom_site_type_symbol
 _atom_site_label
 _atom_site_symmetry_multiplicity
 _atom_site_fract_x
 _atom_site_fract_y
 _atom_site_fract_z
 _atom_site_occupancy
  Tb  Tb0  1  0.750000  0.018705  0.224069  1
  Lu  Lu1  1  0.250000  0.979535  0.770232  1
  Pa  Pa2  1  0.250000  0.490020  0.698126  1
  Pa  Pa3  1  0.750000  0.509972  0.302541  1
  Co  Co4  1  0.750000  0.376310  0.961185  1
  Co  Co5  1  0.250000  0.253098  0.450440  1
  Co  Co6  1  0.750000  0.747405  0.552160  1
  Co  Co7  1  0.250000  0.626996  0.039013  1
  Ge  Ge8  1  0.250000  0.800036  0.389519  1
  Ge  Ge9  1  0.750000  0.721635  0.903917  1
  Ge  Ge10  1  0.250000  0.278607  0.093304  1
  Ge  Ge11  1  0.750000  0.197680  0.615493  1
