# generated using pymatgen
data_Na4P7Ir8
_symmetry_space_group_name_H-M   'P 1'
_cell_length_a   3.97011700
_cell_length_b   12.50834511
_cell_length_c   12.96704799
_cell_angle_alpha   81.08793077
_cell_angle_beta   90.00000000
_cell_angle_gamma   90.00000000
_symmetry_Int_Tables_number   1
_chemical_formula_structural   Na4P7Ir8
_chemical_formula_sum   'Na8 P14 Ir16'
_cell_volume   636.16422897
_cell_formula_units_Z   2
loop_
 _symmetry_equiv_pos_site_id
 _symmetry_equiv_pos_as_xyz
  1  'x, y, z'
loop_
 _atom_site_type_symbol
 _atom_site_label
 _atom_site_symmetry_multiplicity
 _atom_site_fract_x
 _atom_site_fract_y
 _atom_site_fract_z
 _atom_site_occupancy
  Na  Na0  1  0.750000  0.783268  0.566851  1
  Na  Na1  1  0.250000  0.216732  0.433149  1
  Na  Na2  1  0.750000  0.485043  0.708351  1
  Na  Na3  1  0.250000  0.514957  0.291649  1
  Na  Na4  1  0.750000  0.713255  0.890173  1
  Na  Na5  1  0.250000  0.097858  0.797430  1
  Na  Na6  1  0.750000  0.902142  0.202570  1
  Na  Na7  1  0.250000  0.286745  0.109827  1
  P  P8  1  0.250000  0.911175  0.410301  1
  P  P9  1  0.750000  0.475626  0.128685  1
  P  P10  1  0.250000  0.524374  0.871315  1
  P  P11  1  0.750000  0.088825  0.589699  1
  P  P12  1  0.250000  0.742469  0.083084  1
  P  P13  1  0.750000  0.257531  0.916916  1
  P  P14  1  0.750000  0.158993  0.283364  1
  P  P15  1  0.250000  0.841007  0.716636  1
  P  P16  1  0.250000  0.063128  0.096025  1
  P  P17  1  0.750000  0.936872  0.903975  1
  P  P18  1  0.250000  0.300338  0.686433  1
  P  P19  1  0.750000  0.699662  0.313567  1
  P  P20  1  0.250000  0.608540  0.562556  1
  P  P21  1  0.750000  0.391460  0.437444  1
  Ir  Ir22  1  0.250000  0.984162  0.574853  1
  Ir  Ir23  1  0.750000  0.015838  0.425147  1
  Ir  Ir24  1  0.250000  0.659572  0.726875  1
  Ir  Ir25  1  0.750000  0.340428  0.273125  1
  Ir  Ir26  1  0.250000  0.559211  0.045710  1
  Ir  Ir27  1  0.750000  0.440789  0.954290  1
  Ir  Ir28  1  0.250000  0.065425  0.272008  1
  Ir  Ir29  1  0.750000  0.934575  0.727992  1
  Ir  Ir30  1  0.250000  0.423348  0.531126  1
  Ir  Ir31  1  0.750000  0.576652  0.468874  1
  Ir  Ir32  1  0.250000  0.917401  0.001683  1
  Ir  Ir33  1  0.750000  0.082599  0.998317  1
  Ir  Ir34  1  0.250000  0.729619  0.398303  1
  Ir  Ir35  1  0.750000  0.270381  0.601697  1
  Ir  Ir36  1  0.250000  0.335985  0.856107  1
  Ir  Ir37  1  0.750000  0.664015  0.143893  1
