# generated using pymatgen
data_Nd3Hg2Pb3
_symmetry_space_group_name_H-M   'P 1'
_cell_length_a   6.71342541
_cell_length_b   6.71342455
_cell_length_c   10.53688000
_cell_angle_alpha   90.00000000
_cell_angle_beta   90.00000000
_cell_angle_gamma   102.76073697
_symmetry_Int_Tables_number   1
_chemical_formula_structural   Nd3Hg2Pb3
_chemical_formula_sum   'Nd6 Hg4 Pb6'
_cell_volume   463.16844088
_cell_formula_units_Z   2
loop_
 _symmetry_equiv_pos_site_id
 _symmetry_equiv_pos_as_xyz
  1  'x, y, z'
loop_
 _atom_site_type_symbol
 _atom_site_label
 _atom_site_symmetry_multiplicity
 _atom_site_fract_x
 _atom_site_fract_y
 _atom_site_fract_z
 _atom_site_occupancy
  Nd  Nd0  1  0.602020  0.602020  0.250000  1
  Nd  Nd1  1  0.397980  0.397980  0.750000  1
  Nd  Nd2  1  0.207463  0.792537  0.500000  1
  Nd  Nd3  1  0.207463  0.792537  0.000000  1
  Nd  Nd4  1  0.792537  0.207463  0.500000  1
  Nd  Nd5  1  0.792537  0.207463  0.000000  1
  Hg  Hg6  1  0.307550  0.307550  0.035478  1
  Hg  Hg7  1  0.692450  0.692450  0.964522  1
  Hg  Hg8  1  0.307550  0.307550  0.464522  1
  Hg  Hg9  1  0.692450  0.692450  0.535478  1
  Pb  Pb10  1  0.999884  0.999883  0.250000  1
  Pb  Pb11  1  0.000117  0.000116  0.750000  1
  Pb  Pb12  1  0.491845  0.054240  0.250000  1
  Pb  Pb13  1  0.945760  0.508155  0.750000  1
  Pb  Pb14  1  0.508155  0.945760  0.750000  1
  Pb  Pb15  1  0.054240  0.491845  0.250000  1
