# generated using pymatgen
data_Cs6In3IrBr18
_symmetry_space_group_name_H-M   'P 1'
_cell_length_a   7.91772700
_cell_length_b   7.91772786
_cell_length_c   20.08558600
_cell_angle_alpha   90.00000000
_cell_angle_beta   90.00000000
_cell_angle_gamma   119.99999224
_symmetry_Int_Tables_number   1
_chemical_formula_structural   Cs6In3IrBr18
_chemical_formula_sum   'Cs6 In3 Ir1 Br18'
_cell_volume   1090.47638792
_cell_formula_units_Z   1
loop_
 _symmetry_equiv_pos_site_id
 _symmetry_equiv_pos_as_xyz
  1  'x, y, z'
loop_
 _atom_site_type_symbol
 _atom_site_label
 _atom_site_symmetry_multiplicity
 _atom_site_fract_x
 _atom_site_fract_y
 _atom_site_fract_z
 _atom_site_occupancy
  Cs  Cs0  1  0.333333  0.666667  0.071139  1
  Cs  Cs1  1  0.666667  0.333333  0.932787  1
  Cs  Cs2  1  0.666667  0.333333  0.572295  1
  Cs  Cs3  1  0.333333  0.666667  0.434518  1
  Cs  Cs4  1  0.000000  0.000000  0.250939  1
  Cs  Cs5  1  0.000000  0.000000  0.744490  1
  In  In6  1  0.666667  0.333333  0.345318  1
  In  In7  1  0.666667  0.333333  0.156006  1
  In  In8  1  0.333333  0.666667  0.843279  1
  Ir  Ir9  1  0.333333  0.666667  0.664839  1
  Br  Br10  1  0.183395  0.366788  0.594282  1
  Br  Br11  1  0.832279  0.664557  0.410912  1
  Br  Br12  1  0.633212  0.816605  0.594282  1
  Br  Br13  1  0.831760  0.663522  0.088953  1
  Br  Br14  1  0.335443  0.167721  0.410912  1
  Br  Br15  1  0.167162  0.334325  0.907896  1
  Br  Br16  1  0.183395  0.816605  0.594282  1
  Br  Br17  1  0.336478  0.168240  0.088953  1
  Br  Br18  1  0.832279  0.167721  0.410912  1
  Br  Br19  1  0.665675  0.832838  0.907896  1
  Br  Br20  1  0.831760  0.168240  0.088953  1
  Br  Br21  1  0.167162  0.832838  0.907896  1
  Br  Br22  1  0.512324  0.024650  0.249925  1
  Br  Br23  1  0.480677  0.961354  0.742829  1
  Br  Br24  1  0.975350  0.487676  0.249925  1
  Br  Br25  1  0.038646  0.519323  0.742829  1
  Br  Br26  1  0.512324  0.487676  0.249925  1
  Br  Br27  1  0.480677  0.519323  0.742829  1
