# generated using pymatgen
data_Lu12Tl2Tc2Ru
_symmetry_space_group_name_H-M   'P 1'
_cell_length_a   8.27132400
_cell_length_b   8.27132535
_cell_length_c   8.27132500
_cell_angle_alpha   109.41713602
_cell_angle_beta   109.41713933
_cell_angle_gamma   109.57943831
_symmetry_Int_Tables_number   1
_chemical_formula_structural   Lu12Tl2Tc2Ru
_chemical_formula_sum   'Lu12 Tl2 Tc2 Ru1'
_cell_volume   435.61435504
_cell_formula_units_Z   1
loop_
 _symmetry_equiv_pos_site_id
 _symmetry_equiv_pos_as_xyz
  1  'x, y, z'
loop_
 _atom_site_type_symbol
 _atom_site_label
 _atom_site_symmetry_multiplicity
 _atom_site_fract_x
 _atom_site_fract_y
 _atom_site_fract_z
 _atom_site_occupancy
  Lu  Lu0  1  0.315472  0.315472  0.632783  1
  Lu  Lu1  1  0.682689  0.682689  0.367217  1
  Lu  Lu2  1  0.682689  0.315472  0.000000  1
  Lu  Lu3  1  0.315472  0.682689  0.000000  1
  Lu  Lu4  1  0.186824  0.429630  0.242807  1
  Lu  Lu5  1  0.814344  0.572634  0.758290  1
  Lu  Lu6  1  0.186824  0.944016  0.757193  1
  Lu  Lu7  1  0.944016  0.186824  0.757193  1
  Lu  Lu8  1  0.814344  0.056055  0.241710  1
  Lu  Lu9  1  0.056055  0.814344  0.241710  1
  Lu  Lu10  1  0.429630  0.186824  0.242807  1
  Lu  Lu11  1  0.572634  0.814344  0.758290  1
  Tl  Tl12  1  0.999133  0.499133  0.500000  1
  Tl  Tl13  1  0.499133  0.999133  0.500000  1
  Tc  Tc14  1  0.343980  0.343980  0.000000  1
  Tc  Tc15  1  0.999723  0.999723  0.000000  1
  Ru  Ru16  1  0.657037  0.657037  0.000000  1
