# generated using pymatgen
data_Pr7Nd9MgAg3Ir4
_symmetry_space_group_name_H-M   'P 1'
_cell_length_a   9.93228703
_cell_length_b   9.97088822
_cell_length_c   9.96794500
_cell_angle_alpha   60.00976071
_cell_angle_beta   59.88116567
_cell_angle_gamma   59.97044955
_symmetry_Int_Tables_number   1
_chemical_formula_structural   Pr7Nd9MgAg3Ir4
_chemical_formula_sum   'Pr7 Nd9 Mg1 Ag3 Ir4'
_cell_volume   697.29609726
_cell_formula_units_Z   1
loop_
 _symmetry_equiv_pos_site_id
 _symmetry_equiv_pos_as_xyz
  1  'x, y, z'
loop_
 _atom_site_type_symbol
 _atom_site_label
 _atom_site_symmetry_multiplicity
 _atom_site_fract_x
 _atom_site_fract_y
 _atom_site_fract_z
 _atom_site_occupancy
  Pr  Pr0  1  0.806230  0.808057  0.192856  1
  Pr  Pr1  1  0.938596  0.561518  0.562061  1
  Pr  Pr2  1  0.560490  0.939037  0.938562  1
  Pr  Pr3  1  0.560490  0.939037  0.561912  1
  Pr  Pr4  1  0.938596  0.561518  0.937826  1
  Pr  Pr5  1  0.560575  0.562245  0.938590  1
  Pr  Pr6  1  0.938973  0.938156  0.561436  1
  Nd  Nd7  1  0.347430  0.347568  0.347692  1
  Nd  Nd8  1  0.347430  0.347568  0.957310  1
  Nd  Nd9  1  0.346359  0.958138  0.347751  1
  Nd  Nd10  1  0.946305  0.350738  0.351479  1
  Nd  Nd11  1  0.806796  0.192321  0.192018  1
  Nd  Nd12  1  0.187912  0.811161  0.812146  1
  Nd  Nd13  1  0.187912  0.811161  0.188783  1
  Nd  Nd14  1  0.806796  0.192321  0.808865  1
  Nd  Nd15  1  0.188172  0.188146  0.811842  1
  Mg  Mg16  1  0.295385  0.568311  0.568152  1
  Ag  Ag17  1  0.579925  0.583921  0.583669  1
  Ag  Ag18  1  0.579925  0.583921  0.252485  1
  Ag  Ag19  1  0.579616  0.253373  0.583506  1
  Ir  Ir20  1  0.139856  0.142371  0.141859  1
  Ir  Ir21  1  0.139856  0.142371  0.575914  1
  Ir  Ir22  1  0.141509  0.574234  0.142128  1
  Ir  Ir23  1  0.574864  0.142813  0.141161  1
