# generated using pymatgen
data_Dy8Lu12Ga13Si3
_symmetry_space_group_name_H-M   'P 1'
_cell_length_a   7.37096400
_cell_length_b   7.69966246
_cell_length_c   14.82228300
_cell_angle_alpha   90.00000000
_cell_angle_beta   90.00000000
_cell_angle_gamma   90.11995117
_symmetry_Int_Tables_number   1
_chemical_formula_structural   Dy8Lu12Ga13Si3
_chemical_formula_sum   'Dy8 Lu12 Ga13 Si3'
_cell_volume   841.22103941
_cell_formula_units_Z   1
loop_
 _symmetry_equiv_pos_site_id
 _symmetry_equiv_pos_as_xyz
  1  'x, y, z'
loop_
 _atom_site_type_symbol
 _atom_site_label
 _atom_site_symmetry_multiplicity
 _atom_site_fract_x
 _atom_site_fract_y
 _atom_site_fract_z
 _atom_site_occupancy
  Dy  Dy0  1  0.015696  0.182163  0.096440  1
  Dy  Dy1  1  0.984937  0.818384  0.905648  1
  Dy  Dy2  1  0.485154  0.680505  0.905361  1
  Dy  Dy3  1  0.984937  0.818384  0.594352  1
  Dy  Dy4  1  0.515239  0.318124  0.095770  1
  Dy  Dy5  1  0.015696  0.182163  0.403560  1
  Dy  Dy6  1  0.515239  0.318124  0.404230  1
  Dy  Dy7  1  0.485154  0.680505  0.594639  1
  Lu  Lu8  1  0.160440  0.509474  0.750000  1
  Lu  Lu9  1  0.839755  0.489308  0.250000  1
  Lu  Lu10  1  0.339808  0.010950  0.250000  1
  Lu  Lu11  1  0.663428  0.987471  0.750000  1
  Lu  Lu12  1  0.327995  0.175351  0.621142  1
  Lu  Lu13  1  0.672475  0.826189  0.378908  1
  Lu  Lu14  1  0.173157  0.673320  0.378507  1
  Lu  Lu15  1  0.672475  0.826189  0.121092  1
  Lu  Lu16  1  0.825661  0.327269  0.621531  1
  Lu  Lu17  1  0.327995  0.175351  0.878858  1
  Lu  Lu18  1  0.825661  0.327269  0.878469  1
  Lu  Lu19  1  0.173157  0.673320  0.121493  1
  Ga  Ga20  1  0.032857  0.113554  0.750000  1
  Ga  Ga21  1  0.967171  0.894094  0.250000  1
  Ga  Ga22  1  0.467730  0.605640  0.250000  1
  Ga  Ga23  1  0.532404  0.393379  0.750000  1
  Ga  Ga24  1  0.277260  0.872104  0.750000  1
  Ga  Ga25  1  0.157964  0.469102  0.540464  1
  Ga  Ga26  1  0.840779  0.529605  0.457791  1
  Ga  Ga27  1  0.340561  0.969896  0.457878  1
  Ga  Ga28  1  0.840779  0.529605  0.042209  1
  Ga  Ga29  1  0.659715  0.030356  0.540956  1
  Ga  Ga30  1  0.157964  0.469102  0.959536  1
  Ga  Ga31  1  0.659715  0.030356  0.959044  1
  Ga  Ga32  1  0.340561  0.969896  0.042122  1
  Si  Si33  1  0.720890  0.125165  0.250000  1
  Si  Si34  1  0.220727  0.373980  0.250000  1
  Si  Si35  1  0.778865  0.624356  0.750000  1
