# generated using pymatgen
data_Er3Tm5Nb12Si15Ge
_symmetry_space_group_name_H-M   'P 1'
_cell_length_a   6.84895499
_cell_length_b   7.04800041
_cell_length_c   13.39383105
_cell_angle_alpha   90.05864756
_cell_angle_beta   89.92189452
_cell_angle_gamma   90.03746326
_symmetry_Int_Tables_number   1
_chemical_formula_structural   Er3Tm5Nb12Si15Ge
_chemical_formula_sum   'Er3 Tm5 Nb12 Si15 Ge1'
_cell_volume   646.53840209
_cell_formula_units_Z   1
loop_
 _symmetry_equiv_pos_site_id
 _symmetry_equiv_pos_as_xyz
  1  'x, y, z'
loop_
 _atom_site_type_symbol
 _atom_site_label
 _atom_site_symmetry_multiplicity
 _atom_site_fract_x
 _atom_site_fract_y
 _atom_site_fract_z
 _atom_site_occupancy
  Er  Er0  1  0.995839  0.828858  0.595917  1
  Er  Er1  1  0.504432  0.326758  0.403319  1
  Er  Er2  1  0.003877  0.172327  0.095454  1
  Tm  Tm3  1  0.503756  0.328213  0.095691  1
  Tm  Tm4  1  0.002839  0.171510  0.403749  1
  Tm  Tm5  1  0.499551  0.674147  0.596550  1
  Tm  Tm6  1  0.996033  0.827743  0.904765  1
  Tm  Tm7  1  0.495918  0.671705  0.904609  1
  Nb  Nb8  1  0.663011  0.007219  0.750252  1
  Nb  Nb9  1  0.163088  0.491518  0.751958  1
  Nb  Nb10  1  0.336616  0.992665  0.249741  1
  Nb  Nb11  1  0.836833  0.507913  0.249832  1
  Nb  Nb12  1  0.834990  0.324390  0.625494  1
  Nb  Nb13  1  0.336434  0.175220  0.875232  1
  Nb  Nb14  1  0.163540  0.675348  0.124808  1
  Nb  Nb15  1  0.663272  0.825284  0.374511  1
  Nb  Nb16  1  0.161733  0.677939  0.373141  1
  Nb  Nb17  1  0.662602  0.824367  0.124830  1
  Nb  Nb18  1  0.836203  0.324470  0.875163  1
  Nb  Nb19  1  0.338905  0.171449  0.626400  1
  Si  Si20  1  0.795078  0.627370  0.750432  1
  Si  Si21  1  0.294168  0.871101  0.750782  1
  Si  Si22  1  0.205175  0.372697  0.249614  1
  Si  Si23  1  0.705408  0.127639  0.249486  1
  Si  Si24  1  0.540831  0.377563  0.750376  1
  Si  Si25  1  0.040722  0.122394  0.750221  1
  Si  Si26  1  0.458796  0.622683  0.249852  1
  Si  Si27  1  0.958203  0.878272  0.248934  1
  Si  Si28  1  0.664001  0.036418  0.539938  1
  Si  Si29  1  0.163144  0.464280  0.959665  1
  Si  Si30  1  0.336519  0.964304  0.040329  1
  Si  Si31  1  0.832792  0.536674  0.458982  1
  Si  Si32  1  0.336181  0.963539  0.459693  1
  Si  Si33  1  0.836670  0.535974  0.040563  1
  Si  Si34  1  0.663114  0.035625  0.959642  1
  Ge  Ge35  1  0.169729  0.464425  0.540077  1
