# generated using pymatgen
data_NaPr3Nd3CoI12
_symmetry_space_group_name_H-M   'P 1'
_cell_length_a   10.00919971
_cell_length_b   10.00346581
_cell_length_c   10.14055034
_cell_angle_alpha   106.81357720
_cell_angle_beta   107.28467409
_cell_angle_gamma   106.80129726
_symmetry_Int_Tables_number   1
_chemical_formula_structural   NaPr3Nd3CoI12
_chemical_formula_sum   'Na1 Pr3 Nd3 Co1 I12'
_cell_volume   846.34061981
_cell_formula_units_Z   1
loop_
 _symmetry_equiv_pos_site_id
 _symmetry_equiv_pos_as_xyz
  1  'x, y, z'
loop_
 _atom_site_type_symbol
 _atom_site_label
 _atom_site_symmetry_multiplicity
 _atom_site_fract_x
 _atom_site_fract_y
 _atom_site_fract_z
 _atom_site_occupancy
  Na  Na0  1  0.500017  0.500035  0.500005  1
  Pr  Pr1  1  0.298768  0.027886  0.099076  1
  Pr  Pr2  1  0.900743  0.701944  0.972490  1
  Pr  Pr3  1  0.701306  0.972225  0.900923  1
  Nd  Nd4  1  0.971134  0.896625  0.688430  1
  Nd  Nd5  1  0.029072  0.104025  0.311743  1
  Nd  Nd6  1  0.098950  0.296694  0.027470  1
  Co  Co7  1  0.000119  0.000294  0.000163  1
  I  I8  1  0.544015  0.623741  0.851519  1
  I  I9  1  0.453821  0.376193  0.147616  1
  I  I10  1  0.317184  0.925256  0.774655  1
  I  I11  1  0.374300  0.147186  0.453379  1
  I  I12  1  0.925396  0.775068  0.317969  1
  I  I13  1  0.682878  0.074842  0.225403  1
  I  I14  1  0.074959  0.225959  0.683969  1
  I  I15  1  0.775189  0.318585  0.925420  1
  I  I16  1  0.226654  0.680862  0.075133  1
  I  I17  1  0.853179  0.547175  0.626179  1
  I  I18  1  0.146629  0.452547  0.371800  1
  I  I19  1  0.625687  0.852858  0.546659  1
