# generated using pymatgen
data_Y2Ho8Ag3Rh
_symmetry_space_group_name_H-M   'P 1'
_cell_length_a   9.47783900
_cell_length_b   9.48828081
_cell_length_c   9.60032700
_cell_angle_alpha   90.00000000
_cell_angle_beta   90.00000000
_cell_angle_gamma   120.03644351
_symmetry_Int_Tables_number   1
_chemical_formula_structural   Y2Ho8Ag3Rh
_chemical_formula_sum   'Y4 Ho16 Ag6 Rh2'
_cell_volume   747.40140720
_cell_formula_units_Z   2
loop_
 _symmetry_equiv_pos_site_id
 _symmetry_equiv_pos_as_xyz
  1  'x, y, z'
loop_
 _atom_site_type_symbol
 _atom_site_label
 _atom_site_symmetry_multiplicity
 _atom_site_fract_x
 _atom_site_fract_y
 _atom_site_fract_z
 _atom_site_occupancy
  Y  Y0  1  0.916407  0.458203  0.250000  1
  Y  Y1  1  0.458880  0.541398  0.750000  1
  Y  Y2  1  0.458880  0.917483  0.750000  1
  Y  Y3  1  0.081802  0.540902  0.750000  1
  Ho  Ho4  1  0.000210  0.000105  0.499537  1
  Ho  Ho5  1  0.000210  0.000105  0.000463  1
  Ho  Ho6  1  0.207808  0.792738  0.441769  1
  Ho  Ho7  1  0.207808  0.415070  0.441769  1
  Ho  Ho8  1  0.584739  0.792369  0.441796  1
  Ho  Ho9  1  0.792213  0.207246  0.557501  1
  Ho  Ho10  1  0.792213  0.584968  0.557501  1
  Ho  Ho11  1  0.416168  0.208084  0.556868  1
  Ho  Ho12  1  0.792213  0.207246  0.942499  1
  Ho  Ho13  1  0.792213  0.584968  0.942499  1
  Ho  Ho14  1  0.416168  0.208084  0.943132  1
  Ho  Ho15  1  0.207808  0.792738  0.058231  1
  Ho  Ho16  1  0.207808  0.415070  0.058231  1
  Ho  Ho17  1  0.584739  0.792369  0.058204  1
  Ho  Ho18  1  0.540834  0.458106  0.250000  1
  Ho  Ho19  1  0.540834  0.082728  0.250000  1
  Ag  Ag20  1  0.882289  0.115064  0.250000  1
  Ag  Ag21  1  0.882289  0.767227  0.250000  1
  Ag  Ag22  1  0.233763  0.116882  0.250000  1
  Ag  Ag23  1  0.115855  0.884688  0.750000  1
  Ag  Ag24  1  0.115855  0.231163  0.750000  1
  Ag  Ag25  1  0.769068  0.884533  0.750000  1
  Rh  Rh26  1  0.332195  0.666098  0.250000  1
  Rh  Rh27  1  0.668736  0.334368  0.750000  1
