# generated using pymatgen
data_Y2Ho18CoBi8Rh3
_symmetry_space_group_name_H-M   'P 1'
_cell_length_a   7.99495640
_cell_length_b   8.95095100
_cell_length_c   12.42327557
_cell_angle_alpha   90.00000000
_cell_angle_beta   89.81704372
_cell_angle_gamma   90.00000000
_symmetry_Int_Tables_number   1
_chemical_formula_structural   Y2Ho18CoBi8Rh3
_chemical_formula_sum   'Y2 Ho18 Co1 Bi8 Rh3'
_cell_volume   889.03566528
_cell_formula_units_Z   1
loop_
 _symmetry_equiv_pos_site_id
 _symmetry_equiv_pos_as_xyz
  1  'x, y, z'
loop_
 _atom_site_type_symbol
 _atom_site_label
 _atom_site_symmetry_multiplicity
 _atom_site_fract_x
 _atom_site_fract_y
 _atom_site_fract_z
 _atom_site_occupancy
  Y  Y0  1  0.345070  0.750000  0.700775  1
  Y  Y1  1  0.658187  0.250000  0.292812  1
  Ho  Ho2  1  0.842347  0.250000  0.793893  1
  Ho  Ho3  1  0.157599  0.750000  0.205771  1
  Ho  Ho4  1  0.879450  0.750000  0.806166  1
  Ho  Ho5  1  0.121180  0.250000  0.193412  1
  Ho  Ho6  1  0.378979  0.250000  0.693518  1
  Ho  Ho7  1  0.614995  0.750000  0.311685  1
  Ho  Ho8  1  0.676917  0.545229  0.563960  1
  Ho  Ho9  1  0.323945  0.465412  0.436608  1
  Ho  Ho10  1  0.177768  0.457161  0.934212  1
  Ho  Ho11  1  0.323945  0.034588  0.436608  1
  Ho  Ho12  1  0.821662  0.542002  0.065663  1
  Ho  Ho13  1  0.676917  0.954771  0.563960  1
  Ho  Ho14  1  0.821662  0.957998  0.065663  1
  Ho  Ho15  1  0.177768  0.042839  0.934212  1
  Ho  Ho16  1  0.051271  0.750000  0.498765  1
  Ho  Ho17  1  0.950256  0.250000  0.501466  1
  Ho  Ho18  1  0.547613  0.250000  0.000527  1
  Ho  Ho19  1  0.450731  0.750000  0.998400  1
  Co  Co20  1  0.432924  0.750000  0.490754  1
  Bi  Bi21  1  0.571123  0.509553  0.826401  1
  Bi  Bi22  1  0.428963  0.491216  0.173501  1
  Bi  Bi23  1  0.071367  0.490386  0.672592  1
  Bi  Bi24  1  0.428963  0.008784  0.173501  1
  Bi  Bi25  1  0.928938  0.510152  0.327564  1
  Bi  Bi26  1  0.571123  0.990447  0.826401  1
  Bi  Bi27  1  0.928938  0.989848  0.327564  1
  Bi  Bi28  1  0.071367  0.009614  0.672592  1
  Rh  Rh29  1  0.070492  0.750000  0.990359  1
  Rh  Rh30  1  0.927969  0.250000  0.010221  1
  Rh  Rh31  1  0.569571  0.250000  0.510474  1
