# generated using pymatgen
data_LiAl3(B4Ru5)2
_symmetry_space_group_name_H-M   'P 1'
_cell_length_a   2.93497700
_cell_length_b   8.27871848
_cell_length_c   10.04538290
_cell_angle_alpha   90.23328652
_cell_angle_beta   90.00000000
_cell_angle_gamma   90.00000000
_symmetry_Int_Tables_number   1
_chemical_formula_structural   LiAl3(B4Ru5)2
_chemical_formula_sum   'Li1 Al3 B8 Ru10'
_cell_volume   244.07916680
_cell_formula_units_Z   1
loop_
 _symmetry_equiv_pos_site_id
 _symmetry_equiv_pos_as_xyz
  1  'x, y, z'
loop_
 _atom_site_type_symbol
 _atom_site_label
 _atom_site_symmetry_multiplicity
 _atom_site_fract_x
 _atom_site_fract_y
 _atom_site_fract_z
 _atom_site_occupancy
  Li  Li0  1  0.500000  0.860777  0.184374  1
  Al  Al1  1  0.500000  0.132288  0.809634  1
  Al  Al2  1  0.500000  0.630940  0.694930  1
  Al  Al3  1  0.500000  0.366527  0.316076  1
  B  B4  1  0.500000  0.955885  0.585108  1
  B  B5  1  0.500000  0.039843  0.406488  1
  B  B6  1  0.500000  0.851189  0.900470  1
  B  B7  1  0.500000  0.148004  0.104921  1
  B  B8  1  0.500000  0.655255  0.393679  1
  B  B9  1  0.500000  0.348729  0.602644  1
  B  B10  1  0.500000  0.457194  0.914687  1
  B  B11  1  0.500000  0.546286  0.088737  1
  Ru  Ru12  1  0.000000  0.657134  0.949195  1
  Ru  Ru13  1  0.000000  0.347281  0.049205  1
  Ru  Ru14  1  0.000000  0.846738  0.447346  1
  Ru  Ru15  1  0.000000  0.155354  0.550630  1
  Ru  Ru16  1  0.000000  0.009828  0.991174  1
  Ru  Ru17  1  0.000000  0.379252  0.767205  1
  Ru  Ru18  1  0.000000  0.602707  0.239602  1
  Ru  Ru19  1  0.000000  0.504831  0.506868  1
  Ru  Ru20  1  0.000000  0.878545  0.732011  1
  Ru  Ru21  1  0.000000  0.125411  0.265018  1
