# generated using pymatgen
data_K16ZrSnBi8
_symmetry_space_group_name_H-M   'P 1'
_cell_length_a   11.89276920
_cell_length_b   11.89277650
_cell_length_c   11.88717200
_cell_angle_alpha   60.01558769
_cell_angle_beta   60.01556740
_cell_angle_gamma   60.02830430
_symmetry_Int_Tables_number   1
_chemical_formula_structural   K16ZrSnBi8
_chemical_formula_sum   'K16 Zr1 Sn1 Bi8'
_cell_volume   1189.39161105
_cell_formula_units_Z   1
loop_
 _symmetry_equiv_pos_site_id
 _symmetry_equiv_pos_as_xyz
  1  'x, y, z'
loop_
 _atom_site_type_symbol
 _atom_site_label
 _atom_site_symmetry_multiplicity
 _atom_site_fract_x
 _atom_site_fract_y
 _atom_site_fract_z
 _atom_site_occupancy
  K  K0  1  0.623061  0.130905  0.623018  1
  K  K1  1  0.623043  0.623044  0.130933  1
  K  K2  1  0.130906  0.623062  0.623017  1
  K  K3  1  0.623043  0.623044  0.622981  1
  K  K4  1  0.021100  0.021099  0.478900  1
  K  K5  1  0.776976  0.223002  0.222911  1
  K  K6  1  0.223000  0.776977  0.777114  1
  K  K7  1  0.777042  0.777044  0.222957  1
  K  K8  1  0.776976  0.223002  0.777111  1
  K  K9  1  0.223000  0.776977  0.222910  1
  K  K10  1  0.478861  0.021189  0.478757  1
  K  K11  1  0.478861  0.021189  0.021193  1
  K  K12  1  0.021190  0.478859  0.478756  1
  K  K13  1  0.021190  0.478859  0.021195  1
  K  K14  1  0.222951  0.222951  0.777049  1
  K  K15  1  0.478752  0.478751  0.021248  1
  Zr  Zr16  1  0.750089  0.750087  0.749912  1
  Sn  Sn17  1  0.499986  0.499987  0.500013  1
  Bi  Bi18  1  0.395682  0.812857  0.395730  1
  Bi  Bi19  1  0.851824  0.851824  0.444632  1
  Bi  Bi20  1  0.444666  0.851853  0.851741  1
  Bi  Bi21  1  0.851824  0.851824  0.851722  1
  Bi  Bi22  1  0.812857  0.395682  0.395730  1
  Bi  Bi23  1  0.395634  0.395634  0.395687  1
  Bi  Bi24  1  0.395634  0.395634  0.813045  1
  Bi  Bi25  1  0.851853  0.444666  0.851741  1
