# generated using pymatgen
data_USbF34
_symmetry_space_group_name_H-M   'P 1'
_cell_length_a   8.90375181
_cell_length_b   8.38844792
_cell_length_c   10.28631681
_cell_angle_alpha   84.05624194
_cell_angle_beta   88.87951824
_cell_angle_gamma   66.75313033
_symmetry_Int_Tables_number   1
_chemical_formula_structural   USbF34
_chemical_formula_sum   'U1 Sb1 F34'
_cell_volume   701.91148146
_cell_formula_units_Z   1
loop_
 _symmetry_equiv_pos_site_id
 _symmetry_equiv_pos_as_xyz
  1  'x, y, z'
loop_
 _atom_site_type_symbol
 _atom_site_label
 _atom_site_symmetry_multiplicity
 _atom_site_fract_x
 _atom_site_fract_y
 _atom_site_fract_z
 _atom_site_occupancy
  U  U0  1  0.867539  0.250644  0.765554  1
  Sb  Sb1  1  0.138963  0.747555  0.239815  1
  F  F2  1  0.598739  0.210678  0.479329  1
  F  F3  1  0.400804  0.784642  0.510463  1
  F  F4  1  0.823586  0.730929  0.725621  1
  F  F5  1  0.167733  0.316716  0.300343  1
  F  F6  1  0.099649  0.738208  0.869764  1
  F  F7  1  0.920726  0.223938  0.148427  1
  F  F8  1  0.566442  0.146088  0.364601  1
  F  F9  1  0.435233  0.852498  0.623368  1
  F  F10  1  0.634756  0.334109  0.694884  1
  F  F11  1  0.358103  0.673432  0.306669  1
  F  F12  1  0.941987  0.053105  0.651040  1
  F  F13  1  0.064260  0.929714  0.356384  1
  F  F14  1  0.914913  0.398798  0.616026  1
  F  F15  1  0.090017  0.613192  0.388380  1
  F  F16  1  0.860556  0.772812  0.594869  1
  F  F17  1  0.148881  0.175112  0.377276  1
  F  F18  1  0.800502  0.451398  0.877517  1
  F  F19  1  0.205013  0.545561  0.145777  1
  F  F20  1  0.211490  0.693684  0.765763  1
  F  F21  1  0.779083  0.318996  0.217812  1
  F  F22  1  0.922306  0.820859  0.170393  1
  F  F23  1  0.097768  0.170453  0.838243  1
  F  F24  1  0.814918  0.098179  0.908667  1
  F  F25  1  0.184163  0.895288  0.104170  1
  F  F26  1  0.475034  0.592829  0.989206  1
  F  F27  1  0.513713  0.410226  0.005999  1
  F  F28  1  0.446007  0.100010  0.869609  1
  F  F29  1  0.533150  0.921968  0.132732  1
  F  F30  1  0.289677  0.245719  0.603763  1
  F  F31  1  0.700535  0.759200  0.376911  1
  F  F32  1  0.259953  0.398346  0.666709  1
  F  F33  1  0.749043  0.597017  0.324168  1
  F  F34  1  0.544296  0.928630  0.838582  1
  F  F35  1  0.440468  0.099467  0.151167  1
