# generated using pymatgen
data_Th4Al24Ir2Pt7
_symmetry_space_group_name_H-M   'P 1'
_cell_length_a   7.61604880
_cell_length_b   7.61578408
_cell_length_c   13.22718660
_cell_angle_alpha   84.52368645
_cell_angle_beta   101.07777666
_cell_angle_gamma   119.83563578
_symmetry_Int_Tables_number   1
_chemical_formula_structural   Th4Al24Ir2Pt7
_chemical_formula_sum   'Th4 Al24 Ir2 Pt7'
_cell_volume   653.11691132
_cell_formula_units_Z   1
loop_
 _symmetry_equiv_pos_site_id
 _symmetry_equiv_pos_as_xyz
  1  'x, y, z'
loop_
 _atom_site_type_symbol
 _atom_site_label
 _atom_site_symmetry_multiplicity
 _atom_site_fract_x
 _atom_site_fract_y
 _atom_site_fract_z
 _atom_site_occupancy
  Th  Th0  1  0.732247  0.998277  0.192165  1
  Th  Th1  1  0.267653  0.001572  0.807682  1
  Th  Th2  1  0.062516  0.668356  0.192318  1
  Th  Th3  1  0.937702  0.331671  0.807867  1
  Al  Al4  1  0.805331  0.865398  0.817245  1
  Al  Al5  1  0.195307  0.133735  0.182731  1
  Al  Al6  1  0.982809  0.669463  0.947383  1
  Al  Al7  1  0.022695  0.334076  0.052950  1
  Al  Al8  1  0.400998  0.662320  0.819165  1
  Al  Al9  1  0.597858  0.336517  0.182714  1
  Al  Al10  1  0.877276  0.665452  0.666270  1
  Al  Al11  1  0.123253  0.334563  0.333089  1
  Al  Al12  1  0.602508  0.462607  0.816817  1
  Al  Al13  1  0.398054  0.539237  0.181268  1
  Al  Al14  1  0.232876  0.344743  0.664397  1
  Al  Al15  1  0.767084  0.655334  0.335581  1
  Al  Al16  1  0.851288  0.333036  0.557682  1
  Al  Al17  1  0.186316  0.999881  0.557489  1
  Al  Al18  1  0.814521  0.000447  0.442489  1
  Al  Al19  1  0.348029  0.999713  0.052706  1
  Al  Al20  1  0.648447  0.994917  0.947086  1
  Al  Al21  1  0.554511  0.988580  0.666909  1
  Al  Al22  1  0.445658  0.010628  0.333689  1
  Al  Al23  1  0.520752  0.667106  0.560478  1
  Al  Al24  1  0.479331  0.332916  0.439286  1
  Al  Al25  1  0.678557  0.668664  0.039983  1
  Al  Al26  1  0.318190  0.334646  0.960101  1
  Al  Al27  1  0.148252  0.666118  0.442527  1
  Ir  Ir28  1  0.327857  0.672238  0.000114  1
  Ir  Ir29  1  0.999597  0.000445  0.999968  1
  Pt  Pt30  1  0.546023  0.324521  0.637405  1
  Pt  Pt31  1  0.454005  0.675186  0.362155  1
  Pt  Pt32  1  0.888298  0.008578  0.638835  1
  Pt  Pt33  1  0.111957  0.991247  0.361179  1
  Pt  Pt34  1  0.671854  0.328097  0.999823  1
  Pt  Pt35  1  0.203905  0.666834  0.638910  1
  Pt  Pt36  1  0.796484  0.332881  0.361546  1
