# generated using pymatgen
data_La3Pr3(SiPd5)2
_symmetry_space_group_name_H-M   'P 1'
_cell_length_a   8.52128371
_cell_length_b   8.50784268
_cell_length_c   8.50784255
_cell_angle_alpha   127.46985323
_cell_angle_beta   126.25192227
_cell_angle_gamma   78.44558927
_symmetry_Int_Tables_number   1
_chemical_formula_structural   La3Pr3(SiPd5)2
_chemical_formula_sum   'La3 Pr3 Si2 Pd10'
_cell_volume   382.33017588
_cell_formula_units_Z   1
loop_
 _symmetry_equiv_pos_site_id
 _symmetry_equiv_pos_as_xyz
  1  'x, y, z'
loop_
 _atom_site_type_symbol
 _atom_site_label
 _atom_site_symmetry_multiplicity
 _atom_site_fract_x
 _atom_site_fract_y
 _atom_site_fract_z
 _atom_site_occupancy
  La  La0  1  0.385254  0.249747  0.135506  1
  La  La1  1  0.779097  0.549108  0.229987  1
  La  La2  1  0.614369  0.750020  0.864349  1
  Pr  Pr3  1  0.820041  0.049000  0.771040  1
  Pr  Pr4  1  0.221157  0.450702  0.770455  1
  Pr  Pr5  1  0.180090  0.950935  0.229155  1
  Si  Si6  1  0.210951  0.750398  0.460553  1
  Si  Si7  1  0.790062  0.249917  0.540144  1
  Pd  Pd8  1  0.829204  0.590606  0.636633  1
  Pd  Pd9  1  0.546082  0.307561  0.636443  1
  Pd  Pd10  1  0.453300  0.090081  0.760856  1
  Pd  Pd11  1  0.829204  0.192571  0.238598  1
  Pd  Pd12  1  0.170705  0.409557  0.363006  1
  Pd  Pd13  1  0.453300  0.692445  0.363220  1
  Pd  Pd14  1  0.546082  0.909639  0.238521  1
  Pd  Pd15  1  0.170705  0.807699  0.761148  1
  Pd  Pd16  1  0.000199  0.000201  0.500387  1
  Pd  Pd17  1  0.000199  0.499811  0.999997  1
