# generated using pymatgen
data_Er6Ni16P13Pd4
_symmetry_space_group_name_H-M   'P 1'
_cell_length_a   12.80091500
_cell_length_b   12.80091475
_cell_length_c   3.78378300
_cell_angle_alpha   90.00000000
_cell_angle_beta   90.00000000
_cell_angle_gamma   119.99999876
_symmetry_Int_Tables_number   1
_chemical_formula_structural   Er6Ni16P13Pd4
_chemical_formula_sum   'Er6 Ni16 P13 Pd4'
_cell_volume   536.95622029
_cell_formula_units_Z   1
loop_
 _symmetry_equiv_pos_site_id
 _symmetry_equiv_pos_as_xyz
  1  'x, y, z'
loop_
 _atom_site_type_symbol
 _atom_site_label
 _atom_site_symmetry_multiplicity
 _atom_site_fract_x
 _atom_site_fract_y
 _atom_site_fract_z
 _atom_site_occupancy
  Er  Er0  1  0.531247  0.813142  0.000000  1
  Er  Er1  1  0.281895  0.468753  0.000000  1
  Er  Er2  1  0.186858  0.718105  0.000000  1
  Er  Er3  1  0.811490  0.283840  0.500000  1
  Er  Er4  1  0.472350  0.188510  0.500000  1
  Er  Er5  1  0.716160  0.527650  0.500000  1
  Ni  Ni6  1  0.800394  0.904222  0.000000  1
  Ni  Ni7  1  0.103828  0.199606  0.000000  1
  Ni  Ni8  1  0.095778  0.896172  0.000000  1
  Ni  Ni9  1  0.666667  0.333333  0.000000  1
  Ni  Ni10  1  0.559924  0.577340  0.000000  1
  Ni  Ni11  1  0.017415  0.440076  0.000000  1
  Ni  Ni12  1  0.422660  0.982585  0.000000  1
  Ni  Ni13  1  0.677149  0.749109  0.500000  1
  Ni  Ni14  1  0.071960  0.322851  0.500000  1
  Ni  Ni15  1  0.250891  0.928040  0.500000  1
  Ni  Ni16  1  0.975677  0.566151  0.500000  1
  Ni  Ni17  1  0.590475  0.024323  0.500000  1
  Ni  Ni18  1  0.433849  0.409525  0.500000  1
  Ni  Ni19  1  0.757584  0.080010  0.000000  1
  Ni  Ni20  1  0.322427  0.242416  0.000000  1
  Ni  Ni21  1  0.919990  0.677573  0.000000  1
  P  P22  1  0.480206  0.607270  0.500000  1
  P  P23  1  0.127064  0.519794  0.500000  1
  P  P24  1  0.392730  0.872936  0.500000  1
  P  P25  1  0.711421  0.944970  0.500000  1
  P  P26  1  0.233548  0.288579  0.500000  1
  P  P27  1  0.055030  0.766452  0.500000  1
  P  P28  1  0.859435  0.477166  0.000000  1
  P  P29  1  0.617730  0.140565  0.000000  1
  P  P30  1  0.522834  0.382270  0.000000  1
  P  P31  1  0.951544  0.241480  0.000000  1
  P  P32  1  0.289936  0.048456  0.000000  1
  P  P33  1  0.758520  0.710064  0.000000  1
  P  P34  1  0.000000  0.000000  0.000000  1
  Pd  Pd35  1  0.333333  0.666667  0.500000  1
  Pd  Pd36  1  0.922867  0.083525  0.500000  1
  Pd  Pd37  1  0.160658  0.077133  0.500000  1
  Pd  Pd38  1  0.916475  0.839342  0.500000  1
