# generated using pymatgen
data_ErTm7Se12
_symmetry_space_group_name_H-M   'P 1'
_cell_length_a   6.98489989
_cell_length_b   6.98608986
_cell_length_c   12.75617100
_cell_angle_alpha   100.65348762
_cell_angle_beta   100.64988218
_cell_angle_gamma   108.96176434
_symmetry_Int_Tables_number   1
_chemical_formula_structural   ErTm7Se12
_chemical_formula_sum   'Er1 Tm7 Se12'
_cell_volume   558.09873628
_cell_formula_units_Z   1
loop_
 _symmetry_equiv_pos_site_id
 _symmetry_equiv_pos_as_xyz
  1  'x, y, z'
loop_
 _atom_site_type_symbol
 _atom_site_label
 _atom_site_symmetry_multiplicity
 _atom_site_fract_x
 _atom_site_fract_y
 _atom_site_fract_z
 _atom_site_occupancy
  Er  Er0  1  0.958861  0.208862  0.917723  1
  Tm  Tm1  1  0.041244  0.791244  0.082490  1
  Tm  Tm2  1  0.622400  0.872400  0.244798  1
  Tm  Tm3  1  0.127610  0.377610  0.255220  1
  Tm  Tm4  1  0.208762  0.958762  0.417526  1
  Tm  Tm5  1  0.791225  0.041226  0.582452  1
  Tm  Tm6  1  0.872389  0.622389  0.744777  1
  Tm  Tm7  1  0.377586  0.127586  0.755171  1
  Se  Se8  1  0.802575  0.048530  0.087365  1
  Se  Se9  1  0.284791  0.538836  0.087365  1
  Se  Se10  1  0.369305  0.119312  0.249990  1
  Se  Se11  1  0.880683  0.630677  0.249990  1
  Se  Se12  1  0.951276  0.197260  0.412818  1
  Se  Se13  1  0.461543  0.715558  0.412818  1
  Se  Se14  1  0.538447  0.284437  0.587172  1
  Se  Se15  1  0.048725  0.802734  0.587172  1
  Se  Se16  1  0.119466  0.369460  0.749786  1
  Se  Se17  1  0.630319  0.880325  0.749786  1
  Se  Se18  1  0.715253  0.461879  0.912791  1
  Se  Se19  1  0.197538  0.950911  0.912791  1
