# generated using pymatgen
data_Ho10Bi5P2Pb
_symmetry_space_group_name_H-M   'P 1'
_cell_length_a   9.18317358
_cell_length_b   9.19510443
_cell_length_c   6.66955100
_cell_angle_alpha   90.00000000
_cell_angle_beta   90.00000000
_cell_angle_gamma   120.04299478
_symmetry_Int_Tables_number   1
_chemical_formula_structural   Ho10Bi5P2Pb
_chemical_formula_sum   'Ho10 Bi5 P2 Pb1'
_cell_volume   487.51543551
_cell_formula_units_Z   1
loop_
 _symmetry_equiv_pos_site_id
 _symmetry_equiv_pos_as_xyz
  1  'x, y, z'
loop_
 _atom_site_type_symbol
 _atom_site_label
 _atom_site_symmetry_multiplicity
 _atom_site_fract_x
 _atom_site_fract_y
 _atom_site_fract_z
 _atom_site_occupancy
  Ho  Ho0  1  0.763779  0.763894  0.750000  1
  Ho  Ho1  1  0.236221  0.000115  0.750000  1
  Ho  Ho2  1  0.000000  0.237039  0.750000  1
  Ho  Ho3  1  0.235235  0.237578  0.250000  1
  Ho  Ho4  1  0.764765  0.002344  0.250000  1
  Ho  Ho5  1  0.000000  0.762957  0.250000  1
  Ho  Ho6  1  0.667973  0.333508  0.000907  1
  Ho  Ho7  1  0.332027  0.665536  0.000907  1
  Ho  Ho8  1  0.332027  0.665536  0.499093  1
  Ho  Ho9  1  0.667973  0.333508  0.499093  1
  Bi  Bi10  1  0.400044  0.399746  0.750000  1
  Bi  Bi11  1  0.599956  0.999702  0.750000  1
  Bi  Bi12  1  0.000000  0.598939  0.750000  1
  Bi  Bi13  1  0.600592  0.600437  0.250000  1
  Bi  Bi14  1  0.399408  0.999845  0.250000  1
  P  P15  1  0.000000  0.999523  0.999848  1
  P  P16  1  0.000000  0.999523  0.500152  1
  Pb  Pb17  1  0.000000  0.400270  0.250000  1
