# generated using pymatgen
data_Ac2DyCu7(Ni3B)2
_symmetry_space_group_name_H-M   'P 1'
_cell_length_a   5.18909421
_cell_length_b   5.19119534
_cell_length_c   11.06637404
_cell_angle_alpha   89.99431482
_cell_angle_beta   90.01136393
_cell_angle_gamma   119.98659917
_symmetry_Int_Tables_number   1
_chemical_formula_structural   Ac2DyCu7(Ni3B)2
_chemical_formula_sum   'Ac2 Dy1 Cu7 Ni6 B2'
_cell_volume   258.19838696
_cell_formula_units_Z   1
loop_
 _symmetry_equiv_pos_site_id
 _symmetry_equiv_pos_as_xyz
  1  'x, y, z'
loop_
 _atom_site_type_symbol
 _atom_site_label
 _atom_site_symmetry_multiplicity
 _atom_site_fract_x
 _atom_site_fract_y
 _atom_site_fract_z
 _atom_site_occupancy
  Ac  Ac0  1  0.000074  0.000000  0.312868  1
  Ac  Ac1  1  0.999822  0.000000  0.687187  1
  Dy  Dy2  1  0.000070  0.000000  0.000039  1
  Cu  Cu3  1  0.499931  0.000000  0.499969  1
  Cu  Cu4  1  0.499917  0.499996  0.499974  1
  Cu  Cu5  1  0.999921  0.500004  0.499974  1
  Cu  Cu6  1  0.333333  0.666518  0.311896  1
  Cu  Cu7  1  0.666815  0.333482  0.311896  1
  Cu  Cu8  1  0.666576  0.333486  0.688021  1
  Cu  Cu9  1  0.333089  0.666514  0.688021  1
  Ni  Ni10  1  0.500122  0.000000  0.123907  1
  Ni  Ni11  1  0.500117  0.499999  0.123908  1
  Ni  Ni12  1  0.000118  0.500001  0.123908  1
  Ni  Ni13  1  0.499965  0.000000  0.876242  1
  Ni  Ni14  1  0.499962  0.499998  0.876079  1
  Ni  Ni15  1  0.999965  0.500002  0.876079  1
  B  B16  1  0.333416  0.666729  0.000015  1
  B  B17  1  0.666686  0.333271  0.000015  1
