# generated using pymatgen
data_Th3In2Rh3Pb
_symmetry_space_group_name_H-M   'P 1'
_cell_length_a   7.72660731
_cell_length_b   7.72660836
_cell_length_c   4.03658800
_cell_angle_alpha   90.00000000
_cell_angle_beta   90.00000000
_cell_angle_gamma   119.80920042
_symmetry_Int_Tables_number   1
_chemical_formula_structural   Th3In2Rh3Pb
_chemical_formula_sum   'Th3 In2 Rh3 Pb1'
_cell_volume   209.10026083
_cell_formula_units_Z   1
loop_
 _symmetry_equiv_pos_site_id
 _symmetry_equiv_pos_as_xyz
  1  'x, y, z'
loop_
 _atom_site_type_symbol
 _atom_site_label
 _atom_site_symmetry_multiplicity
 _atom_site_fract_x
 _atom_site_fract_y
 _atom_site_fract_z
 _atom_site_occupancy
  Th  Th0  1  0.406057  0.406057  0.500000  1
  Th  Th1  1  0.588785  0.005460  0.500000  1
  Th  Th2  1  0.005460  0.588785  0.500000  1
  In  In3  1  0.252406  0.999705  0.000000  1
  In  In4  1  0.999705  0.252406  0.000000  1
  Rh  Rh5  1  0.663263  0.325756  0.000000  1
  Rh  Rh6  1  0.325756  0.663263  0.000000  1
  Rh  Rh7  1  0.010018  0.010018  0.500000  1
  Pb  Pb8  1  0.748551  0.748551  0.000000  1
