# generated using pymatgen
data_Ho8Re(TcB8)3
_symmetry_space_group_name_H-M   'P 1'
_cell_length_a   3.67553300
_cell_length_b   9.14846931
_cell_length_c   11.52630339
_cell_angle_alpha   90.02962988
_cell_angle_beta   90.00000000
_cell_angle_gamma   90.00000000
_symmetry_Int_Tables_number   1
_chemical_formula_structural   Ho8Re(TcB8)3
_chemical_formula_sum   'Ho8 Re1 Tc3 B24'
_cell_volume   387.57767226
_cell_formula_units_Z   1
loop_
 _symmetry_equiv_pos_site_id
 _symmetry_equiv_pos_as_xyz
  1  'x, y, z'
loop_
 _atom_site_type_symbol
 _atom_site_label
 _atom_site_symmetry_multiplicity
 _atom_site_fract_x
 _atom_site_fract_y
 _atom_site_fract_z
 _atom_site_occupancy
  Ho  Ho0  1  0.000000  0.324071  0.413954  1
  Ho  Ho1  1  0.000000  0.676031  0.586006  1
  Ho  Ho2  1  0.000000  0.823994  0.086210  1
  Ho  Ho3  1  0.000000  0.176321  0.914043  1
  Ho  Ho4  1  0.000000  0.943016  0.369257  1
  Ho  Ho5  1  0.000000  0.057523  0.629949  1
  Ho  Ho6  1  0.000000  0.443018  0.130742  1
  Ho  Ho7  1  0.000000  0.556000  0.869669  1
  Re  Re8  1  0.000000  0.861080  0.820636  1
  Tc  Tc9  1  0.000000  0.639077  0.320598  1
  Tc  Tc10  1  0.000000  0.360967  0.679361  1
  Tc  Tc11  1  0.000000  0.139116  0.179455  1
  B  B12  1  0.500000  0.553472  0.433013  1
  B  B13  1  0.500000  0.446544  0.567009  1
  B  B14  1  0.500000  0.053525  0.067088  1
  B  B15  1  0.500000  0.946691  0.933221  1
  B  B16  1  0.500000  0.749170  0.418917  1
  B  B17  1  0.500000  0.250970  0.581112  1
  B  B18  1  0.500000  0.249151  0.081079  1
  B  B19  1  0.500000  0.750508  0.919027  1
  B  B20  1  0.500000  0.792320  0.265429  1
  B  B21  1  0.500000  0.207706  0.734506  1
  B  B22  1  0.500000  0.292304  0.234623  1
  B  B23  1  0.500000  0.707350  0.765473  1
  B  B24  1  0.500000  0.631256  0.185617  1
  B  B25  1  0.500000  0.368654  0.814369  1
  B  B26  1  0.500000  0.131271  0.314436  1
  B  B27  1  0.500000  0.868924  0.685437  1
  B  B28  1  0.500000  0.982527  0.211702  1
  B  B29  1  0.500000  0.017763  0.788118  1
  B  B30  1  0.500000  0.482501  0.288274  1
  B  B31  1  0.500000  0.517386  0.711784  1
  B  B32  1  0.500000  0.600293  0.028100  1
  B  B33  1  0.500000  0.399415  0.972029  1
  B  B34  1  0.500000  0.100439  0.471768  1
  B  B35  1  0.500000  0.899645  0.527988  1
