# generated using pymatgen
data_Y3Ho9CuTc3
_symmetry_space_group_name_H-M   'P 1'
_cell_length_a   6.25009500
_cell_length_b   7.32580799
_cell_length_c   9.12565800
_cell_angle_alpha   90.00000000
_cell_angle_beta   90.00000000
_cell_angle_gamma   90.05180689
_symmetry_Int_Tables_number   1
_chemical_formula_structural   Y3Ho9CuTc3
_chemical_formula_sum   'Y3 Ho9 Cu1 Tc3'
_cell_volume   417.83629479
_cell_formula_units_Z   1
loop_
 _symmetry_equiv_pos_site_id
 _symmetry_equiv_pos_as_xyz
  1  'x, y, z'
loop_
 _atom_site_type_symbol
 _atom_site_label
 _atom_site_symmetry_multiplicity
 _atom_site_fract_x
 _atom_site_fract_y
 _atom_site_fract_z
 _atom_site_occupancy
  Y  Y0  1  0.371335  0.538497  0.250000  1
  Y  Y1  1  0.873688  0.967965  0.750000  1
  Y  Y2  1  0.627382  0.458161  0.750000  1
  Ho  Ho3  1  0.665310  0.178724  0.063426  1
  Ho  Ho4  1  0.124410  0.039782  0.250000  1
  Ho  Ho5  1  0.829906  0.679263  0.431517  1
  Ho  Ho6  1  0.341009  0.826946  0.942455  1
  Ho  Ho7  1  0.165872  0.315325  0.558331  1
  Ho  Ho8  1  0.665310  0.178724  0.436574  1
  Ho  Ho9  1  0.165872  0.315325  0.941669  1
  Ho  Ho10  1  0.341009  0.826946  0.557545  1
  Ho  Ho11  1  0.829906  0.679263  0.068483  1
  Cu  Cu12  1  0.057989  0.609136  0.750000  1
  Tc  Tc13  1  0.956750  0.387076  0.250000  1
  Tc  Tc14  1  0.447133  0.110965  0.750000  1
  Tc  Tc15  1  0.537122  0.887904  0.250000  1
