# generated using pymatgen
data_TbHo7Sc12Si15Pb
_symmetry_space_group_name_H-M   'P 1'
_cell_length_a   7.12694473
_cell_length_b   7.41412036
_cell_length_c   14.05845235
_cell_angle_alpha   90.02276846
_cell_angle_beta   89.53215092
_cell_angle_gamma   90.04527524
_symmetry_Int_Tables_number   1
_chemical_formula_structural   TbHo7Sc12Si15Pb
_chemical_formula_sum   'Tb1 Ho7 Sc12 Si15 Pb1'
_cell_volume   742.82393426
_cell_formula_units_Z   1
loop_
 _symmetry_equiv_pos_site_id
 _symmetry_equiv_pos_as_xyz
  1  'x, y, z'
loop_
 _atom_site_type_symbol
 _atom_site_label
 _atom_site_symmetry_multiplicity
 _atom_site_fract_x
 _atom_site_fract_y
 _atom_site_fract_z
 _atom_site_occupancy
  Tb  Tb0  1  0.012703  0.175815  0.096520  1
  Ho  Ho1  1  0.987354  0.824324  0.903894  1
  Ho  Ho2  1  0.488409  0.676628  0.903763  1
  Ho  Ho3  1  0.986756  0.832388  0.598576  1
  Ho  Ho4  1  0.512028  0.323640  0.096994  1
  Ho  Ho5  1  0.006057  0.168909  0.398556  1
  Ho  Ho6  1  0.514794  0.319085  0.398731  1
  Ho  Ho7  1  0.502861  0.685966  0.600268  1
  Sc  Sc8  1  0.161207  0.502832  0.756658  1
  Sc  Sc9  1  0.838207  0.497533  0.249432  1
  Sc  Sc10  1  0.338738  0.002668  0.249419  1
  Sc  Sc11  1  0.662669  0.997106  0.751496  1
  Sc  Sc12  1  0.342422  0.160093  0.631185  1
  Sc  Sc13  1  0.665022  0.825667  0.372802  1
  Sc  Sc14  1  0.164503  0.684159  0.369067  1
  Sc  Sc15  1  0.669116  0.822948  0.124156  1
  Sc  Sc16  1  0.820805  0.322823  0.626727  1
  Sc  Sc17  1  0.330247  0.175516  0.875343  1
  Sc  Sc18  1  0.830176  0.323504  0.875448  1
  Sc  Sc19  1  0.169525  0.676799  0.125000  1
  Si  Si20  1  0.033715  0.118688  0.751285  1
  Si  Si21  1  0.964570  0.884861  0.247124  1
  Si  Si22  1  0.466752  0.615497  0.248664  1
  Si  Si23  1  0.531138  0.385656  0.751581  1
  Si  Si24  1  0.285296  0.869407  0.752164  1
  Si  Si25  1  0.713305  0.126729  0.247850  1
  Si  Si26  1  0.213366  0.372837  0.249489  1
  Si  Si27  1  0.788960  0.628130  0.751281  1
  Si  Si28  1  0.826263  0.539365  0.458205  1
  Si  Si29  1  0.338636  0.964371  0.460002  1
  Si  Si30  1  0.842408  0.534806  0.039275  1
  Si  Si31  1  0.661031  0.037194  0.538184  1
  Si  Si32  1  0.157057  0.465337  0.961560  1
  Si  Si33  1  0.656651  0.034944  0.960520  1
  Si  Si34  1  0.343037  0.965053  0.039642  1
  Pb  Pb35  1  0.174215  0.458723  0.539137  1
