# generated using pymatgen
data_BaP12Ru3Rh
_symmetry_space_group_name_H-M   'P 1'
_cell_length_a   7.06621521
_cell_length_b   7.06923138
_cell_length_c   7.06621537
_cell_angle_alpha   109.47987275
_cell_angle_beta   109.46257102
_cell_angle_gamma   109.47986773
_symmetry_Int_Tables_number   1
_chemical_formula_structural   BaP12Ru3Rh
_chemical_formula_sum   'Ba1 P12 Ru3 Rh1'
_cell_volume   271.69250501
_cell_formula_units_Z   1
loop_
 _symmetry_equiv_pos_site_id
 _symmetry_equiv_pos_as_xyz
  1  'x, y, z'
loop_
 _atom_site_type_symbol
 _atom_site_label
 _atom_site_symmetry_multiplicity
 _atom_site_fract_x
 _atom_site_fract_y
 _atom_site_fract_z
 _atom_site_occupancy
  Ba  Ba0  1  0.000000  0.000000  0.000000  1
  P  P1  1  0.144186  0.784338  0.639900  1
  P  P2  1  0.145668  0.504176  0.363650  1
  P  P3  1  0.854332  0.495824  0.636350  1
  P  P4  1  0.360100  0.144436  0.504286  1
  P  P5  1  0.782018  0.641491  0.145668  1
  P  P6  1  0.855814  0.215662  0.360100  1
  P  P7  1  0.636350  0.140526  0.782018  1
  P  P8  1  0.495714  0.640151  0.855814  1
  P  P9  1  0.639900  0.855564  0.495714  1
  P  P10  1  0.504286  0.359849  0.144186  1
  P  P11  1  0.363650  0.859474  0.217982  1
  P  P12  1  0.217982  0.358509  0.854332  1
  Ru  Ru13  1  0.500000  0.000000  0.000000  1
  Ru  Ru14  1  0.500000  0.500000  0.500000  1
  Ru  Ru15  1  0.000000  0.000000  0.500000  1
  Rh  Rh16  1  0.000000  0.500000  0.000000  1
