# generated using pymatgen
data_Sm4GeAsPd28
_symmetry_space_group_name_H-M   'P 1'
_cell_length_a   8.98258400
_cell_length_b   8.98258400
_cell_length_c   7.17949400
_cell_angle_alpha   90.00000000
_cell_angle_beta   90.00000000
_cell_angle_gamma   90.00000000
_symmetry_Int_Tables_number   1
_chemical_formula_structural   Sm4GeAsPd28
_chemical_formula_sum   'Sm4 Ge1 As1 Pd28'
_cell_volume   579.29050645
_cell_formula_units_Z   1
loop_
 _symmetry_equiv_pos_site_id
 _symmetry_equiv_pos_as_xyz
  1  'x, y, z'
loop_
 _atom_site_type_symbol
 _atom_site_label
 _atom_site_symmetry_multiplicity
 _atom_site_fract_x
 _atom_site_fract_y
 _atom_site_fract_z
 _atom_site_occupancy
  Sm  Sm0  1  0.500000  0.000000  0.935579  1
  Sm  Sm1  1  0.000000  0.500000  0.064947  1
  Sm  Sm2  1  0.000000  0.000000  0.499883  1
  Sm  Sm3  1  0.500000  0.500000  0.499883  1
  Ge  Ge4  1  0.000000  0.500000  0.550288  1
  As  As5  1  0.500000  0.000000  0.448856  1
  Pd  Pd6  1  0.330965  0.830965  0.621928  1
  Pd  Pd7  1  0.330965  0.169035  0.621928  1
  Pd  Pd8  1  0.669035  0.830965  0.621928  1
  Pd  Pd9  1  0.669035  0.169035  0.621928  1
  Pd  Pd10  1  0.169280  0.669280  0.378259  1
  Pd  Pd11  1  0.169280  0.330720  0.378259  1
  Pd  Pd12  1  0.830720  0.669280  0.378259  1
  Pd  Pd13  1  0.830720  0.330720  0.378259  1
  Pd  Pd14  1  0.500000  0.766270  0.253056  1
  Pd  Pd15  1  0.500000  0.233730  0.253056  1
  Pd  Pd16  1  0.266270  0.000000  0.253056  1
  Pd  Pd17  1  0.733730  0.000000  0.253056  1
  Pd  Pd18  1  0.000000  0.733753  0.746863  1
  Pd  Pd19  1  0.000000  0.266247  0.746863  1
  Pd  Pd20  1  0.233753  0.500000  0.746863  1
  Pd  Pd21  1  0.766247  0.500000  0.746863  1
  Pd  Pd22  1  0.500000  0.348583  0.856018  1
  Pd  Pd23  1  0.500000  0.651417  0.856018  1
  Pd  Pd24  1  0.848583  0.000000  0.856018  1
  Pd  Pd25  1  0.151417  0.000000  0.856018  1
  Pd  Pd26  1  0.000000  0.150934  0.144187  1
  Pd  Pd27  1  0.000000  0.849066  0.144187  1
  Pd  Pd28  1  0.650934  0.500000  0.144187  1
  Pd  Pd29  1  0.349066  0.500000  0.144187  1
  Pd  Pd30  1  0.249569  0.749569  0.999830  1
  Pd  Pd31  1  0.249569  0.250431  0.999830  1
  Pd  Pd32  1  0.750431  0.749569  0.999830  1
  Pd  Pd33  1  0.750431  0.250431  0.999830  1
