# generated using pymatgen
data_LiPr16Cd3(IrPt)2
_symmetry_space_group_name_H-M   'P 1'
_cell_length_a   10.08461185
_cell_length_b   10.08461168
_cell_length_c   10.06783279
_cell_angle_alpha   60.10896111
_cell_angle_beta   60.10896028
_cell_angle_gamma   60.18329385
_symmetry_Int_Tables_number   1
_chemical_formula_structural   LiPr16Cd3(IrPt)2
_chemical_formula_sum   'Li1 Pr16 Cd3 Ir2 Pt2'
_cell_volume   726.19396351
_cell_formula_units_Z   1
loop_
 _symmetry_equiv_pos_site_id
 _symmetry_equiv_pos_as_xyz
  1  'x, y, z'
loop_
 _atom_site_type_symbol
 _atom_site_label
 _atom_site_symmetry_multiplicity
 _atom_site_fract_x
 _atom_site_fract_y
 _atom_site_fract_z
 _atom_site_occupancy
  Li  Li0  1  0.571270  0.571270  0.571217  1
  Pr  Pr1  1  0.350028  0.350028  0.345785  1
  Pr  Pr2  1  0.349654  0.349654  0.956181  1
  Pr  Pr3  1  0.353099  0.952037  0.348329  1
  Pr  Pr4  1  0.952037  0.353099  0.348329  1
  Pr  Pr5  1  0.806148  0.191519  0.191325  1
  Pr  Pr6  1  0.187085  0.807685  0.814756  1
  Pr  Pr7  1  0.191519  0.806148  0.191325  1
  Pr  Pr8  1  0.807685  0.187085  0.814756  1
  Pr  Pr9  1  0.192515  0.192515  0.808676  1
  Pr  Pr10  1  0.812044  0.812044  0.186270  1
  Pr  Pr11  1  0.938246  0.564579  0.561429  1
  Pr  Pr12  1  0.562487  0.938037  0.937202  1
  Pr  Pr13  1  0.564579  0.938246  0.561429  1
  Pr  Pr14  1  0.938037  0.562487  0.937202  1
  Pr  Pr15  1  0.562899  0.562899  0.938011  1
  Pr  Pr16  1  0.937931  0.937931  0.561009  1
  Cd  Cd17  1  0.581471  0.581471  0.258344  1
  Cd  Cd18  1  0.581194  0.258592  0.581472  1
  Cd  Cd19  1  0.258592  0.581194  0.581472  1
  Ir  Ir20  1  0.142293  0.573849  0.144047  1
  Ir  Ir21  1  0.573849  0.142293  0.144047  1
  Pt  Pt22  1  0.142500  0.142500  0.144534  1
  Pt  Pt23  1  0.142836  0.142836  0.572850  1
