# generated using pymatgen
data_Ti8Al15Fe3Pd4
_symmetry_space_group_name_H-M   'P 1'
_cell_length_a   8.59730991
_cell_length_b   8.60356021
_cell_length_c   8.61498304
_cell_angle_alpha   120.17335362
_cell_angle_beta   119.89542701
_cell_angle_gamma   90.06094470
_symmetry_Int_Tables_number   1
_chemical_formula_structural   Ti8Al15Fe3Pd4
_chemical_formula_sum   'Ti8 Al15 Fe3 Pd4'
_cell_volume   449.87615875
_cell_formula_units_Z   1
loop_
 _symmetry_equiv_pos_site_id
 _symmetry_equiv_pos_as_xyz
  1  'x, y, z'
loop_
 _atom_site_type_symbol
 _atom_site_label
 _atom_site_symmetry_multiplicity
 _atom_site_fract_x
 _atom_site_fract_y
 _atom_site_fract_z
 _atom_site_occupancy
  Ti  Ti0  1  0.797363  0.284944  0.070971  1
  Ti  Ti1  1  0.211143  0.281521  0.487897  1
  Ti  Ti2  1  0.208087  0.708112  0.493821  1
  Ti  Ti3  1  0.207496  0.718982  0.927543  1
  Ti  Ti4  1  0.794324  0.723330  0.512618  1
  Ti  Ti5  1  0.786020  0.285475  0.505294  1
  Ti  Ti6  1  0.383225  0.116339  0.730682  1
  Ti  Ti7  1  0.368825  0.645782  0.257632  1
  Al  Al8  1  0.996707  0.496669  0.499403  1
  Al  Al9  1  0.151727  0.338164  0.175976  1
  Al  Al10  1  0.154787  0.973525  0.819316  1
  Al  Al11  1  0.150987  0.349450  0.813319  1
  Al  Al12  1  0.540500  0.347674  0.193169  1
  Al  Al13  1  0.850034  0.659912  0.823360  1
  Al  Al14  1  0.847265  0.031375  0.183249  1
  Al  Al15  1  0.847873  0.649925  0.183500  1
  Al  Al16  1  0.461732  0.653032  0.808291  1
  Al  Al17  1  0.374468  0.115620  0.260374  1
  Al  Al18  1  0.857907  0.124171  0.745055  1
  Al  Al19  1  0.617640  0.881250  0.265545  1
  Al  Al20  1  0.627803  0.356597  0.742264  1
  Al  Al21  1  0.626713  0.883221  0.740187  1
  Al  Al22  1  0.139383  0.877045  0.253797  1
  Fe  Fe23  1  0.005181  0.502105  0.005474  1
  Fe  Fe24  1  0.000257  0.000388  0.999799  1
  Fe  Fe25  1  0.495397  0.997920  0.501252  1
  Pd  Pd26  1  0.997577  0.998899  0.498738  1
  Pd  Pd27  1  0.500193  0.999153  0.001256  1
  Pd  Pd28  1  0.499762  0.500346  0.999601  1
  Pd  Pd29  1  0.499622  0.499075  0.500619  1
