# generated using pymatgen
data_LuZnCdNi2Pt
_symmetry_space_group_name_H-M   'P 1'
_cell_length_a   5.11636864
_cell_length_b   4.98435414
_cell_length_c   5.25054305
_cell_angle_alpha   60.31834300
_cell_angle_beta   60.84179019
_cell_angle_gamma   59.11992428
_symmetry_Int_Tables_number   1
_chemical_formula_structural   LuZnCdNi2Pt
_chemical_formula_sum   'Lu1 Zn1 Cd1 Ni2 Pt1'
_cell_volume   94.83601118
_cell_formula_units_Z   1
loop_
 _symmetry_equiv_pos_site_id
 _symmetry_equiv_pos_as_xyz
  1  'x, y, z'
loop_
 _atom_site_type_symbol
 _atom_site_label
 _atom_site_symmetry_multiplicity
 _atom_site_fract_x
 _atom_site_fract_y
 _atom_site_fract_z
 _atom_site_occupancy
  Lu  Lu0  1  0.247005  0.257784  0.248204  1
  Zn  Zn1  1  0.624689  0.121134  0.629488  1
  Cd  Cd2  1  0.006072  0.004956  0.982898  1
  Ni  Ni3  1  0.123601  0.622019  0.629789  1
  Ni  Ni4  1  0.624590  0.622019  0.629789  1
  Pt  Pt5  1  0.624041  0.622085  0.129833  1
