# generated using pymatgen
data_Rb2TiZn3P4
_symmetry_space_group_name_H-M   'P 1'
_cell_length_a   7.71031015
_cell_length_b   7.71030915
_cell_length_c   5.74412900
_cell_angle_alpha   90.00000000
_cell_angle_beta   90.00000000
_cell_angle_gamma   136.20584167
_symmetry_Int_Tables_number   1
_chemical_formula_structural   Rb2TiZn3P4
_chemical_formula_sum   'Rb2 Ti1 Zn3 P4'
_cell_volume   236.32930937
_cell_formula_units_Z   1
loop_
 _symmetry_equiv_pos_site_id
 _symmetry_equiv_pos_as_xyz
  1  'x, y, z'
loop_
 _atom_site_type_symbol
 _atom_site_label
 _atom_site_symmetry_multiplicity
 _atom_site_fract_x
 _atom_site_fract_y
 _atom_site_fract_z
 _atom_site_occupancy
  Rb  Rb0  1  0.500000  0.000000  0.254029  1
  Rb  Rb1  1  0.000000  0.500000  0.745971  1
  Ti  Ti2  1  0.000000  0.000000  0.000000  1
  Zn  Zn3  1  0.500000  0.500000  0.500000  1
  Zn  Zn4  1  0.500000  0.500000  0.000000  1
  Zn  Zn5  1  0.000000  0.000000  0.500000  1
  P  P6  1  0.660720  0.854351  0.757841  1
  P  P7  1  0.145649  0.339280  0.242159  1
  P  P8  1  0.854351  0.660720  0.242159  1
  P  P9  1  0.339280  0.145649  0.757841  1
