# generated using pymatgen
data_La4NdErTa2O14
_symmetry_space_group_name_H-M   'P 1'
_cell_length_a   6.70979351
_cell_length_b   6.69386714
_cell_length_c   7.75939500
_cell_angle_alpha   90.00000000
_cell_angle_beta   90.00000000
_cell_angle_gamma   108.77412356
_symmetry_Int_Tables_number   1
_chemical_formula_structural   La4NdErTa2O14
_chemical_formula_sum   'La4 Nd1 Er1 Ta2 O14'
_cell_volume   329.96655791
_cell_formula_units_Z   1
loop_
 _symmetry_equiv_pos_site_id
 _symmetry_equiv_pos_as_xyz
  1  'x, y, z'
loop_
 _atom_site_type_symbol
 _atom_site_label
 _atom_site_symmetry_multiplicity
 _atom_site_fract_x
 _atom_site_fract_y
 _atom_site_fract_z
 _atom_site_occupancy
  La  La0  1  0.530792  0.524828  0.498526  1
  La  La1  1  0.530792  0.524828  0.001474  1
  La  La2  1  0.008282  0.467213  0.750000  1
  La  La3  1  0.465108  0.004127  0.250000  1
  Nd  Nd4  1  0.533425  0.003741  0.750000  1
  Er  Er5  1  0.003327  0.528510  0.250000  1
  Ta  Ta6  1  0.000462  0.001003  0.497485  1
  Ta  Ta7  1  0.000462  0.001003  0.002515  1
  O  O8  1  0.945537  0.052875  0.750000  1
  O  O9  1  0.055043  0.938351  0.250000  1
  O  O10  1  0.351307  0.635873  0.250000  1
  O  O11  1  0.644644  0.369265  0.750000  1
  O  O12  1  0.376278  0.634676  0.750000  1
  O  O13  1  0.649061  0.381798  0.250000  1
  O  O14  1  0.305469  0.067961  0.965990  1
  O  O15  1  0.678874  0.919675  0.476698  1
  O  O16  1  0.305469  0.067961  0.534010  1
  O  O17  1  0.678874  0.919675  0.023302  1
  O  O18  1  0.035349  0.297618  0.453701  1
  O  O19  1  0.933046  0.680699  0.981976  1
  O  O20  1  0.933046  0.680699  0.518024  1
  O  O21  1  0.035349  0.297618  0.046299  1
