# generated using pymatgen
data_Tb6Tm2Tc(B8Ru)3
_symmetry_space_group_name_H-M   'P 1'
_cell_length_a   3.67107000
_cell_length_b   9.14813403
_cell_length_c   11.53894561
_cell_angle_alpha   89.97019239
_cell_angle_beta   90.00000000
_cell_angle_gamma   90.00000000
_symmetry_Int_Tables_number   1
_chemical_formula_structural   Tb6Tm2Tc(B8Ru)3
_chemical_formula_sum   'Tb6 Tm2 Tc1 B24 Ru3'
_cell_volume   387.51743941
_cell_formula_units_Z   1
loop_
 _symmetry_equiv_pos_site_id
 _symmetry_equiv_pos_as_xyz
  1  'x, y, z'
loop_
 _atom_site_type_symbol
 _atom_site_label
 _atom_site_symmetry_multiplicity
 _atom_site_fract_x
 _atom_site_fract_y
 _atom_site_fract_z
 _atom_site_occupancy
  Tb  Tb0  1  0.000000  0.324653  0.413047  1
  Tb  Tb1  1  0.000000  0.676319  0.583741  1
  Tb  Tb2  1  0.000000  0.820021  0.087453  1
  Tb  Tb3  1  0.000000  0.177427  0.915286  1
  Tb  Tb4  1  0.000000  0.943123  0.371868  1
  Tb  Tb5  1  0.000000  0.057484  0.628867  1
  Tm  Tm6  1  0.000000  0.444089  0.127923  1
  Tm  Tm7  1  0.000000  0.556829  0.871670  1
  Tc  Tc8  1  0.000000  0.636597  0.320200  1
  B  B9  1  0.500000  0.552771  0.432487  1
  B  B10  1  0.500000  0.446543  0.568000  1
  B  B11  1  0.500000  0.054518  0.067205  1
  B  B12  1  0.500000  0.945211  0.933131  1
  B  B13  1  0.500000  0.747438  0.418785  1
  B  B14  1  0.500000  0.252875  0.581214  1
  B  B15  1  0.500000  0.249499  0.080499  1
  B  B16  1  0.500000  0.750304  0.919364  1
  B  B17  1  0.500000  0.790139  0.265616  1
  B  B18  1  0.500000  0.210538  0.734451  1
  B  B19  1  0.500000  0.291821  0.232629  1
  B  B20  1  0.500000  0.708570  0.766596  1
  B  B21  1  0.500000  0.630142  0.184786  1
  B  B22  1  0.500000  0.369576  0.815559  1
  B  B23  1  0.500000  0.132493  0.313688  1
  B  B24  1  0.500000  0.867970  0.685932  1
  B  B25  1  0.500000  0.984252  0.212113  1
  B  B26  1  0.500000  0.015628  0.788474  1
  B  B27  1  0.500000  0.482018  0.286416  1
  B  B28  1  0.500000  0.516988  0.713465  1
  B  B29  1  0.500000  0.603984  0.028162  1
  B  B30  1  0.500000  0.395499  0.970758  1
  B  B31  1  0.500000  0.109121  0.470385  1
  B  B32  1  0.500000  0.892464  0.530291  1
  Ru  Ru33  1  0.000000  0.363163  0.680373  1
  Ru  Ru34  1  0.000000  0.139266  0.178004  1
  Ru  Ru35  1  0.000000  0.860665  0.821562  1
