# generated using pymatgen
data_Dy2AlHgPt2
_symmetry_space_group_name_H-M   'P 1'
_cell_length_a   4.33461500
_cell_length_b   6.99845508
_cell_length_c   8.28091837
_cell_angle_alpha   92.83039695
_cell_angle_beta   90.00000000
_cell_angle_gamma   90.00000000
_symmetry_Int_Tables_number   1
_chemical_formula_structural   Dy2AlHgPt2
_chemical_formula_sum   'Dy4 Al2 Hg2 Pt4'
_cell_volume   250.90024487
_cell_formula_units_Z   2
loop_
 _symmetry_equiv_pos_site_id
 _symmetry_equiv_pos_as_xyz
  1  'x, y, z'
loop_
 _atom_site_type_symbol
 _atom_site_label
 _atom_site_symmetry_multiplicity
 _atom_site_fract_x
 _atom_site_fract_y
 _atom_site_fract_z
 _atom_site_occupancy
  Dy  Dy0  1  0.250000  0.465654  0.187767  1
  Dy  Dy1  1  0.750000  0.534346  0.812233  1
  Dy  Dy2  1  0.750000  0.033425  0.683366  1
  Dy  Dy3  1  0.250000  0.966575  0.316634  1
  Al  Al4  1  0.750000  0.642094  0.441756  1
  Al  Al5  1  0.250000  0.357906  0.558244  1
  Hg  Hg6  1  0.250000  0.847850  0.931944  1
  Hg  Hg7  1  0.750000  0.152150  0.068056  1
  Pt  Pt8  1  0.250000  0.730433  0.593577  1
  Pt  Pt9  1  0.750000  0.269567  0.406423  1
  Pt  Pt10  1  0.750000  0.736196  0.146797  1
  Pt  Pt11  1  0.250000  0.263804  0.853203  1
