# generated using pymatgen
data_Sm4(Al8Pt3)3
_symmetry_space_group_name_H-M   'P 1'
_cell_length_a   7.56298537
_cell_length_b   7.58207194
_cell_length_c   13.24766163
_cell_angle_alpha   84.53618851
_cell_angle_beta   79.11341805
_cell_angle_gamma   59.96688113
_symmetry_Int_Tables_number   1
_chemical_formula_structural   Sm4(Al8Pt3)3
_chemical_formula_sum   'Sm4 Al24 Pt9'
_cell_volume   645.83063949
_cell_formula_units_Z   1
loop_
 _symmetry_equiv_pos_site_id
 _symmetry_equiv_pos_as_xyz
  1  'x, y, z'
loop_
 _atom_site_type_symbol
 _atom_site_label
 _atom_site_symmetry_multiplicity
 _atom_site_fract_x
 _atom_site_fract_y
 _atom_site_fract_z
 _atom_site_occupancy
  Sm  Sm0  1  0.393434  0.168189  0.808145  1
  Sm  Sm1  1  0.606566  0.831811  0.191855  1
  Sm  Sm2  1  0.733520  0.498417  0.808004  1
  Sm  Sm3  1  0.266480  0.501583  0.191996  1
  Al  Al4  1  0.685165  0.833774  0.945260  1
  Al  Al5  1  0.314835  0.166226  0.054740  1
  Al  Al6  1  0.146669  0.832757  0.561089  1
  Al  Al7  1  0.853331  0.167243  0.438911  1
  Al  Al8  1  0.479848  0.166946  0.558338  1
  Al  Al9  1  0.520152  0.833054  0.441662  1
  Al  Al10  1  0.215973  0.165301  0.331826  1
  Al  Al11  1  0.784027  0.834699  0.668174  1
  Al  Al12  1  0.437637  0.506833  0.668292  1
  Al  Al13  1  0.562363  0.493167  0.331708  1
  Al  Al14  1  0.110083  0.159416  0.667321  1
  Al  Al15  1  0.889917  0.840584  0.332679  1
  Al  Al16  1  0.351635  0.500376  0.945275  1
  Al  Al17  1  0.648365  0.499624  0.054725  1
  Al  Al18  1  0.014954  0.166777  0.954621  1
  Al  Al19  1  0.985046  0.833223  0.045379  1
  Al  Al20  1  0.186506  0.499135  0.441679  1
  Al  Al21  1  0.813494  0.500865  0.558321  1
  Al  Al22  1  0.735478  0.163910  0.183926  1
  Al  Al23  1  0.264522  0.836090  0.816074  1
  Al  Al24  1  0.061673  0.632359  0.814915  1
  Al  Al25  1  0.938327  0.367641  0.185085  1
  Al  Al26  1  0.856591  0.040391  0.815682  1
  Al  Al27  1  0.143409  0.959609  0.184318  1
  Pt  Pt28  1  0.120229  0.492780  0.638053  1
  Pt  Pt29  1  0.879771  0.507220  0.361947  1
  Pt  Pt30  1  0.657502  0.171224  0.999968  1
  Pt  Pt31  1  0.342498  0.828776  0.000032  1
  Pt  Pt32  1  0.538319  0.166616  0.361939  1
  Pt  Pt33  1  0.461681  0.833384  0.638061  1
  Pt  Pt34  1  0.779489  0.174573  0.636648  1
  Pt  Pt35  1  0.220511  0.825427  0.363352  1
  Pt  Pt36  1  0.000000  0.500000  0.000000  1
