# generated using pymatgen
data_Dy4HoLu3(P3Pd4)4
_symmetry_space_group_name_H-M   'P 1'
_cell_length_a   13.21462413
_cell_length_b   13.21202571
_cell_length_c   4.02512500
_cell_angle_alpha   90.00000000
_cell_angle_beta   90.00000000
_cell_angle_gamma   119.99350005
_symmetry_Int_Tables_number   1
_chemical_formula_structural   Dy4HoLu3(P3Pd4)4
_chemical_formula_sum   'Dy4 Ho1 Lu3 P12 Pd16'
_cell_volume   608.64305394
_cell_formula_units_Z   1
loop_
 _symmetry_equiv_pos_site_id
 _symmetry_equiv_pos_as_xyz
  1  'x, y, z'
loop_
 _atom_site_type_symbol
 _atom_site_label
 _atom_site_symmetry_multiplicity
 _atom_site_fract_x
 _atom_site_fract_y
 _atom_site_fract_z
 _atom_site_occupancy
  Dy  Dy0  1  0.333339  0.666675  0.500000  1
  Dy  Dy1  1  0.666661  0.333335  0.500000  1
  Dy  Dy2  1  0.185689  0.185730  0.000000  1
  Dy  Dy3  1  0.814311  0.000040  0.000000  1
  Ho  Ho4  1  0.000000  0.814084  0.000000  1
  Lu  Lu5  1  0.000000  0.446267  0.500000  1
  Lu  Lu6  1  0.553927  0.553869  0.500000  1
  Lu  Lu7  1  0.446073  0.999942  0.500000  1
  P  P8  1  0.000000  0.650399  0.500000  1
  P  P9  1  0.349887  0.349955  0.500000  1
  P  P10  1  0.650113  0.000068  0.500000  1
  P  P11  1  0.519911  0.688179  0.000000  1
  P  P12  1  0.311772  0.831553  0.000000  1
  P  P13  1  0.168342  0.480241  0.000000  1
  P  P14  1  0.480089  0.168268  0.000000  1
  P  P15  1  0.688228  0.519780  0.000000  1
  P  P16  1  0.831658  0.311897  0.000000  1
  P  P17  1  0.000000  0.173203  0.500000  1
  P  P18  1  0.826878  0.826611  0.500000  1
  P  P19  1  0.173122  0.999733  0.500000  1
  Pd  Pd20  1  0.509922  0.868218  0.000000  1
  Pd  Pd21  1  0.131764  0.641734  0.000000  1
  Pd  Pd22  1  0.358328  0.490104  0.000000  1
  Pd  Pd23  1  0.490078  0.358295  0.000000  1
  Pd  Pd24  1  0.868236  0.509969  0.000000  1
  Pd  Pd25  1  0.641672  0.131776  0.000000  1
  Pd  Pd26  1  0.000000  0.274608  0.000000  1
  Pd  Pd27  1  0.725793  0.725514  0.000000  1
  Pd  Pd28  1  0.274207  0.999720  0.000000  1
  Pd  Pd29  1  0.624911  0.808984  0.500000  1
  Pd  Pd30  1  0.190656  0.815905  0.500000  1
  Pd  Pd31  1  0.184132  0.375178  0.500000  1
  Pd  Pd32  1  0.375089  0.184073  0.500000  1
  Pd  Pd33  1  0.809344  0.625249  0.500000  1
  Pd  Pd34  1  0.815868  0.191045  0.500000  1
  Pd  Pd35  1  0.000000  0.999799  0.500000  1
