# generated using pymatgen
data_PmMgSi2Pt
_symmetry_space_group_name_H-M   'P 1'
_cell_length_a   6.15722993
_cell_length_b   6.15722937
_cell_length_c   6.15722970
_cell_angle_alpha   140.90017366
_cell_angle_beta   140.90017182
_cell_angle_gamma   56.48903231
_symmetry_Int_Tables_number   1
_chemical_formula_structural   PmMgSi2Pt
_chemical_formula_sum   'Pm1 Mg1 Si2 Pt1'
_cell_volume   92.10533319
_cell_formula_units_Z   1
loop_
 _symmetry_equiv_pos_site_id
 _symmetry_equiv_pos_as_xyz
  1  'x, y, z'
loop_
 _atom_site_type_symbol
 _atom_site_label
 _atom_site_symmetry_multiplicity
 _atom_site_fract_x
 _atom_site_fract_y
 _atom_site_fract_z
 _atom_site_occupancy
  Pm  Pm0  1  0.000000  0.000000  0.000000  1
  Mg  Mg1  1  0.750000  0.250000  0.500000  1
  Si  Si2  1  0.391228  0.391228  0.000000  1
  Si  Si3  1  0.608771  0.608771  0.000000  1
  Pt  Pt4  1  0.250000  0.750000  0.500000  1
