# generated using pymatgen
data_Pr5NbCrO12
_symmetry_space_group_name_H-M   'P 1'
_cell_length_a   7.09564497
_cell_length_b   7.09564537
_cell_length_c   7.71606160
_cell_angle_alpha   74.32058001
_cell_angle_beta   74.32057883
_cell_angle_gamma   50.93037954
_symmetry_Int_Tables_number   1
_chemical_formula_structural   Pr5NbCrO12
_chemical_formula_sum   'Pr5 Nb1 Cr1 O12'
_cell_volume   287.78609769
_cell_formula_units_Z   1
loop_
 _symmetry_equiv_pos_site_id
 _symmetry_equiv_pos_as_xyz
  1  'x, y, z'
loop_
 _atom_site_type_symbol
 _atom_site_label
 _atom_site_symmetry_multiplicity
 _atom_site_fract_x
 _atom_site_fract_y
 _atom_site_fract_z
 _atom_site_occupancy
  Pr  Pr0  1  0.299027  0.314121  0.357755  1
  Pr  Pr1  1  0.685879  0.700973  0.642245  1
  Pr  Pr2  1  0.688173  0.697389  0.166296  1
  Pr  Pr3  1  0.302611  0.311827  0.833704  1
  Pr  Pr4  1  0.000458  0.999542  0.500000  1
  Nb  Nb5  1  0.785121  0.214879  0.000000  1
  Cr  Cr6  1  0.264683  0.735317  0.000000  1
  O  O7  1  0.089938  0.599628  0.577789  1
  O  O8  1  0.004894  0.993039  0.179952  1
  O  O9  1  0.400372  0.910062  0.422211  1
  O  O10  1  0.499436  0.501983  0.172333  1
  O  O11  1  0.103388  0.588337  0.076753  1
  O  O12  1  0.898999  0.408935  0.421476  1
  O  O13  1  0.006961  0.995106  0.820048  1
  O  O14  1  0.591065  0.101000  0.578524  1
  O  O15  1  0.498017  0.500564  0.827667  1
  O  O16  1  0.573884  0.104569  0.078643  1
  O  O17  1  0.411663  0.896612  0.923247  1
  O  O18  1  0.895431  0.426116  0.921357  1
