# generated using pymatgen
data_Pr5NdTl10
_symmetry_space_group_name_H-M   'P 1'
_cell_length_a   6.70230742
_cell_length_b   6.70230868
_cell_length_c   10.77190600
_cell_angle_alpha   90.00000000
_cell_angle_beta   90.00000000
_cell_angle_gamma   101.86024830
_symmetry_Int_Tables_number   1
_chemical_formula_structural   Pr5NdTl10
_chemical_formula_sum   'Pr5 Nd1 Tl10'
_cell_volume   473.55402230
_cell_formula_units_Z   1
loop_
 _symmetry_equiv_pos_site_id
 _symmetry_equiv_pos_as_xyz
  1  'x, y, z'
loop_
 _atom_site_type_symbol
 _atom_site_label
 _atom_site_symmetry_multiplicity
 _atom_site_fract_x
 _atom_site_fract_y
 _atom_site_fract_z
 _atom_site_occupancy
  Pr  Pr0  1  0.797447  0.203067  0.000216  1
  Pr  Pr1  1  0.203067  0.797447  0.499784  1
  Pr  Pr2  1  0.203067  0.797447  0.000216  1
  Pr  Pr3  1  0.372640  0.372640  0.750000  1
  Pr  Pr4  1  0.797447  0.203067  0.499784  1
  Nd  Nd5  1  0.628059  0.628059  0.250000  1
  Tl  Tl6  1  0.925874  0.488031  0.750000  1
  Tl  Tl7  1  0.072200  0.512099  0.250000  1
  Tl  Tl8  1  0.693432  0.693432  0.543266  1
  Tl  Tl9  1  0.988193  0.988193  0.750000  1
  Tl  Tl10  1  0.307071  0.307071  0.045069  1
  Tl  Tl11  1  0.488031  0.925874  0.750000  1
  Tl  Tl12  1  0.512099  0.072200  0.250000  1
  Tl  Tl13  1  0.010869  0.010869  0.250000  1
  Tl  Tl14  1  0.693432  0.693432  0.956734  1
  Tl  Tl15  1  0.307071  0.307071  0.454931  1
