# generated using pymatgen
data_Zr3Sc5P12(Ir5Rh3)2
_symmetry_space_group_name_H-M   'P 1'
_cell_length_a   12.81750681
_cell_length_b   12.84499199
_cell_length_c   3.88179700
_cell_angle_alpha   90.00000000
_cell_angle_beta   90.00000000
_cell_angle_gamma   119.99003432
_symmetry_Int_Tables_number   1
_chemical_formula_structural   Zr3Sc5P12(Ir5Rh3)2
_chemical_formula_sum   'Zr3 Sc5 P12 Ir10 Rh6'
_cell_volume   553.53418849
_cell_formula_units_Z   1
loop_
 _symmetry_equiv_pos_site_id
 _symmetry_equiv_pos_as_xyz
  1  'x, y, z'
loop_
 _atom_site_type_symbol
 _atom_site_label
 _atom_site_symmetry_multiplicity
 _atom_site_fract_x
 _atom_site_fract_y
 _atom_site_fract_z
 _atom_site_occupancy
  Zr  Zr0  1  0.448315  0.999390  0.000000  1
  Zr  Zr1  1  0.000338  0.448463  0.000000  1
  Zr  Zr2  1  0.551738  0.552302  0.000000  1
  Sc  Sc3  1  0.333202  0.667768  0.000000  1
  Sc  Sc4  1  0.666503  0.333629  0.000000  1
  Sc  Sc5  1  0.816205  0.999202  0.500000  1
  Sc  Sc6  1  0.999303  0.815911  0.500000  1
  Sc  Sc7  1  0.183435  0.183126  0.500000  1
  P  P8  1  0.173777  0.000180  0.000000  1
  P  P9  1  0.001100  0.174537  0.000000  1
  P  P10  1  0.826575  0.826478  0.000000  1
  P  P11  1  0.171411  0.483582  0.500000  1
  P  P12  1  0.515472  0.686821  0.500000  1
  P  P13  1  0.312503  0.828556  0.500000  1
  P  P14  1  0.687306  0.516625  0.500000  1
  P  P15  1  0.828867  0.312555  0.500000  1
  P  P16  1  0.483709  0.171347  0.500000  1
  P  P17  1  0.654041  0.999926  0.000000  1
  P  P18  1  0.000058  0.653771  0.000000  1
  P  P19  1  0.346617  0.346628  0.000000  1
  Ir  Ir20  1  0.507757  0.864872  0.500000  1
  Ir  Ir21  1  0.135166  0.642357  0.500000  1
  Ir  Ir22  1  0.864291  0.506903  0.500000  1
  Ir  Ir23  1  0.642003  0.135759  0.500000  1
  Ir  Ir24  1  0.494036  0.357480  0.500000  1
  Ir  Ir25  1  0.369336  0.178011  0.000000  1
  Ir  Ir26  1  0.275441  0.999208  0.500000  1
  Ir  Ir27  1  0.999969  0.275770  0.500000  1
  Ir  Ir28  1  0.724456  0.724558  0.500000  1
  Ir  Ir29  1  0.000125  0.000394  0.000000  1
  Rh  Rh30  1  0.356444  0.491363  0.500000  1
  Rh  Rh31  1  0.178741  0.370707  0.000000  1
  Rh  Rh32  1  0.630262  0.808530  0.000000  1
  Rh  Rh33  1  0.191337  0.821530  0.000000  1
  Rh  Rh34  1  0.808665  0.630469  0.000000  1
  Rh  Rh35  1  0.821495  0.191292  0.000000  1
