# generated using pymatgen
data_Nd3Th(GaRh)4
_symmetry_space_group_name_H-M   'P 1'
_cell_length_a   4.31667200
_cell_length_b   7.05171591
_cell_length_c   8.08429177
_cell_angle_alpha   90.24492431
_cell_angle_beta   90.00000000
_cell_angle_gamma   90.00000000
_symmetry_Int_Tables_number   1
_chemical_formula_structural   Nd3Th(GaRh)4
_chemical_formula_sum   'Nd3 Th1 Ga4 Rh4'
_cell_volume   246.08314546
_cell_formula_units_Z   1
loop_
 _symmetry_equiv_pos_site_id
 _symmetry_equiv_pos_as_xyz
  1  'x, y, z'
loop_
 _atom_site_type_symbol
 _atom_site_label
 _atom_site_symmetry_multiplicity
 _atom_site_fract_x
 _atom_site_fract_y
 _atom_site_fract_z
 _atom_site_occupancy
  Nd  Nd0  1  0.750000  0.460874  0.812081  1
  Nd  Nd1  1  0.750000  0.959963  0.683595  1
  Nd  Nd2  1  0.250000  0.038902  0.317417  1
  Th  Th3  1  0.250000  0.539383  0.179625  1
  Ga  Ga4  1  0.250000  0.637377  0.565063  1
  Ga  Ga5  1  0.750000  0.356812  0.438678  1
  Ga  Ga6  1  0.750000  0.870171  0.063376  1
  Ga  Ga7  1  0.250000  0.138544  0.934714  1
  Rh  Rh8  1  0.250000  0.760540  0.891567  1
  Rh  Rh9  1  0.750000  0.248258  0.122019  1
  Rh  Rh10  1  0.750000  0.726351  0.372508  1
  Rh  Rh11  1  0.250000  0.262824  0.619356  1
