# generated using pymatgen
data_Li3Pr20Ti8Cu(S5O7)4
_symmetry_space_group_name_H-M   'P 1'
_cell_length_a   3.93515500
_cell_length_b   18.18565500
_cell_length_c   19.38273700
_cell_angle_alpha   90.00000000
_cell_angle_beta   90.00000000
_cell_angle_gamma   90.00000000
_symmetry_Int_Tables_number   1
_chemical_formula_structural   Li3Pr20Ti8Cu(S5O7)4
_chemical_formula_sum   'Li3 Pr20 Ti8 Cu1 S20 O28'
_cell_volume   1387.09400283
_cell_formula_units_Z   1
loop_
 _symmetry_equiv_pos_site_id
 _symmetry_equiv_pos_as_xyz
  1  'x, y, z'
loop_
 _atom_site_type_symbol
 _atom_site_label
 _atom_site_symmetry_multiplicity
 _atom_site_fract_x
 _atom_site_fract_y
 _atom_site_fract_z
 _atom_site_occupancy
  Li  Li0  1  0.250000  0.651409  0.139994  1
  Li  Li1  1  0.250000  0.848331  0.639770  1
  Li  Li2  1  0.750000  0.348543  0.860032  1
  Pr  Pr3  1  0.750000  0.377360  0.512426  1
  Pr  Pr4  1  0.750000  0.000267  0.605591  1
  Pr  Pr5  1  0.750000  0.696071  0.956623  1
  Pr  Pr6  1  0.250000  0.969312  0.180870  1
  Pr  Pr7  1  0.750000  0.804466  0.456615  1
  Pr  Pr8  1  0.750000  0.469377  0.318427  1
  Pr  Pr9  1  0.250000  0.530400  0.681602  1
  Pr  Pr10  1  0.250000  0.001865  0.393528  1
  Pr  Pr11  1  0.750000  0.123336  0.012135  1
  Pr  Pr12  1  0.250000  0.709058  0.306235  1
  Pr  Pr13  1  0.750000  0.291023  0.693847  1
  Pr  Pr14  1  0.250000  0.790903  0.806037  1
  Pr  Pr15  1  0.250000  0.303591  0.043761  1
  Pr  Pr16  1  0.750000  0.499057  0.105233  1
  Pr  Pr17  1  0.750000  0.208233  0.194974  1
  Pr  Pr18  1  0.250000  0.196743  0.542596  1
  Pr  Pr19  1  0.750000  0.030522  0.818438  1
  Pr  Pr20  1  0.250000  0.623314  0.487751  1
  Pr  Pr21  1  0.250000  0.876749  0.987743  1
  Pr  Pr22  1  0.250000  0.500601  0.894832  1
  Ti  Ti23  1  0.250000  0.113168  0.696607  1
  Ti  Ti24  1  0.250000  0.173553  0.877238  1
  Ti  Ti25  1  0.750000  0.887098  0.303250  1
  Ti  Ti26  1  0.750000  0.673437  0.622460  1
  Ti  Ti27  1  0.250000  0.386564  0.197277  1
  Ti  Ti28  1  0.250000  0.326734  0.378357  1
  Ti  Ti29  1  0.750000  0.826502  0.122692  1
  Ti  Ti30  1  0.750000  0.613026  0.803013  1
  Cu  Cu31  1  0.750000  0.145713  0.357607  1
  S  S32  1  0.250000  0.907555  0.529255  1
  S  S33  1  0.250000  0.208961  0.324575  1
  S  S34  1  0.250000  0.467593  0.432931  1
  S  S35  1  0.250000  0.592975  0.029392  1
  S  S36  1  0.250000  0.546114  0.218557  1
  S  S37  1  0.250000  0.383205  0.629654  1
  S  S38  1  0.750000  0.967324  0.066551  1
  S  S39  1  0.750000  0.095473  0.468631  1
  S  S40  1  0.750000  0.617007  0.370612  1
  S  S41  1  0.750000  0.712264  0.181187  1
  S  S42  1  0.750000  0.787855  0.681029  1
  S  S43  1  0.250000  0.953715  0.718503  1
  S  S44  1  0.750000  0.406824  0.970654  1
  S  S45  1  0.250000  0.117115  0.129428  1
  S  S46  1  0.250000  0.287896  0.818914  1
  S  S47  1  0.750000  0.453870  0.781449  1
  S  S48  1  0.750000  0.883063  0.870606  1
  S  S49  1  0.750000  0.532953  0.566854  1
  S  S50  1  0.250000  0.032771  0.933078  1
  S  S51  1  0.750000  0.046502  0.279060  1
  O  O52  1  0.250000  0.392430  0.295922  1
  O  O53  1  0.250000  0.076928  0.604095  1
  O  O54  1  0.250000  0.744868  0.426156  1
  O  O55  1  0.750000  0.803996  0.028985  1
  O  O56  1  0.250000  0.422612  0.104743  1
  O  O57  1  0.750000  0.924534  0.394882  1
  O  O58  1  0.750000  0.607079  0.704047  1
  O  O59  1  0.750000  0.696240  0.528812  1
  O  O60  1  0.250000  0.107208  0.795725  1
  O  O61  1  0.250000  0.196034  0.971054  1
  O  O62  1  0.750000  0.709634  0.826405  1
  O  O63  1  0.250000  0.842431  0.118943  1
  O  O64  1  0.250000  0.595161  0.799697  1
  O  O65  1  0.750000  0.576927  0.895405  1
  O  O66  1  0.750000  0.893257  0.204017  1
  O  O67  1  0.250000  0.289539  0.175016  1
  O  O68  1  0.250000  0.305452  0.472293  1
  O  O69  1  0.750000  0.342528  0.380669  1
  O  O70  1  0.750000  0.244437  0.074497  1
  O  O71  1  0.250000  0.905177  0.299470  1
  O  O72  1  0.750000  0.404684  0.200254  1
  O  O73  1  0.750000  0.157629  0.880987  1
  O  O74  1  0.750000  0.094981  0.700125  1
  O  O75  1  0.750000  0.255548  0.574106  1
  O  O76  1  0.250000  0.755450  0.926086  1
  O  O77  1  0.250000  0.209646  0.673503  1
  O  O78  1  0.250000  0.657628  0.618893  1
  O  O79  1  0.750000  0.790605  0.326729  1
