# generated using pymatgen
data_Ce4ReSi3
_symmetry_space_group_name_H-M   'P 1'
_cell_length_a   5.44461513
_cell_length_b   8.36750631
_cell_length_c   8.36750599
_cell_angle_alpha   83.91447254
_cell_angle_beta   70.96104840
_cell_angle_gamma   70.96106234
_symmetry_Int_Tables_number   1
_chemical_formula_structural   Ce4ReSi3
_chemical_formula_sum   'Ce8 Re2 Si6'
_cell_volume   340.64015430
_cell_formula_units_Z   2
loop_
 _symmetry_equiv_pos_site_id
 _symmetry_equiv_pos_as_xyz
  1  'x, y, z'
loop_
 _atom_site_type_symbol
 _atom_site_label
 _atom_site_symmetry_multiplicity
 _atom_site_fract_x
 _atom_site_fract_y
 _atom_site_fract_z
 _atom_site_occupancy
  Ce  Ce0  1  0.093095  0.135660  0.677537  1
  Ce  Ce1  1  0.906905  0.864340  0.322463  1
  Ce  Ce2  1  0.770779  0.322377  0.135697  1
  Ce  Ce3  1  0.406905  0.322463  0.864340  1
  Ce  Ce4  1  0.229221  0.677623  0.864303  1
  Ce  Ce5  1  0.593095  0.677537  0.135660  1
  Ce  Ce6  1  0.729221  0.864303  0.677623  1
  Ce  Ce7  1  0.270779  0.135697  0.322377  1
  Re  Re8  1  0.250000  0.500202  0.499798  1
  Re  Re9  1  0.750000  0.499798  0.500202  1
  Si  Si10  1  0.138530  0.499944  0.222660  1
  Si  Si11  1  0.861470  0.500056  0.777340  1
  Si  Si12  1  0.361470  0.777340  0.500056  1
  Si  Si13  1  0.638530  0.222660  0.499944  1
  Si  Si14  1  0.250000  0.000038  0.999962  1
  Si  Si15  1  0.750000  0.999962  0.000038  1
