# generated using pymatgen
data_Li(TaS2)4
_symmetry_space_group_name_H-M   'P 1'
_cell_length_a   13.47529303
_cell_length_b   13.47529335
_cell_length_c   5.76318658
_cell_angle_alpha   78.07367677
_cell_angle_beta   78.07367726
_cell_angle_gamma   14.53094904
_symmetry_Int_Tables_number   1
_chemical_formula_structural   Li(TaS2)4
_chemical_formula_sum   'Li1 Ta4 S8'
_cell_volume   256.80889587
_cell_formula_units_Z   1
loop_
 _symmetry_equiv_pos_site_id
 _symmetry_equiv_pos_as_xyz
  1  'x, y, z'
loop_
 _atom_site_type_symbol
 _atom_site_label
 _atom_site_symmetry_multiplicity
 _atom_site_fract_x
 _atom_site_fract_y
 _atom_site_fract_z
 _atom_site_occupancy
  Li  Li0  1  0.000000  0.000000  0.000000  1
  Ta  Ta1  1  0.373807  0.373807  0.630255  1
  Ta  Ta2  1  0.873151  0.873151  0.126359  1
  Ta  Ta3  1  0.626193  0.626193  0.369745  1
  Ta  Ta4  1  0.126849  0.126849  0.873641  1
  S  S5  1  0.933412  0.933412  0.737328  1
  S  S6  1  0.433334  0.433334  0.237170  1
  S  S7  1  0.566666  0.566666  0.762830  1
  S  S8  1  0.066588  0.066588  0.262672  1
  S  S9  1  0.684807  0.684807  0.648563  1
  S  S10  1  0.185038  0.185038  0.149451  1
  S  S11  1  0.814962  0.814962  0.850549  1
  S  S12  1  0.315193  0.315193  0.351437  1
