# generated using pymatgen
data_Tb11YTc3Pd
_symmetry_space_group_name_H-M   'P 1'
_cell_length_a   6.33161287
_cell_length_b   7.46684191
_cell_length_c   9.27492700
_cell_angle_alpha   90.00000000
_cell_angle_beta   90.00000000
_cell_angle_gamma   90.04445820
_symmetry_Int_Tables_number   1
_chemical_formula_structural   Tb11YTc3Pd
_chemical_formula_sum   'Tb11 Y1 Tc3 Pd1'
_cell_volume   438.49200505
_cell_formula_units_Z   1
loop_
 _symmetry_equiv_pos_site_id
 _symmetry_equiv_pos_as_xyz
  1  'x, y, z'
loop_
 _atom_site_type_symbol
 _atom_site_label
 _atom_site_symmetry_multiplicity
 _atom_site_fract_x
 _atom_site_fract_y
 _atom_site_fract_z
 _atom_site_occupancy
  Tb  Tb0  1  0.627521  0.046286  0.250000  1
  Tb  Tb1  1  0.370450  0.956748  0.750000  1
  Tb  Tb2  1  0.124080  0.461199  0.750000  1
  Tb  Tb3  1  0.165840  0.183791  0.058303  1
  Tb  Tb4  1  0.829955  0.824235  0.931576  1
  Tb  Tb5  1  0.664767  0.321963  0.935349  1
  Tb  Tb6  1  0.829955  0.824235  0.568424  1
  Tb  Tb7  1  0.341175  0.670544  0.059399  1
  Tb  Tb8  1  0.165840  0.183791  0.441697  1
  Tb  Tb9  1  0.341175  0.670544  0.440601  1
  Tb  Tb10  1  0.664767  0.321963  0.564651  1
  Y  Y11  1  0.868605  0.533662  0.250000  1
  Tc  Tc12  1  0.453551  0.384870  0.250000  1
  Tc  Tc13  1  0.538641  0.614803  0.750000  1
  Tc  Tc14  1  0.963549  0.113620  0.750000  1
  Pd  Pd15  1  0.050126  0.887746  0.250000  1
