# generated using pymatgen
data_Cs2ZrZn3P4
_symmetry_space_group_name_H-M   'P 1'
_cell_length_a   8.04319928
_cell_length_b   8.04320006
_cell_length_c   5.94719500
_cell_angle_alpha   90.00000000
_cell_angle_beta   90.00000000
_cell_angle_gamma   136.59148699
_symmetry_Int_Tables_number   1
_chemical_formula_structural   Cs2ZrZn3P4
_chemical_formula_sum   'Cs2 Zr1 Zn3 P4'
_cell_volume   264.39312559
_cell_formula_units_Z   1
loop_
 _symmetry_equiv_pos_site_id
 _symmetry_equiv_pos_as_xyz
  1  'x, y, z'
loop_
 _atom_site_type_symbol
 _atom_site_label
 _atom_site_symmetry_multiplicity
 _atom_site_fract_x
 _atom_site_fract_y
 _atom_site_fract_z
 _atom_site_occupancy
  Cs  Cs0  1  0.500000  0.000000  0.257164  1
  Cs  Cs1  1  0.000000  0.500000  0.742836  1
  Zr  Zr2  1  0.000000  0.000000  0.000000  1
  Zn  Zn3  1  0.500000  0.500000  0.500000  1
  Zn  Zn4  1  0.500000  0.500000  0.000000  1
  Zn  Zn5  1  0.000000  0.000000  0.500000  1
  P  P6  1  0.655312  0.840208  0.748220  1
  P  P7  1  0.159792  0.344688  0.251780  1
  P  P8  1  0.840208  0.655312  0.251780  1
  P  P9  1  0.344688  0.159792  0.748220  1
