# generated using pymatgen
data_NbCo4B4Mo2W
_symmetry_space_group_name_H-M   'P 1'
_cell_length_a   3.27692300
_cell_length_b   5.78573100
_cell_length_c   6.68026717
_cell_angle_alpha   89.83803366
_cell_angle_beta   90.00000000
_cell_angle_gamma   90.00000000
_symmetry_Int_Tables_number   1
_chemical_formula_structural   NbCo4B4Mo2W
_chemical_formula_sum   'Nb1 Co4 B4 Mo2 W1'
_cell_volume   126.65331801
_cell_formula_units_Z   1
loop_
 _symmetry_equiv_pos_site_id
 _symmetry_equiv_pos_as_xyz
  1  'x, y, z'
loop_
 _atom_site_type_symbol
 _atom_site_label
 _atom_site_symmetry_multiplicity
 _atom_site_fract_x
 _atom_site_fract_y
 _atom_site_fract_z
 _atom_site_occupancy
  Nb  Nb0  1  0.250000  0.527128  0.676519  1
  Co  Co1  1  0.750000  0.857422  0.557326  1
  Co  Co2  1  0.250000  0.141503  0.442613  1
  Co  Co3  1  0.750000  0.356849  0.942419  1
  Co  Co4  1  0.250000  0.645459  0.058806  1
  B  B5  1  0.250000  0.771004  0.370742  1
  B  B6  1  0.750000  0.221107  0.622081  1
  B  B7  1  0.250000  0.271743  0.124993  1
  B  B8  1  0.750000  0.735576  0.881104  1
  Mo  Mo9  1  0.750000  0.472306  0.321445  1
  Mo  Mo10  1  0.750000  0.973245  0.175752  1
  W  W11  1  0.250000  0.026657  0.826200  1
