# generated using pymatgen
data_Mg5Tc24
_symmetry_space_group_name_H-M   'P 1'
_cell_length_a   8.33750485
_cell_length_b   8.33298976
_cell_length_c   8.34000983
_cell_angle_alpha   109.49659067
_cell_angle_beta   109.53858756
_cell_angle_gamma   109.39732516
_symmetry_Int_Tables_number   1
_chemical_formula_structural   Mg5Tc24
_chemical_formula_sum   'Mg5 Tc24'
_cell_volume   445.94373837
_cell_formula_units_Z   1
loop_
 _symmetry_equiv_pos_site_id
 _symmetry_equiv_pos_as_xyz
  1  'x, y, z'
loop_
 _atom_site_type_symbol
 _atom_site_label
 _atom_site_symmetry_multiplicity
 _atom_site_fract_x
 _atom_site_fract_y
 _atom_site_fract_z
 _atom_site_occupancy
  Mg  Mg0  1  0.361479  0.361552  0.361572  1
  Mg  Mg1  1  0.000101  0.638409  0.999876  1
  Mg  Mg2  1  0.638524  0.000205  0.999797  1
  Mg  Mg3  1  0.999733  0.999891  0.638481  1
  Mg  Mg4  1  0.999973  0.000014  0.999944  1
  Tc  Tc5  1  0.000064  0.394304  0.677160  1
  Tc  Tc6  1  0.282751  0.605550  0.605582  1
  Tc  Tc7  1  0.717396  0.322755  0.322755  1
  Tc  Tc8  1  0.322839  0.717349  0.322846  1
  Tc  Tc9  1  0.677178  0.999977  0.394511  1
  Tc  Tc10  1  0.999979  0.677279  0.394784  1
  Tc  Tc11  1  0.605683  0.605639  0.282894  1
  Tc  Tc12  1  0.807084  0.807013  0.183459  1
  Tc  Tc13  1  0.376474  0.192993  0.000086  1
  Tc  Tc14  1  0.192883  0.376535  0.000053  1
  Tc  Tc15  1  0.623489  0.816229  0.623483  1
  Tc  Tc16  1  0.376497  0.999939  0.192681  1
  Tc  Tc17  1  0.999981  0.376554  0.192690  1
  Tc  Tc18  1  0.816212  0.623460  0.623491  1
  Tc  Tc19  1  0.183673  0.807126  0.807268  1
  Tc  Tc20  1  0.807245  0.183831  0.807319  1
  Tc  Tc21  1  0.192796  0.000028  0.376504  1
  Tc  Tc22  1  0.000100  0.192894  0.376489  1
  Tc  Tc23  1  0.623491  0.623453  0.816338  1
  Tc  Tc24  1  0.394384  0.000043  0.677182  1
  Tc  Tc25  1  0.605350  0.282579  0.605387  1
  Tc  Tc26  1  0.677273  0.394457  0.000006  1
  Tc  Tc27  1  0.394766  0.677374  0.999984  1
  Tc  Tc28  1  0.322603  0.322569  0.717380  1
