# generated using pymatgen
data_GdEr(SeO3)3
_symmetry_space_group_name_H-M   'P 1'
_cell_length_a   7.13841367
_cell_length_b   8.19740500
_cell_length_c   9.12322723
_cell_angle_alpha   71.15210438
_cell_angle_beta   70.07006210
_cell_angle_gamma   66.10556990
_symmetry_Int_Tables_number   1
_chemical_formula_structural   GdEr(SeO3)3
_chemical_formula_sum   'Gd2 Er2 Se6 O18'
_cell_volume   448.11828765
_cell_formula_units_Z   2
loop_
 _symmetry_equiv_pos_site_id
 _symmetry_equiv_pos_as_xyz
  1  'x, y, z'
loop_
 _atom_site_type_symbol
 _atom_site_label
 _atom_site_symmetry_multiplicity
 _atom_site_fract_x
 _atom_site_fract_y
 _atom_site_fract_z
 _atom_site_occupancy
  Gd  Gd0  1  0.333607  0.728029  0.591661  1
  Gd  Gd1  1  0.666393  0.271971  0.408339  1
  Er  Er2  1  0.740850  0.735626  0.799749  1
  Er  Er3  1  0.259150  0.264374  0.200251  1
  Se  Se4  1  0.425960  0.779693  0.195357  1
  Se  Se5  1  0.574040  0.220307  0.804643  1
  Se  Se6  1  0.148455  0.747746  0.967400  1
  Se  Se7  1  0.851545  0.252254  0.032600  1
  Se  Se8  1  0.886605  0.758200  0.417355  1
  Se  Se9  1  0.113395  0.241800  0.582645  1
  O  O10  1  0.647527  0.792016  0.048108  1
  O  O11  1  0.352473  0.207984  0.951892  1
  O  O12  1  0.362661  0.948335  0.298293  1
  O  O13  1  0.637339  0.051665  0.701707  1
  O  O14  1  0.515604  0.598932  0.348264  1
  O  O15  1  0.484396  0.401068  0.651736  1
  O  O16  1  0.168687  0.563125  0.121712  1
  O  O17  1  0.831313  0.436875  0.878288  1
  O  O18  1  0.407120  0.710316  0.851252  1
  O  O19  1  0.592880  0.289684  0.148748  1
  O  O20  1  0.343142  0.250582  0.433646  1
  O  O21  1  0.656858  0.749418  0.566354  1
  O  O22  1  0.970580  0.292208  0.441819  1
  O  O23  1  0.029420  0.707792  0.558181  1
  O  O24  1  0.155408  0.016283  0.656049  1
  O  O25  1  0.844592  0.983717  0.343951  1
  O  O26  1  0.937152  0.304554  0.164086  1
  O  O27  1  0.062848  0.695446  0.835914  1
