# generated using pymatgen
data_Sm4Al18IrPd5
_symmetry_space_group_name_H-M   'P 1'
_cell_length_a   7.64602556
_cell_length_b   7.64602479
_cell_length_c   9.54764000
_cell_angle_alpha   90.02193359
_cell_angle_beta   90.02193358
_cell_angle_gamma   119.51734029
_symmetry_Int_Tables_number   1
_chemical_formula_structural   Sm4Al18IrPd5
_chemical_formula_sum   'Sm4 Al18 Ir1 Pd5'
_cell_volume   485.72420138
_cell_formula_units_Z   1
loop_
 _symmetry_equiv_pos_site_id
 _symmetry_equiv_pos_as_xyz
  1  'x, y, z'
loop_
 _atom_site_type_symbol
 _atom_site_label
 _atom_site_symmetry_multiplicity
 _atom_site_fract_x
 _atom_site_fract_y
 _atom_site_fract_z
 _atom_site_occupancy
  Sm  Sm0  1  0.993830  0.669137  0.249892  1
  Sm  Sm1  1  0.006170  0.330863  0.750108  1
  Sm  Sm2  1  0.669137  0.993830  0.249892  1
  Sm  Sm3  1  0.330863  0.006170  0.750108  1
  Al  Al4  1  0.130063  0.130063  0.251964  1
  Al  Al5  1  0.869937  0.869937  0.748036  1
  Al  Al6  1  0.001902  0.334489  0.076407  1
  Al  Al7  1  0.998098  0.665511  0.923593  1
  Al  Al8  1  0.999738  0.668673  0.574160  1
  Al  Al9  1  0.331327  0.000262  0.425840  1
  Al  Al10  1  0.000262  0.331327  0.425840  1
  Al  Al11  1  0.668673  0.999738  0.574160  1
  Al  Al12  1  0.665511  0.998098  0.923593  1
  Al  Al13  1  0.334489  0.001902  0.076407  1
  Al  Al14  1  0.330666  0.330666  0.551777  1
  Al  Al15  1  0.669334  0.669334  0.448223  1
  Al  Al16  1  0.665889  0.665889  0.055024  1
  Al  Al17  1  0.334111  0.334111  0.944976  1
  Al  Al18  1  0.340373  0.546211  0.250764  1
  Al  Al19  1  0.659627  0.453789  0.749236  1
  Al  Al20  1  0.546211  0.340373  0.250764  1
  Al  Al21  1  0.453789  0.659627  0.749236  1
  Ir  Ir22  1  0.000000  0.000000  0.500000  1
  Pd  Pd23  1  0.671457  0.328543  0.000000  1
  Pd  Pd24  1  0.328543  0.671457  0.000000  1
  Pd  Pd25  1  0.328442  0.671558  0.500000  1
  Pd  Pd26  1  0.671558  0.328442  0.500000  1
  Pd  Pd27  1  0.000000  0.000000  0.000000  1
