# generated using pymatgen
data_Sm4Y6B2Br15
_symmetry_space_group_name_H-M   'P 1'
_cell_length_a   9.20718872
_cell_length_b   9.92866301
_cell_length_c   10.76840248
_cell_angle_alpha   91.10936589
_cell_angle_beta   114.47288683
_cell_angle_gamma   110.90813482
_symmetry_Int_Tables_number   1
_chemical_formula_structural   Sm4Y6B2Br15
_chemical_formula_sum   'Sm4 Y6 B2 Br15'
_cell_volume   820.61560113
_cell_formula_units_Z   1
loop_
 _symmetry_equiv_pos_site_id
 _symmetry_equiv_pos_as_xyz
  1  'x, y, z'
loop_
 _atom_site_type_symbol
 _atom_site_label
 _atom_site_symmetry_multiplicity
 _atom_site_fract_x
 _atom_site_fract_y
 _atom_site_fract_z
 _atom_site_occupancy
  Sm  Sm0  1  0.800140  0.409078  0.276985  1
  Sm  Sm1  1  0.199860  0.590922  0.723015  1
  Sm  Sm2  1  0.673253  0.746657  0.819420  1
  Sm  Sm3  1  0.326747  0.253343  0.180580  1
  Y  Y4  1  0.524877  0.706752  0.093521  1
  Y  Y5  1  0.475123  0.293248  0.906479  1
  Y  Y6  1  0.584301  0.040090  0.320375  1
  Y  Y7  1  0.415699  0.959910  0.679625  1
  Y  Y8  1  0.719426  0.073786  0.047450  1
  Y  Y9  1  0.280574  0.926214  0.952550  1
  B  B10  1  0.467806  0.821901  0.878766  1
  B  B11  1  0.532194  0.178099  0.121234  1
  Br  Br12  1  0.000000  0.000000  0.000000  1
  Br  Br13  1  0.634246  0.886552  0.580814  1
  Br  Br14  1  0.365754  0.113448  0.419186  1
  Br  Br15  1  0.880691  0.293893  0.528858  1
  Br  Br16  1  0.119309  0.706107  0.471142  1
  Br  Br17  1  0.292182  0.763088  0.178871  1
  Br  Br18  1  0.707818  0.236912  0.821129  1
  Br  Br19  1  0.051914  0.338820  0.223679  1
  Br  Br20  1  0.168074  0.057591  0.704809  1
  Br  Br21  1  0.831926  0.942409  0.295191  1
  Br  Br22  1  0.235779  0.411309  0.944920  1
  Br  Br23  1  0.764221  0.588691  0.055080  1
  Br  Br24  1  0.408231  0.457036  0.660387  1
  Br  Br25  1  0.591769  0.542964  0.339613  1
  Br  Br26  1  0.948086  0.661180  0.776321  1
