# generated using pymatgen
data_LiAl11OsRu
_symmetry_space_group_name_H-M   'P 1'
_cell_length_a   5.00141566
_cell_length_b   5.00141646
_cell_length_c   8.95921779
_cell_angle_alpha   89.22405780
_cell_angle_beta   89.22405895
_cell_angle_gamma   98.00015090
_symmetry_Int_Tables_number   1
_chemical_formula_structural   LiAl11OsRu
_chemical_formula_sum   'Li1 Al11 Os1 Ru1'
_cell_volume   221.87896566
_cell_formula_units_Z   1
loop_
 _symmetry_equiv_pos_site_id
 _symmetry_equiv_pos_as_xyz
  1  'x, y, z'
loop_
 _atom_site_type_symbol
 _atom_site_label
 _atom_site_symmetry_multiplicity
 _atom_site_fract_x
 _atom_site_fract_y
 _atom_site_fract_z
 _atom_site_occupancy
  Li  Li0  1  0.143999  0.143999  0.090448  1
  Al  Al1  1  0.669076  0.316733  0.001225  1
  Al  Al2  1  0.323167  0.676359  0.501922  1
  Al  Al3  1  0.316733  0.669076  0.001225  1
  Al  Al4  1  0.676359  0.323167  0.501922  1
  Al  Al5  1  0.869437  0.869437  0.603930  1
  Al  Al6  1  0.128439  0.128439  0.384014  1
  Al  Al7  1  0.860018  0.860018  0.909178  1
  Al  Al8  1  0.981036  0.615921  0.246863  1
  Al  Al9  1  0.022290  0.384435  0.753947  1
  Al  Al10  1  0.615921  0.981036  0.246863  1
  Al  Al11  1  0.384435  0.022290  0.753947  1
  Os  Os12  1  0.469199  0.469199  0.254018  1
  Ru  Ru13  1  0.539891  0.539891  0.750500  1
