# generated using pymatgen
data_NdY5C2Cl7
_symmetry_space_group_name_H-M   'P 1'
_cell_length_a   10.22112396
_cell_length_b   10.22112363
_cell_length_c   11.63839016
_cell_angle_alpha   56.45365788
_cell_angle_beta   56.45365896
_cell_angle_gamma   21.13424829
_symmetry_Int_Tables_number   1
_chemical_formula_structural   NdY5C2Cl7
_chemical_formula_sum   'Nd1 Y5 C2 Cl7'
_cell_volume   362.56586600
_cell_formula_units_Z   1
loop_
 _symmetry_equiv_pos_site_id
 _symmetry_equiv_pos_as_xyz
  1  'x, y, z'
loop_
 _atom_site_type_symbol
 _atom_site_label
 _atom_site_symmetry_multiplicity
 _atom_site_fract_x
 _atom_site_fract_y
 _atom_site_fract_z
 _atom_site_occupancy
  Nd  Nd0  1  0.223264  0.223264  0.856716  1
  Y  Y1  1  0.318189  0.318189  0.358711  1
  Y  Y2  1  0.128396  0.128396  0.441420  1
  Y  Y3  1  0.870981  0.870981  0.559907  1
  Y  Y4  1  0.682854  0.682854  0.641082  1
  Y  Y5  1  0.775302  0.775302  0.149854  1
  C  C6  1  0.279975  0.279975  0.605651  1
  C  C7  1  0.721320  0.721320  0.388343  1
  Cl  Cl8  1  0.169034  0.169034  0.166079  1
  Cl  Cl9  1  0.838351  0.838351  0.835877  1
  Cl  Cl10  1  0.060140  0.060140  0.713097  1
  Cl  Cl11  1  0.940448  0.940448  0.284757  1
  Cl  Cl12  1  0.500770  0.500770  0.498620  1
  Cl  Cl13  1  0.388855  0.388855  0.067451  1
  Cl  Cl14  1  0.602121  0.602121  0.932436  1
