# generated using pymatgen
data_Er3Tm2ReRuO12
_symmetry_space_group_name_H-M   'P 1'
_cell_length_a   6.78551875
_cell_length_b   6.78426369
_cell_length_c   7.43470807
_cell_angle_alpha   73.83037045
_cell_angle_beta   73.83662569
_cell_angle_gamma   49.13032942
_symmetry_Int_Tables_number   1
_chemical_formula_structural   Er3Tm2ReRuO12
_chemical_formula_sum   'Er3 Tm2 Re1 Ru1 O12'
_cell_volume   246.38674704
_cell_formula_units_Z   1
loop_
 _symmetry_equiv_pos_site_id
 _symmetry_equiv_pos_as_xyz
  1  'x, y, z'
loop_
 _atom_site_type_symbol
 _atom_site_label
 _atom_site_symmetry_multiplicity
 _atom_site_fract_x
 _atom_site_fract_y
 _atom_site_fract_z
 _atom_site_occupancy
  Er  Er0  1  0.817546  0.786779  0.358412  1
  Er  Er1  1  0.213325  0.182315  0.642027  1
  Er  Er2  1  0.190806  0.180079  0.175225  1
  Tm  Tm3  1  0.819941  0.809049  0.824489  1
  Tm  Tm4  1  0.510854  0.489033  0.500198  1
  Re  Re5  1  0.701709  0.298327  0.999850  1
  Ru  Ru6  1  0.267335  0.732725  0.999848  1
  O  O7  1  0.414844  0.936199  0.913203  1
  O  O8  1  0.062248  0.587535  0.085521  1
  O  O9  1  0.588994  0.091808  0.086633  1
  O  O10  1  0.907424  0.412263  0.912636  1
  O  O11  1  0.610287  0.090367  0.568092  1
  O  O12  1  0.908932  0.390420  0.432952  1
  O  O13  1  0.412253  0.897060  0.424367  1
  O  O14  1  0.985316  0.014366  0.821468  1
  O  O15  1  0.985014  0.014170  0.178278  1
  O  O16  1  0.497320  0.496439  0.795484  1
  O  O17  1  0.503708  0.502603  0.204481  1
  O  O18  1  0.102146  0.588463  0.576834  1
