# generated using pymatgen
data_DyTm10Th5(MgRu)4
_symmetry_space_group_name_H-M   'P 1'
_cell_length_a   9.67274010
_cell_length_b   9.73401769
_cell_length_c   9.73648425
_cell_angle_alpha   59.69485307
_cell_angle_beta   59.99766415
_cell_angle_gamma   59.91934286
_symmetry_Int_Tables_number   1
_chemical_formula_structural   DyTm10Th5(MgRu)4
_chemical_formula_sum   'Dy1 Tm10 Th5 Mg4 Ru4'
_cell_volume   646.31674960
_cell_formula_units_Z   1
loop_
 _symmetry_equiv_pos_site_id
 _symmetry_equiv_pos_as_xyz
  1  'x, y, z'
loop_
 _atom_site_type_symbol
 _atom_site_label
 _atom_site_symmetry_multiplicity
 _atom_site_fract_x
 _atom_site_fract_y
 _atom_site_fract_z
 _atom_site_occupancy
  Dy  Dy0  1  0.935961  0.934709  0.565261  1
  Tm  Tm1  1  0.185718  0.814046  0.814385  1
  Tm  Tm2  1  0.191389  0.809117  0.184506  1
  Tm  Tm3  1  0.814074  0.184371  0.810764  1
  Tm  Tm4  1  0.191051  0.185173  0.809079  1
  Tm  Tm5  1  0.814186  0.810529  0.183851  1
  Tm  Tm6  1  0.932267  0.567833  0.568805  1
  Tm  Tm7  1  0.564788  0.934186  0.935028  1
  Tm  Tm8  1  0.562240  0.934980  0.566184  1
  Tm  Tm9  1  0.935973  0.564541  0.935803  1
  Tm  Tm10  1  0.563289  0.566146  0.934988  1
  Th  Th11  1  0.342285  0.348872  0.348519  1
  Th  Th12  1  0.347738  0.347866  0.958172  1
  Th  Th13  1  0.347757  0.958460  0.347419  1
  Th  Th14  1  0.958621  0.350126  0.349754  1
  Th  Th15  1  0.815941  0.183721  0.183081  1
  Mg  Mg16  1  0.580804  0.580316  0.580325  1
  Mg  Mg17  1  0.578969  0.582736  0.257644  1
  Mg  Mg18  1  0.578193  0.258226  0.582850  1
  Mg  Mg19  1  0.259017  0.578752  0.579575  1
  Ru  Ru20  1  0.131015  0.146781  0.145718  1
  Ru  Ru21  1  0.145623  0.141707  0.569740  1
  Ru  Ru22  1  0.145422  0.569635  0.141433  1
  Ru  Ru23  1  0.577682  0.147170  0.147113  1
