# generated using pymatgen
data_BaPr(SbPt)2
_symmetry_space_group_name_H-M   'P 1'
_cell_length_a   4.58851800
_cell_length_b   4.58851923
_cell_length_c   9.16062800
_cell_angle_alpha   90.00000000
_cell_angle_beta   90.00000000
_cell_angle_gamma   120.00000553
_symmetry_Int_Tables_number   1
_chemical_formula_structural   BaPr(SbPt)2
_chemical_formula_sum   'Ba1 Pr1 Sb2 Pt2'
_cell_volume   167.03244989
_cell_formula_units_Z   1
loop_
 _symmetry_equiv_pos_site_id
 _symmetry_equiv_pos_as_xyz
  1  'x, y, z'
loop_
 _atom_site_type_symbol
 _atom_site_label
 _atom_site_symmetry_multiplicity
 _atom_site_fract_x
 _atom_site_fract_y
 _atom_site_fract_z
 _atom_site_occupancy
  Ba  Ba0  1  0.000000  0.000000  0.754556  1
  Pr  Pr1  1  0.000000  0.000000  0.252425  1
  Sb  Sb2  1  0.666667  0.333333  0.013803  1
  Sb  Sb3  1  0.333333  0.666667  0.483430  1
  Pt  Pt4  1  0.666667  0.333333  0.484186  1
  Pt  Pt5  1  0.333333  0.666667  0.059601  1
