# generated using pymatgen
data_Ca3Ga2Co9B4
_symmetry_space_group_name_H-M   'P 1'
_cell_length_a   5.21885301
_cell_length_b   5.21797865
_cell_length_c   9.36645900
_cell_angle_alpha   90.00003118
_cell_angle_beta   90.00004627
_cell_angle_gamma   119.96624457
_symmetry_Int_Tables_number   1
_chemical_formula_structural   Ca3Ga2Co9B4
_chemical_formula_sum   'Ca3 Ga2 Co9 B4'
_cell_volume   220.96884844
_cell_formula_units_Z   1
loop_
 _symmetry_equiv_pos_site_id
 _symmetry_equiv_pos_as_xyz
  1  'x, y, z'
loop_
 _atom_site_type_symbol
 _atom_site_label
 _atom_site_symmetry_multiplicity
 _atom_site_fract_x
 _atom_site_fract_y
 _atom_site_fract_z
 _atom_site_occupancy
  Ca  Ca0  1  0.999994  0.999999  0.000002  1
  Ca  Ca1  1  0.999990  0.000002  0.340757  1
  Ca  Ca2  1  0.000000  0.000002  0.659287  1
  Ga  Ga3  1  0.333445  0.666691  0.999983  1
  Ga  Ga4  1  0.666544  0.333306  0.999983  1
  Co  Co5  1  0.499994  0.000000  0.499999  1
  Co  Co6  1  0.499996  0.500002  0.500005  1
  Co  Co7  1  0.999994  0.500001  0.500009  1
  Co  Co8  1  0.499988  0.999997  0.212131  1
  Co  Co9  1  0.499994  0.499998  0.212122  1
  Co  Co10  1  0.999993  0.500002  0.212141  1
  Co  Co11  1  0.499997  0.000001  0.787834  1
  Co  Co12  1  0.499999  0.500004  0.787851  1
  Co  Co13  1  0.999996  0.499999  0.787893  1
  B  B14  1  0.333340  0.666658  0.351639  1
  B  B15  1  0.666646  0.333337  0.351638  1
  B  B16  1  0.666729  0.333379  0.648363  1
  B  B17  1  0.333261  0.666623  0.648363  1
