# generated using pymatgen
data_Y3TiFe7CoP6
_symmetry_space_group_name_H-M   'P 1'
_cell_length_a   3.73963500
_cell_length_b   10.67920600
_cell_length_c   12.31508600
_cell_angle_alpha   90.00000000
_cell_angle_beta   90.00000000
_cell_angle_gamma   90.00000000
_symmetry_Int_Tables_number   1
_chemical_formula_structural   Y3TiFe7CoP6
_chemical_formula_sum   'Y6 Ti2 Fe14 Co2 P12'
_cell_volume   491.81936963
_cell_formula_units_Z   2
loop_
 _symmetry_equiv_pos_site_id
 _symmetry_equiv_pos_as_xyz
  1  'x, y, z'
loop_
 _atom_site_type_symbol
 _atom_site_label
 _atom_site_symmetry_multiplicity
 _atom_site_fract_x
 _atom_site_fract_y
 _atom_site_fract_z
 _atom_site_occupancy
  Y  Y0  1  0.000000  0.500000  0.531256  1
  Y  Y1  1  0.500000  0.000000  0.468744  1
  Y  Y2  1  0.500000  0.823825  0.205639  1
  Y  Y3  1  0.500000  0.176175  0.205639  1
  Y  Y4  1  0.000000  0.676175  0.794361  1
  Y  Y5  1  0.000000  0.323825  0.794361  1
  Ti  Ti6  1  0.500000  0.500000  0.153595  1
  Ti  Ti7  1  0.000000  0.000000  0.846405  1
  Fe  Fe8  1  0.000000  0.500000  0.990727  1
  Fe  Fe9  1  0.500000  0.000000  0.009273  1
  Fe  Fe10  1  0.500000  0.327195  0.999096  1
  Fe  Fe11  1  0.500000  0.672805  0.999096  1
  Fe  Fe12  1  0.000000  0.172805  0.000904  1
  Fe  Fe13  1  0.000000  0.827195  0.000904  1
  Fe  Fe14  1  0.500000  0.297790  0.430542  1
  Fe  Fe15  1  0.500000  0.702210  0.430542  1
  Fe  Fe16  1  0.000000  0.202210  0.569458  1
  Fe  Fe17  1  0.000000  0.797790  0.569458  1
  Fe  Fe18  1  0.500000  0.883994  0.702882  1
  Fe  Fe19  1  0.500000  0.116006  0.702882  1
  Fe  Fe20  1  0.000000  0.616006  0.297118  1
  Fe  Fe21  1  0.000000  0.383994  0.297118  1
  Co  Co22  1  0.500000  0.500000  0.706111  1
  Co  Co23  1  0.000000  0.000000  0.293889  1
  P  P24  1  0.500000  0.500000  0.891248  1
  P  P25  1  0.000000  0.000000  0.108752  1
  P  P26  1  0.500000  0.500000  0.356814  1
  P  P27  1  0.000000  0.000000  0.643186  1
  P  P28  1  0.500000  0.308837  0.614685  1
  P  P29  1  0.500000  0.691163  0.614685  1
  P  P30  1  0.000000  0.191163  0.385315  1
  P  P31  1  0.000000  0.808837  0.385315  1
  P  P32  1  0.500000  0.843882  0.891212  1
  P  P33  1  0.500000  0.156118  0.891212  1
  P  P34  1  0.000000  0.656118  0.108788  1
  P  P35  1  0.000000  0.343882  0.108788  1
