# generated using pymatgen
data_TbDyVPtF14
_symmetry_space_group_name_H-M   'P 1'
_cell_length_a   5.54051500
_cell_length_b   8.87505545
_cell_length_c   11.89663277
_cell_angle_alpha   62.84739108
_cell_angle_beta   90.00000000
_cell_angle_gamma   90.00000000
_symmetry_Int_Tables_number   1
_chemical_formula_structural   TbDyVPtF14
_chemical_formula_sum   'Tb2 Dy2 V2 Pt2 F28'
_cell_volume   520.51687182
_cell_formula_units_Z   2
loop_
 _symmetry_equiv_pos_site_id
 _symmetry_equiv_pos_as_xyz
  1  'x, y, z'
loop_
 _atom_site_type_symbol
 _atom_site_label
 _atom_site_symmetry_multiplicity
 _atom_site_fract_x
 _atom_site_fract_y
 _atom_site_fract_z
 _atom_site_occupancy
  Tb  Tb0  1  0.758179  0.811146  0.764625  1
  Tb  Tb1  1  0.258179  0.188854  0.735375  1
  Dy  Dy2  1  0.240205  0.190956  0.228054  1
  Dy  Dy3  1  0.740205  0.809044  0.271946  1
  V  V4  1  0.753968  0.275213  0.954887  1
  V  V5  1  0.253968  0.724787  0.545113  1
  Pt  Pt6  1  0.243210  0.729830  0.043949  1
  Pt  Pt7  1  0.743210  0.270170  0.456051  1
  F  F8  1  0.435626  0.701108  0.916264  1
  F  F9  1  0.935626  0.298892  0.583736  1
  F  F10  1  0.545158  0.291162  0.074811  1
  F  F11  1  0.045158  0.708838  0.425189  1
  F  F12  1  0.442317  0.282322  0.540096  1
  F  F13  1  0.942317  0.717678  0.959904  1
  F  F14  1  0.534417  0.716463  0.453619  1
  F  F15  1  0.034417  0.283537  0.046381  1
  F  F16  1  0.768591  0.508482  0.865017  1
  F  F17  1  0.268591  0.491518  0.634983  1
  F  F18  1  0.232853  0.481990  0.145259  1
  F  F19  1  0.732853  0.518010  0.354741  1
  F  F20  1  0.757707  0.045379  0.046011  1
  F  F21  1  0.257707  0.954621  0.453989  1
  F  F22  1  0.244148  0.978004  0.949934  1
  F  F23  1  0.744148  0.021996  0.550066  1
  F  F24  1  0.986047  0.725744  0.643708  1
  F  F25  1  0.486047  0.274256  0.856292  1
  F  F26  1  0.039707  0.265058  0.366934  1
  F  F27  1  0.539707  0.734942  0.133066  1
  F  F28  1  0.054837  0.753298  0.175493  1
  F  F29  1  0.554837  0.246702  0.324507  1
  F  F30  1  0.959588  0.258605  0.831795  1
  F  F31  1  0.459588  0.741395  0.668205  1
  F  F32  1  0.421297  0.972487  0.231236  1
  F  F33  1  0.921297  0.027513  0.268764  1
  F  F34  1  0.582145  0.029422  0.766775  1
  F  F35  1  0.082145  0.970578  0.733225  1
