# generated using pymatgen
data_Ho2Tm8ZnBi5
_symmetry_space_group_name_H-M   'P 1'
_cell_length_a   8.10302800
_cell_length_b   9.35361500
_cell_length_c   11.87545300
_cell_angle_alpha   90.00000000
_cell_angle_beta   90.00000000
_cell_angle_gamma   90.00000000
_symmetry_Int_Tables_number   1
_chemical_formula_structural   Ho2Tm8ZnBi5
_chemical_formula_sum   'Ho4 Tm16 Zn2 Bi10'
_cell_volume   900.07150947
_cell_formula_units_Z   2
loop_
 _symmetry_equiv_pos_site_id
 _symmetry_equiv_pos_as_xyz
  1  'x, y, z'
loop_
 _atom_site_type_symbol
 _atom_site_label
 _atom_site_symmetry_multiplicity
 _atom_site_fract_x
 _atom_site_fract_y
 _atom_site_fract_z
 _atom_site_occupancy
  Ho  Ho0  1  0.311741  0.250000  0.217819  1
  Ho  Ho1  1  0.811741  0.250000  0.282181  1
  Ho  Ho2  1  0.676565  0.750000  0.787998  1
  Ho  Ho3  1  0.176565  0.750000  0.712002  1
  Tm  Tm4  1  0.353187  0.750000  0.204920  1
  Tm  Tm5  1  0.853187  0.750000  0.295080  1
  Tm  Tm6  1  0.653795  0.250000  0.782518  1
  Tm  Tm7  1  0.153795  0.250000  0.717482  1
  Tm  Tm8  1  0.684274  0.571505  0.056902  1
  Tm  Tm9  1  0.184274  0.928495  0.443098  1
  Tm  Tm10  1  0.309330  0.047445  0.941239  1
  Tm  Tm11  1  0.809330  0.452555  0.558761  1
  Tm  Tm12  1  0.309330  0.452555  0.941239  1
  Tm  Tm13  1  0.809330  0.047445  0.558761  1
  Tm  Tm14  1  0.684274  0.928495  0.056902  1
  Tm  Tm15  1  0.184274  0.571505  0.443098  1
  Tm  Tm16  1  0.481197  0.250000  0.490979  1
  Tm  Tm17  1  0.981197  0.250000  0.009021  1
  Tm  Tm18  1  0.535424  0.750000  0.509624  1
  Tm  Tm19  1  0.035424  0.750000  0.990376  1
  Zn  Zn20  1  0.408113  0.750000  0.960622  1
  Zn  Zn21  1  0.908113  0.750000  0.539378  1
  Bi  Bi22  1  0.595618  0.250000  0.041026  1
  Bi  Bi23  1  0.095618  0.250000  0.458974  1
  Bi  Bi24  1  0.560211  0.996508  0.324577  1
  Bi  Bi25  1  0.060211  0.503492  0.175423  1
  Bi  Bi26  1  0.438365  0.497994  0.677281  1
  Bi  Bi27  1  0.938365  0.002006  0.822719  1
  Bi  Bi28  1  0.438365  0.002006  0.677281  1
  Bi  Bi29  1  0.938365  0.497994  0.822719  1
  Bi  Bi30  1  0.560211  0.503492  0.324577  1
  Bi  Bi31  1  0.060211  0.996508  0.175423  1
