# generated using pymatgen
data_Dy2Ho3Er3(P3Ir4)4
_symmetry_space_group_name_H-M   'P 1'
_cell_length_a   12.96309600
_cell_length_b   12.96309648
_cell_length_c   3.99958300
_cell_angle_alpha   90.00000000
_cell_angle_beta   90.00000000
_cell_angle_gamma   119.99999878
_symmetry_Int_Tables_number   1
_chemical_formula_structural   Dy2Ho3Er3(P3Ir4)4
_chemical_formula_sum   'Dy2 Ho3 Er3 P12 Ir16'
_cell_volume   582.05341462
_cell_formula_units_Z   1
loop_
 _symmetry_equiv_pos_site_id
 _symmetry_equiv_pos_as_xyz
  1  'x, y, z'
loop_
 _atom_site_type_symbol
 _atom_site_label
 _atom_site_symmetry_multiplicity
 _atom_site_fract_x
 _atom_site_fract_y
 _atom_site_fract_z
 _atom_site_occupancy
  Dy  Dy0  1  0.333333  0.666667  0.500000  1
  Dy  Dy1  1  0.666667  0.333333  0.500000  1
  Ho  Ho2  1  0.000000  0.814790  0.000000  1
  Ho  Ho3  1  0.185210  0.185210  0.000000  1
  Ho  Ho4  1  0.814790  0.000000  0.000000  1
  Er  Er5  1  0.000000  0.446556  0.500000  1
  Er  Er6  1  0.553444  0.553444  0.500000  1
  Er  Er7  1  0.446556  0.000000  0.500000  1
  P  P8  1  0.000000  0.652960  0.500000  1
  P  P9  1  0.347040  0.347040  0.500000  1
  P  P10  1  0.652960  0.000000  0.500000  1
  P  P11  1  0.516668  0.688266  0.000000  1
  P  P12  1  0.311734  0.828401  0.000000  1
  P  P13  1  0.171599  0.483332  0.000000  1
  P  P14  1  0.483332  0.171599  0.000000  1
  P  P15  1  0.688266  0.516668  0.000000  1
  P  P16  1  0.828401  0.311734  0.000000  1
  P  P17  1  0.000000  0.176488  0.500000  1
  P  P18  1  0.823512  0.823512  0.500000  1
  P  P19  1  0.176488  0.000000  0.500000  1
  Ir  Ir20  1  0.509475  0.865729  0.000000  1
  Ir  Ir21  1  0.134271  0.643747  0.000000  1
  Ir  Ir22  1  0.356253  0.490525  0.000000  1
  Ir  Ir23  1  0.490525  0.356253  0.000000  1
  Ir  Ir24  1  0.865729  0.509475  0.000000  1
  Ir  Ir25  1  0.643747  0.134271  0.000000  1
  Ir  Ir26  1  0.000000  0.274773  0.000000  1
  Ir  Ir27  1  0.725227  0.725227  0.000000  1
  Ir  Ir28  1  0.274773  0.000000  0.000000  1
  Ir  Ir29  1  0.630494  0.809251  0.500000  1
  Ir  Ir30  1  0.190749  0.821244  0.500000  1
  Ir  Ir31  1  0.178756  0.369506  0.500000  1
  Ir  Ir32  1  0.369506  0.178756  0.500000  1
  Ir  Ir33  1  0.809251  0.630494  0.500000  1
  Ir  Ir34  1  0.821244  0.190749  0.500000  1
  Ir  Ir35  1  0.000000  0.000000  0.500000  1
