# generated using pymatgen
data_CaY2PaN4
_symmetry_space_group_name_H-M   'P 1'
_cell_length_a   6.07264962
_cell_length_b   6.07265003
_cell_length_c   4.92417500
_cell_angle_alpha   66.08137048
_cell_angle_beta   66.08138387
_cell_angle_gamma   47.83724731
_symmetry_Int_Tables_number   1
_chemical_formula_structural   CaY2PaN4
_chemical_formula_sum   'Ca1 Y2 Pa1 N4'
_cell_volume   120.63789282
_cell_formula_units_Z   1
loop_
 _symmetry_equiv_pos_site_id
 _symmetry_equiv_pos_as_xyz
  1  'x, y, z'
loop_
 _atom_site_type_symbol
 _atom_site_label
 _atom_site_symmetry_multiplicity
 _atom_site_fract_x
 _atom_site_fract_y
 _atom_site_fract_z
 _atom_site_occupancy
  Ca  Ca0  1  0.497104  0.502896  0.502896  1
  Y  Y1  1  0.747021  0.752979  0.752979  1
  Y  Y2  1  0.247021  0.252979  0.252979  1
  Pa  Pa3  1  0.997258  0.002742  0.002742  1
  N  N4  1  0.997119  0.002881  0.503979  1
  N  N5  1  0.223694  0.229301  0.776306  1
  N  N6  1  0.496021  0.503979  0.002881  1
  N  N7  1  0.770699  0.776306  0.229301  1
