# generated using pymatgen
data_Nd2NiIrBr2
_symmetry_space_group_name_H-M   'P 1'
_cell_length_a   4.11925900
_cell_length_b   4.11925930
_cell_length_c   11.59639000
_cell_angle_alpha   90.00000000
_cell_angle_beta   90.00000000
_cell_angle_gamma   120.00000560
_symmetry_Int_Tables_number   1
_chemical_formula_structural   Nd2NiIrBr2
_chemical_formula_sum   'Nd2 Ni1 Ir1 Br2'
_cell_volume   170.40865568
_cell_formula_units_Z   1
loop_
 _symmetry_equiv_pos_site_id
 _symmetry_equiv_pos_as_xyz
  1  'x, y, z'
loop_
 _atom_site_type_symbol
 _atom_site_label
 _atom_site_symmetry_multiplicity
 _atom_site_fract_x
 _atom_site_fract_y
 _atom_site_fract_z
 _atom_site_occupancy
  Nd  Nd0  1  0.000013  0.999991  0.330066  1
  Nd  Nd1  1  0.000007  0.999994  0.669479  1
  Ni  Ni2  1  0.666600  0.333380  0.502077  1
  Ir  Ir3  1  0.333356  0.666651  0.497728  1
  Br  Br4  1  0.666675  0.333328  0.162996  1
  Br  Br5  1  0.333346  0.666658  0.837655  1
