# generated using pymatgen
data_DyY(Th2Fe)6
_symmetry_space_group_name_H-M   'P 1'
_cell_length_a   9.69828200
_cell_length_b   9.69828236
_cell_length_c   6.19873900
_cell_angle_alpha   90.00000000
_cell_angle_beta   90.00000000
_cell_angle_gamma   119.99999877
_symmetry_Int_Tables_number   1
_chemical_formula_structural   DyY(Th2Fe)6
_chemical_formula_sum   'Dy1 Y1 Th12 Fe6'
_cell_volume   504.92121656
_cell_formula_units_Z   1
loop_
 _symmetry_equiv_pos_site_id
 _symmetry_equiv_pos_as_xyz
  1  'x, y, z'
loop_
 _atom_site_type_symbol
 _atom_site_label
 _atom_site_symmetry_multiplicity
 _atom_site_fract_x
 _atom_site_fract_y
 _atom_site_fract_z
 _atom_site_occupancy
  Dy  Dy0  1  0.333333  0.666667  0.037099  1
  Y  Y1  1  0.666667  0.333333  0.538990  1
  Th  Th2  1  0.125566  0.874434  0.250164  1
  Th  Th3  1  0.251464  0.125733  0.750470  1
  Th  Th4  1  0.874267  0.748536  0.750470  1
  Th  Th5  1  0.125566  0.251130  0.250164  1
  Th  Th6  1  0.748870  0.874434  0.250164  1
  Th  Th7  1  0.874267  0.125733  0.750470  1
  Th  Th8  1  0.541053  0.458947  0.069202  1
  Th  Th9  1  0.083099  0.541550  0.568598  1
  Th  Th10  1  0.458450  0.916901  0.568598  1
  Th  Th11  1  0.541053  0.082106  0.069202  1
  Th  Th12  1  0.917894  0.458947  0.069202  1
  Th  Th13  1  0.458450  0.541550  0.568598  1
  Fe  Fe14  1  0.820144  0.179856  0.277445  1
  Fe  Fe15  1  0.639298  0.819649  0.778758  1
  Fe  Fe16  1  0.180351  0.360702  0.778758  1
  Fe  Fe17  1  0.820144  0.640286  0.277445  1
  Fe  Fe18  1  0.359714  0.179856  0.277445  1
  Fe  Fe19  1  0.180351  0.819649  0.778758  1
