# generated using pymatgen
data_Y5Lu(BiO7)2
_symmetry_space_group_name_H-M   'P 1'
_cell_length_a   6.56025584
_cell_length_b   6.54695636
_cell_length_c   7.70632000
_cell_angle_alpha   106.89816544
_cell_angle_beta   89.73186348
_cell_angle_gamma   98.85914597
_symmetry_Int_Tables_number   1
_chemical_formula_structural   Y5Lu(BiO7)2
_chemical_formula_sum   'Y5 Lu1 Bi2 O14'
_cell_volume   312.63368590
_cell_formula_units_Z   1
loop_
 _symmetry_equiv_pos_site_id
 _symmetry_equiv_pos_as_xyz
  1  'x, y, z'
loop_
 _atom_site_type_symbol
 _atom_site_label
 _atom_site_symmetry_multiplicity
 _atom_site_fract_x
 _atom_site_fract_y
 _atom_site_fract_z
 _atom_site_occupancy
  Y  Y0  1  0.537594  0.994208  0.747781  1
  Y  Y1  1  0.271744  0.539779  0.884169  1
  Y  Y2  1  0.726796  0.462247  0.117822  1
  Y  Y3  1  0.732243  0.473498  0.610484  1
  Y  Y4  1  0.266338  0.524512  0.384837  1
  Lu  Lu5  1  0.462707  0.006252  0.252044  1
  Bi  Bi6  1  0.000283  0.000275  0.498762  1
  Bi  Bi7  1  0.000167  0.000081  0.001888  1
  O  O8  1  0.447334  0.656460  0.169676  1
  O  O9  1  0.554404  0.351239  0.833375  1
  O  O10  1  0.304461  0.924836  0.955678  1
  O  O11  1  0.696950  0.074690  0.053242  1
  O  O12  1  0.300913  0.926820  0.509357  1
  O  O13  1  0.699674  0.072039  0.480741  1
  O  O14  1  0.541265  0.356404  0.341876  1
  O  O15  1  0.453443  0.636836  0.654151  1
  O  O16  1  0.927078  0.666311  0.961172  1
  O  O17  1  0.073623  0.334398  0.040560  1
  O  O18  1  0.066215  0.350080  0.621456  1
  O  O19  1  0.929730  0.648154  0.380444  1
  O  O20  1  0.874962  0.902083  0.725093  1
  O  O21  1  0.132077  0.098797  0.275395  1
