# generated using pymatgen
data_Sc5Bi2Sb
_symmetry_space_group_name_H-M   'P 1'
_cell_length_a   7.69574500
_cell_length_b   8.92938500
_cell_length_c   11.30027200
_cell_angle_alpha   90.00000000
_cell_angle_beta   90.00000000
_cell_angle_gamma   90.00000000
_symmetry_Int_Tables_number   1
_chemical_formula_structural   Sc5Bi2Sb
_chemical_formula_sum   'Sc20 Bi8 Sb4'
_cell_volume   776.53514199
_cell_formula_units_Z   4
loop_
 _symmetry_equiv_pos_site_id
 _symmetry_equiv_pos_as_xyz
  1  'x, y, z'
loop_
 _atom_site_type_symbol
 _atom_site_label
 _atom_site_symmetry_multiplicity
 _atom_site_fract_x
 _atom_site_fract_y
 _atom_site_fract_z
 _atom_site_occupancy
  Sc  Sc0  1  0.027047  0.250000  0.511531  1
  Sc  Sc1  1  0.972953  0.750000  0.488469  1
  Sc  Sc2  1  0.472953  0.750000  0.011531  1
  Sc  Sc3  1  0.527047  0.250000  0.988469  1
  Sc  Sc4  1  0.353428  0.250000  0.284805  1
  Sc  Sc5  1  0.646572  0.750000  0.715195  1
  Sc  Sc6  1  0.146572  0.750000  0.784805  1
  Sc  Sc7  1  0.853428  0.250000  0.215195  1
  Sc  Sc8  1  0.184345  0.250000  0.780793  1
  Sc  Sc9  1  0.815655  0.750000  0.219207  1
  Sc  Sc10  1  0.315655  0.750000  0.280793  1
  Sc  Sc11  1  0.684345  0.250000  0.719207  1
  Sc  Sc12  1  0.192569  0.064370  0.059245  1
  Sc  Sc13  1  0.807431  0.935630  0.940755  1
  Sc  Sc14  1  0.307431  0.935630  0.559245  1
  Sc  Sc15  1  0.807431  0.564370  0.940755  1
  Sc  Sc16  1  0.692569  0.064370  0.440755  1
  Sc  Sc17  1  0.192569  0.435630  0.059245  1
  Sc  Sc18  1  0.692569  0.435630  0.440755  1
  Sc  Sc19  1  0.307431  0.564370  0.559245  1
  Bi  Bi20  1  0.066926  0.004013  0.325730  1
  Bi  Bi21  1  0.933074  0.995987  0.674270  1
  Bi  Bi22  1  0.433074  0.995987  0.825730  1
  Bi  Bi23  1  0.933074  0.504013  0.674270  1
  Bi  Bi24  1  0.566926  0.004013  0.174270  1
  Bi  Bi25  1  0.066926  0.495987  0.325730  1
  Bi  Bi26  1  0.566926  0.495987  0.174270  1
  Bi  Bi27  1  0.433074  0.504013  0.825730  1
  Sb  Sb28  1  0.409853  0.250000  0.539395  1
  Sb  Sb29  1  0.590147  0.750000  0.460605  1
  Sb  Sb30  1  0.090147  0.750000  0.039395  1
  Sb  Sb31  1  0.909853  0.250000  0.960605  1
