# generated using pymatgen
data_Pr8Y12Ga3Si13
_symmetry_space_group_name_H-M   'P 1'
_cell_length_a   7.54935147
_cell_length_b   7.87649532
_cell_length_c   15.01541243
_cell_angle_alpha   90.00544890
_cell_angle_beta   90.10852710
_cell_angle_gamma   90.07947916
_symmetry_Int_Tables_number   1
_chemical_formula_structural   Pr8Y12Ga3Si13
_chemical_formula_sum   'Pr8 Y12 Ga3 Si13'
_cell_volume   892.85046861
_cell_formula_units_Z   1
loop_
 _symmetry_equiv_pos_site_id
 _symmetry_equiv_pos_as_xyz
  1  'x, y, z'
loop_
 _atom_site_type_symbol
 _atom_site_label
 _atom_site_symmetry_multiplicity
 _atom_site_fract_x
 _atom_site_fract_y
 _atom_site_fract_z
 _atom_site_occupancy
  Pr  Pr0  1  0.017696  0.177682  0.401367  1
  Pr  Pr1  1  0.519390  0.320589  0.400901  1
  Pr  Pr2  1  0.482916  0.677864  0.899428  1
  Pr  Pr3  1  0.483621  0.682719  0.599073  1
  Pr  Pr4  1  0.980405  0.821177  0.599226  1
  Pr  Pr5  1  0.982754  0.822829  0.899573  1
  Pr  Pr6  1  0.516628  0.319066  0.100158  1
  Pr  Pr7  1  0.016759  0.180934  0.100240  1
  Y  Y8  1  0.327851  0.175559  0.624278  1
  Y  Y9  1  0.674141  0.822167  0.377119  1
  Y  Y10  1  0.660877  0.991052  0.749626  1
  Y  Y11  1  0.175712  0.678582  0.376659  1
  Y  Y12  1  0.826660  0.321357  0.875524  1
  Y  Y13  1  0.824277  0.323415  0.622729  1
  Y  Y14  1  0.838804  0.490396  0.252124  1
  Y  Y15  1  0.338834  0.008705  0.251149  1
  Y  Y16  1  0.327037  0.177602  0.875450  1
  Y  Y17  1  0.173170  0.673648  0.124305  1
  Y  Y18  1  0.673844  0.826087  0.124188  1
  Y  Y19  1  0.160079  0.508555  0.751135  1
  Ga  Ga20  1  0.155311  0.463773  0.538244  1
  Ga  Ga21  1  0.844728  0.536631  0.037527  1
  Ga  Ga22  1  0.344830  0.963193  0.037713  1
  Si  Si23  1  0.277780  0.878323  0.749155  1
  Si  Si24  1  0.466739  0.612534  0.250753  1
  Si  Si25  1  0.033211  0.113398  0.749755  1
  Si  Si26  1  0.533427  0.388619  0.749193  1
  Si  Si27  1  0.966735  0.887588  0.251078  1
  Si  Si28  1  0.721670  0.120851  0.250952  1
  Si  Si29  1  0.151723  0.465793  0.960250  1
  Si  Si30  1  0.649189  0.033926  0.537650  1
  Si  Si31  1  0.351453  0.967346  0.461925  1
  Si  Si32  1  0.849303  0.534355  0.461009  1
  Si  Si33  1  0.779026  0.621726  0.749457  1
  Si  Si34  1  0.221882  0.378288  0.251135  1
  Si  Si35  1  0.651536  0.033673  0.959955  1
