# generated using pymatgen
data_LuPa(P2O7)2
_symmetry_space_group_name_H-M   'P 1'
_cell_length_a   8.81463399
_cell_length_b   5.25579341
_cell_length_c   7.32597800
_cell_angle_alpha   73.16398270
_cell_angle_beta   89.39525432
_cell_angle_gamma   89.86829928
_symmetry_Int_Tables_number   1
_chemical_formula_structural   LuPa(P2O7)2
_chemical_formula_sum   'Lu1 Pa1 P4 O14'
_cell_volume   324.83157433
_cell_formula_units_Z   1
loop_
 _symmetry_equiv_pos_site_id
 _symmetry_equiv_pos_as_xyz
  1  'x, y, z'
loop_
 _atom_site_type_symbol
 _atom_site_label
 _atom_site_symmetry_multiplicity
 _atom_site_fract_x
 _atom_site_fract_y
 _atom_site_fract_z
 _atom_site_occupancy
  Lu  Lu0  1  0.548450  0.206193  0.271879  1
  Pa  Pa1  1  0.049700  0.795301  0.725525  1
  P  P2  1  0.372283  0.605677  0.509674  1
  P  P3  1  0.292224  0.249531  0.890111  1
  P  P4  1  0.856697  0.391669  0.482738  1
  P  P5  1  0.779396  0.753132  0.114696  1
  O  O6  1  0.158508  0.436680  0.906460  1
  O  O7  1  0.224817  0.020156  0.822848  1
  O  O8  1  0.731658  0.994514  0.171864  1
  O  O9  1  0.383410  0.154396  0.067631  1
  O  O10  1  0.978018  0.167946  0.522509  1
  O  O11  1  0.697974  0.287390  0.489306  1
  O  O12  1  0.377287  0.432542  0.378238  1
  O  O13  1  0.655258  0.569982  0.089366  1
  O  O14  1  0.484427  0.830193  0.474148  1
  O  O15  1  0.404051  0.417321  0.726315  1
  O  O16  1  0.898734  0.580620  0.274322  1
  O  O17  1  0.883976  0.559874  0.621875  1
  O  O18  1  0.206414  0.712804  0.523844  1
  O  O19  1  0.888810  0.834080  0.936649  1
