# generated using pymatgen
data_Mg(SiRh2)2
_symmetry_space_group_name_H-M   'P 1'
_cell_length_a   4.02425500
_cell_length_b   9.06979200
_cell_length_c   10.92537900
_cell_angle_alpha   90.00000000
_cell_angle_beta   90.00000000
_cell_angle_gamma   90.00000000
_symmetry_Int_Tables_number   1
_chemical_formula_structural   Mg(SiRh2)2
_chemical_formula_sum   'Mg4 Si8 Rh16'
_cell_volume   398.76711035
_cell_formula_units_Z   4
loop_
 _symmetry_equiv_pos_site_id
 _symmetry_equiv_pos_as_xyz
  1  'x, y, z'
loop_
 _atom_site_type_symbol
 _atom_site_label
 _atom_site_symmetry_multiplicity
 _atom_site_fract_x
 _atom_site_fract_y
 _atom_site_fract_z
 _atom_site_occupancy
  Mg  Mg0  1  0.250000  0.125333  0.819191  1
  Mg  Mg1  1  0.250000  0.374667  0.319191  1
  Mg  Mg2  1  0.750000  0.874667  0.180809  1
  Mg  Mg3  1  0.750000  0.625333  0.680809  1
  Si  Si4  1  0.250000  0.405804  0.633083  1
  Si  Si5  1  0.250000  0.094196  0.133083  1
  Si  Si6  1  0.750000  0.594196  0.366917  1
  Si  Si7  1  0.750000  0.905804  0.866917  1
  Si  Si8  1  0.250000  0.616634  0.063285  1
  Si  Si9  1  0.250000  0.883366  0.563285  1
  Si  Si10  1  0.750000  0.383366  0.936715  1
  Si  Si11  1  0.750000  0.116634  0.436715  1
  Rh  Rh12  1  0.250000  0.619014  0.507484  1
  Rh  Rh13  1  0.250000  0.880986  0.007484  1
  Rh  Rh14  1  0.750000  0.380986  0.492516  1
  Rh  Rh15  1  0.750000  0.119014  0.992516  1
  Rh  Rh16  1  0.250000  0.703824  0.267160  1
  Rh  Rh17  1  0.250000  0.796176  0.767160  1
  Rh  Rh18  1  0.750000  0.296176  0.732840  1
  Rh  Rh19  1  0.750000  0.203824  0.232840  1
  Rh  Rh20  1  0.250000  0.166143  0.556963  1
  Rh  Rh21  1  0.250000  0.333857  0.056963  1
  Rh  Rh22  1  0.750000  0.833857  0.443037  1
  Rh  Rh23  1  0.750000  0.666143  0.943037  1
  Rh  Rh24  1  0.250000  0.010324  0.336495  1
  Rh  Rh25  1  0.250000  0.489676  0.836495  1
  Rh  Rh26  1  0.750000  0.989676  0.663505  1
  Rh  Rh27  1  0.750000  0.510324  0.163505  1
