# generated using pymatgen
data_Zr2AlPtRh4
_symmetry_space_group_name_H-M   'P 1'
_cell_length_a   5.58443933
_cell_length_b   5.58598116
_cell_length_c   8.24925300
_cell_angle_alpha   89.99955461
_cell_angle_beta   89.99940569
_cell_angle_gamma   98.41917507
_symmetry_Int_Tables_number   1
_chemical_formula_structural   Zr2AlPtRh4
_chemical_formula_sum   'Zr4 Al2 Pt2 Rh8'
_cell_volume   254.55875757
_cell_formula_units_Z   2
loop_
 _symmetry_equiv_pos_site_id
 _symmetry_equiv_pos_as_xyz
  1  'x, y, z'
loop_
 _atom_site_type_symbol
 _atom_site_label
 _atom_site_symmetry_multiplicity
 _atom_site_fract_x
 _atom_site_fract_y
 _atom_site_fract_z
 _atom_site_occupancy
  Zr  Zr0  1  0.775074  0.224921  0.500000  1
  Zr  Zr1  1  0.224932  0.775074  0.000000  1
  Zr  Zr2  1  0.224926  0.775079  0.500000  1
  Zr  Zr3  1  0.775068  0.224926  0.000000  1
  Al  Al4  1  0.500153  0.500153  0.750012  1
  Al  Al5  1  0.499847  0.499847  0.249988  1
  Pt  Pt6  1  0.999989  0.999987  0.249999  1
  Pt  Pt7  1  0.000011  0.000013  0.750001  1
  Rh  Rh8  1  0.716590  0.716559  0.000052  1
  Rh  Rh9  1  0.716598  0.716568  0.499932  1
  Rh  Rh10  1  0.283410  0.283441  0.999948  1
  Rh  Rh11  1  0.283402  0.283432  0.500068  1
  Rh  Rh12  1  0.500015  0.999988  0.749992  1
  Rh  Rh13  1  0.499985  0.000012  0.250008  1
  Rh  Rh14  1  0.999988  0.500016  0.749994  1
  Rh  Rh15  1  0.000012  0.499984  0.250006  1
