# generated using pymatgen
data_HoZnCu3Hg
_symmetry_space_group_name_H-M   'P 1'
_cell_length_a   5.13294235
_cell_length_b   5.13294234
_cell_length_c   5.09351996
_cell_angle_alpha   59.74364020
_cell_angle_beta   59.74363403
_cell_angle_gamma   59.99999530
_symmetry_Int_Tables_number   1
_chemical_formula_structural   HoZnCu3Hg
_chemical_formula_sum   'Ho1 Zn1 Cu3 Hg1'
_cell_volume   94.52398027
_cell_formula_units_Z   1
loop_
 _symmetry_equiv_pos_site_id
 _symmetry_equiv_pos_as_xyz
  1  'x, y, z'
loop_
 _atom_site_type_symbol
 _atom_site_label
 _atom_site_symmetry_multiplicity
 _atom_site_fract_x
 _atom_site_fract_y
 _atom_site_fract_z
 _atom_site_occupancy
  Ho  Ho0  1  0.751678  0.751678  0.744966  1
  Zn  Zn1  1  0.373339  0.373339  0.879983  1
  Cu  Cu2  1  0.374346  0.875111  0.376198  1
  Cu  Cu3  1  0.374346  0.374346  0.376198  1
  Cu  Cu4  1  0.875111  0.374346  0.376198  1
  Hg  Hg5  1  0.001181  0.001181  0.996458  1
