# generated using pymatgen
data_Y4Tm16Cd6TcRu
_symmetry_space_group_name_H-M   'P 1'
_cell_length_a   9.47801715
_cell_length_b   9.47801719
_cell_length_c   9.80876900
_cell_angle_alpha   90.00000000
_cell_angle_beta   90.00000000
_cell_angle_gamma   119.89276037
_symmetry_Int_Tables_number   1
_chemical_formula_structural   Y4Tm16Cd6TcRu
_chemical_formula_sum   'Y4 Tm16 Cd6 Tc1 Ru1'
_cell_volume   763.92093808
_cell_formula_units_Z   1
loop_
 _symmetry_equiv_pos_site_id
 _symmetry_equiv_pos_as_xyz
  1  'x, y, z'
loop_
 _atom_site_type_symbol
 _atom_site_label
 _atom_site_symmetry_multiplicity
 _atom_site_fract_x
 _atom_site_fract_y
 _atom_site_fract_z
 _atom_site_occupancy
  Y  Y0  1  0.538726  0.078029  0.250000  1
  Y  Y1  1  0.921971  0.461274  0.250000  1
  Y  Y2  1  0.460011  0.919425  0.750000  1
  Y  Y3  1  0.080575  0.539989  0.750000  1
  Tm  Tm4  1  0.999985  0.000015  0.500185  1
  Tm  Tm5  1  0.999985  0.000015  0.999815  1
  Tm  Tm6  1  0.210109  0.789891  0.441756  1
  Tm  Tm7  1  0.211907  0.420348  0.441996  1
  Tm  Tm8  1  0.579652  0.788093  0.441996  1
  Tm  Tm9  1  0.789738  0.210262  0.558857  1
  Tm  Tm10  1  0.787970  0.579351  0.558705  1
  Tm  Tm11  1  0.420649  0.212030  0.558705  1
  Tm  Tm12  1  0.789738  0.210262  0.941143  1
  Tm  Tm13  1  0.787970  0.579351  0.941295  1
  Tm  Tm14  1  0.420649  0.212030  0.941295  1
  Tm  Tm15  1  0.210109  0.789891  0.058244  1
  Tm  Tm16  1  0.211907  0.420348  0.058004  1
  Tm  Tm17  1  0.579652  0.788093  0.058004  1
  Tm  Tm18  1  0.537942  0.462058  0.250000  1
  Tm  Tm19  1  0.460642  0.539358  0.750000  1
  Cd  Cd20  1  0.886534  0.113466  0.250000  1
  Cd  Cd21  1  0.884731  0.771857  0.250000  1
  Cd  Cd22  1  0.228143  0.115269  0.250000  1
  Cd  Cd23  1  0.113239  0.886761  0.750000  1
  Cd  Cd24  1  0.114992  0.227593  0.750000  1
  Cd  Cd25  1  0.772407  0.885008  0.750000  1
  Tc  Tc26  1  0.333739  0.666261  0.250000  1
  Ru  Ru27  1  0.666330  0.333670  0.750000  1
