# generated using pymatgen
data_Dy4ReB12Os
_symmetry_space_group_name_H-M   'P 1'
_cell_length_a   3.67301600
_cell_length_b   9.17219262
_cell_length_c   11.55868336
_cell_angle_alpha   90.13772755
_cell_angle_beta   90.00000000
_cell_angle_gamma   90.00000000
_symmetry_Int_Tables_number   1
_chemical_formula_structural   Dy4ReB12Os
_chemical_formula_sum   'Dy8 Re2 B24 Os2'
_cell_volume   389.40641216
_cell_formula_units_Z   2
loop_
 _symmetry_equiv_pos_site_id
 _symmetry_equiv_pos_as_xyz
  1  'x, y, z'
loop_
 _atom_site_type_symbol
 _atom_site_label
 _atom_site_symmetry_multiplicity
 _atom_site_fract_x
 _atom_site_fract_y
 _atom_site_fract_z
 _atom_site_occupancy
  Dy  Dy0  1  0.000000  0.321181  0.412436  1
  Dy  Dy1  1  0.000000  0.678819  0.587564  1
  Dy  Dy2  1  0.000000  0.824880  0.084845  1
  Dy  Dy3  1  0.000000  0.175120  0.915155  1
  Dy  Dy4  1  0.000000  0.943461  0.370692  1
  Dy  Dy5  1  0.000000  0.056539  0.629308  1
  Dy  Dy6  1  0.000000  0.442577  0.128886  1
  Dy  Dy7  1  0.000000  0.557423  0.871114  1
  Re  Re8  1  0.000000  0.138455  0.179351  1
  Re  Re9  1  0.000000  0.861545  0.820649  1
  B  B10  1  0.500000  0.553758  0.432945  1
  B  B11  1  0.500000  0.446242  0.567055  1
  B  B12  1  0.500000  0.053192  0.066895  1
  B  B13  1  0.500000  0.946808  0.933105  1
  B  B14  1  0.500000  0.748386  0.418729  1
  B  B15  1  0.500000  0.251614  0.581271  1
  B  B16  1  0.500000  0.248493  0.080974  1
  B  B17  1  0.500000  0.751507  0.919026  1
  B  B18  1  0.500000  0.790619  0.266073  1
  B  B19  1  0.500000  0.209381  0.733927  1
  B  B20  1  0.500000  0.291554  0.234425  1
  B  B21  1  0.500000  0.708446  0.765575  1
  B  B22  1  0.500000  0.631178  0.186307  1
  B  B23  1  0.500000  0.368822  0.813693  1
  B  B24  1  0.500000  0.131734  0.314609  1
  B  B25  1  0.500000  0.868266  0.685391  1
  B  B26  1  0.500000  0.983243  0.212402  1
  B  B27  1  0.500000  0.016757  0.787598  1
  B  B28  1  0.500000  0.483463  0.288058  1
  B  B29  1  0.500000  0.516537  0.711942  1
  B  B30  1  0.500000  0.603721  0.029043  1
  B  B31  1  0.500000  0.396279  0.970957  1
  B  B32  1  0.500000  0.104458  0.471205  1
  B  B33  1  0.500000  0.895542  0.528795  1
  Os  Os34  1  0.000000  0.637636  0.321933  1
  Os  Os35  1  0.000000  0.362364  0.678067  1
