# generated using pymatgen
data_Sm3Ho(Er4Bi3)4
_symmetry_space_group_name_H-M   'P 1'
_cell_length_a   8.25200901
_cell_length_b   9.48600000
_cell_length_c   12.02411501
_cell_angle_alpha   90.00000000
_cell_angle_beta   90.00417008
_cell_angle_gamma   90.00000000
_symmetry_Int_Tables_number   1
_chemical_formula_structural   Sm3Ho(Er4Bi3)4
_chemical_formula_sum   'Sm3 Ho1 Er16 Bi12'
_cell_volume   941.23037465
_cell_formula_units_Z   1
loop_
 _symmetry_equiv_pos_site_id
 _symmetry_equiv_pos_as_xyz
  1  'x, y, z'
loop_
 _atom_site_type_symbol
 _atom_site_label
 _atom_site_symmetry_multiplicity
 _atom_site_fract_x
 _atom_site_fract_y
 _atom_site_fract_z
 _atom_site_occupancy
  Sm  Sm0  1  0.315044  0.250000  0.218975  1
  Sm  Sm1  1  0.815005  0.250000  0.280955  1
  Sm  Sm2  1  0.685135  0.750000  0.781094  1
  Ho  Ho3  1  0.185767  0.750000  0.717937  1
  Er  Er4  1  0.353132  0.750000  0.217097  1
  Er  Er5  1  0.853411  0.750000  0.283094  1
  Er  Er6  1  0.646540  0.250000  0.782694  1
  Er  Er7  1  0.146738  0.250000  0.717085  1
  Er  Er8  1  0.691709  0.564974  0.059609  1
  Er  Er9  1  0.191973  0.935080  0.440663  1
  Er  Er10  1  0.308186  0.064909  0.940160  1
  Er  Er11  1  0.807892  0.435031  0.559625  1
  Er  Er12  1  0.308186  0.435091  0.940160  1
  Er  Er13  1  0.807892  0.064969  0.559625  1
  Er  Er14  1  0.691709  0.935026  0.059609  1
  Er  Er15  1  0.191973  0.564920  0.440663  1
  Er  Er16  1  0.476186  0.250000  0.489439  1
  Er  Er17  1  0.976586  0.250000  0.010659  1
  Er  Er18  1  0.523343  0.750000  0.511211  1
  Er  Er19  1  0.023749  0.750000  0.988997  1
  Bi  Bi20  1  0.403312  0.750000  0.959485  1
  Bi  Bi21  1  0.906253  0.750000  0.541153  1
  Bi  Bi22  1  0.595728  0.250000  0.039658  1
  Bi  Bi23  1  0.095552  0.250000  0.460361  1
  Bi  Bi24  1  0.565805  0.993282  0.326934  1
  Bi  Bi25  1  0.065627  0.506654  0.173228  1
  Bi  Bi26  1  0.432554  0.494796  0.673515  1
  Bi  Bi27  1  0.935514  0.005589  0.826319  1
  Bi  Bi28  1  0.432554  0.005204  0.673515  1
  Bi  Bi29  1  0.935514  0.494411  0.826319  1
  Bi  Bi30  1  0.565805  0.506718  0.326934  1
  Bi  Bi31  1  0.065627  0.993346  0.173228  1
