# generated using pymatgen
data_Pr2Tm3InIr18
_symmetry_space_group_name_H-M   'P 1'
_cell_length_a   9.00852153
_cell_length_b   9.00852153
_cell_length_c   5.20636700
_cell_angle_alpha   90.00000000
_cell_angle_beta   90.00000000
_cell_angle_gamma   89.59045470
_symmetry_Int_Tables_number   1
_chemical_formula_structural   Pr2Tm3InIr18
_chemical_formula_sum   'Pr2 Tm3 In1 Ir18'
_cell_volume   422.50390358
_cell_formula_units_Z   1
loop_
 _symmetry_equiv_pos_site_id
 _symmetry_equiv_pos_as_xyz
  1  'x, y, z'
loop_
 _atom_site_type_symbol
 _atom_site_label
 _atom_site_symmetry_multiplicity
 _atom_site_fract_x
 _atom_site_fract_y
 _atom_site_fract_z
 _atom_site_occupancy
  Pr  Pr0  1  0.500545  0.505031  0.000000  1
  Pr  Pr1  1  0.994969  0.999455  0.000000  1
  Tm  Tm2  1  0.120358  0.621087  0.000000  1
  Tm  Tm3  1  0.878913  0.379642  0.000000  1
  Tm  Tm4  1  0.381824  0.118176  0.000000  1
  In  In5  1  0.621641  0.878359  0.000000  1
  Ir  Ir6  1  0.998276  0.501724  0.500000  1
  Ir  Ir7  1  0.502055  0.997945  0.500000  1
  Ir  Ir8  1  0.554596  0.701717  0.500000  1
  Ir  Ir9  1  0.443360  0.294402  0.500000  1
  Ir  Ir10  1  0.944361  0.205689  0.500000  1
  Ir  Ir11  1  0.057965  0.795256  0.500000  1
  Ir  Ir12  1  0.704744  0.442035  0.500000  1
  Ir  Ir13  1  0.294311  0.555639  0.500000  1
  Ir  Ir14  1  0.205598  0.056640  0.500000  1
  Ir  Ir15  1  0.798283  0.945404  0.500000  1
  Ir  Ir16  1  0.320498  0.819587  0.755783  1
  Ir  Ir17  1  0.680413  0.179502  0.755783  1
  Ir  Ir18  1  0.180184  0.319816  0.753410  1
  Ir  Ir19  1  0.818004  0.681996  0.755132  1
  Ir  Ir20  1  0.680413  0.179502  0.244217  1
  Ir  Ir21  1  0.320498  0.819587  0.244217  1
  Ir  Ir22  1  0.818004  0.681996  0.244868  1
  Ir  Ir23  1  0.180184  0.319816  0.246590  1
