# generated using pymatgen
data_ErPa3(AlOs)4
_symmetry_space_group_name_H-M   'P 1'
_cell_length_a   4.18734900
_cell_length_b   6.76339801
_cell_length_c   8.07165136
_cell_angle_alpha   89.72524086
_cell_angle_beta   90.00000000
_cell_angle_gamma   90.00000000
_symmetry_Int_Tables_number   1
_chemical_formula_structural   ErPa3(AlOs)4
_chemical_formula_sum   'Er1 Pa3 Al4 Os4'
_cell_volume   228.59225203
_cell_formula_units_Z   1
loop_
 _symmetry_equiv_pos_site_id
 _symmetry_equiv_pos_as_xyz
  1  'x, y, z'
loop_
 _atom_site_type_symbol
 _atom_site_label
 _atom_site_symmetry_multiplicity
 _atom_site_fract_x
 _atom_site_fract_y
 _atom_site_fract_z
 _atom_site_occupancy
  Er  Er0  1  0.250000  0.965234  0.316917  1
  Pa  Pa1  1  0.250000  0.462770  0.185463  1
  Pa  Pa2  1  0.750000  0.532998  0.813142  1
  Pa  Pa3  1  0.750000  0.034602  0.680865  1
  Al  Al4  1  0.250000  0.864467  0.947080  1
  Al  Al5  1  0.750000  0.128523  0.062761  1
  Al  Al6  1  0.750000  0.645787  0.439119  1
  Al  Al7  1  0.250000  0.364641  0.555406  1
  Os  Os8  1  0.250000  0.748975  0.634431  1
  Os  Os9  1  0.750000  0.264958  0.376352  1
  Os  Os10  1  0.750000  0.738568  0.115606  1
  Os  Os11  1  0.250000  0.248477  0.872859  1
