# generated using pymatgen
data_Zr6Nb4Al12Tc(Ir2Ru)2
_symmetry_space_group_name_H-M   'P 1'
_cell_length_a   8.84755768
_cell_length_b   8.84605224
_cell_length_c   8.84420000
_cell_angle_alpha   60.02156045
_cell_angle_beta   59.98744292
_cell_angle_gamma   59.99438197
_symmetry_Int_Tables_number   1
_chemical_formula_structural   Zr6Nb4Al12Tc(Ir2Ru)2
_chemical_formula_sum   'Zr6 Nb4 Al12 Tc1 Ir4 Ru2'
_cell_volume   489.47158411
_cell_formula_units_Z   1
loop_
 _symmetry_equiv_pos_site_id
 _symmetry_equiv_pos_as_xyz
  1  'x, y, z'
loop_
 _atom_site_type_symbol
 _atom_site_label
 _atom_site_symmetry_multiplicity
 _atom_site_fract_x
 _atom_site_fract_y
 _atom_site_fract_z
 _atom_site_occupancy
  Zr  Zr0  1  0.695521  0.695128  0.304875  1
  Zr  Zr1  1  0.304476  0.695128  0.304875  1
  Zr  Zr2  1  0.688535  0.311115  0.311814  1
  Zr  Zr3  1  0.305810  0.305541  0.694272  1
  Zr  Zr4  1  0.694376  0.305541  0.694272  1
  Zr  Zr5  1  0.311162  0.688570  0.689105  1
  Nb  Nb6  1  0.878084  0.882241  0.361591  1
  Nb  Nb7  1  0.879657  0.360592  0.880094  1
  Nb  Nb8  1  0.361057  0.880724  0.876908  1
  Nb  Nb9  1  0.881312  0.880724  0.876908  1
  Al  Al10  1  0.121834  0.119602  0.636728  1
  Al  Al11  1  0.120565  0.637973  0.120895  1
  Al  Al12  1  0.637300  0.119514  0.122959  1
  Al  Al13  1  0.120226  0.119514  0.122959  1
  Al  Al14  1  0.659949  0.661436  0.018664  1
  Al  Al15  1  0.661723  0.015098  0.661454  1
  Al  Al16  1  0.017000  0.661750  0.659908  1
  Al  Al17  1  0.661340  0.661750  0.659908  1
  Al  Al18  1  0.337245  0.336308  0.989204  1
  Al  Al19  1  0.335517  0.992091  0.336878  1
  Al  Al20  1  0.990601  0.335106  0.337526  1
  Al  Al21  1  0.336768  0.335106  0.337526  1
  Tc  Tc22  1  0.999935  0.001402  0.998727  1
  Ir  Ir23  1  0.998542  0.501389  0.501527  1
  Ir  Ir24  1  0.501677  0.501455  0.998309  1
  Ir  Ir25  1  0.998559  0.501455  0.998309  1
  Ir  Ir26  1  0.501514  0.998736  0.998236  1
  Ru  Ru27  1  0.997469  0.997505  0.502784  1
  Ru  Ru28  1  0.502243  0.997505  0.502784  1
