# generated using pymatgen
data_La4Cd3In5
_symmetry_space_group_name_H-M   'P 1'
_cell_length_a   5.05074700
_cell_length_b   7.77671428
_cell_length_c   8.70677016
_cell_angle_alpha   90.02618712
_cell_angle_beta   90.00000000
_cell_angle_gamma   90.00000000
_symmetry_Int_Tables_number   1
_chemical_formula_structural   La4Cd3In5
_chemical_formula_sum   'La4 Cd3 In5'
_cell_volume   341.98636581
_cell_formula_units_Z   1
loop_
 _symmetry_equiv_pos_site_id
 _symmetry_equiv_pos_as_xyz
  1  'x, y, z'
loop_
 _atom_site_type_symbol
 _atom_site_label
 _atom_site_symmetry_multiplicity
 _atom_site_fract_x
 _atom_site_fract_y
 _atom_site_fract_z
 _atom_site_occupancy
  La  La0  1  0.500000  0.498321  0.749942  1
  La  La1  1  0.500000  0.992741  0.748759  1
  La  La2  1  0.000000  0.503070  0.249617  1
  La  La3  1  0.000000  0.998264  0.251783  1
  Cd  Cd4  1  0.500000  0.784265  0.416719  1
  Cd  Cd5  1  0.000000  0.785609  0.917020  1
  Cd  Cd6  1  0.000000  0.296086  0.581385  1
  In  In7  1  0.500000  0.725063  0.083181  1
  In  In8  1  0.500000  0.212595  0.420553  1
  In  In9  1  0.000000  0.207155  0.911640  1
  In  In10  1  0.000000  0.714628  0.584705  1
  In  In11  1  0.500000  0.282205  0.084697  1
