# generated using pymatgen
data_Dy4Al14Ga(SiRh2)3
_symmetry_space_group_name_H-M   'P 1'
_cell_length_a   7.49161100
_cell_length_b   7.51610349
_cell_length_c   9.29114900
_cell_angle_alpha   90.00000000
_cell_angle_beta   90.00000000
_cell_angle_gamma   119.66056309
_symmetry_Int_Tables_number   1
_chemical_formula_structural   Dy4Al14Ga(SiRh2)3
_chemical_formula_sum   'Dy4 Al14 Ga1 Si3 Rh6'
_cell_volume   454.61456445
_cell_formula_units_Z   1
loop_
 _symmetry_equiv_pos_site_id
 _symmetry_equiv_pos_as_xyz
  1  'x, y, z'
loop_
 _atom_site_type_symbol
 _atom_site_label
 _atom_site_symmetry_multiplicity
 _atom_site_fract_x
 _atom_site_fract_y
 _atom_site_fract_z
 _atom_site_occupancy
  Dy  Dy0  1  0.003235  0.673571  0.250000  1
  Dy  Dy1  1  0.998560  0.323250  0.750000  1
  Dy  Dy2  1  0.663743  0.989680  0.250000  1
  Dy  Dy3  1  0.332787  0.011899  0.750000  1
  Al  Al4  1  0.997430  0.331744  0.076023  1
  Al  Al5  1  0.003106  0.666285  0.922439  1
  Al  Al6  1  0.003106  0.666285  0.577561  1
  Al  Al7  1  0.335753  0.004680  0.426464  1
  Al  Al8  1  0.997430  0.331744  0.423977  1
  Al  Al9  1  0.662234  0.995656  0.575720  1
  Al  Al10  1  0.662234  0.995656  0.924280  1
  Al  Al11  1  0.335753  0.004680  0.073536  1
  Al  Al12  1  0.334123  0.337164  0.558519  1
  Al  Al13  1  0.668788  0.666176  0.439794  1
  Al  Al14  1  0.668788  0.666176  0.060206  1
  Al  Al15  1  0.334123  0.337164  0.941481  1
  Al  Al16  1  0.554389  0.341668  0.250000  1
  Al  Al17  1  0.445270  0.660571  0.750000  1
  Ga  Ga18  1  0.121420  0.124434  0.250000  1
  Si  Si19  1  0.874066  0.869149  0.750000  1
  Si  Si20  1  0.336692  0.543766  0.250000  1
  Si  Si21  1  0.667402  0.456887  0.750000  1
  Rh  Rh22  1  0.671804  0.332282  0.992898  1
  Rh  Rh23  1  0.329647  0.670328  0.006231  1
  Rh  Rh24  1  0.329647  0.670328  0.493769  1
  Rh  Rh25  1  0.671804  0.332282  0.507102  1
  Rh  Rh26  1  0.998334  0.998251  0.990471  1
  Rh  Rh27  1  0.998334  0.998251  0.509529  1
