# generated using pymatgen
data_Dy4ZnGa23Pt9
_symmetry_space_group_name_H-M   'P 1'
_cell_length_a   7.47565459
_cell_length_b   7.59608521
_cell_length_c   13.34481954
_cell_angle_alpha   84.66761704
_cell_angle_beta   79.34230066
_cell_angle_gamma   60.51294922
_symmetry_Int_Tables_number   1
_chemical_formula_structural   Dy4ZnGa23Pt9
_chemical_formula_sum   'Dy4 Zn1 Ga23 Pt9'
_cell_volume   648.25497573
_cell_formula_units_Z   1
loop_
 _symmetry_equiv_pos_site_id
 _symmetry_equiv_pos_as_xyz
  1  'x, y, z'
loop_
 _atom_site_type_symbol
 _atom_site_label
 _atom_site_symmetry_multiplicity
 _atom_site_fract_x
 _atom_site_fract_y
 _atom_site_fract_z
 _atom_site_occupancy
  Dy  Dy0  1  0.394271  0.169381  0.810487  1
  Dy  Dy1  1  0.605203  0.831216  0.189056  1
  Dy  Dy2  1  0.732092  0.497802  0.811307  1
  Dy  Dy3  1  0.268356  0.501420  0.188486  1
  Zn  Zn4  1  0.687525  0.833767  0.938984  1
  Ga  Ga5  1  0.318723  0.161903  0.059636  1
  Ga  Ga6  1  0.144483  0.832900  0.559664  1
  Ga  Ga7  1  0.855138  0.167278  0.440352  1
  Ga  Ga8  1  0.478112  0.166166  0.556379  1
  Ga  Ga9  1  0.522663  0.833418  0.443408  1
  Ga  Ga10  1  0.221617  0.165110  0.322110  1
  Ga  Ga11  1  0.778323  0.834643  0.678638  1
  Ga  Ga12  1  0.436590  0.503910  0.676951  1
  Ga  Ga13  1  0.562795  0.496644  0.323300  1
  Ga  Ga14  1  0.106155  0.163240  0.676166  1
  Ga  Ga15  1  0.893770  0.836311  0.324254  1
  Ga  Ga16  1  0.358467  0.498827  0.938981  1
  Ga  Ga17  1  0.642362  0.506297  0.059233  1
  Ga  Ga18  1  0.021460  0.168640  0.944014  1
  Ga  Ga19  1  0.976308  0.830919  0.054467  1
  Ga  Ga20  1  0.187810  0.498933  0.442841  1
  Ga  Ga21  1  0.812197  0.501838  0.557191  1
  Ga  Ga22  1  0.734043  0.165500  0.181875  1
  Ga  Ga23  1  0.266181  0.835124  0.817961  1
  Ga  Ga24  1  0.055255  0.633463  0.818704  1
  Ga  Ga25  1  0.939938  0.368019  0.182690  1
  Ga  Ga26  1  0.853615  0.036626  0.818477  1
  Ga  Ga27  1  0.142557  0.960177  0.183098  1
  Pt  Pt28  1  0.117742  0.495012  0.639406  1
  Pt  Pt29  1  0.883464  0.504738  0.360253  1
  Pt  Pt30  1  0.660347  0.174895  0.999816  1
  Pt  Pt31  1  0.336030  0.830300  0.001653  1
  Pt  Pt32  1  0.541547  0.166559  0.359918  1
  Pt  Pt33  1  0.458694  0.833325  0.639356  1
  Pt  Pt34  1  0.779299  0.172950  0.637353  1
  Pt  Pt35  1  0.221200  0.827604  0.362746  1
  Pt  Pt36  1  0.005669  0.495148  0.000787  1
