# generated using pymatgen
data_Li4CaTb2YbSi8
_symmetry_space_group_name_H-M   'P 1'
_cell_length_a   3.80024100
_cell_length_b   7.77305511
_cell_length_c   10.40752478
_cell_angle_alpha   89.99731700
_cell_angle_beta   90.00000000
_cell_angle_gamma   90.00000000
_symmetry_Int_Tables_number   1
_chemical_formula_structural   Li4CaTb2YbSi8
_chemical_formula_sum   'Li4 Ca1 Tb2 Yb1 Si8'
_cell_volume   307.43289811
_cell_formula_units_Z   1
loop_
 _symmetry_equiv_pos_site_id
 _symmetry_equiv_pos_as_xyz
  1  'x, y, z'
loop_
 _atom_site_type_symbol
 _atom_site_label
 _atom_site_symmetry_multiplicity
 _atom_site_fract_x
 _atom_site_fract_y
 _atom_site_fract_z
 _atom_site_occupancy
  Li  Li0  1  0.250000  0.997351  0.391422  1
  Li  Li1  1  0.750000  0.008810  0.609164  1
  Li  Li2  1  0.250000  0.492434  0.109805  1
  Li  Li3  1  0.750000  0.507638  0.892652  1
  Ca  Ca4  1  0.750000  0.364242  0.364949  1
  Tb  Tb5  1  0.250000  0.130284  0.864510  1
  Tb  Tb6  1  0.250000  0.632710  0.634892  1
  Yb  Yb7  1  0.750000  0.862602  0.133732  1
  Si  Si8  1  0.750000  0.263654  0.063275  1
  Si  Si9  1  0.250000  0.735510  0.929664  1
  Si  Si10  1  0.750000  0.768421  0.435106  1
  Si  Si11  1  0.250000  0.237296  0.572017  1
  Si  Si12  1  0.750000  0.838262  0.816792  1
  Si  Si13  1  0.250000  0.156895  0.171789  1
  Si  Si14  1  0.750000  0.340766  0.684515  1
  Si  Si15  1  0.250000  0.663125  0.325713  1
