# generated using pymatgen
data_Cs3Hg4Pd3
_symmetry_space_group_name_H-M   'P 1'
_cell_length_a   7.55496085
_cell_length_b   7.55496135
_cell_length_c   7.62428000
_cell_angle_alpha   90.00000000
_cell_angle_beta   90.00000000
_cell_angle_gamma   132.96055457
_symmetry_Int_Tables_number   1
_chemical_formula_structural   Cs3Hg4Pd3
_chemical_formula_sum   'Cs3 Hg4 Pd3'
_cell_volume   318.47063046
_cell_formula_units_Z   1
loop_
 _symmetry_equiv_pos_site_id
 _symmetry_equiv_pos_as_xyz
  1  'x, y, z'
loop_
 _atom_site_type_symbol
 _atom_site_label
 _atom_site_symmetry_multiplicity
 _atom_site_fract_x
 _atom_site_fract_y
 _atom_site_fract_z
 _atom_site_occupancy
  Cs  Cs0  1  0.000000  0.000000  0.000000  1
  Cs  Cs1  1  0.849884  0.150116  0.500000  1
  Cs  Cs2  1  0.150116  0.849884  0.500000  1
  Hg  Hg3  1  0.627175  0.372825  0.218904  1
  Hg  Hg4  1  0.372825  0.627175  0.218904  1
  Hg  Hg5  1  0.627175  0.372825  0.781095  1
  Hg  Hg6  1  0.372825  0.627175  0.781095  1
  Pd  Pd7  1  0.500000  0.000000  0.000000  1
  Pd  Pd8  1  0.000000  0.500000  0.000000  1
  Pd  Pd9  1  0.500000  0.500000  0.500000  1
