# generated using pymatgen
data_Nd7Tl3C2
_symmetry_space_group_name_H-M   'P 1'
_cell_length_a   12.68375763
_cell_length_b   12.68375687
_cell_length_c   5.15886600
_cell_angle_alpha   90.00000000
_cell_angle_beta   90.00000000
_cell_angle_gamma   156.69153171
_symmetry_Int_Tables_number   1
_chemical_formula_structural   Nd7Tl3C2
_chemical_formula_sum   'Nd7 Tl3 C2'
_cell_volume   328.39425804
_cell_formula_units_Z   1
loop_
 _symmetry_equiv_pos_site_id
 _symmetry_equiv_pos_as_xyz
  1  'x, y, z'
loop_
 _atom_site_type_symbol
 _atom_site_label
 _atom_site_symmetry_multiplicity
 _atom_site_fract_x
 _atom_site_fract_y
 _atom_site_fract_z
 _atom_site_occupancy
  Nd  Nd0  1  0.000000  0.000000  0.000000  1
  Nd  Nd1  1  0.798389  0.201610  0.000000  1
  Nd  Nd2  1  0.598584  0.401415  0.000000  1
  Nd  Nd3  1  0.401415  0.598584  0.000000  1
  Nd  Nd4  1  0.201610  0.798389  0.000000  1
  Nd  Nd5  1  0.898754  0.101245  0.500000  1
  Nd  Nd6  1  0.101245  0.898754  0.500000  1
  Tl  Tl7  1  0.697814  0.302185  0.500000  1
  Tl  Tl8  1  0.499999  0.499999  0.500000  1
  Tl  Tl9  1  0.302185  0.697814  0.500000  1
  C  C10  1  0.893721  0.106278  0.000000  1
  C  C11  1  0.106278  0.893721  0.000000  1
