# generated using pymatgen
data_Ho2ThIn3IrRh2
_symmetry_space_group_name_H-M   'P 1'
_cell_length_a   7.58187392
_cell_length_b   7.76891906
_cell_length_c   3.88014700
_cell_angle_alpha   90.00000000
_cell_angle_beta   90.00000000
_cell_angle_gamma   120.58036187
_symmetry_Int_Tables_number   1
_chemical_formula_structural   Ho2ThIn3IrRh2
_chemical_formula_sum   'Ho2 Th1 In3 Ir1 Rh2'
_cell_volume   196.76431617
_cell_formula_units_Z   1
loop_
 _symmetry_equiv_pos_site_id
 _symmetry_equiv_pos_as_xyz
  1  'x, y, z'
loop_
 _atom_site_type_symbol
 _atom_site_label
 _atom_site_symmetry_multiplicity
 _atom_site_fract_x
 _atom_site_fract_y
 _atom_site_fract_z
 _atom_site_occupancy
  Ho  Ho0  1  0.591159  0.595496  0.500000  1
  Ho  Ho1  1  0.403129  0.990932  0.500000  1
  Th  Th2  1  0.998831  0.417378  0.500000  1
  In  In3  1  0.270674  0.255702  0.000000  1
  In  In4  1  0.997713  0.757264  0.000000  1
  In  In5  1  0.733358  0.989300  0.000000  1
  Ir  Ir6  1  0.318845  0.652638  0.000000  1
  Rh  Rh7  1  0.001049  0.008604  0.500000  1
  Rh  Rh8  1  0.685242  0.332684  0.000000  1
