# generated using pymatgen
data_Y10In2NiAu
_symmetry_space_group_name_H-M   'P 1'
_cell_length_a   9.80126892
_cell_length_b   9.72301446
_cell_length_c   9.54228500
_cell_angle_alpha   90.00000000
_cell_angle_beta   90.00000000
_cell_angle_gamma   119.73867497
_symmetry_Int_Tables_number   1
_chemical_formula_structural   Y10In2NiAu
_chemical_formula_sum   'Y20 In4 Ni2 Au2'
_cell_volume   789.59403801
_cell_formula_units_Z   2
loop_
 _symmetry_equiv_pos_site_id
 _symmetry_equiv_pos_as_xyz
  1  'x, y, z'
loop_
 _atom_site_type_symbol
 _atom_site_label
 _atom_site_symmetry_multiplicity
 _atom_site_fract_x
 _atom_site_fract_y
 _atom_site_fract_z
 _atom_site_occupancy
  Y  Y0  1  0.984347  0.992169  0.468012  1
  Y  Y1  1  0.984347  0.992169  0.031988  1
  Y  Y2  1  0.558988  0.469086  0.250000  1
  Y  Y3  1  0.558932  0.089876  0.250000  1
  Y  Y4  1  0.918684  0.459328  0.250000  1
  Y  Y5  1  0.455182  0.542125  0.750000  1
  Y  Y6  1  0.455209  0.913036  0.750000  1
  Y  Y7  1  0.088779  0.544428  0.750000  1
  Y  Y8  1  0.209361  0.791271  0.435092  1
  Y  Y9  1  0.209364  0.418084  0.435094  1
  Y  Y10  1  0.574305  0.787145  0.437852  1
  Y  Y11  1  0.792717  0.211805  0.562723  1
  Y  Y12  1  0.792727  0.580871  0.562719  1
  Y  Y13  1  0.419586  0.209784  0.561279  1
  Y  Y14  1  0.792717  0.211805  0.937277  1
  Y  Y15  1  0.792727  0.580871  0.937281  1
  Y  Y16  1  0.419586  0.209784  0.938721  1
  Y  Y17  1  0.209361  0.791271  0.064908  1
  Y  Y18  1  0.209364  0.418084  0.064906  1
  Y  Y19  1  0.574305  0.787145  0.062148  1
  In  In20  1  0.255019  0.127695  0.250000  1
  In  In21  1  0.113009  0.889641  0.750000  1
  In  In22  1  0.112877  0.223803  0.750000  1
  In  In23  1  0.769380  0.884299  0.750000  1
  Ni  Ni24  1  0.332627  0.666334  0.250000  1
  Ni  Ni25  1  0.663353  0.331556  0.750000  1
  Au  Au26  1  0.876525  0.135239  0.250000  1
  Au  Au27  1  0.876622  0.741298  0.250000  1
