# generated using pymatgen
data_MgFeP3Ru4
_symmetry_space_group_name_H-M   'P 1'
_cell_length_a   3.78831700
_cell_length_b   10.77858700
_cell_length_c   12.03889600
_cell_angle_alpha   90.00000000
_cell_angle_beta   90.00000000
_cell_angle_gamma   90.00000000
_symmetry_Int_Tables_number   1
_chemical_formula_structural   MgFeP3Ru4
_chemical_formula_sum   'Mg4 Fe4 P12 Ru16'
_cell_volume   491.58068129
_cell_formula_units_Z   4
loop_
 _symmetry_equiv_pos_site_id
 _symmetry_equiv_pos_as_xyz
  1  'x, y, z'
loop_
 _atom_site_type_symbol
 _atom_site_label
 _atom_site_symmetry_multiplicity
 _atom_site_fract_x
 _atom_site_fract_y
 _atom_site_fract_z
 _atom_site_occupancy
  Mg  Mg0  1  0.250000  0.604090  0.721983  1
  Mg  Mg1  1  0.250000  0.895910  0.221983  1
  Mg  Mg2  1  0.750000  0.395910  0.278017  1
  Mg  Mg3  1  0.750000  0.104090  0.778017  1
  Fe  Fe4  1  0.250000  0.470905  0.931140  1
  Fe  Fe5  1  0.250000  0.029095  0.431140  1
  Fe  Fe6  1  0.750000  0.529095  0.068860  1
  Fe  Fe7  1  0.750000  0.970905  0.568860  1
  P  P8  1  0.250000  0.420891  0.104692  1
  P  P9  1  0.250000  0.079109  0.604692  1
  P  P10  1  0.750000  0.579109  0.895308  1
  P  P11  1  0.750000  0.920891  0.395308  1
  P  P12  1  0.250000  0.286505  0.849274  1
  P  P13  1  0.250000  0.213495  0.349274  1
  P  P14  1  0.750000  0.713495  0.150726  1
  P  P15  1  0.750000  0.786505  0.650726  1
  P  P16  1  0.250000  0.615140  0.418472  1
  P  P17  1  0.250000  0.884860  0.918472  1
  P  P18  1  0.750000  0.384860  0.581528  1
  P  P19  1  0.750000  0.115140  0.081528  1
  Ru  Ru20  1  0.250000  0.698930  0.013938  1
  Ru  Ru21  1  0.250000  0.801070  0.513938  1
  Ru  Ru22  1  0.750000  0.301070  0.986062  1
  Ru  Ru23  1  0.750000  0.198930  0.486062  1
  Ru  Ru24  1  0.250000  0.405917  0.454636  1
  Ru  Ru25  1  0.250000  0.094083  0.954636  1
  Ru  Ru26  1  0.750000  0.594083  0.545364  1
  Ru  Ru27  1  0.750000  0.905917  0.045364  1
  Ru  Ru28  1  0.250000  0.220776  0.155283  1
  Ru  Ru29  1  0.250000  0.279224  0.655283  1
  Ru  Ru30  1  0.750000  0.779224  0.844717  1
  Ru  Ru31  1  0.750000  0.720776  0.344717  1
  Ru  Ru32  1  0.250000  0.913254  0.725693  1
  Ru  Ru33  1  0.250000  0.586746  0.225693  1
  Ru  Ru34  1  0.750000  0.086746  0.274307  1
  Ru  Ru35  1  0.750000  0.413254  0.774307  1
