# generated using pymatgen
data_Sr8Mg7Si16Ag
_symmetry_space_group_name_H-M   'P 1'
_cell_length_a   4.40994700
_cell_length_b   11.44257500
_cell_length_c   14.44139000
_cell_angle_alpha   89.99985055
_cell_angle_beta   90.00000000
_cell_angle_gamma   90.00000000
_symmetry_Int_Tables_number   1
_chemical_formula_structural   Sr8Mg7Si16Ag
_chemical_formula_sum   'Sr8 Mg7 Si16 Ag1'
_cell_volume   728.72913679
_cell_formula_units_Z   1
loop_
 _symmetry_equiv_pos_site_id
 _symmetry_equiv_pos_as_xyz
  1  'x, y, z'
loop_
 _atom_site_type_symbol
 _atom_site_label
 _atom_site_symmetry_multiplicity
 _atom_site_fract_x
 _atom_site_fract_y
 _atom_site_fract_z
 _atom_site_occupancy
  Sr  Sr0  1  0.250000  0.522930  0.199450  1
  Sr  Sr1  1  0.250000  0.740120  0.938512  1
  Sr  Sr2  1  0.750000  0.260066  0.062323  1
  Sr  Sr3  1  0.750000  0.244683  0.559598  1
  Sr  Sr4  1  0.250000  0.755588  0.438398  1
  Sr  Sr5  1  0.250000  0.976806  0.696062  1
  Sr  Sr6  1  0.750000  0.024353  0.303608  1
  Sr  Sr7  1  0.750000  0.476158  0.802497  1
  Mg  Mg8  1  0.750000  0.553532  0.555659  1
  Mg  Mg9  1  0.750000  0.941569  0.059609  1
  Mg  Mg10  1  0.250000  0.058283  0.940638  1
  Mg  Mg11  1  0.250000  0.677920  0.689951  1
  Mg  Mg12  1  0.750000  0.323770  0.313541  1
  Mg  Mg13  1  0.750000  0.179347  0.809455  1
  Mg  Mg14  1  0.250000  0.820166  0.190303  1
  Si  Si15  1  0.750000  0.952242  0.867439  1
  Si  Si16  1  0.250000  0.452014  0.632272  1
  Si  Si17  1  0.750000  0.547827  0.367497  1
  Si  Si18  1  0.250000  0.030638  0.465757  1
  Si  Si19  1  0.250000  0.047820  0.132306  1
  Si  Si20  1  0.250000  0.274835  0.722806  1
  Si  Si21  1  0.750000  0.724603  0.277457  1
  Si  Si22  1  0.750000  0.774460  0.777285  1
  Si  Si23  1  0.250000  0.215437  0.393104  1
  Si  Si24  1  0.750000  0.970582  0.533258  1
  Si  Si25  1  0.750000  0.529301  0.034051  1
  Si  Si26  1  0.250000  0.470659  0.966004  1
  Si  Si27  1  0.250000  0.287317  0.893417  1
  Si  Si28  1  0.750000  0.786049  0.606729  1
  Si  Si29  1  0.750000  0.712467  0.106570  1
  Si  Si30  1  0.250000  0.224738  0.223431  1
  Ag  Ag31  1  0.250000  0.443722  0.441016  1
