# generated using pymatgen
data_Ho2ErTm3(Co3P2)6
_symmetry_space_group_name_H-M   'P 1'
_cell_length_a   3.68336100
_cell_length_b   10.49069805
_cell_length_c   12.13704405
_cell_angle_alpha   89.98933183
_cell_angle_beta   90.00000000
_cell_angle_gamma   90.00000000
_symmetry_Int_Tables_number   1
_chemical_formula_structural   Ho2ErTm3(Co3P2)6
_chemical_formula_sum   'Ho2 Er1 Tm3 Co18 P12'
_cell_volume   468.98785147
_cell_formula_units_Z   1
loop_
 _symmetry_equiv_pos_site_id
 _symmetry_equiv_pos_as_xyz
  1  'x, y, z'
loop_
 _atom_site_type_symbol
 _atom_site_label
 _atom_site_symmetry_multiplicity
 _atom_site_fract_x
 _atom_site_fract_y
 _atom_site_fract_z
 _atom_site_occupancy
  Ho  Ho0  1  0.000000  0.499910  0.522530  1
  Ho  Ho1  1  0.500000  0.000107  0.477661  1
  Er  Er2  1  0.500000  0.817837  0.205722  1
  Tm  Tm3  1  0.500000  0.182202  0.205757  1
  Tm  Tm4  1  0.000000  0.682005  0.794285  1
  Tm  Tm5  1  0.000000  0.317959  0.794132  1
  Co  Co6  1  0.500000  0.499966  0.158967  1
  Co  Co7  1  0.000000  0.000085  0.841016  1
  Co  Co8  1  0.500000  0.499923  0.703915  1
  Co  Co9  1  0.000000  0.000340  0.296177  1
  Co  Co10  1  0.000000  0.499791  0.986115  1
  Co  Co11  1  0.500000  0.000195  0.013457  1
  Co  Co12  1  0.500000  0.333225  0.994553  1
  Co  Co13  1  0.500000  0.666602  0.994404  1
  Co  Co14  1  0.000000  0.166959  0.005215  1
  Co  Co15  1  0.000000  0.833250  0.005135  1
  Co  Co16  1  0.500000  0.297401  0.430475  1
  Co  Co17  1  0.500000  0.702621  0.430793  1
  Co  Co18  1  0.000000  0.202670  0.569584  1
  Co  Co19  1  0.000000  0.797366  0.569825  1
  Co  Co20  1  0.500000  0.878588  0.710021  1
  Co  Co21  1  0.500000  0.121402  0.709879  1
  Co  Co22  1  0.000000  0.621102  0.290337  1
  Co  Co23  1  0.000000  0.378543  0.290004  1
  P  P24  1  0.500000  0.499866  0.882249  1
  P  P25  1  0.000000  0.000345  0.117451  1
  P  P26  1  0.500000  0.500005  0.344285  1
  P  P27  1  0.000000  0.999997  0.655765  1
  P  P28  1  0.500000  0.311048  0.616797  1
  P  P29  1  0.500000  0.688854  0.616982  1
  P  P30  1  0.000000  0.189036  0.383252  1
  P  P31  1  0.000000  0.811109  0.383697  1
  P  P32  1  0.500000  0.846620  0.892493  1
  P  P33  1  0.500000  0.153446  0.892321  1
  P  P34  1  0.000000  0.652930  0.107300  1
  P  P35  1  0.000000  0.346695  0.107447  1
