# generated using pymatgen
data_Dy5Zr3P12IrRh15
_symmetry_space_group_name_H-M   'P 1'
_cell_length_a   12.91918000
_cell_length_b   12.91917993
_cell_length_c   3.94398800
_cell_angle_alpha   90.00000000
_cell_angle_beta   90.00000000
_cell_angle_gamma   120.00000017
_symmetry_Int_Tables_number   1
_chemical_formula_structural   Dy5Zr3P12IrRh15
_chemical_formula_sum   'Dy5 Zr3 P12 Ir1 Rh15'
_cell_volume   570.08040302
_cell_formula_units_Z   1
loop_
 _symmetry_equiv_pos_site_id
 _symmetry_equiv_pos_as_xyz
  1  'x, y, z'
loop_
 _atom_site_type_symbol
 _atom_site_label
 _atom_site_symmetry_multiplicity
 _atom_site_fract_x
 _atom_site_fract_y
 _atom_site_fract_z
 _atom_site_occupancy
  Dy  Dy0  1  0.333333  0.666667  0.500000  1
  Dy  Dy1  1  0.666667  0.333333  0.500000  1
  Dy  Dy2  1  0.000000  0.814857  0.000000  1
  Dy  Dy3  1  0.185143  0.185143  0.000000  1
  Dy  Dy4  1  0.814857  0.000000  0.000000  1
  Zr  Zr5  1  0.000000  0.446534  0.500000  1
  Zr  Zr6  1  0.553466  0.553466  0.500000  1
  Zr  Zr7  1  0.446534  0.000000  0.500000  1
  P  P8  1  0.000000  0.648473  0.500000  1
  P  P9  1  0.351527  0.351527  0.500000  1
  P  P10  1  0.648473  0.000000  0.500000  1
  P  P11  1  0.517097  0.686124  0.000000  1
  P  P12  1  0.313876  0.830973  0.000000  1
  P  P13  1  0.169027  0.482903  0.000000  1
  P  P14  1  0.482903  0.169027  0.000000  1
  P  P15  1  0.686124  0.517097  0.000000  1
  P  P16  1  0.830973  0.313876  0.000000  1
  P  P17  1  0.000000  0.176056  0.500000  1
  P  P18  1  0.823944  0.823944  0.500000  1
  P  P19  1  0.176056  0.000000  0.500000  1
  Ir  Ir20  1  0.000000  0.000000  0.500000  1
  Rh  Rh21  1  0.513430  0.868501  0.000000  1
  Rh  Rh22  1  0.131499  0.644930  0.000000  1
  Rh  Rh23  1  0.355070  0.486570  0.000000  1
  Rh  Rh24  1  0.486570  0.355070  0.000000  1
  Rh  Rh25  1  0.868501  0.513430  0.000000  1
  Rh  Rh26  1  0.644930  0.131499  0.000000  1
  Rh  Rh27  1  0.000000  0.278223  0.000000  1
  Rh  Rh28  1  0.721777  0.721777  0.000000  1
  Rh  Rh29  1  0.278223  0.000000  0.000000  1
  Rh  Rh30  1  0.627185  0.804600  0.500000  1
  Rh  Rh31  1  0.195400  0.822585  0.500000  1
  Rh  Rh32  1  0.177415  0.372815  0.500000  1
  Rh  Rh33  1  0.372815  0.177415  0.500000  1
  Rh  Rh34  1  0.804600  0.627185  0.500000  1
  Rh  Rh35  1  0.822585  0.195400  0.500000  1
