# generated using pymatgen
data_DyHo2Sc3CoTe2
_symmetry_space_group_name_H-M   'P 1'
_cell_length_a   3.92697500
_cell_length_b   8.02995448
_cell_length_c   7.94841093
_cell_angle_alpha   120.33994802
_cell_angle_beta   90.00000000
_cell_angle_gamma   90.00000000
_symmetry_Int_Tables_number   1
_chemical_formula_structural   DyHo2Sc3CoTe2
_chemical_formula_sum   'Dy1 Ho2 Sc3 Co1 Te2'
_cell_volume   216.31381362
_cell_formula_units_Z   1
loop_
 _symmetry_equiv_pos_site_id
 _symmetry_equiv_pos_as_xyz
  1  'x, y, z'
loop_
 _atom_site_type_symbol
 _atom_site_label
 _atom_site_symmetry_multiplicity
 _atom_site_fract_x
 _atom_site_fract_y
 _atom_site_fract_z
 _atom_site_occupancy
  Dy  Dy0  1  0.000000  0.604250  0.000000  1
  Ho  Ho1  1  0.000000  0.383864  0.384739  1
  Ho  Ho2  1  0.000000  0.999125  0.615261  1
  Sc  Sc3  1  0.500000  0.770937  0.777302  1
  Sc  Sc4  1  0.500000  0.993634  0.222698  1
  Sc  Sc5  1  0.500000  0.230448  0.000000  1
  Co  Co6  1  0.000000  0.022145  0.000000  1
  Te  Te7  1  0.500000  0.665408  0.335218  1
  Te  Te8  1  0.500000  0.330188  0.664782  1
