# generated using pymatgen
data_Ho7ErSc11Si16Hg
_symmetry_space_group_name_H-M   'P 1'
_cell_length_a   7.04217403
_cell_length_b   7.39070239
_cell_length_c   14.00704608
_cell_angle_alpha   89.99359713
_cell_angle_beta   90.01005536
_cell_angle_gamma   89.88758683
_symmetry_Int_Tables_number   1
_chemical_formula_structural   Ho7ErSc11Si16Hg
_chemical_formula_sum   'Ho7 Er1 Sc11 Si16 Hg1'
_cell_volume   729.01787877
_cell_formula_units_Z   1
loop_
 _symmetry_equiv_pos_site_id
 _symmetry_equiv_pos_as_xyz
  1  'x, y, z'
loop_
 _atom_site_type_symbol
 _atom_site_label
 _atom_site_symmetry_multiplicity
 _atom_site_fract_x
 _atom_site_fract_y
 _atom_site_fract_z
 _atom_site_occupancy
  Ho  Ho0  1  0.010124  0.175005  0.096572  1
  Ho  Ho1  1  0.990390  0.816322  0.902423  1
  Ho  Ho2  1  0.485527  0.673479  0.902610  1
  Ho  Ho3  1  0.990383  0.816281  0.597572  1
  Ho  Ho4  1  0.510746  0.323728  0.096879  1
  Ho  Ho5  1  0.010133  0.174998  0.403441  1
  Ho  Ho6  1  0.510736  0.323756  0.403153  1
  Er  Er7  1  0.485538  0.673630  0.597489  1
  Sc  Sc8  1  0.837927  0.497551  0.249990  1
  Sc  Sc9  1  0.339830  0.004148  0.249996  1
  Sc  Sc10  1  0.656875  0.996939  0.749972  1
  Sc  Sc11  1  0.324980  0.182615  0.626248  1
  Sc  Sc12  1  0.671461  0.824150  0.374971  1
  Sc  Sc13  1  0.169254  0.680634  0.373219  1
  Sc  Sc14  1  0.671476  0.824186  0.125047  1
  Sc  Sc15  1  0.838675  0.325422  0.626083  1
  Sc  Sc16  1  0.324949  0.182577  0.873744  1
  Sc  Sc17  1  0.838735  0.325352  0.873894  1
  Sc  Sc18  1  0.169250  0.680611  0.126787  1
  Si  Si19  1  0.026305  0.091976  0.749999  1
  Si  Si20  1  0.968367  0.889837  0.250000  1
  Si  Si21  1  0.466967  0.616515  0.250006  1
  Si  Si22  1  0.543783  0.380304  0.749959  1
  Si  Si23  1  0.290771  0.884381  0.749931  1
  Si  Si24  1  0.713373  0.130173  0.249999  1
  Si  Si25  1  0.212709  0.372161  0.249997  1
  Si  Si26  1  0.769379  0.632270  0.749904  1
  Si  Si27  1  0.164050  0.459489  0.528351  1
  Si  Si28  1  0.841402  0.535829  0.461915  1
  Si  Si29  1  0.343600  0.966394  0.462349  1
  Si  Si30  1  0.841451  0.535809  0.038102  1
  Si  Si31  1  0.657894  0.033077  0.540441  1
  Si  Si32  1  0.163839  0.459388  0.971704  1
  Si  Si33  1  0.657965  0.033222  0.959577  1
  Si  Si34  1  0.343555  0.966521  0.037694  1
  Hg  Hg35  1  0.157601  0.511268  0.749980  1
