# generated using pymatgen
data_Hf6Zn9Cu14Sb
_symmetry_space_group_name_H-M   'P 1'
_cell_length_a   8.51563016
_cell_length_b   8.51560806
_cell_length_c   8.51568300
_cell_angle_alpha   59.99869500
_cell_angle_beta   59.99838461
_cell_angle_gamma   59.99955116
_symmetry_Int_Tables_number   1
_chemical_formula_structural   Hf6Zn9Cu14Sb
_chemical_formula_sum   'Hf6 Zn9 Cu14 Sb1'
_cell_volume   436.64237994
_cell_formula_units_Z   1
loop_
 _symmetry_equiv_pos_site_id
 _symmetry_equiv_pos_as_xyz
  1  'x, y, z'
loop_
 _atom_site_type_symbol
 _atom_site_label
 _atom_site_symmetry_multiplicity
 _atom_site_fract_x
 _atom_site_fract_y
 _atom_site_fract_z
 _atom_site_occupancy
  Hf  Hf0  1  0.733027  0.266941  0.266947  1
  Hf  Hf1  1  0.266973  0.733059  0.733053  1
  Hf  Hf2  1  0.266998  0.732999  0.266972  1
  Hf  Hf3  1  0.733002  0.267001  0.733028  1
  Hf  Hf4  1  0.266929  0.266903  0.733067  1
  Hf  Hf5  1  0.733071  0.733097  0.266933  1
  Zn  Zn6  1  0.334869  0.334940  0.334759  1
  Zn  Zn7  1  0.665131  0.665060  0.665241  1
  Zn  Zn8  1  0.334941  0.334861  0.995452  1
  Zn  Zn9  1  0.334777  0.995404  0.334876  1
  Zn  Zn10  1  0.665059  0.665139  0.004548  1
  Zn  Zn11  1  0.665223  0.004596  0.665124  1
  Zn  Zn12  1  0.995448  0.334759  0.334939  1
  Zn  Zn13  1  0.004552  0.665241  0.665061  1
  Zn  Zn14  1  0.000000  0.000000  0.000000  1
  Cu  Cu15  1  0.122728  0.122708  0.122749  1
  Cu  Cu16  1  0.877272  0.877292  0.877251  1
  Cu  Cu17  1  0.122705  0.122742  0.631800  1
  Cu  Cu18  1  0.122713  0.631811  0.122750  1
  Cu  Cu19  1  0.877295  0.877258  0.368200  1
  Cu  Cu20  1  0.877287  0.368189  0.877250  1
  Cu  Cu21  1  0.631786  0.122734  0.122728  1
  Cu  Cu22  1  0.368214  0.877266  0.877272  1
  Cu  Cu23  1  0.500000  0.000000  0.000000  1
  Cu  Cu24  1  0.000000  0.500000  0.500000  1
  Cu  Cu25  1  0.000000  0.500000  0.000000  1
  Cu  Cu26  1  0.500000  0.000000  0.500000  1
  Cu  Cu27  1  0.000000  0.000000  0.500000  1
  Cu  Cu28  1  0.500000  0.500000  0.000000  1
  Sb  Sb29  1  0.500000  0.500000  0.500000  1
