# generated using pymatgen
data_Hf9Nb(Ge3N)2
_symmetry_space_group_name_H-M   'P 1'
_cell_length_a   7.90601500
_cell_length_b   7.90601489
_cell_length_c   5.57112100
_cell_angle_alpha   90.00000000
_cell_angle_beta   90.00000000
_cell_angle_gamma   119.99999626
_symmetry_Int_Tables_number   1
_chemical_formula_structural   Hf9Nb(Ge3N)2
_chemical_formula_sum   'Hf9 Nb1 Ge6 N2'
_cell_volume   301.57025370
_cell_formula_units_Z   1
loop_
 _symmetry_equiv_pos_site_id
 _symmetry_equiv_pos_as_xyz
  1  'x, y, z'
loop_
 _atom_site_type_symbol
 _atom_site_label
 _atom_site_symmetry_multiplicity
 _atom_site_fract_x
 _atom_site_fract_y
 _atom_site_fract_z
 _atom_site_occupancy
  Hf  Hf0  1  0.233557  0.999521  0.249895  1
  Hf  Hf1  1  0.765963  0.999521  0.750105  1
  Hf  Hf2  1  0.000479  0.234037  0.249895  1
  Hf  Hf3  1  0.000479  0.766443  0.750105  1
  Hf  Hf4  1  0.765963  0.766443  0.249895  1
  Hf  Hf5  1  0.233557  0.234037  0.750105  1
  Hf  Hf6  1  0.666667  0.333333  0.000000  1
  Hf  Hf7  1  0.666667  0.333333  0.500000  1
  Hf  Hf8  1  0.333333  0.666667  0.500000  1
  Nb  Nb9  1  0.333333  0.666667  0.000000  1
  Ge  Ge10  1  0.594644  0.998287  0.246570  1
  Ge  Ge11  1  0.403643  0.998287  0.753430  1
  Ge  Ge12  1  0.001713  0.596357  0.246570  1
  Ge  Ge13  1  0.001713  0.405356  0.753430  1
  Ge  Ge14  1  0.403643  0.405356  0.246570  1
  Ge  Ge15  1  0.594644  0.596357  0.753430  1
  N  N16  1  0.000000  0.000000  0.000000  1
  N  N17  1  0.000000  0.000000  0.500000  1
