# generated using pymatgen
data_KCl23
_symmetry_space_group_name_H-M   'P 1'
_cell_length_a   6.27401528
_cell_length_b   10.75597441
_cell_length_c   17.48720300
_cell_angle_alpha   90.71282944
_cell_angle_beta   79.22883047
_cell_angle_gamma   98.13659597
_symmetry_Int_Tables_number   1
_chemical_formula_structural   KCl23
_chemical_formula_sum   'K1 Cl23'
_cell_volume   1147.51072603
_cell_formula_units_Z   1
loop_
 _symmetry_equiv_pos_site_id
 _symmetry_equiv_pos_as_xyz
  1  'x, y, z'
loop_
 _atom_site_type_symbol
 _atom_site_label
 _atom_site_symmetry_multiplicity
 _atom_site_fract_x
 _atom_site_fract_y
 _atom_site_fract_z
 _atom_site_occupancy
  K  K0  1  0.436001  0.115572  0.421872  1
  Cl  Cl1  1  0.499231  0.765848  0.384811  1
  Cl  Cl2  1  0.057342  0.325631  0.102263  1
  Cl  Cl3  1  0.860807  0.219005  0.514945  1
  Cl  Cl4  1  0.256493  0.852630  0.489823  1
  Cl  Cl5  1  0.259781  0.391959  0.004617  1
  Cl  Cl6  1  0.811074  0.605127  0.999764  1
  Cl  Cl7  1  0.196085  0.310149  0.347875  1
  Cl  Cl8  1  0.707661  0.672126  0.294648  1
  Cl  Cl9  1  0.734814  0.151746  0.239607  1
  Cl  Cl10  1  0.237098  0.846213  0.172688  1
  Cl  Cl11  1  0.674669  0.762423  0.672198  1
  Cl  Cl12  1  0.267836  0.331042  0.675944  1
  Cl  Cl13  1  0.229612  0.873402  0.784413  1
  Cl  Cl14  1  0.738480  0.202070  0.831398  1
  Cl  Cl15  1  0.060529  0.737707  0.104760  1
  Cl  Cl16  1  0.489281  0.808019  0.590553  1
  Cl  Cl17  1  0.700883  0.042710  0.553117  1
  Cl  Cl18  1  0.987664  0.704523  0.905806  1
  Cl  Cl19  1  0.942588  0.291151  0.896562  1
  Cl  Cl20  1  0.442492  0.467152  0.318984  1
  Cl  Cl21  1  0.946917  0.022023  0.217227  1
  Cl  Cl22  1  0.445936  0.502276  0.678615  1
  Cl  Cl23  1  0.016725  0.999493  0.797511  1
