# generated using pymatgen
data_Nd5Si8P4Ir19
_symmetry_space_group_name_H-M   'P 1'
_cell_length_a   12.92023538
_cell_length_b   12.89035699
_cell_length_c   3.99799600
_cell_angle_alpha   90.00000000
_cell_angle_beta   90.00000000
_cell_angle_gamma   119.96658525
_symmetry_Int_Tables_number   1
_chemical_formula_structural   Nd5Si8P4Ir19
_chemical_formula_sum   'Nd5 Si8 P4 Ir19'
_cell_volume   576.83883389
_cell_formula_units_Z   1
loop_
 _symmetry_equiv_pos_site_id
 _symmetry_equiv_pos_as_xyz
  1  'x, y, z'
loop_
 _atom_site_type_symbol
 _atom_site_label
 _atom_site_symmetry_multiplicity
 _atom_site_fract_x
 _atom_site_fract_y
 _atom_site_fract_z
 _atom_site_occupancy
  Nd  Nd0  1  0.666917  0.333245  0.000000  1
  Nd  Nd1  1  0.332420  0.667094  0.000000  1
  Nd  Nd2  1  0.813233  0.813275  0.500000  1
  Nd  Nd3  1  0.186349  0.001097  0.500000  1
  Nd  Nd4  1  0.999753  0.184860  0.500000  1
  Si  Si5  1  0.685506  0.164965  0.500000  1
  Si  Si6  1  0.834785  0.520242  0.500000  1
  Si  Si7  1  0.480553  0.315034  0.500000  1
  Si  Si8  1  0.167268  0.688250  0.500000  1
  Si  Si9  1  0.519124  0.830678  0.500000  1
  Si  Si10  1  0.632822  0.632201  0.000000  1
  Si  Si11  1  0.367868  0.999760  0.000000  1
  Si  Si12  1  0.999216  0.367132  0.000000  1
  P  P13  1  0.307231  0.482854  0.500000  1
  P  P14  1  0.180989  0.181836  0.000000  1
  P  P15  1  0.818310  0.997713  0.000000  1
  P  P16  1  0.000205  0.820330  0.000000  1
  Ir  Ir17  1  0.805812  0.177997  0.000000  1
  Ir  Ir18  1  0.821714  0.627007  0.000000  1
  Ir  Ir19  1  0.371981  0.193524  0.000000  1
  Ir  Ir20  1  0.179290  0.805076  0.000000  1
  Ir  Ir21  1  0.623235  0.817926  0.000000  1
  Ir  Ir22  1  0.200785  0.380158  0.000000  1
  Ir  Ir23  1  0.455314  0.443378  0.000000  1
  Ir  Ir24  1  0.553357  0.002018  0.000000  1
  Ir  Ir25  1  0.998962  0.551494  0.000000  1
  Ir  Ir26  1  0.282089  0.286118  0.500000  1
  Ir  Ir27  1  0.718734  0.998081  0.500000  1
  Ir  Ir28  1  0.000408  0.720630  0.500000  1
  Ir  Ir29  1  0.873351  0.358738  0.500000  1
  Ir  Ir30  1  0.642581  0.515106  0.500000  1
  Ir  Ir31  1  0.485808  0.127264  0.500000  1
  Ir  Ir32  1  0.361386  0.874720  0.500000  1
  Ir  Ir33  1  0.507013  0.632384  0.500000  1
  Ir  Ir34  1  0.124773  0.486328  0.500000  1
  Ir  Ir35  1  0.000857  0.001488  0.000000  1
