# generated using pymatgen
data_Ba4Ca(IrO6)2
_symmetry_space_group_name_H-M   'P 1'
_cell_length_a   10.10759536
_cell_length_b   10.10759566
_cell_length_c   10.10759500
_cell_angle_alpha   33.87032739
_cell_angle_beta   33.87032490
_cell_angle_gamma   33.87032645
_symmetry_Int_Tables_number   1
_chemical_formula_structural   Ba4Ca(IrO6)2
_chemical_formula_sum   'Ba4 Ca1 Ir2 O12'
_cell_volume   285.83321965
_cell_formula_units_Z   1
loop_
 _symmetry_equiv_pos_site_id
 _symmetry_equiv_pos_as_xyz
  1  'x, y, z'
loop_
 _atom_site_type_symbol
 _atom_site_label
 _atom_site_symmetry_multiplicity
 _atom_site_fract_x
 _atom_site_fract_y
 _atom_site_fract_z
 _atom_site_occupancy
  Ba  Ba0  1  0.711731  0.711731  0.711731  1
  Ba  Ba1  1  0.288269  0.288269  0.288269  1
  Ba  Ba2  1  0.867688  0.867688  0.867688  1
  Ba  Ba3  1  0.132312  0.132312  0.132312  1
  Ca  Ca4  1  0.000000  0.000000  0.000000  1
  Ir  Ir5  1  0.579178  0.579178  0.579178  1
  Ir  Ir6  1  0.420822  0.420822  0.420822  1
  O  O7  1  0.226287  0.686962  0.226287  1
  O  O8  1  0.226287  0.226287  0.686962  1
  O  O9  1  0.686962  0.226287  0.226287  1
  O  O10  1  0.773713  0.313038  0.773713  1
  O  O11  1  0.773713  0.773713  0.313038  1
  O  O12  1  0.313038  0.773713  0.773713  1
  O  O13  1  0.386578  0.856496  0.386578  1
  O  O14  1  0.386578  0.386578  0.856496  1
  O  O15  1  0.856496  0.386578  0.386578  1
  O  O16  1  0.613422  0.143504  0.613422  1
  O  O17  1  0.613422  0.613422  0.143504  1
  O  O18  1  0.143504  0.613422  0.613422  1
