# generated using pymatgen
data_Tm3B6(IrRu)4
_symmetry_space_group_name_H-M   'P 1'
_cell_length_a   9.97526094
_cell_length_b   9.18728103
_cell_length_c   5.51531289
_cell_angle_alpha   81.30571823
_cell_angle_beta   65.56390798
_cell_angle_gamma   32.96425241
_symmetry_Int_Tables_number   1
_chemical_formula_structural   Tm3B6(IrRu)4
_chemical_formula_sum   'Tm3 B6 Ir4 Ru4'
_cell_volume   229.97485668
_cell_formula_units_Z   1
loop_
 _symmetry_equiv_pos_site_id
 _symmetry_equiv_pos_as_xyz
  1  'x, y, z'
loop_
 _atom_site_type_symbol
 _atom_site_label
 _atom_site_symmetry_multiplicity
 _atom_site_fract_x
 _atom_site_fract_y
 _atom_site_fract_z
 _atom_site_occupancy
  Tm  Tm0  1  0.000022  0.000022  0.999978  1
  Tm  Tm1  1  0.821403  0.821403  0.178597  1
  Tm  Tm2  1  0.179124  0.179124  0.820876  1
  B  B3  1  0.672092  0.328134  0.679834  1
  B  B4  1  0.328134  0.672092  0.319940  1
  B  B5  1  0.171987  0.479866  0.520416  1
  B  B6  1  0.479866  0.171987  0.827732  1
  B  B7  1  0.823499  0.523791  0.484963  1
  B  B8  1  0.523791  0.823499  0.167746  1
  Ir  Ir9  1  0.913842  0.913842  0.586158  1
  Ir  Ir10  1  0.415154  0.415154  0.584846  1
  Ir  Ir11  1  0.584411  0.584411  0.415589  1
  Ir  Ir12  1  0.249549  0.249549  0.250451  1
  Ru  Ru13  1  0.750465  0.750465  0.749535  1
  Ru  Ru14  1  0.086818  0.086818  0.413182  1
  Ru  Ru15  1  0.587229  0.587229  0.912771  1
  Ru  Ru16  1  0.412614  0.412614  0.087386  1
