# generated using pymatgen
data_Cs4Li2ErInBi4
_symmetry_space_group_name_H-M   'P 1'
_cell_length_a   11.70971426
_cell_length_b   11.70971232
_cell_length_c   7.35710200
_cell_angle_alpha   90.00000000
_cell_angle_beta   90.00000000
_cell_angle_gamma   102.74752887
_symmetry_Int_Tables_number   1
_chemical_formula_structural   Cs4Li2ErInBi4
_chemical_formula_sum   'Cs8 Li4 Er2 In2 Bi8'
_cell_volume   983.92185520
_cell_formula_units_Z   2
loop_
 _symmetry_equiv_pos_site_id
 _symmetry_equiv_pos_as_xyz
  1  'x, y, z'
loop_
 _atom_site_type_symbol
 _atom_site_label
 _atom_site_symmetry_multiplicity
 _atom_site_fract_x
 _atom_site_fract_y
 _atom_site_fract_z
 _atom_site_occupancy
  Cs  Cs0  1  0.573529  0.926471  0.750000  1
  Cs  Cs1  1  0.926471  0.573529  0.250000  1
  Cs  Cs2  1  0.422603  0.077397  0.250000  1
  Cs  Cs3  1  0.077397  0.422603  0.750000  1
  Cs  Cs4  1  0.669498  0.323556  0.773826  1
  Cs  Cs5  1  0.830502  0.176444  0.273826  1
  Cs  Cs6  1  0.323556  0.669498  0.226174  1
  Cs  Cs7  1  0.176444  0.830502  0.726174  1
  Li  Li8  1  0.620201  0.620201  0.000000  1
  Li  Li9  1  0.879799  0.879799  0.500000  1
  Li  Li10  1  0.376329  0.376329  0.000000  1
  Li  Li11  1  0.123671  0.123671  0.500000  1
  Er  Er12  1  0.874410  0.874410  0.000000  1
  Er  Er13  1  0.625590  0.625590  0.500000  1
  In  In14  1  0.129799  0.129799  0.000000  1
  In  In15  1  0.370201  0.370201  0.500000  1
  Bi  Bi16  1  0.343282  0.156718  0.750000  1
  Bi  Bi17  1  0.156718  0.343282  0.250000  1
  Bi  Bi18  1  0.658970  0.841030  0.250000  1
  Bi  Bi19  1  0.841030  0.658970  0.750000  1
  Bi  Bi20  1  0.910329  0.095293  0.762447  1
  Bi  Bi21  1  0.589671  0.404707  0.262447  1
  Bi  Bi22  1  0.095293  0.910329  0.237553  1
  Bi  Bi23  1  0.404707  0.589671  0.737553  1
