# generated using pymatgen
data_Y5GeRhO12
_symmetry_space_group_name_H-M   'P 1'
_cell_length_a   6.83953663
_cell_length_b   6.83953648
_cell_length_c   7.27575420
_cell_angle_alpha   74.47047101
_cell_angle_beta   74.47047112
_cell_angle_gamma   50.99050955
_symmetry_Int_Tables_number   1
_chemical_formula_structural   Y5GeRhO12
_chemical_formula_sum   'Y5 Ge1 Rh1 O12'
_cell_volume   252.56730883
_cell_formula_units_Z   1
loop_
 _symmetry_equiv_pos_site_id
 _symmetry_equiv_pos_as_xyz
  1  'x, y, z'
loop_
 _atom_site_type_symbol
 _atom_site_label
 _atom_site_symmetry_multiplicity
 _atom_site_fract_x
 _atom_site_fract_y
 _atom_site_fract_z
 _atom_site_occupancy
  Y  Y0  1  0.498975  0.501025  0.500000  1
  Y  Y1  1  0.189587  0.195251  0.168692  1
  Y  Y2  1  0.804749  0.810413  0.831308  1
  Y  Y3  1  0.807628  0.798711  0.359494  1
  Y  Y4  1  0.201289  0.192372  0.640506  1
  Ge  Ge5  1  0.254143  0.745857  0.000000  1
  Rh  Rh6  1  0.744028  0.255972  0.000000  1
  O  O7  1  0.008468  0.991412  0.182233  1
  O  O8  1  0.008588  0.991532  0.817767  1
  O  O9  1  0.492107  0.508315  0.820729  1
  O  O10  1  0.491685  0.507893  0.179271  1
  O  O11  1  0.597413  0.099708  0.573880  1
  O  O12  1  0.900292  0.402587  0.426120  1
  O  O13  1  0.404027  0.904151  0.423516  1
  O  O14  1  0.400004  0.921979  0.919198  1
  O  O15  1  0.078021  0.599996  0.080802  1
  O  O16  1  0.597880  0.074732  0.082397  1
  O  O17  1  0.925268  0.402120  0.917603  1
  O  O18  1  0.095849  0.595973  0.576484  1
