# generated using pymatgen
data_Tb7Er3(PPb3)2
_symmetry_space_group_name_H-M   'P 1'
_cell_length_a   9.16136700
_cell_length_b   9.16136577
_cell_length_c   6.82591500
_cell_angle_alpha   90.00000000
_cell_angle_beta   90.00000000
_cell_angle_gamma   119.99999361
_symmetry_Int_Tables_number   1
_chemical_formula_structural   Tb7Er3(PPb3)2
_chemical_formula_sum   'Tb7 Er3 P2 Pb6'
_cell_volume   496.14890755
_cell_formula_units_Z   1
loop_
 _symmetry_equiv_pos_site_id
 _symmetry_equiv_pos_as_xyz
  1  'x, y, z'
loop_
 _atom_site_type_symbol
 _atom_site_label
 _atom_site_symmetry_multiplicity
 _atom_site_fract_x
 _atom_site_fract_y
 _atom_site_fract_z
 _atom_site_occupancy
  Tb  Tb0  1  0.762214  0.762303  0.249957  1
  Tb  Tb1  1  0.237697  0.999912  0.249957  1
  Tb  Tb2  1  0.000088  0.237786  0.249957  1
  Tb  Tb3  1  0.237697  0.237786  0.750043  1
  Tb  Tb4  1  0.762214  0.999912  0.750043  1
  Tb  Tb5  1  0.000088  0.762303  0.750043  1
  Tb  Tb6  1  0.666667  0.333333  0.500000  1
  Er  Er7  1  0.333333  0.666667  0.500000  1
  Er  Er8  1  0.333333  0.666667  0.000000  1
  Er  Er9  1  0.666667  0.333333  0.000000  1
  P  P10  1  0.000000  0.000000  0.500000  1
  P  P11  1  0.000000  0.000000  0.000000  1
  Pb  Pb12  1  0.401429  0.401617  0.249876  1
  Pb  Pb13  1  0.598383  0.999812  0.249876  1
  Pb  Pb14  1  0.000188  0.598571  0.249876  1
  Pb  Pb15  1  0.598383  0.598571  0.750124  1
  Pb  Pb16  1  0.401429  0.999812  0.750124  1
  Pb  Pb17  1  0.000188  0.401617  0.750124  1
