# generated using pymatgen
data_Tb2DyZn2In3Ru
_symmetry_space_group_name_H-M   'P 1'
_cell_length_a   7.73718473
_cell_length_b   7.74358469
_cell_length_c   3.89835900
_cell_angle_alpha   90.00000000
_cell_angle_beta   90.00000000
_cell_angle_gamma   120.06906050
_symmetry_Int_Tables_number   1
_chemical_formula_structural   Tb2DyZn2In3Ru
_chemical_formula_sum   'Tb2 Dy1 Zn2 In3 Ru1'
_cell_volume   202.13188914
_cell_formula_units_Z   1
loop_
 _symmetry_equiv_pos_site_id
 _symmetry_equiv_pos_as_xyz
  1  'x, y, z'
loop_
 _atom_site_type_symbol
 _atom_site_label
 _atom_site_symmetry_multiplicity
 _atom_site_fract_x
 _atom_site_fract_y
 _atom_site_fract_z
 _atom_site_occupancy
  Tb  Tb0  1  0.582199  0.608725  0.000000  1
  Tb  Tb1  1  0.391172  0.973557  0.000000  1
  Dy  Dy2  1  0.027554  0.418127  0.000000  1
  Zn  Zn3  1  0.999994  0.999885  0.000000  1
  Zn  Zn4  1  0.666985  0.333702  0.500000  1
  In  In5  1  0.998448  0.735393  0.500000  1
  In  In6  1  0.264610  0.263005  0.500000  1
  In  In7  1  0.737041  0.001574  0.500000  1
  Ru  Ru8  1  0.331998  0.666032  0.500000  1
