# generated using pymatgen
data_Mn2Be8SiTc
_symmetry_space_group_name_H-M   'P 1'
_cell_length_a   4.22819400
_cell_length_b   4.22819314
_cell_length_c   6.86082000
_cell_angle_alpha   90.00000000
_cell_angle_beta   90.00000000
_cell_angle_gamma   119.99999108
_symmetry_Int_Tables_number   1
_chemical_formula_structural   Mn2Be8SiTc
_chemical_formula_sum   'Mn2 Be8 Si1 Tc1'
_cell_volume   106.22247563
_cell_formula_units_Z   1
loop_
 _symmetry_equiv_pos_site_id
 _symmetry_equiv_pos_as_xyz
  1  'x, y, z'
loop_
 _atom_site_type_symbol
 _atom_site_label
 _atom_site_symmetry_multiplicity
 _atom_site_fract_x
 _atom_site_fract_y
 _atom_site_fract_z
 _atom_site_occupancy
  Mn  Mn0  1  0.666667  0.333333  0.936059  1
  Mn  Mn1  1  0.333333  0.666667  0.437517  1
  Be  Be2  1  0.000000  0.000000  0.000524  1
  Be  Be3  1  0.000000  0.000000  0.495082  1
  Be  Be4  1  0.829335  0.658669  0.248557  1
  Be  Be5  1  0.167904  0.832096  0.752192  1
  Be  Be6  1  0.664191  0.832096  0.752192  1
  Be  Be7  1  0.341331  0.170665  0.248557  1
  Be  Be8  1  0.829335  0.170665  0.248557  1
  Be  Be9  1  0.167904  0.335809  0.752192  1
  Si  Si10  1  0.333333  0.666667  0.064002  1
  Tc  Tc11  1  0.666667  0.333333  0.564568  1
