# generated using pymatgen
data_Na2SrFe3(CoAs2)3
_symmetry_space_group_name_H-M   'P 1'
_cell_length_a   5.43180399
_cell_length_b   6.67489162
_cell_length_c   8.59437899
_cell_angle_alpha   67.16245431
_cell_angle_beta   71.57826543
_cell_angle_gamma   90.00000498
_symmetry_Int_Tables_number   1
_chemical_formula_structural   Na2SrFe3(CoAs2)3
_chemical_formula_sum   'Na2 Sr1 Fe3 Co3 As6'
_cell_volume   269.76714827
_cell_formula_units_Z   1
loop_
 _symmetry_equiv_pos_site_id
 _symmetry_equiv_pos_as_xyz
  1  'x, y, z'
loop_
 _atom_site_type_symbol
 _atom_site_label
 _atom_site_symmetry_multiplicity
 _atom_site_fract_x
 _atom_site_fract_y
 _atom_site_fract_z
 _atom_site_occupancy
  Na  Na0  1  0.330119  0.658959  0.339801  1
  Na  Na1  1  0.669922  0.341041  0.660199  1
  Sr  Sr2  1  0.000009  0.000000  0.000000  1
  Fe  Fe3  1  0.416740  0.832698  0.665760  1
  Fe  Fe4  1  0.751299  0.500000  0.000000  1
  Fe  Fe5  1  0.082500  0.167302  0.334240  1
  Co  Co6  1  0.248686  0.500000  0.000000  1
  Co  Co7  1  0.583360  0.167010  0.333956  1
  Co  Co8  1  0.917316  0.832990  0.666044  1
  As  As9  1  0.119136  0.525817  0.761689  1
  As  As10  1  0.451510  0.193438  0.096849  1
  As  As11  1  0.785587  0.859172  0.429043  1
  As  As12  1  0.548359  0.806562  0.903151  1
  As  As13  1  0.880826  0.474183  0.238311  1
  As  As14  1  0.214630  0.140828  0.570957  1
