# generated using pymatgen
data_Tb3Dy9Si11Ni
_symmetry_space_group_name_H-M   'P 1'
_cell_length_a   3.86340100
_cell_length_b   5.72160750
_cell_length_c   23.81861819
_cell_angle_alpha   82.74925113
_cell_angle_beta   90.00000000
_cell_angle_gamma   90.00000000
_symmetry_Int_Tables_number   1
_chemical_formula_structural   Tb3Dy9Si11Ni
_chemical_formula_sum   'Tb3 Dy9 Si11 Ni1'
_cell_volume   522.29699764
_cell_formula_units_Z   1
loop_
 _symmetry_equiv_pos_site_id
 _symmetry_equiv_pos_as_xyz
  1  'x, y, z'
loop_
 _atom_site_type_symbol
 _atom_site_label
 _atom_site_symmetry_multiplicity
 _atom_site_fract_x
 _atom_site_fract_y
 _atom_site_fract_z
 _atom_site_occupancy
  Tb  Tb0  1  0.750000  0.353330  0.559323  1
  Tb  Tb1  1  0.750000  0.996417  0.726880  1
  Tb  Tb2  1  0.750000  0.169710  0.893845  1
  Dy  Dy3  1  0.750000  0.356251  0.066267  1
  Dy  Dy4  1  0.250000  0.660426  0.940919  1
  Dy  Dy5  1  0.750000  0.519016  0.220631  1
  Dy  Dy6  1  0.250000  0.469747  0.773730  1
  Dy  Dy7  1  0.750000  0.167284  0.392391  1
  Dy  Dy8  1  0.250000  0.829074  0.606435  1
  Dy  Dy9  1  0.250000  0.643720  0.438948  1
  Dy  Dy10  1  0.250000  0.994532  0.271939  1
  Dy  Dy11  1  0.250000  0.837352  0.108293  1
  Si  Si12  1  0.750000  0.876911  0.013632  1
  Si  Si13  1  0.250000  0.148126  0.989592  1
  Si  Si14  1  0.750000  0.051315  0.178805  1
  Si  Si15  1  0.250000  0.955519  0.821535  1
  Si  Si16  1  0.750000  0.701797  0.344416  1
  Si  Si17  1  0.250000  0.292405  0.654071  1
  Si  Si18  1  0.750000  0.864439  0.511711  1
  Si  Si19  1  0.250000  0.133079  0.486582  1
  Si  Si20  1  0.750000  0.534882  0.679176  1
  Si  Si21  1  0.250000  0.461602  0.318403  1
  Si  Si22  1  0.750000  0.683439  0.846299  1
  Ni  Ni23  1  0.250000  0.299629  0.156176  1
