# generated using pymatgen
data_Tb15Dy4ErSn16
_symmetry_space_group_name_H-M   'P 1'
_cell_length_a   8.05074501
_cell_length_b   8.20090632
_cell_length_c   15.50201907
_cell_angle_alpha   90.00349176
_cell_angle_beta   89.99828568
_cell_angle_gamma   90.03175817
_symmetry_Int_Tables_number   1
_chemical_formula_structural   Tb15Dy4ErSn16
_chemical_formula_sum   'Tb15 Dy4 Er1 Sn16'
_cell_volume   1023.49593357
_cell_formula_units_Z   1
loop_
 _symmetry_equiv_pos_site_id
 _symmetry_equiv_pos_as_xyz
  1  'x, y, z'
loop_
 _atom_site_type_symbol
 _atom_site_label
 _atom_site_symmetry_multiplicity
 _atom_site_fract_x
 _atom_site_fract_y
 _atom_site_fract_z
 _atom_site_occupancy
  Tb  Tb0  1  0.867294  0.663819  0.621951  1
  Tb  Tb1  1  0.632373  0.163613  0.378232  1
  Tb  Tb2  1  0.132876  0.336010  0.121380  1
  Tb  Tb3  1  0.632435  0.163722  0.121761  1
  Tb  Tb4  1  0.132681  0.336084  0.378239  1
  Tb  Tb5  1  0.367430  0.836263  0.621799  1
  Tb  Tb6  1  0.867523  0.663698  0.878377  1
  Tb  Tb7  1  0.520019  0.319971  0.902338  1
  Tb  Tb8  1  0.020105  0.179880  0.597803  1
  Tb  Tb9  1  0.479900  0.680053  0.402322  1
  Tb  Tb10  1  0.979853  0.820050  0.097731  1
  Tb  Tb11  1  0.479852  0.680117  0.097443  1
  Tb  Tb12  1  0.980023  0.820144  0.402265  1
  Tb  Tb13  1  0.520021  0.320111  0.597866  1
  Tb  Tb14  1  0.020098  0.179807  0.902255  1
  Dy  Dy15  1  0.367316  0.836475  0.877990  1
  Dy  Dy16  1  0.198527  0.502505  0.750203  1
  Dy  Dy17  1  0.698399  0.997489  0.750122  1
  Dy  Dy18  1  0.801728  0.497664  0.249982  1
  Er  Er19  1  0.301478  0.002363  0.249784  1
  Sn  Sn20  1  0.292559  0.034499  0.041903  1
  Sn  Sn21  1  0.792592  0.465018  0.457742  1
  Sn  Sn22  1  0.707457  0.964892  0.542254  1
  Sn  Sn23  1  0.208163  0.535938  0.957699  1
  Sn  Sn24  1  0.706356  0.964632  0.957717  1
  Sn  Sn25  1  0.207304  0.535084  0.542263  1
  Sn  Sn26  1  0.292552  0.035015  0.457482  1
  Sn  Sn27  1  0.792531  0.465049  0.042320  1
  Sn  Sn28  1  0.564983  0.618986  0.750289  1
  Sn  Sn29  1  0.065525  0.881319  0.750383  1
  Sn  Sn30  1  0.434724  0.381207  0.249927  1
  Sn  Sn31  1  0.935447  0.118396  0.249940  1
  Sn  Sn32  1  0.328263  0.146523  0.750239  1
  Sn  Sn33  1  0.828166  0.353170  0.750069  1
  Sn  Sn34  1  0.671623  0.853261  0.249954  1
  Sn  Sn35  1  0.171826  0.647173  0.249975  1
