# generated using pymatgen
data_Dy17Y3(SnPb)8
_symmetry_space_group_name_H-M   'P 1'
_cell_length_a   8.12372100
_cell_length_b   8.19858708
_cell_length_c   15.56192200
_cell_angle_alpha   90.00000000
_cell_angle_beta   90.00000000
_cell_angle_gamma   90.00821847
_symmetry_Int_Tables_number   1
_chemical_formula_structural   Dy17Y3(SnPb)8
_chemical_formula_sum   'Dy17 Y3 Sn8 Pb8'
_cell_volume   1036.47121046
_cell_formula_units_Z   1
loop_
 _symmetry_equiv_pos_site_id
 _symmetry_equiv_pos_as_xyz
  1  'x, y, z'
loop_
 _atom_site_type_symbol
 _atom_site_label
 _atom_site_symmetry_multiplicity
 _atom_site_fract_x
 _atom_site_fract_y
 _atom_site_fract_z
 _atom_site_occupancy
  Dy  Dy0  1  0.378211  0.839505  0.877108  1
  Dy  Dy1  1  0.878274  0.660400  0.622905  1
  Dy  Dy2  1  0.621797  0.160398  0.377228  1
  Dy  Dy3  1  0.121809  0.339627  0.122797  1
  Dy  Dy4  1  0.621797  0.160398  0.122772  1
  Dy  Dy5  1  0.121809  0.339627  0.377203  1
  Dy  Dy6  1  0.378211  0.839505  0.622892  1
  Dy  Dy7  1  0.878274  0.660400  0.877095  1
  Dy  Dy8  1  0.534831  0.323502  0.897188  1
  Dy  Dy9  1  0.034860  0.176532  0.602808  1
  Dy  Dy10  1  0.465116  0.676509  0.397264  1
  Dy  Dy11  1  0.965150  0.823492  0.102701  1
  Dy  Dy12  1  0.465116  0.676509  0.102736  1
  Dy  Dy13  1  0.965150  0.823492  0.397299  1
  Dy  Dy14  1  0.534831  0.323502  0.602812  1
  Dy  Dy15  1  0.034860  0.176532  0.897192  1
  Dy  Dy16  1  0.209353  0.503627  0.750000  1
  Y  Y17  1  0.709376  0.996412  0.750000  1
  Y  Y18  1  0.790705  0.496239  0.250000  1
  Y  Y19  1  0.290618  0.003621  0.250000  1
  Sn  Sn20  1  0.575012  0.622257  0.750000  1
  Sn  Sn21  1  0.075055  0.877742  0.750000  1
  Sn  Sn22  1  0.424974  0.377747  0.250000  1
  Sn  Sn23  1  0.924960  0.122215  0.250000  1
  Sn  Sn24  1  0.342481  0.148646  0.750000  1
  Sn  Sn25  1  0.842739  0.351451  0.750000  1
  Sn  Sn26  1  0.657370  0.851437  0.250000  1
  Sn  Sn27  1  0.157340  0.648646  0.250000  1
  Pb  Pb28  1  0.282087  0.033331  0.041577  1
  Pb  Pb29  1  0.782076  0.466661  0.458432  1
  Pb  Pb30  1  0.717910  0.966622  0.541628  1
  Pb  Pb31  1  0.217888  0.533403  0.958341  1
  Pb  Pb32  1  0.717910  0.966622  0.958372  1
  Pb  Pb33  1  0.217888  0.533403  0.541659  1
  Pb  Pb34  1  0.282087  0.033331  0.458423  1
  Pb  Pb35  1  0.782076  0.466661  0.041568  1
