# generated using pymatgen
data_Tb2Al9CoNi2
_symmetry_space_group_name_H-M   'P 1'
_cell_length_a   7.41585100
_cell_length_b   7.41585083
_cell_length_c   9.28955800
_cell_angle_alpha   90.00000000
_cell_angle_beta   90.00000000
_cell_angle_gamma   119.26559897
_symmetry_Int_Tables_number   1
_chemical_formula_structural   Tb2Al9CoNi2
_chemical_formula_sum   'Tb4 Al18 Co2 Ni4'
_cell_volume   445.67086315
_cell_formula_units_Z   2
loop_
 _symmetry_equiv_pos_site_id
 _symmetry_equiv_pos_as_xyz
  1  'x, y, z'
loop_
 _atom_site_type_symbol
 _atom_site_label
 _atom_site_symmetry_multiplicity
 _atom_site_fract_x
 _atom_site_fract_y
 _atom_site_fract_z
 _atom_site_occupancy
  Tb  Tb0  1  0.992284  0.669847  0.250000  1
  Tb  Tb1  1  0.007716  0.330153  0.750000  1
  Tb  Tb2  1  0.669847  0.992284  0.250000  1
  Tb  Tb3  1  0.330153  0.007716  0.750000  1
  Al  Al4  1  0.124251  0.124251  0.250000  1
  Al  Al5  1  0.875749  0.875749  0.750000  1
  Al  Al6  1  0.329814  0.329814  0.545215  1
  Al  Al7  1  0.670186  0.670186  0.045215  1
  Al  Al8  1  0.329814  0.329814  0.954785  1
  Al  Al9  1  0.670186  0.670186  0.454785  1
  Al  Al10  1  0.340594  0.552809  0.250000  1
  Al  Al11  1  0.659406  0.447191  0.750000  1
  Al  Al12  1  0.552809  0.340594  0.250000  1
  Al  Al13  1  0.447191  0.659406  0.750000  1
  Al  Al14  1  0.997097  0.331942  0.072244  1
  Al  Al15  1  0.002903  0.668058  0.572244  1
  Al  Al16  1  0.331942  0.997097  0.427756  1
  Al  Al17  1  0.668058  0.002903  0.927756  1
  Al  Al18  1  0.002903  0.668058  0.927756  1
  Al  Al19  1  0.997097  0.331942  0.427756  1
  Al  Al20  1  0.668058  0.002903  0.572244  1
  Al  Al21  1  0.331942  0.997097  0.072244  1
  Co  Co22  1  0.000000  0.000000  0.000000  1
  Co  Co23  1  0.000000  0.000000  0.500000  1
  Ni  Ni24  1  0.670958  0.329042  0.000000  1
  Ni  Ni25  1  0.329042  0.670958  0.500000  1
  Ni  Ni26  1  0.329042  0.670958  0.000000  1
  Ni  Ni27  1  0.670958  0.329042  0.500000  1
