# generated using pymatgen
data_Nd(SiTc2)2
_symmetry_space_group_name_H-M   'P 1'
_cell_length_a   4.17765000
_cell_length_b   7.27022400
_cell_length_c   15.45259000
_cell_angle_alpha   90.00000000
_cell_angle_beta   90.00000000
_cell_angle_gamma   90.00000000
_symmetry_Int_Tables_number   1
_chemical_formula_structural   Nd(SiTc2)2
_chemical_formula_sum   'Nd4 Si8 Tc16'
_cell_volume   469.33303713
_cell_formula_units_Z   4
loop_
 _symmetry_equiv_pos_site_id
 _symmetry_equiv_pos_as_xyz
  1  'x, y, z'
loop_
 _atom_site_type_symbol
 _atom_site_label
 _atom_site_symmetry_multiplicity
 _atom_site_fract_x
 _atom_site_fract_y
 _atom_site_fract_z
 _atom_site_occupancy
  Nd  Nd0  1  0.000000  0.581127  0.116865  1
  Nd  Nd1  1  0.000000  0.418873  0.883135  1
  Nd  Nd2  1  0.500000  0.081127  0.383135  1
  Nd  Nd3  1  0.500000  0.918873  0.616865  1
  Si  Si4  1  0.000000  0.823432  0.474272  1
  Si  Si5  1  0.000000  0.176568  0.525728  1
  Si  Si6  1  0.500000  0.323432  0.025728  1
  Si  Si7  1  0.500000  0.676568  0.974272  1
  Si  Si8  1  0.000000  0.294575  0.273196  1
  Si  Si9  1  0.000000  0.705425  0.726804  1
  Si  Si10  1  0.500000  0.794575  0.226804  1
  Si  Si11  1  0.500000  0.205425  0.773196  1
  Tc  Tc12  1  0.000000  0.137493  0.052500  1
  Tc  Tc13  1  0.000000  0.862507  0.947500  1
  Tc  Tc14  1  0.500000  0.637493  0.447500  1
  Tc  Tc15  1  0.500000  0.362507  0.552500  1
  Tc  Tc16  1  0.000000  0.729274  0.319812  1
  Tc  Tc17  1  0.000000  0.270726  0.680188  1
  Tc  Tc18  1  0.500000  0.229274  0.180188  1
  Tc  Tc19  1  0.500000  0.770726  0.819812  1
  Tc  Tc20  1  0.000000  0.435099  0.419025  1
  Tc  Tc21  1  0.000000  0.564901  0.580975  1
  Tc  Tc22  1  0.500000  0.935099  0.080975  1
  Tc  Tc23  1  0.500000  0.064901  0.919025  1
  Tc  Tc24  1  0.000000  0.990080  0.205981  1
  Tc  Tc25  1  0.000000  0.009920  0.794019  1
  Tc  Tc26  1  0.500000  0.490080  0.294019  1
  Tc  Tc27  1  0.500000  0.509920  0.705981  1
