# generated using pymatgen
data_LiEr5Al12(Si3Ru2)4
_symmetry_space_group_name_H-M   'P 1'
_cell_length_a   8.60076600
_cell_length_b   8.63478166
_cell_length_c   9.19994500
_cell_angle_alpha   90.00000000
_cell_angle_beta   90.00000000
_cell_angle_gamma   119.86977177
_symmetry_Int_Tables_number   1
_chemical_formula_structural   LiEr5Al12(Si3Ru2)4
_chemical_formula_sum   'Li1 Er5 Al12 Si12 Ru8'
_cell_volume   592.47873963
_cell_formula_units_Z   1
loop_
 _symmetry_equiv_pos_site_id
 _symmetry_equiv_pos_as_xyz
  1  'x, y, z'
loop_
 _atom_site_type_symbol
 _atom_site_label
 _atom_site_symmetry_multiplicity
 _atom_site_fract_x
 _atom_site_fract_y
 _atom_site_fract_z
 _atom_site_occupancy
  Li  Li0  1  0.214125  0.428250  0.250000  1
  Er  Er1  1  0.806220  0.612441  0.750000  1
  Er  Er2  1  0.626817  0.811862  0.250000  1
  Er  Er3  1  0.379902  0.190170  0.750000  1
  Er  Er4  1  0.185045  0.811862  0.250000  1
  Er  Er5  1  0.810268  0.190170  0.750000  1
  Al  Al6  1  0.164108  0.328214  0.568203  1
  Al  Al7  1  0.830304  0.660609  0.417470  1
  Al  Al8  1  0.663851  0.830792  0.580345  1
  Al  Al9  1  0.830304  0.660609  0.082530  1
  Al  Al10  1  0.325535  0.166169  0.414692  1
  Al  Al11  1  0.164108  0.328214  0.931797  1
  Al  Al12  1  0.166942  0.830792  0.580345  1
  Al  Al13  1  0.325535  0.166169  0.085308  1
  Al  Al14  1  0.840633  0.166169  0.414692  1
  Al  Al15  1  0.663851  0.830792  0.919655  1
  Al  Al16  1  0.840633  0.166169  0.085308  1
  Al  Al17  1  0.166942  0.830792  0.919655  1
  Si  Si18  1  0.331674  0.663349  0.052629  1
  Si  Si19  1  0.664925  0.329848  0.956372  1
  Si  Si20  1  0.664925  0.329848  0.543628  1
  Si  Si21  1  0.331674  0.663349  0.447371  1
  Si  Si22  1  0.565218  0.130436  0.250000  1
  Si  Si23  1  0.438952  0.877904  0.750000  1
  Si  Si24  1  0.886278  0.435231  0.250000  1
  Si  Si25  1  0.127859  0.557982  0.750000  1
  Si  Si26  1  0.548953  0.435231  0.250000  1
  Si  Si27  1  0.430123  0.557982  0.750000  1
  Si  Si28  1  0.025246  0.050491  0.250000  1
  Si  Si29  1  0.998070  0.996141  0.750000  1
  Ru  Ru30  1  0.500767  0.001533  0.000681  1
  Ru  Ru31  1  0.999350  0.497553  0.998276  1
  Ru  Ru32  1  0.500767  0.001533  0.499319  1
  Ru  Ru33  1  0.498203  0.497553  0.998276  1
  Ru  Ru34  1  0.999350  0.497553  0.501724  1
  Ru  Ru35  1  0.498203  0.497553  0.501724  1
  Ru  Ru36  1  0.992171  0.984342  0.998981  1
  Ru  Ru37  1  0.992171  0.984342  0.501019  1
