# generated using pymatgen
data_HoErSc2(SbO4)4
_symmetry_space_group_name_H-M   'P 1'
_cell_length_a   5.30875544
_cell_length_b   7.47145918
_cell_length_c   7.56207636
_cell_angle_alpha   80.90090138
_cell_angle_beta   86.93059350
_cell_angle_gamma   91.08277423
_symmetry_Int_Tables_number   1
_chemical_formula_structural   HoErSc2(SbO4)4
_chemical_formula_sum   'Ho1 Er1 Sc2 Sb4 O16'
_cell_volume   295.63012761
_cell_formula_units_Z   1
loop_
 _symmetry_equiv_pos_site_id
 _symmetry_equiv_pos_as_xyz
  1  'x, y, z'
loop_
 _atom_site_type_symbol
 _atom_site_label
 _atom_site_symmetry_multiplicity
 _atom_site_fract_x
 _atom_site_fract_y
 _atom_site_fract_z
 _atom_site_occupancy
  Ho  Ho0  1  0.749096  0.876565  0.373820  1
  Er  Er1  1  0.251038  0.124084  0.626316  1
  Sc  Sc2  1  0.719730  0.367948  0.334098  1
  Sc  Sc3  1  0.280099  0.631994  0.666161  1
  Sb  Sb4  1  0.774928  0.810684  0.839730  1
  Sb  Sb5  1  0.225071  0.189606  0.160253  1
  Sb  Sb6  1  0.246660  0.686035  0.172323  1
  Sb  Sb7  1  0.753373  0.313757  0.827436  1
  O  O8  1  0.901281  0.306828  0.068970  1
  O  O9  1  0.098292  0.692645  0.931176  1
  O  O10  1  0.385302  0.436296  0.178760  1
  O  O11  1  0.615164  0.563871  0.820522  1
  O  O12  1  0.095703  0.934102  0.176104  1
  O  O13  1  0.905503  0.066042  0.823264  1
  O  O14  1  0.580482  0.811781  0.072453  1
  O  O15  1  0.419594  0.188122  0.927455  1
  O  O16  1  0.996563  0.819242  0.611371  1
  O  O17  1  0.004043  0.180930  0.389166  1
  O  O18  1  0.414575  0.683238  0.403276  1
  O  O19  1  0.584421  0.315973  0.596947  1
  O  O20  1  0.491118  0.115267  0.330043  1
  O  O21  1  0.507761  0.885599  0.670733  1
  O  O22  1  0.925730  0.604397  0.305176  1
  O  O23  1  0.074470  0.394993  0.694447  1
