# generated using pymatgen
data_Dy15TmIn3HgRh4
_symmetry_space_group_name_H-M   'P 1'
_cell_length_a   9.62762097
_cell_length_b   9.63274972
_cell_length_c   9.64764541
_cell_angle_alpha   60.03883860
_cell_angle_beta   60.06862604
_cell_angle_gamma   60.01761018
_symmetry_Int_Tables_number   1
_chemical_formula_structural   Dy15TmIn3HgRh4
_chemical_formula_sum   'Dy15 Tm1 In3 Hg1 Rh4'
_cell_volume   633.26522316
_cell_formula_units_Z   1
loop_
 _symmetry_equiv_pos_site_id
 _symmetry_equiv_pos_as_xyz
  1  'x, y, z'
loop_
 _atom_site_type_symbol
 _atom_site_label
 _atom_site_symmetry_multiplicity
 _atom_site_fract_x
 _atom_site_fract_y
 _atom_site_fract_z
 _atom_site_occupancy
  Dy  Dy0  1  0.688296  0.688800  0.311595  1
  Dy  Dy1  1  0.311308  0.688800  0.311595  1
  Dy  Dy2  1  0.937359  0.938229  0.558673  1
  Dy  Dy3  1  0.150688  0.149058  0.549565  1
  Dy  Dy4  1  0.565738  0.938229  0.558673  1
  Dy  Dy5  1  0.151443  0.150399  0.149748  1
  Dy  Dy6  1  0.309768  0.311084  0.689852  1
  Dy  Dy7  1  0.938506  0.563968  0.559020  1
  Dy  Dy8  1  0.563510  0.562420  0.936635  1
  Dy  Dy9  1  0.563823  0.937393  0.934963  1
  Dy  Dy10  1  0.937436  0.562420  0.936635  1
  Dy  Dy11  1  0.150405  0.550513  0.148675  1
  Dy  Dy12  1  0.309972  0.690013  0.690044  1
  Dy  Dy13  1  0.689297  0.311084  0.689852  1
  Dy  Dy14  1  0.548408  0.150399  0.149748  1
  Tm  Tm15  1  0.689013  0.311950  0.310022  1
  In  In16  1  0.247387  0.917078  0.919204  1
  In  In17  1  0.916583  0.247266  0.919567  1
  In  In18  1  0.916331  0.917078  0.919204  1
  Hg  Hg19  1  0.913681  0.914492  0.258147  1
  Rh  Rh20  1  0.359265  0.357042  0.357062  1
  Rh  Rh21  1  0.926633  0.357042  0.357062  1
  Rh  Rh22  1  0.357658  0.358121  0.926564  1
  Rh  Rh23  1  0.357493  0.927122  0.357894  1
