# generated using pymatgen
data_Tb4Cu2PtRh
_symmetry_space_group_name_H-M   'P 1'
_cell_length_a   4.39406200
_cell_length_b   5.61160669
_cell_length_c   7.15299108
_cell_angle_alpha   90.08822961
_cell_angle_beta   90.00000000
_cell_angle_gamma   90.00000000
_symmetry_Int_Tables_number   1
_chemical_formula_structural   Tb4Cu2PtRh
_chemical_formula_sum   'Tb4 Cu2 Pt1 Rh1'
_cell_volume   176.37644051
_cell_formula_units_Z   1
loop_
 _symmetry_equiv_pos_site_id
 _symmetry_equiv_pos_as_xyz
  1  'x, y, z'
loop_
 _atom_site_type_symbol
 _atom_site_label
 _atom_site_symmetry_multiplicity
 _atom_site_fract_x
 _atom_site_fract_y
 _atom_site_fract_z
 _atom_site_occupancy
  Tb  Tb0  1  0.000000  0.116894  0.679483  1
  Tb  Tb1  1  0.000000  0.883870  0.184989  1
  Tb  Tb2  1  0.500000  0.395493  0.320992  1
  Tb  Tb3  1  0.500000  0.607501  0.813469  1
  Cu  Cu4  1  0.500000  0.888676  0.463301  1
  Cu  Cu5  1  0.500000  0.110968  0.963350  1
  Pt  Pt6  1  0.000000  0.384196  0.037327  1
  Rh  Rh7  1  0.000000  0.612401  0.537091  1
