# generated using pymatgen
data_Tm4Ti5Co9
_symmetry_space_group_name_H-M   'P 1'
_cell_length_a   11.79488809
_cell_length_b   11.79488767
_cell_length_c   11.79488752
_cell_angle_alpha   25.95954698
_cell_angle_beta   25.95955136
_cell_angle_gamma   25.95955210
_symmetry_Int_Tables_number   1
_chemical_formula_structural   Tm4Ti5Co9
_chemical_formula_sum   'Tm4 Ti5 Co9'
_cell_volume   276.94802194
_cell_formula_units_Z   1
loop_
 _symmetry_equiv_pos_site_id
 _symmetry_equiv_pos_as_xyz
  1  'x, y, z'
loop_
 _atom_site_type_symbol
 _atom_site_label
 _atom_site_symmetry_multiplicity
 _atom_site_fract_x
 _atom_site_fract_y
 _atom_site_fract_z
 _atom_site_occupancy
  Tm  Tm0  1  0.952619  0.952619  0.952619  1
  Tm  Tm1  1  0.047381  0.047381  0.047381  1
  Tm  Tm2  1  0.855671  0.855671  0.855671  1
  Tm  Tm3  1  0.144329  0.144329  0.144329  1
  Ti  Ti4  1  0.500000  0.500000  0.500000  1
  Ti  Ti5  1  0.722212  0.722212  0.722212  1
  Ti  Ti6  1  0.277788  0.277788  0.277788  1
  Ti  Ti7  1  0.607873  0.607873  0.607873  1
  Ti  Ti8  1  0.392127  0.392127  0.392127  1
  Co  Co9  1  0.500000  0.500000  0.000000  1
  Co  Co10  1  0.000000  0.500000  0.500000  1
  Co  Co11  1  0.500000  0.000000  0.500000  1
  Co  Co12  1  0.381490  0.902201  0.381490  1
  Co  Co13  1  0.381490  0.381490  0.902201  1
  Co  Co14  1  0.902201  0.381490  0.381490  1
  Co  Co15  1  0.618510  0.097799  0.618510  1
  Co  Co16  1  0.618510  0.618510  0.097799  1
  Co  Co17  1  0.097799  0.618510  0.618510  1
