# generated using pymatgen
data_TbMnFe2Ni2P3
_symmetry_space_group_name_H-M   'P 1'
_cell_length_a   3.70263400
_cell_length_b   10.34697400
_cell_length_c   11.96348300
_cell_angle_alpha   90.00000000
_cell_angle_beta   90.00000000
_cell_angle_gamma   90.00000000
_symmetry_Int_Tables_number   1
_chemical_formula_structural   TbMnFe2Ni2P3
_chemical_formula_sum   'Tb4 Mn4 Fe8 Ni8 P12'
_cell_volume   458.33368786
_cell_formula_units_Z   4
loop_
 _symmetry_equiv_pos_site_id
 _symmetry_equiv_pos_as_xyz
  1  'x, y, z'
loop_
 _atom_site_type_symbol
 _atom_site_label
 _atom_site_symmetry_multiplicity
 _atom_site_fract_x
 _atom_site_fract_y
 _atom_site_fract_z
 _atom_site_occupancy
  Tb  Tb0  1  0.250000  0.577713  0.706639  1
  Tb  Tb1  1  0.250000  0.922287  0.206639  1
  Tb  Tb2  1  0.750000  0.422287  0.293361  1
  Tb  Tb3  1  0.750000  0.077713  0.793361  1
  Mn  Mn4  1  0.250000  0.702923  0.991583  1
  Mn  Mn5  1  0.250000  0.797077  0.491583  1
  Mn  Mn6  1  0.750000  0.297077  0.008417  1
  Mn  Mn7  1  0.750000  0.202923  0.508417  1
  Fe  Fe8  1  0.250000  0.873750  0.701352  1
  Fe  Fe9  1  0.250000  0.626250  0.201352  1
  Fe  Fe10  1  0.750000  0.126250  0.298648  1
  Fe  Fe11  1  0.750000  0.373750  0.798648  1
  Fe  Fe12  1  0.250000  0.460768  0.932317  1
  Fe  Fe13  1  0.250000  0.039232  0.432317  1
  Fe  Fe14  1  0.750000  0.539232  0.067683  1
  Fe  Fe15  1  0.750000  0.960768  0.567683  1
  Ni  Ni16  1  0.250000  0.407618  0.486844  1
  Ni  Ni17  1  0.250000  0.092382  0.986844  1
  Ni  Ni18  1  0.750000  0.592382  0.513156  1
  Ni  Ni19  1  0.750000  0.907618  0.013156  1
  Ni  Ni20  1  0.250000  0.226981  0.170912  1
  Ni  Ni21  1  0.250000  0.273019  0.670912  1
  Ni  Ni22  1  0.750000  0.773019  0.829088  1
  Ni  Ni23  1  0.750000  0.726981  0.329088  1
  P  P24  1  0.250000  0.432985  0.112564  1
  P  P25  1  0.250000  0.067015  0.612564  1
  P  P26  1  0.750000  0.567015  0.887436  1
  P  P27  1  0.750000  0.932985  0.387436  1
  P  P28  1  0.250000  0.270272  0.861833  1
  P  P29  1  0.250000  0.229728  0.361833  1
  P  P30  1  0.750000  0.729728  0.138167  1
  P  P31  1  0.750000  0.770272  0.638167  1
  P  P32  1  0.250000  0.603493  0.389381  1
  P  P33  1  0.250000  0.896507  0.889381  1
  P  P34  1  0.750000  0.396507  0.610619  1
  P  P35  1  0.750000  0.103493  0.110619  1
