# generated using pymatgen
data_Pa6Sn7PPd16
_symmetry_space_group_name_H-M   'P 1'
_cell_length_a   9.33242824
_cell_length_b   9.33242868
_cell_length_c   9.33242800
_cell_angle_alpha   60.00000241
_cell_angle_beta   60.00000084
_cell_angle_gamma   59.99999599
_symmetry_Int_Tables_number   1
_chemical_formula_structural   Pa6Sn7PPd16
_chemical_formula_sum   'Pa6 Sn7 P1 Pd16'
_cell_volume   574.73677448
_cell_formula_units_Z   1
loop_
 _symmetry_equiv_pos_site_id
 _symmetry_equiv_pos_as_xyz
  1  'x, y, z'
loop_
 _atom_site_type_symbol
 _atom_site_label
 _atom_site_symmetry_multiplicity
 _atom_site_fract_x
 _atom_site_fract_y
 _atom_site_fract_z
 _atom_site_occupancy
  Pa  Pa0  1  0.713904  0.286154  0.286096  1
  Pa  Pa1  1  0.286040  0.714028  0.713959  1
  Pa  Pa2  1  0.286041  0.714040  0.285980  1
  Pa  Pa3  1  0.713922  0.286128  0.713888  1
  Pa  Pa4  1  0.285958  0.285920  0.714078  1
  Pa  Pa5  1  0.713798  0.713786  0.286220  1
  Sn  Sn6  1  0.999786  0.000034  0.000082  1
  Sn  Sn7  1  0.500116  0.999956  0.000048  1
  Sn  Sn8  1  0.999677  0.500088  0.499940  1
  Sn  Sn9  1  0.999737  0.500105  0.000255  1
  Sn  Sn10  1  0.500109  0.999861  0.499906  1
  Sn  Sn11  1  0.999993  0.000140  0.499954  1
  Sn  Sn12  1  0.500099  0.500037  0.999928  1
  P  P13  1  0.499846  0.500269  0.499970  1
  Pd  Pd14  1  0.119755  0.119575  0.119730  1
  Pd  Pd15  1  0.880526  0.880162  0.880222  1
  Pd  Pd16  1  0.119828  0.119486  0.640943  1
  Pd  Pd17  1  0.119829  0.641000  0.119527  1
  Pd  Pd18  1  0.880425  0.880246  0.359083  1
  Pd  Pd19  1  0.880331  0.359134  0.880292  1
  Pd  Pd20  1  0.640833  0.119702  0.119759  1
  Pd  Pd21  1  0.358982  0.880190  0.880356  1
  Pd  Pd22  1  0.340809  0.340846  0.340712  1
  Pd  Pd23  1  0.659171  0.659236  0.659052  1
  Pd  Pd24  1  0.340824  0.340872  0.977590  1
  Pd  Pd25  1  0.340971  0.977339  0.340861  1
  Pd  Pd26  1  0.659205  0.659246  0.022498  1
  Pd  Pd27  1  0.659314  0.022247  0.659223  1
  Pd  Pd28  1  0.977622  0.340921  0.340731  1
  Pd  Pd29  1  0.022546  0.659254  0.659115  1
