# generated using pymatgen
data_Dy6Al2Tc14O
_symmetry_space_group_name_H-M   'P 1'
_cell_length_a   8.05321240
_cell_length_b   8.08010502
_cell_length_c   8.05220593
_cell_angle_alpha   109.07949488
_cell_angle_beta   108.94291901
_cell_angle_gamma   110.46661179
_symmetry_Int_Tables_number   1
_chemical_formula_structural   Dy6Al2Tc14O
_chemical_formula_sum   'Dy6 Al2 Tc14 O1'
_cell_volume   402.90603466
_cell_formula_units_Z   1
loop_
 _symmetry_equiv_pos_site_id
 _symmetry_equiv_pos_as_xyz
  1  'x, y, z'
loop_
 _atom_site_type_symbol
 _atom_site_label
 _atom_site_symmetry_multiplicity
 _atom_site_fract_x
 _atom_site_fract_y
 _atom_site_fract_z
 _atom_site_occupancy
  Dy  Dy0  1  0.265795  0.003142  0.261897  1
  Dy  Dy1  1  0.001593  0.259581  0.259473  1
  Dy  Dy2  1  0.003898  0.741245  0.738103  1
  Dy  Dy3  1  0.271676  0.270171  0.000000  1
  Dy  Dy4  1  0.735495  0.733940  0.000000  1
  Dy  Dy5  1  0.742120  0.000109  0.740527  1
  Al  Al6  1  0.344181  0.999436  0.653511  1
  Al  Al7  1  0.690671  0.345924  0.346489  1
  Tc  Tc8  1  0.999280  0.999080  0.490959  1
  Tc  Tc9  1  0.516111  0.999332  0.000000  1
  Tc  Tc10  1  0.000775  0.499013  0.000000  1
  Tc  Tc11  1  0.508321  0.508121  0.509041  1
  Tc  Tc12  1  0.990680  0.339033  0.655872  1
  Tc  Tc13  1  0.651879  0.656983  0.318498  1
  Tc  Tc14  1  0.339112  0.655187  0.000000  1
  Tc  Tc15  1  0.334808  0.683161  0.344128  1
  Tc  Tc16  1  0.655325  0.319974  0.660635  1
  Tc  Tc17  1  0.333380  0.338484  0.681502  1
  Tc  Tc18  1  0.309079  0.655323  0.657384  1
  Tc  Tc19  1  0.655118  0.334682  0.000000  1
  Tc  Tc20  1  0.994690  0.659340  0.339365  1
  Tc  Tc21  1  0.651696  0.997939  0.342616  1
  O  O22  1  0.004319  0.000801  0.000000  1
