# generated using pymatgen
data_YHo2Al3PdAu2
_symmetry_space_group_name_H-M   'P 1'
_cell_length_a   7.27254993
_cell_length_b   7.26337862
_cell_length_c   4.06787700
_cell_angle_alpha   90.00000000
_cell_angle_beta   90.00000000
_cell_angle_gamma   119.95829037
_symmetry_Int_Tables_number   1
_chemical_formula_structural   YHo2Al3PdAu2
_chemical_formula_sum   'Y1 Ho2 Al3 Pd1 Au2'
_cell_volume   186.16850745
_cell_formula_units_Z   1
loop_
 _symmetry_equiv_pos_site_id
 _symmetry_equiv_pos_as_xyz
  1  'x, y, z'
loop_
 _atom_site_type_symbol
 _atom_site_label
 _atom_site_symmetry_multiplicity
 _atom_site_fract_x
 _atom_site_fract_y
 _atom_site_fract_z
 _atom_site_occupancy
  Y  Y0  1  0.000000  0.588368  0.500000  1
  Ho  Ho1  1  0.411474  0.411436  0.500000  1
  Ho  Ho2  1  0.588526  0.999962  0.500000  1
  Al  Al3  1  0.000000  0.234220  0.000000  1
  Al  Al4  1  0.765477  0.765706  0.000000  1
  Al  Al5  1  0.234523  0.000229  0.000000  1
  Pd  Pd6  1  0.000000  0.000757  0.500000  1
  Au  Au7  1  0.665260  0.332291  0.000000  1
  Au  Au8  1  0.334740  0.667031  0.000000  1
