# generated using pymatgen
data_Y2Ga2FeCoC
_symmetry_space_group_name_H-M   'P 1'
_cell_length_a   5.77030397
_cell_length_b   5.77030316
_cell_length_c   6.92259792
_cell_angle_alpha   53.77151298
_cell_angle_beta   53.77151884
_cell_angle_gamma   40.53752656
_symmetry_Int_Tables_number   1
_chemical_formula_structural   Y2Ga2FeCoC
_chemical_formula_sum   'Y2 Ga2 Fe1 Co1 C1'
_cell_volume   116.34019550
_cell_formula_units_Z   1
loop_
 _symmetry_equiv_pos_site_id
 _symmetry_equiv_pos_as_xyz
  1  'x, y, z'
loop_
 _atom_site_type_symbol
 _atom_site_label
 _atom_site_symmetry_multiplicity
 _atom_site_fract_x
 _atom_site_fract_y
 _atom_site_fract_z
 _atom_site_occupancy
  Y  Y0  1  0.445028  0.445028  0.284747  1
  Y  Y1  1  0.554526  0.554526  0.715434  1
  Ga  Ga2  1  0.839102  0.839102  0.712449  1
  Ga  Ga3  1  0.161317  0.161317  0.287896  1
  Fe  Fe4  1  0.192855  0.192855  0.908996  1
  Co  Co5  1  0.805844  0.805844  0.091566  1
  C  C6  1  0.001328  0.001328  0.998911  1
