# generated using pymatgen
data_SrLaTe12
_symmetry_space_group_name_H-M   'P 1'
_cell_length_a   4.36911600
_cell_length_b   13.37183746
_cell_length_c   17.64302169
_cell_angle_alpha   95.47031620
_cell_angle_beta   90.00000000
_cell_angle_gamma   90.00000000
_symmetry_Int_Tables_number   1
_chemical_formula_structural   SrLaTe12
_chemical_formula_sum   'Sr2 La2 Te24'
_cell_volume   1026.06580919
_cell_formula_units_Z   2
loop_
 _symmetry_equiv_pos_site_id
 _symmetry_equiv_pos_as_xyz
  1  'x, y, z'
loop_
 _atom_site_type_symbol
 _atom_site_label
 _atom_site_symmetry_multiplicity
 _atom_site_fract_x
 _atom_site_fract_y
 _atom_site_fract_z
 _atom_site_occupancy
  Sr  Sr0  1  0.250000  0.734095  0.208462  1
  Sr  Sr1  1  0.750000  0.265905  0.791538  1
  La  La2  1  0.250000  0.232364  0.290188  1
  La  La3  1  0.750000  0.767636  0.709812  1
  Te  Te4  1  0.250000  0.599947  0.366743  1
  Te  Te5  1  0.750000  0.400053  0.633257  1
  Te  Te6  1  0.250000  0.014770  0.127840  1
  Te  Te7  1  0.750000  0.985230  0.872160  1
  Te  Te8  1  0.750000  0.401428  0.077082  1
  Te  Te9  1  0.250000  0.598572  0.922918  1
  Te  Te10  1  0.750000  0.997108  0.433687  1
  Te  Te11  1  0.250000  0.002892  0.566313  1
  Te  Te12  1  0.750000  0.418385  0.341993  1
  Te  Te13  1  0.250000  0.581615  0.658007  1
  Te  Te14  1  0.750000  0.857875  0.093563  1
  Te  Te15  1  0.250000  0.142125  0.906437  1
  Te  Te16  1  0.750000  0.175038  0.144290  1
  Te  Te17  1  0.250000  0.824962  0.855710  1
  Te  Te18  1  0.750000  0.746511  0.367494  1
  Te  Te19  1  0.250000  0.253489  0.632506  1
  Te  Te20  1  0.750000  0.212920  0.421015  1
  Te  Te21  1  0.250000  0.787080  0.578985  1
  Te  Te22  1  0.750000  0.622594  0.076320  1
  Te  Te23  1  0.250000  0.377406  0.923680  1
  Te  Te24  1  0.750000  0.016439  0.700471  1
  Te  Te25  1  0.250000  0.983561  0.299529  1
  Te  Te26  1  0.750000  0.572824  0.810015  1
  Te  Te27  1  0.250000  0.427176  0.189985  1
