# generated using pymatgen
data_Y3Er3Ti2(Al11Ru4)2
_symmetry_space_group_name_H-M   'P 1'
_cell_length_a   8.85387820
_cell_length_b   8.85020793
_cell_length_c   9.53808117
_cell_angle_alpha   89.97826372
_cell_angle_beta   90.01038186
_cell_angle_gamma   120.03542849
_symmetry_Int_Tables_number   1
_chemical_formula_structural   Y3Er3Ti2(Al11Ru4)2
_chemical_formula_sum   'Y3 Er3 Ti2 Al22 Ru8'
_cell_volume   647.02859944
_cell_formula_units_Z   1
loop_
 _symmetry_equiv_pos_site_id
 _symmetry_equiv_pos_as_xyz
  1  'x, y, z'
loop_
 _atom_site_type_symbol
 _atom_site_label
 _atom_site_symmetry_multiplicity
 _atom_site_fract_x
 _atom_site_fract_y
 _atom_site_fract_z
 _atom_site_occupancy
  Y  Y0  1  0.193675  0.387559  0.250839  1
  Y  Y1  1  0.806065  0.612162  0.749129  1
  Y  Y2  1  0.612374  0.806282  0.250801  1
  Er  Er3  1  0.388730  0.194276  0.749141  1
  Er  Er4  1  0.194273  0.805682  0.250710  1
  Er  Er5  1  0.805483  0.194267  0.749180  1
  Ti  Ti6  1  0.333117  0.666833  0.996342  1
  Ti  Ti7  1  0.666437  0.332947  0.003247  1
  Al  Al8  1  0.666450  0.332981  0.517627  1
  Al  Al9  1  0.333100  0.666793  0.482749  1
  Al  Al10  1  0.161411  0.322814  0.577834  1
  Al  Al11  1  0.838808  0.676990  0.422464  1
  Al  Al12  1  0.677043  0.838813  0.577653  1
  Al  Al13  1  0.841019  0.681513  0.077862  1
  Al  Al14  1  0.322976  0.161196  0.422828  1
  Al  Al15  1  0.159222  0.318357  0.921856  1
  Al  Al16  1  0.161757  0.838835  0.577281  1
  Al  Al17  1  0.318442  0.159013  0.077487  1
  Al  Al18  1  0.838454  0.161584  0.423012  1
  Al  Al19  1  0.681500  0.840964  0.922033  1
  Al  Al20  1  0.840755  0.159358  0.077308  1
  Al  Al21  1  0.159485  0.841031  0.922402  1
  Al  Al22  1  0.560382  0.121496  0.252322  1
  Al  Al23  1  0.439449  0.878944  0.747721  1
  Al  Al24  1  0.878549  0.439621  0.252298  1
  Al  Al25  1  0.121526  0.560419  0.747739  1
  Al  Al26  1  0.560958  0.439004  0.252274  1
  Al  Al27  1  0.438884  0.560380  0.747770  1
  Al  Al28  1  0.000482  0.999526  0.250562  1
  Al  Al29  1  0.000480  0.000951  0.749446  1
  Ru  Ru30  1  0.499703  0.000085  0.999621  1
  Ru  Ru31  1  0.000228  0.500121  0.000046  1
  Ru  Ru32  1  0.499821  0.000215  0.500341  1
  Ru  Ru33  1  0.499702  0.499635  0.999615  1
  Ru  Ru34  1  0.999823  0.499918  0.500061  1
  Ru  Ru35  1  0.499807  0.499620  0.500359  1
  Ru  Ru36  1  0.999816  0.999904  0.000137  1
  Ru  Ru37  1  0.999817  0.999911  0.499898  1
