# generated using pymatgen
data_YbHo6(ErIr2)3
_symmetry_space_group_name_H-M   'P 1'
_cell_length_a   10.80326588
_cell_length_b   10.83564300
_cell_length_c   6.33245600
_cell_angle_alpha   90.00000000
_cell_angle_beta   90.22306834
_cell_angle_gamma   90.00000000
_symmetry_Int_Tables_number   1
_chemical_formula_structural   YbHo6(ErIr2)3
_chemical_formula_sum   'Yb2 Ho12 Er6 Ir12'
_cell_volume   741.27378540
_cell_formula_units_Z   2
loop_
 _symmetry_equiv_pos_site_id
 _symmetry_equiv_pos_as_xyz
  1  'x, y, z'
loop_
 _atom_site_type_symbol
 _atom_site_label
 _atom_site_symmetry_multiplicity
 _atom_site_fract_x
 _atom_site_fract_y
 _atom_site_fract_z
 _atom_site_occupancy
  Yb  Yb0  1  0.288854  0.087879  0.374403  1
  Yb  Yb1  1  0.288854  0.912121  0.874403  1
  Ho  Ho2  1  0.709303  0.086337  0.878245  1
  Ho  Ho3  1  0.709303  0.913663  0.378245  1
  Ho  Ho4  1  0.586778  0.792428  0.876717  1
  Ho  Ho5  1  0.586778  0.207572  0.376717  1
  Ho  Ho6  1  0.412142  0.793134  0.378526  1
  Ho  Ho7  1  0.412142  0.206866  0.878526  1
  Ho  Ho8  1  0.209972  0.413352  0.623330  1
  Ho  Ho9  1  0.209972  0.586648  0.123330  1
  Ho  Ho10  1  0.791218  0.412462  0.121487  1
  Ho  Ho11  1  0.791218  0.587538  0.621487  1
  Ho  Ho12  1  0.912845  0.709632  0.123996  1
  Ho  Ho13  1  0.912845  0.290368  0.623996  1
  Er  Er14  1  0.087229  0.708579  0.622042  1
  Er  Er15  1  0.087229  0.291421  0.122042  1
  Er  Er16  1  0.001076  0.999383  0.500197  1
  Er  Er17  1  0.001076  0.000617  0.000197  1
  Er  Er18  1  0.500102  0.499917  0.998352  1
  Er  Er19  1  0.500102  0.500083  0.498352  1
  Ir  Ir20  1  0.849355  0.153362  0.250074  1
  Ir  Ir21  1  0.849355  0.846638  0.750074  1
  Ir  Ir22  1  0.147445  0.159449  0.754070  1
  Ir  Ir23  1  0.147445  0.840551  0.254070  1
  Ir  Ir24  1  0.651535  0.346006  0.750414  1
  Ir  Ir25  1  0.651535  0.653994  0.250414  1
  Ir  Ir26  1  0.347298  0.351498  0.245879  1
  Ir  Ir27  1  0.347298  0.648502  0.745879  1
  Ir  Ir28  1  0.504411  0.000269  0.123315  1
  Ir  Ir29  1  0.504411  0.999731  0.623315  1
  Ir  Ir30  1  0.000439  0.500284  0.878953  1
  Ir  Ir31  1  0.000439  0.499716  0.378953  1
