# generated using pymatgen
data_Ba4Re2RuO12
_symmetry_space_group_name_H-M   'P 1'
_cell_length_a   5.85224963
_cell_length_b   5.85216424
_cell_length_c   10.11644106
_cell_angle_alpha   89.99900743
_cell_angle_beta   73.18909853
_cell_angle_gamma   119.99993397
_symmetry_Int_Tables_number   1
_chemical_formula_structural   Ba4Re2RuO12
_chemical_formula_sum   'Ba4 Re2 Ru1 O12'
_cell_volume   282.82560486
_cell_formula_units_Z   1
loop_
 _symmetry_equiv_pos_site_id
 _symmetry_equiv_pos_as_xyz
  1  'x, y, z'
loop_
 _atom_site_type_symbol
 _atom_site_label
 _atom_site_symmetry_multiplicity
 _atom_site_fract_x
 _atom_site_fract_y
 _atom_site_fract_z
 _atom_site_occupancy
  Ba  Ba0  1  0.569362  0.284668  0.145887  1
  Ba  Ba1  1  0.415977  0.707982  0.875976  1
  Ba  Ba2  1  0.251822  0.125908  0.622343  1
  Ba  Ba3  1  0.753213  0.876612  0.370234  1
  Re  Re4  1  0.001212  0.000591  0.998053  1
  Re  Re5  1  0.009521  0.504769  0.485868  1
  Ru  Ru6  1  0.825836  0.412923  0.761148  1
  O  O7  1  0.764426  0.614179  0.621546  1
  O  O8  1  0.228193  0.614105  0.621623  1
  O  O9  1  0.764429  0.150259  0.621549  1
  O  O10  1  0.232289  0.380094  0.387830  1
  O  O11  1  0.760120  0.380067  0.387820  1
  O  O12  1  0.232288  0.852204  0.387831  1
  O  O13  1  0.078151  0.812573  0.109239  1
  O  O14  1  0.625102  0.812550  0.109287  1
  O  O15  1  0.078160  0.265571  0.109243  1
  O  O16  1  0.921190  0.200737  0.877863  1
  O  O17  1  0.401526  0.200756  0.877798  1
  O  O18  1  0.921183  0.720451  0.877865  1
