# generated using pymatgen
data_Y3Ho5B24(IrRu)2
_symmetry_space_group_name_H-M   'P 1'
_cell_length_a   3.64992800
_cell_length_b   9.17347799
_cell_length_c   11.49325100
_cell_angle_alpha   90.06128290
_cell_angle_beta   90.00000000
_cell_angle_gamma   90.00000000
_symmetry_Int_Tables_number   1
_chemical_formula_structural   Y3Ho5B24(IrRu)2
_chemical_formula_sum   'Y3 Ho5 B24 Ir2 Ru2'
_cell_volume   384.82294946
_cell_formula_units_Z   1
loop_
 _symmetry_equiv_pos_site_id
 _symmetry_equiv_pos_as_xyz
  1  'x, y, z'
loop_
 _atom_site_type_symbol
 _atom_site_label
 _atom_site_symmetry_multiplicity
 _atom_site_fract_x
 _atom_site_fract_y
 _atom_site_fract_z
 _atom_site_occupancy
  Y  Y0  1  0.000000  0.319317  0.411819  1
  Y  Y1  1  0.000000  0.680688  0.588189  1
  Y  Y2  1  0.000000  0.823485  0.085301  1
  Ho  Ho3  1  0.000000  0.176468  0.914753  1
  Ho  Ho4  1  0.000000  0.945825  0.372929  1
  Ho  Ho5  1  0.000000  0.054230  0.627163  1
  Ho  Ho6  1  0.000000  0.442418  0.125501  1
  Ho  Ho7  1  0.000000  0.557398  0.874397  1
  B  B8  1  0.500000  0.553092  0.433539  1
  B  B9  1  0.500000  0.446883  0.566497  1
  B  B10  1  0.500000  0.054264  0.066869  1
  B  B11  1  0.500000  0.946206  0.932878  1
  B  B12  1  0.500000  0.750152  0.420232  1
  B  B13  1  0.500000  0.249855  0.579820  1
  B  B14  1  0.500000  0.247717  0.079757  1
  B  B15  1  0.500000  0.752228  0.919906  1
  B  B16  1  0.500000  0.792694  0.266195  1
  B  B17  1  0.500000  0.207231  0.734061  1
  B  B18  1  0.500000  0.291705  0.233637  1
  B  B19  1  0.500000  0.708296  0.766334  1
  B  B20  1  0.500000  0.631841  0.184402  1
  B  B21  1  0.500000  0.367870  0.815768  1
  B  B22  1  0.500000  0.132114  0.314381  1
  B  B23  1  0.500000  0.867930  0.685636  1
  B  B24  1  0.500000  0.984002  0.212984  1
  B  B25  1  0.500000  0.016345  0.787169  1
  B  B26  1  0.500000  0.482171  0.286358  1
  B  B27  1  0.500000  0.517757  0.713657  1
  B  B28  1  0.500000  0.610907  0.030827  1
  B  B29  1  0.500000  0.388698  0.969052  1
  B  B30  1  0.500000  0.110400  0.469982  1
  B  B31  1  0.500000  0.889613  0.530040  1
  Ir  Ir32  1  0.000000  0.637532  0.321958  1
  Ir  Ir33  1  0.000000  0.362330  0.678184  1
  Ru  Ru34  1  0.000000  0.138170  0.178811  1
  Ru  Ru35  1  0.000000  0.862168  0.821015  1
