# generated using pymatgen
data_Tb3Tm9ZnCo4Sn
_symmetry_space_group_name_H-M   'P 1'
_cell_length_a   8.26800298
_cell_length_b   8.23130511
_cell_length_c   8.23130568
_cell_angle_alpha   112.22589540
_cell_angle_beta   109.24387470
_cell_angle_gamma   106.82152900
_symmetry_Int_Tables_number   1
_chemical_formula_structural   Tb3Tm9ZnCo4Sn
_chemical_formula_sum   'Tb3 Tm9 Zn1 Co4 Sn1'
_cell_volume   431.16200176
_cell_formula_units_Z   1
loop_
 _symmetry_equiv_pos_site_id
 _symmetry_equiv_pos_as_xyz
  1  'x, y, z'
loop_
 _atom_site_type_symbol
 _atom_site_label
 _atom_site_symmetry_multiplicity
 _atom_site_fract_x
 _atom_site_fract_y
 _atom_site_fract_z
 _atom_site_occupancy
  Tb  Tb0  1  0.430915  0.229995  0.200920  1
  Tb  Tb1  1  0.569480  0.769731  0.799749  1
  Tb  Tb2  1  0.032127  0.231002  0.801125  1
  Tm  Tm3  1  0.968878  0.767373  0.201505  1
  Tm  Tm4  1  0.179124  0.281913  0.461916  1
  Tm  Tm5  1  0.819936  0.716646  0.536022  1
  Tm  Tm6  1  0.179124  0.717208  0.897211  1
  Tm  Tm7  1  0.819936  0.283914  0.103291  1
  Tm  Tm8  1  0.324220  0.639306  0.311707  1
  Tm  Tm9  1  0.677121  0.363249  0.689125  1
  Tm  Tm10  1  0.324220  0.012513  0.684916  1
  Tm  Tm11  1  0.677121  0.987996  0.313870  1
  Zn  Zn12  1  0.999401  0.996817  0.002584  1
  Co  Co13  1  0.339628  0.998930  0.340698  1
  Co  Co14  1  0.657941  0.000859  0.657082  1
  Co  Co15  1  0.111740  0.615885  0.495854  1
  Co  Co16  1  0.886769  0.385915  0.500854  1
  Sn  Sn17  1  0.502321  0.500748  0.001572  1
