# generated using pymatgen
data_NaFe7(As2O5)4
_symmetry_space_group_name_H-M   'P 1'
_cell_length_a   6.48048725
_cell_length_b   9.58764401
_cell_length_c   9.60250300
_cell_angle_alpha   66.52658535
_cell_angle_beta   81.70586587
_cell_angle_gamma   78.85733295
_symmetry_Int_Tables_number   1
_chemical_formula_structural   NaFe7(As2O5)4
_chemical_formula_sum   'Na1 Fe7 As8 O20'
_cell_volume   535.43577709
_cell_formula_units_Z   1
loop_
 _symmetry_equiv_pos_site_id
 _symmetry_equiv_pos_as_xyz
  1  'x, y, z'
loop_
 _atom_site_type_symbol
 _atom_site_label
 _atom_site_symmetry_multiplicity
 _atom_site_fract_x
 _atom_site_fract_y
 _atom_site_fract_z
 _atom_site_occupancy
  Na  Na0  1  0.321223  0.252107  0.480844  1
  Fe  Fe1  1  0.145728  0.933001  0.632802  1
  Fe  Fe2  1  0.593011  0.414273  0.159460  1
  Fe  Fe3  1  0.897885  0.605978  0.845435  1
  Fe  Fe4  1  0.105494  0.390498  0.151769  1
  Fe  Fe5  1  0.404568  0.585574  0.839328  1
  Fe  Fe6  1  0.850282  0.069852  0.372803  1
  Fe  Fe7  1  0.680339  0.736192  0.530514  1
  As  As8  1  0.789238  0.402217  0.467727  1
  As  As9  1  0.254569  0.280691  0.840154  1
  As  As10  1  0.381712  0.035061  0.253539  1
  As  As11  1  0.749286  0.722398  0.156059  1
  As  As12  1  0.215344  0.603682  0.518456  1
  As  As13  1  0.780204  0.221826  0.998324  1
  As  As14  1  0.616941  0.946592  0.755965  1
  As  As15  1  0.227563  0.769507  0.008561  1
  O  O16  1  0.821566  0.008807  0.601078  1
  O  O17  1  0.397027  0.654456  0.608892  1
  O  O18  1  0.973466  0.661196  0.611578  1
  O  O19  1  0.758958  0.622113  0.363937  1
  O  O20  1  0.840463  0.564259  0.090706  1
  O  O21  1  0.611446  0.961532  0.362304  1
  O  O22  1  0.376919  0.027609  0.669626  1
  O  O23  1  0.901990  0.235204  0.154971  1
  O  O24  1  0.023148  0.354403  0.363931  1
  O  O25  1  0.121692  0.761386  0.847025  1
  O  O26  1  0.171601  0.994822  0.402858  1
  O  O27  1  0.003482  0.211328  0.865755  1
  O  O28  1  0.675735  0.427759  0.927759  1
  O  O29  1  0.371102  0.242363  0.209126  1
  O  O30  1  0.170321  0.432246  0.915184  1
  O  O31  1  0.601078  0.366327  0.376855  1
  O  O32  1  0.624186  0.750833  0.761779  1
  O  O33  1  0.302287  0.559077  0.090994  1
  O  O34  1  0.247860  0.393652  0.637933  1
  O  O35  1  0.992285  0.801179  0.125969  1
