# generated using pymatgen
data_TbDy3Ga3Ru5
_symmetry_space_group_name_H-M   'P 1'
_cell_length_a   5.25252909
_cell_length_b   5.54378156
_cell_length_c   9.35794297
_cell_angle_alpha   72.77006108
_cell_angle_beta   91.79374726
_cell_angle_gamma   121.85185504
_symmetry_Int_Tables_number   1
_chemical_formula_structural   TbDy3Ga3Ru5
_chemical_formula_sum   'Tb1 Dy3 Ga3 Ru5'
_cell_volume   218.43213917
_cell_formula_units_Z   1
loop_
 _symmetry_equiv_pos_site_id
 _symmetry_equiv_pos_as_xyz
  1  'x, y, z'
loop_
 _atom_site_type_symbol
 _atom_site_label
 _atom_site_symmetry_multiplicity
 _atom_site_fract_x
 _atom_site_fract_y
 _atom_site_fract_z
 _atom_site_occupancy
  Tb  Tb0  1  0.875139  0.752463  0.370214  1
  Dy  Dy1  1  0.382568  0.756687  0.869193  1
  Dy  Dy2  1  0.992668  0.993494  0.005682  1
  Dy  Dy3  1  0.499735  0.997400  0.504936  1
  Ga  Ga4  1  0.687425  0.374967  0.937493  1
  Ga  Ga5  1  0.945546  0.375530  0.194486  1
  Ga  Ga6  1  0.429743  0.374559  0.680624  1
  Ru  Ru7  1  0.443010  0.376577  0.181991  1
  Ru  Ru8  1  0.931970  0.373346  0.692829  1
  Ru  Ru9  1  0.443010  0.884442  0.181991  1
  Ru  Ru10  1  0.931970  0.865793  0.692829  1
  Ru  Ru11  1  0.187216  0.374742  0.437730  1
