# generated using pymatgen
data_Li5Pr4Co12(P4Rh)3
_symmetry_space_group_name_H-M   'P 1'
_cell_length_a   3.76664200
_cell_length_b   10.53028732
_cell_length_c   12.43355920
_cell_angle_alpha   89.61469593
_cell_angle_beta   90.00000000
_cell_angle_gamma   90.00000000
_symmetry_Int_Tables_number   1
_chemical_formula_structural   Li5Pr4Co12(P4Rh)3
_chemical_formula_sum   'Li5 Pr4 Co12 P12 Rh3'
_cell_volume   493.15133387
_cell_formula_units_Z   1
loop_
 _symmetry_equiv_pos_site_id
 _symmetry_equiv_pos_as_xyz
  1  'x, y, z'
loop_
 _atom_site_type_symbol
 _atom_site_label
 _atom_site_symmetry_multiplicity
 _atom_site_fract_x
 _atom_site_fract_y
 _atom_site_fract_z
 _atom_site_occupancy
  Li  Li0  1  0.250000  0.701861  0.993622  1
  Li  Li1  1  0.250000  0.797006  0.494539  1
  Li  Li2  1  0.750000  0.298297  0.007724  1
  Li  Li3  1  0.750000  0.200381  0.509465  1
  Li  Li4  1  0.250000  0.405243  0.496314  1
  Pr  Pr5  1  0.250000  0.583202  0.708190  1
  Pr  Pr6  1  0.250000  0.918855  0.206880  1
  Pr  Pr7  1  0.750000  0.417911  0.294181  1
  Pr  Pr8  1  0.750000  0.080915  0.791875  1
  Co  Co9  1  0.250000  0.220618  0.172660  1
  Co  Co10  1  0.250000  0.283457  0.678612  1
  Co  Co11  1  0.750000  0.778004  0.822157  1
  Co  Co12  1  0.750000  0.722103  0.321333  1
  Co  Co13  1  0.250000  0.883127  0.694638  1
  Co  Co14  1  0.250000  0.618353  0.194561  1
  Co  Co15  1  0.750000  0.117190  0.301779  1
  Co  Co16  1  0.750000  0.381268  0.808808  1
  Co  Co17  1  0.250000  0.468447  0.936205  1
  Co  Co18  1  0.250000  0.032543  0.434408  1
  Co  Co19  1  0.750000  0.531136  0.066358  1
  Co  Co20  1  0.750000  0.969384  0.564389  1
  P  P21  1  0.250000  0.423626  0.111806  1
  P  P22  1  0.250000  0.079457  0.610177  1
  P  P23  1  0.750000  0.576748  0.889959  1
  P  P24  1  0.750000  0.923610  0.389151  1
  P  P25  1  0.250000  0.280074  0.860877  1
  P  P26  1  0.250000  0.215077  0.349299  1
  P  P27  1  0.750000  0.719436  0.140255  1
  P  P28  1  0.750000  0.782993  0.642889  1
  P  P29  1  0.250000  0.616925  0.377786  1
  P  P30  1  0.250000  0.887628  0.881069  1
  P  P31  1  0.750000  0.388665  0.626155  1
  P  P32  1  0.750000  0.109920  0.114297  1
  Rh  Rh33  1  0.250000  0.099101  0.985384  1
  Rh  Rh34  1  0.750000  0.588332  0.509830  1
  Rh  Rh35  1  0.750000  0.899105  0.012368  1
