# generated using pymatgen
data_Ho3Pa(Rh2Pb)2
_symmetry_space_group_name_H-M   'P 1'
_cell_length_a   7.81224107
_cell_length_b   7.81224180
_cell_length_c   3.59050100
_cell_angle_alpha   90.00000000
_cell_angle_beta   90.00000000
_cell_angle_gamma   92.75078051
_symmetry_Int_Tables_number   1
_chemical_formula_structural   Ho3Pa(Rh2Pb)2
_chemical_formula_sum   'Ho3 Pa1 Rh4 Pb2'
_cell_volume   218.87978487
_cell_formula_units_Z   1
loop_
 _symmetry_equiv_pos_site_id
 _symmetry_equiv_pos_as_xyz
  1  'x, y, z'
loop_
 _atom_site_type_symbol
 _atom_site_label
 _atom_site_symmetry_multiplicity
 _atom_site_fract_x
 _atom_site_fract_y
 _atom_site_fract_z
 _atom_site_occupancy
  Ho  Ho0  1  0.170434  0.335110  0.500000  1
  Ho  Ho1  1  0.835110  0.670434  0.500000  1
  Ho  Ho2  1  0.326529  0.826529  0.500000  1
  Pa  Pa3  1  0.665720  0.165720  0.500000  1
  Rh  Rh4  1  0.390564  0.138515  0.000000  1
  Rh  Rh5  1  0.116340  0.616340  0.000000  1
  Rh  Rh6  1  0.638515  0.890564  0.000000  1
  Rh  Rh7  1  0.849593  0.349593  0.000000  1
  Pb  Pb8  1  0.009226  0.997970  0.000000  1
  Pb  Pb9  1  0.497970  0.509226  0.000000  1
