# generated using pymatgen
data_Dy11Ho7(TmSn8)2
_symmetry_space_group_name_H-M   'P 1'
_cell_length_a   8.01912016
_cell_length_b   8.15460568
_cell_length_c   15.42693971
_cell_angle_alpha   89.99786817
_cell_angle_beta   89.96336586
_cell_angle_gamma   90.00873409
_symmetry_Int_Tables_number   1
_chemical_formula_structural   Dy11Ho7(TmSn8)2
_chemical_formula_sum   'Dy11 Ho7 Tm2 Sn16'
_cell_volume   1008.80999030
_cell_formula_units_Z   1
loop_
 _symmetry_equiv_pos_site_id
 _symmetry_equiv_pos_as_xyz
  1  'x, y, z'
loop_
 _atom_site_type_symbol
 _atom_site_label
 _atom_site_symmetry_multiplicity
 _atom_site_fract_x
 _atom_site_fract_y
 _atom_site_fract_z
 _atom_site_occupancy
  Dy  Dy0  1  0.132540  0.337447  0.377328  1
  Dy  Dy1  1  0.367517  0.837216  0.622161  1
  Dy  Dy2  1  0.867083  0.662766  0.878002  1
  Dy  Dy3  1  0.520341  0.320550  0.903457  1
  Dy  Dy4  1  0.020662  0.179054  0.596934  1
  Dy  Dy5  1  0.479283  0.679061  0.402670  1
  Dy  Dy6  1  0.979724  0.821104  0.097175  1
  Dy  Dy7  1  0.480225  0.679039  0.096920  1
  Dy  Dy8  1  0.979938  0.821040  0.402761  1
  Dy  Dy9  1  0.519698  0.320901  0.596792  1
  Dy  Dy10  1  0.019917  0.179159  0.903146  1
  Ho  Ho11  1  0.366316  0.837544  0.877520  1
  Ho  Ho12  1  0.866234  0.662501  0.622450  1
  Ho  Ho13  1  0.633394  0.162176  0.377101  1
  Ho  Ho14  1  0.133435  0.337790  0.122726  1
  Ho  Ho15  1  0.633005  0.162509  0.122919  1
  Ho  Ho16  1  0.198178  0.503215  0.750295  1
  Ho  Ho17  1  0.698350  0.996846  0.749923  1
  Tm  Tm18  1  0.801714  0.496693  0.250145  1
  Tm  Tm19  1  0.301783  0.003274  0.249680  1
  Sn  Sn20  1  0.293824  0.037823  0.041874  1
  Sn  Sn21  1  0.792471  0.462718  0.458237  1
  Sn  Sn22  1  0.707366  0.962936  0.541348  1
  Sn  Sn23  1  0.207115  0.537453  0.958757  1
  Sn  Sn24  1  0.705254  0.962960  0.958565  1
  Sn  Sn25  1  0.205147  0.537168  0.541897  1
  Sn  Sn26  1  0.294244  0.037214  0.457586  1
  Sn  Sn27  1  0.794136  0.462189  0.042425  1
  Sn  Sn28  1  0.564310  0.618098  0.750168  1
  Sn  Sn29  1  0.064375  0.881540  0.749869  1
  Sn  Sn30  1  0.436543  0.381437  0.249954  1
  Sn  Sn31  1  0.936215  0.118360  0.249684  1
  Sn  Sn32  1  0.330065  0.148472  0.750156  1
  Sn  Sn33  1  0.830102  0.351743  0.749840  1
  Sn  Sn34  1  0.669649  0.850888  0.249773  1
  Sn  Sn35  1  0.169845  0.649116  0.249761  1
