# generated using pymatgen
data_SrLa(Al5Os)4
_symmetry_space_group_name_H-M   'P 1'
_cell_length_a   6.93038042
_cell_length_b   6.93038073
_cell_length_c   9.25461200
_cell_angle_alpha   90.00000000
_cell_angle_beta   90.00000000
_cell_angle_gamma   96.39287989
_symmetry_Int_Tables_number   1
_chemical_formula_structural   SrLa(Al5Os)4
_chemical_formula_sum   'Sr1 La1 Al20 Os4'
_cell_volume   441.73662279
_cell_formula_units_Z   1
loop_
 _symmetry_equiv_pos_site_id
 _symmetry_equiv_pos_as_xyz
  1  'x, y, z'
loop_
 _atom_site_type_symbol
 _atom_site_label
 _atom_site_symmetry_multiplicity
 _atom_site_fract_x
 _atom_site_fract_y
 _atom_site_fract_z
 _atom_site_occupancy
  Sr  Sr0  1  0.622454  0.377546  0.750000  1
  La  La1  1  0.375502  0.624498  0.250000  1
  Al  Al2  1  0.281775  0.019478  0.750000  1
  Al  Al3  1  0.017397  0.280964  0.250000  1
  Al  Al4  1  0.719036  0.982603  0.250000  1
  Al  Al5  1  0.980522  0.718225  0.750000  1
  Al  Al6  1  0.877661  0.122339  0.956440  1
  Al  Al7  1  0.122319  0.877681  0.050991  1
  Al  Al8  1  0.877661  0.122339  0.543560  1
  Al  Al9  1  0.122319  0.877681  0.449009  1
  Al  Al10  1  0.642024  0.911629  0.750000  1
  Al  Al11  1  0.913177  0.643115  0.250000  1
  Al  Al12  1  0.356885  0.086823  0.250000  1
  Al  Al13  1  0.088371  0.357976  0.750000  1
  Al  Al14  1  0.336474  0.663526  0.897519  1
  Al  Al15  1  0.660233  0.339767  0.102391  1
  Al  Al16  1  0.336474  0.663526  0.602481  1
  Al  Al17  1  0.660233  0.339767  0.397609  1
  Al  Al18  1  0.727130  0.725063  0.999892  1
  Al  Al19  1  0.727130  0.725063  0.500108  1
  Al  Al20  1  0.274937  0.272870  0.999892  1
  Al  Al21  1  0.274937  0.272870  0.500108  1
  Os  Os22  1  0.500757  0.998082  0.000087  1
  Os  Os23  1  0.001918  0.499243  0.000087  1
  Os  Os24  1  0.500757  0.998082  0.499913  1
  Os  Os25  1  0.001918  0.499243  0.499913  1
