# generated using pymatgen
data_YHo4(In2Ir)2
_symmetry_space_group_name_H-M   'P 1'
_cell_length_a   3.65051600
_cell_length_b   8.00002900
_cell_length_c   18.24285800
_cell_angle_alpha   90.00000000
_cell_angle_beta   90.00000000
_cell_angle_gamma   90.00000000
_symmetry_Int_Tables_number   1
_chemical_formula_structural   YHo4(In2Ir)2
_chemical_formula_sum   'Y2 Ho8 In8 Ir4'
_cell_volume   532.76869140
_cell_formula_units_Z   2
loop_
 _symmetry_equiv_pos_site_id
 _symmetry_equiv_pos_as_xyz
  1  'x, y, z'
loop_
 _atom_site_type_symbol
 _atom_site_label
 _atom_site_symmetry_multiplicity
 _atom_site_fract_x
 _atom_site_fract_y
 _atom_site_fract_z
 _atom_site_occupancy
  Y  Y0  1  0.000000  0.000000  0.000000  1
  Y  Y1  1  0.000000  0.500000  0.500000  1
  Ho  Ho2  1  0.000000  0.115683  0.410866  1
  Ho  Ho3  1  0.000000  0.884317  0.589134  1
  Ho  Ho4  1  0.000000  0.384317  0.910866  1
  Ho  Ho5  1  0.000000  0.615683  0.089134  1
  Ho  Ho6  1  0.000000  0.244464  0.221304  1
  Ho  Ho7  1  0.000000  0.755536  0.778696  1
  Ho  Ho8  1  0.000000  0.255536  0.721304  1
  Ho  Ho9  1  0.000000  0.744464  0.278696  1
  In  In10  1  0.500000  0.425853  0.350025  1
  In  In11  1  0.500000  0.574147  0.649975  1
  In  In12  1  0.500000  0.074147  0.850025  1
  In  In13  1  0.500000  0.925853  0.149975  1
  In  In14  1  0.500000  0.293916  0.067674  1
  In  In15  1  0.500000  0.706084  0.932326  1
  In  In16  1  0.500000  0.206084  0.567674  1
  In  In17  1  0.500000  0.793916  0.432326  1
  Ir  Ir18  1  0.500000  0.021608  0.304302  1
  Ir  Ir19  1  0.500000  0.978392  0.695698  1
  Ir  Ir20  1  0.500000  0.478392  0.804302  1
  Ir  Ir21  1  0.500000  0.521608  0.195698  1
