# generated using pymatgen
data_Pr3Nd2YCoBr10
_symmetry_space_group_name_H-M   'P 1'
_cell_length_a   7.58201131
_cell_length_b   9.45328965
_cell_length_c   9.67530338
_cell_angle_alpha   108.13758736
_cell_angle_beta   96.36344903
_cell_angle_gamma   104.84745744
_symmetry_Int_Tables_number   1
_chemical_formula_structural   Pr3Nd2YCoBr10
_chemical_formula_sum   'Pr3 Nd2 Y1 Co1 Br10'
_cell_volume   623.15108851
_cell_formula_units_Z   1
loop_
 _symmetry_equiv_pos_site_id
 _symmetry_equiv_pos_as_xyz
  1  'x, y, z'
loop_
 _atom_site_type_symbol
 _atom_site_label
 _atom_site_symmetry_multiplicity
 _atom_site_fract_x
 _atom_site_fract_y
 _atom_site_fract_z
 _atom_site_occupancy
  Pr  Pr0  1  0.463746  0.784474  0.586698  1
  Pr  Pr1  1  0.531934  0.213624  0.409445  1
  Pr  Pr2  1  0.367916  0.448384  0.744412  1
  Nd  Nd3  1  0.625717  0.547864  0.255423  1
  Nd  Nd4  1  0.857884  0.632602  0.678134  1
  Y  Y5  1  0.148814  0.372068  0.327654  1
  Co  Co6  1  0.499434  0.499416  0.500228  1
  Br  Br7  1  0.413272  0.129297  0.668019  1
  Br  Br8  1  0.585855  0.866576  0.327666  1
  Br  Br9  1  0.046198  0.670368  0.415421  1
  Br  Br10  1  0.954250  0.322034  0.574327  1
  Br  Br11  1  0.281283  0.752391  0.843703  1
  Br  Br12  1  0.736876  0.254757  0.164389  1
  Br  Br13  1  0.248210  0.415764  0.058193  1
  Br  Br14  1  0.745128  0.579993  0.949293  1
  Br  Br15  1  0.846386  0.949203  0.764847  1
  Br  Br16  1  0.147096  0.061184  0.232149  1
