# generated using pymatgen
data_CeEr7(ReB6)4
_symmetry_space_group_name_H-M   'P 1'
_cell_length_a   3.67478300
_cell_length_b   9.14352984
_cell_length_c   11.51966406
_cell_angle_alpha   90.04918395
_cell_angle_beta   90.00000000
_cell_angle_gamma   90.00000000
_symmetry_Int_Tables_number   1
_chemical_formula_structural   CeEr7(ReB6)4
_chemical_formula_sum   'Ce1 Er7 Re4 B24'
_cell_volume   387.06619171
_cell_formula_units_Z   1
loop_
 _symmetry_equiv_pos_site_id
 _symmetry_equiv_pos_as_xyz
  1  'x, y, z'
loop_
 _atom_site_type_symbol
 _atom_site_label
 _atom_site_symmetry_multiplicity
 _atom_site_fract_x
 _atom_site_fract_y
 _atom_site_fract_z
 _atom_site_occupancy
  Ce  Ce0  1  0.000000  0.322892  0.413878  1
  Er  Er1  1  0.000000  0.677520  0.586893  1
  Er  Er2  1  0.000000  0.823199  0.085568  1
  Er  Er3  1  0.000000  0.176057  0.913819  1
  Er  Er4  1  0.000000  0.942745  0.370093  1
  Er  Er5  1  0.000000  0.055925  0.630448  1
  Er  Er6  1  0.000000  0.443637  0.128693  1
  Er  Er7  1  0.000000  0.556783  0.870558  1
  Re  Re8  1  0.000000  0.638890  0.320820  1
  Re  Re9  1  0.000000  0.361370  0.679020  1
  Re  Re10  1  0.000000  0.139419  0.179443  1
  Re  Re11  1  0.000000  0.861124  0.820978  1
  B  B12  1  0.500000  0.554334  0.432712  1
  B  B13  1  0.500000  0.446498  0.567834  1
  B  B14  1  0.500000  0.053293  0.066621  1
  B  B15  1  0.500000  0.946890  0.933225  1
  B  B16  1  0.500000  0.750142  0.418920  1
  B  B17  1  0.500000  0.250436  0.582539  1
  B  B18  1  0.500000  0.249297  0.080438  1
  B  B19  1  0.500000  0.750378  0.918862  1
  B  B20  1  0.500000  0.792734  0.265402  1
  B  B21  1  0.500000  0.207472  0.735204  1
  B  B22  1  0.500000  0.291888  0.233608  1
  B  B23  1  0.500000  0.707331  0.765263  1
  B  B24  1  0.500000  0.631547  0.184738  1
  B  B25  1  0.500000  0.369356  0.814938  1
  B  B26  1  0.500000  0.130426  0.313890  1
  B  B27  1  0.500000  0.868826  0.685479  1
  B  B28  1  0.500000  0.982042  0.211586  1
  B  B29  1  0.500000  0.017548  0.788184  1
  B  B30  1  0.500000  0.483896  0.287310  1
  B  B31  1  0.500000  0.518136  0.712778  1
  B  B32  1  0.500000  0.600777  0.027849  1
  B  B33  1  0.500000  0.399465  0.971583  1
  B  B34  1  0.500000  0.099195  0.472347  1
  B  B35  1  0.500000  0.898531  0.528478  1
