# generated using pymatgen
data_CePr7(ZnIr)8
_symmetry_space_group_name_H-M   'P 1'
_cell_length_a   4.06807500
_cell_length_b   7.33185314
_cell_length_c   16.58657534
_cell_angle_alpha   89.64133322
_cell_angle_beta   90.00000000
_cell_angle_gamma   90.00000000
_symmetry_Int_Tables_number   1
_chemical_formula_structural   CePr7(ZnIr)8
_chemical_formula_sum   'Ce1 Pr7 Zn8 Ir8'
_cell_volume   494.71026818
_cell_formula_units_Z   1
loop_
 _symmetry_equiv_pos_site_id
 _symmetry_equiv_pos_as_xyz
  1  'x, y, z'
loop_
 _atom_site_type_symbol
 _atom_site_label
 _atom_site_symmetry_multiplicity
 _atom_site_fract_x
 _atom_site_fract_y
 _atom_site_fract_z
 _atom_site_occupancy
  Ce  Ce0  1  0.750000  0.449308  0.216439  1
  Pr  Pr1  1  0.750000  0.952320  0.281355  1
  Pr  Pr2  1  0.750000  0.829187  0.061332  1
  Pr  Pr3  1  0.250000  0.046964  0.717071  1
  Pr  Pr4  1  0.250000  0.166593  0.940690  1
  Pr  Pr5  1  0.250000  0.546436  0.783172  1
  Pr  Pr6  1  0.750000  0.335321  0.438685  1
  Pr  Pr7  1  0.250000  0.668612  0.560048  1
  Zn  Zn8  1  0.250000  0.002545  0.438449  1
  Zn  Zn9  1  0.750000  0.501066  0.940019  1
  Zn  Zn10  1  0.750000  0.003351  0.560762  1
  Zn  Zn11  1  0.250000  0.626505  0.350555  1
  Zn  Zn12  1  0.750000  0.375233  0.649786  1
  Zn  Zn13  1  0.750000  0.876455  0.850635  1
  Zn  Zn14  1  0.250000  0.496709  0.060364  1
  Zn  Zn15  1  0.250000  0.125035  0.150820  1
  Ir  Ir16  1  0.250000  0.243691  0.564037  1
  Ir  Ir17  1  0.750000  0.260619  0.069195  1
  Ir  Ir18  1  0.250000  0.257403  0.305230  1
  Ir  Ir19  1  0.750000  0.253418  0.814461  1
  Ir  Ir20  1  0.250000  0.743330  0.935841  1
  Ir  Ir21  1  0.750000  0.754310  0.686928  1
  Ir  Ir22  1  0.750000  0.764004  0.434654  1
  Ir  Ir23  1  0.250000  0.721586  0.189472  1
