# generated using pymatgen
data_Ce2Si2Ir3Rh
_symmetry_space_group_name_H-M   'P 1'
_cell_length_a   9.25489457
_cell_length_b   9.25489362
_cell_length_c   4.07133200
_cell_angle_alpha   90.00000000
_cell_angle_beta   90.00000000
_cell_angle_gamma   154.81861162
_symmetry_Int_Tables_number   1
_chemical_formula_structural   Ce2Si2Ir3Rh
_chemical_formula_sum   'Ce2 Si2 Ir3 Rh1'
_cell_volume   148.37612925
_cell_formula_units_Z   1
loop_
 _symmetry_equiv_pos_site_id
 _symmetry_equiv_pos_as_xyz
  1  'x, y, z'
loop_
 _atom_site_type_symbol
 _atom_site_label
 _atom_site_symmetry_multiplicity
 _atom_site_fract_x
 _atom_site_fract_y
 _atom_site_fract_z
 _atom_site_occupancy
  Ce  Ce0  1  0.100995  0.899005  0.750000  1
  Ce  Ce1  1  0.899326  0.100674  0.250000  1
  Si  Si2  1  0.321510  0.678490  0.750000  1
  Si  Si3  1  0.678264  0.321736  0.250000  1
  Ir  Ir4  1  0.546273  0.453727  0.250000  1
  Ir  Ir5  1  0.453599  0.546401  0.750000  1
  Ir  Ir6  1  0.249669  0.750331  0.250000  1
  Rh  Rh7  1  0.750365  0.249635  0.750000  1
