# generated using pymatgen
data_Th7(PSe3)2
_symmetry_space_group_name_H-M   'P 1'
_cell_length_a   8.21822492
_cell_length_b   7.11992272
_cell_length_c   8.23637400
_cell_angle_alpha   89.97499720
_cell_angle_beta   59.97771788
_cell_angle_gamma   73.05161390
_symmetry_Int_Tables_number   1
_chemical_formula_structural   Th7(PSe3)2
_chemical_formula_sum   'Th7 P2 Se6'
_cell_volume   392.95137740
_cell_formula_units_Z   1
loop_
 _symmetry_equiv_pos_site_id
 _symmetry_equiv_pos_as_xyz
  1  'x, y, z'
loop_
 _atom_site_type_symbol
 _atom_site_label
 _atom_site_symmetry_multiplicity
 _atom_site_fract_x
 _atom_site_fract_y
 _atom_site_fract_z
 _atom_site_occupancy
  Th  Th0  1  0.160149  0.688039  0.980124  1
  Th  Th1  1  0.659612  0.188689  0.750139  1
  Th  Th2  1  0.142121  0.189601  0.739377  1
  Th  Th3  1  0.659963  0.688476  0.980491  1
  Th  Th4  1  0.159889  0.688204  0.480292  1
  Th  Th5  1  0.660463  0.187733  0.210365  1
  Th  Th6  1  0.177202  0.187954  0.221918  1
  P  P7  1  0.404706  0.450403  0.108130  1
  P  P8  1  0.915521  0.926366  0.852296  1
  Se  Se9  1  0.424426  0.924896  0.367482  1
  Se  Se10  1  0.894592  0.452550  0.593707  1
  Se  Se11  1  0.894734  0.452341  0.132511  1
  Se  Se12  1  0.422244  0.433949  0.598901  1
  Se  Se13  1  0.898095  0.942525  0.361265  1
  Se  Se14  1  0.424216  0.925213  0.829422  1
