# generated using pymatgen
data_Lu4ReB8Ru9
_symmetry_space_group_name_H-M   'P 1'
_cell_length_a   3.07068900
_cell_length_b   8.66698531
_cell_length_c   10.15702919
_cell_angle_alpha   90.12649092
_cell_angle_beta   90.00000000
_cell_angle_gamma   90.00000000
_symmetry_Int_Tables_number   1
_chemical_formula_structural   Lu4ReB8Ru9
_chemical_formula_sum   'Lu4 Re1 B8 Ru9'
_cell_volume   270.31462060
_cell_formula_units_Z   1
loop_
 _symmetry_equiv_pos_site_id
 _symmetry_equiv_pos_as_xyz
  1  'x, y, z'
loop_
 _atom_site_type_symbol
 _atom_site_label
 _atom_site_symmetry_multiplicity
 _atom_site_fract_x
 _atom_site_fract_y
 _atom_site_fract_z
 _atom_site_occupancy
  Lu  Lu0  1  0.500000  0.839686  0.180709  1
  Lu  Lu1  1  0.500000  0.159700  0.820017  1
  Lu  Lu2  1  0.500000  0.660270  0.682294  1
  Lu  Lu3  1  0.500000  0.340009  0.317036  1
  Re  Re4  1  0.000000  0.657498  0.954579  1
  B  B5  1  0.500000  0.967275  0.589143  1
  B  B6  1  0.500000  0.032729  0.411039  1
  B  B7  1  0.500000  0.848842  0.901648  1
  B  B8  1  0.500000  0.149264  0.098829  1
  B  B9  1  0.500000  0.645088  0.399067  1
  B  B10  1  0.500000  0.352425  0.601472  1
  B  B11  1  0.500000  0.472095  0.909744  1
  B  B12  1  0.500000  0.539583  0.086442  1
  Ru  Ru13  1  0.000000  0.338604  0.047154  1
  Ru  Ru14  1  0.000000  0.841548  0.454022  1
  Ru  Ru15  1  0.000000  0.158044  0.545933  1
  Ru  Ru16  1  0.000000  0.999589  0.000661  1
  Ru  Ru17  1  0.000000  0.405876  0.760329  1
  Ru  Ru18  1  0.000000  0.593101  0.240056  1
  Ru  Ru19  1  0.000000  0.498893  0.500362  1
  Ru  Ru20  1  0.000000  0.907684  0.738497  1
  Ru  Ru21  1  0.000000  0.092197  0.260969  1
