# generated using pymatgen
data_Sm10Rh2I15
_symmetry_space_group_name_H-M   'P 1'
_cell_length_a   9.96480390
_cell_length_b   10.79155605
_cell_length_c   11.76224711
_cell_angle_alpha   92.74836208
_cell_angle_beta   113.99835733
_cell_angle_gamma   110.22804139
_symmetry_Int_Tables_number   1
_chemical_formula_structural   Sm10Rh2I15
_chemical_formula_sum   'Sm10 Rh2 I15'
_cell_volume   1057.69505554
_cell_formula_units_Z   1
loop_
 _symmetry_equiv_pos_site_id
 _symmetry_equiv_pos_as_xyz
  1  'x, y, z'
loop_
 _atom_site_type_symbol
 _atom_site_label
 _atom_site_symmetry_multiplicity
 _atom_site_fract_x
 _atom_site_fract_y
 _atom_site_fract_z
 _atom_site_occupancy
  Sm  Sm0  1  0.792063  0.398469  0.270819  1
  Sm  Sm1  1  0.207937  0.601531  0.729181  1
  Sm  Sm2  1  0.667248  0.750462  0.823325  1
  Sm  Sm3  1  0.332752  0.249538  0.176675  1
  Sm  Sm4  1  0.526009  0.707381  0.095593  1
  Sm  Sm5  1  0.473991  0.292619  0.904407  1
  Sm  Sm6  1  0.586494  0.043453  0.327795  1
  Sm  Sm7  1  0.413506  0.956547  0.672205  1
  Sm  Sm8  1  0.723564  0.076123  0.049041  1
  Sm  Sm9  1  0.276436  0.923877  0.950959  1
  Rh  Rh10  1  0.468996  0.829632  0.882357  1
  Rh  Rh11  1  0.531004  0.170368  0.117643  1
  I  I12  1  0.000000  0.000000  0.000000  1
  I  I13  1  0.640804  0.884679  0.582631  1
  I  I14  1  0.359196  0.115321  0.417369  1
  I  I15  1  0.887988  0.302805  0.530587  1
  I  I16  1  0.112012  0.697195  0.469413  1
  I  I17  1  0.286889  0.759082  0.182085  1
  I  I18  1  0.713111  0.240918  0.817915  1
  I  I19  1  0.061325  0.342373  0.226665  1
  I  I20  1  0.159719  0.057467  0.698452  1
  I  I21  1  0.840281  0.942533  0.301548  1
  I  I22  1  0.233909  0.411649  0.943905  1
  I  I23  1  0.766091  0.588351  0.056095  1
  I  I24  1  0.409321  0.459690  0.664402  1
  I  I25  1  0.590679  0.540310  0.335598  1
  I  I26  1  0.938675  0.657627  0.773335  1
