# generated using pymatgen
data_CaAlSi2Pd
_symmetry_space_group_name_H-M   'P 1'
_cell_length_a   6.03818493
_cell_length_b   6.03818487
_cell_length_c   6.03818456
_cell_angle_alpha   140.34882893
_cell_angle_beta   140.34882841
_cell_angle_gamma   57.32403598
_symmetry_Int_Tables_number   1
_chemical_formula_structural   CaAlSi2Pd
_chemical_formula_sum   'Ca1 Al1 Si2 Pd1'
_cell_volume   88.88180988
_cell_formula_units_Z   1
loop_
 _symmetry_equiv_pos_site_id
 _symmetry_equiv_pos_as_xyz
  1  'x, y, z'
loop_
 _atom_site_type_symbol
 _atom_site_label
 _atom_site_symmetry_multiplicity
 _atom_site_fract_x
 _atom_site_fract_y
 _atom_site_fract_z
 _atom_site_occupancy
  Ca  Ca0  1  0.000000  0.000000  0.000000  1
  Al  Al1  1  0.250000  0.750000  0.500000  1
  Si  Si2  1  0.388671  0.388671  0.000000  1
  Si  Si3  1  0.611329  0.611329  0.000000  1
  Pd  Pd4  1  0.750000  0.250000  0.500000  1
