# generated using pymatgen
data_La16Dy4Si15P
_symmetry_space_group_name_H-M   'P 1'
_cell_length_a   7.83709295
_cell_length_b   7.83273677
_cell_length_c   15.35737000
_cell_angle_alpha   89.93766231
_cell_angle_beta   89.72244996
_cell_angle_gamma   89.98915005
_symmetry_Int_Tables_number   1
_chemical_formula_structural   La16Dy4Si15P
_chemical_formula_sum   'La16 Dy4 Si15 P1'
_cell_volume   942.71413113
_cell_formula_units_Z   1
loop_
 _symmetry_equiv_pos_site_id
 _symmetry_equiv_pos_as_xyz
  1  'x, y, z'
loop_
 _atom_site_type_symbol
 _atom_site_label
 _atom_site_symmetry_multiplicity
 _atom_site_fract_x
 _atom_site_fract_y
 _atom_site_fract_z
 _atom_site_occupancy
  La  La0  1  0.378819  0.013190  0.445056  1
  La  La1  1  0.481792  0.879442  0.697670  1
  La  La2  1  0.516654  0.120933  0.196284  1
  La  La3  1  0.877725  0.481744  0.302746  1
  La  La4  1  0.124060  0.513321  0.802349  1
  La  La5  1  0.624459  0.984582  0.945928  1
  La  La6  1  0.013494  0.376263  0.554051  1
  La  La7  1  0.985056  0.622562  0.052977  1
  La  La8  1  0.129947  0.977427  0.875517  1
  La  La9  1  0.526248  0.625098  0.128222  1
  La  La10  1  0.467693  0.369881  0.630209  1
  La  La11  1  0.626067  0.526874  0.871027  1
  La  La12  1  0.372850  0.470794  0.372480  1
  La  La13  1  0.874602  0.027433  0.378734  1
  La  La14  1  0.972900  0.126248  0.121896  1
  La  La15  1  0.030446  0.880451  0.622319  1
  Dy  Dy16  1  0.310373  0.309430  0.999406  1
  Dy  Dy17  1  0.190737  0.807846  0.249698  1
  Dy  Dy18  1  0.807397  0.191943  0.750595  1
  Dy  Dy19  1  0.690245  0.690713  0.500284  1
  Si  Si20  1  0.327265  0.688660  0.959088  1
  Si  Si21  1  0.672171  0.313313  0.462113  1
  Si  Si22  1  0.688986  0.328554  0.039733  1
  Si  Si23  1  0.312329  0.672025  0.540780  1
  Si  Si24  1  0.814196  0.825173  0.210760  1
  Si  Si25  1  0.174500  0.184408  0.288954  1
  Si  Si26  1  0.829090  0.813418  0.789152  1
  Si  Si27  1  0.286699  0.921606  0.063309  1
  Si  Si28  1  0.579955  0.784623  0.314299  1
  Si  Si29  1  0.428941  0.213153  0.817390  1
  Si  Si30  1  0.787132  0.580847  0.684562  1
  Si  Si31  1  0.212512  0.421502  0.185575  1
  Si  Si32  1  0.709099  0.076778  0.565133  1
  Si  Si33  1  0.923939  0.287917  0.935749  1
  Si  Si34  1  0.077776  0.711857  0.436506  1
  P  P35  1  0.173847  0.179989  0.709450  1
