# generated using pymatgen
data_Th3Zn3C
_symmetry_space_group_name_H-M   'P 1'
_cell_length_a   9.47327045
_cell_length_b   9.47327050
_cell_length_c   9.47327000
_cell_angle_alpha   60.00000175
_cell_angle_beta   60.00000158
_cell_angle_gamma   59.99999921
_symmetry_Int_Tables_number   1
_chemical_formula_structural   Th3Zn3C
_chemical_formula_sum   'Th12 Zn12 C4'
_cell_volume   601.15269791
_cell_formula_units_Z   4
loop_
 _symmetry_equiv_pos_site_id
 _symmetry_equiv_pos_as_xyz
  1  'x, y, z'
loop_
 _atom_site_type_symbol
 _atom_site_label
 _atom_site_symmetry_multiplicity
 _atom_site_fract_x
 _atom_site_fract_y
 _atom_site_fract_z
 _atom_site_occupancy
  Th  Th0  1  0.444734  0.444734  0.055266  1
  Th  Th1  1  0.055266  0.444734  0.055266  1
  Th  Th2  1  0.444734  0.055266  0.055266  1
  Th  Th3  1  0.055266  0.055266  0.444734  1
  Th  Th4  1  0.444734  0.055266  0.444734  1
  Th  Th5  1  0.055266  0.444734  0.444734  1
  Th  Th6  1  0.805266  0.805266  0.194734  1
  Th  Th7  1  0.194734  0.805266  0.194734  1
  Th  Th8  1  0.805266  0.194734  0.194734  1
  Th  Th9  1  0.194734  0.194734  0.805266  1
  Th  Th10  1  0.805266  0.194734  0.805266  1
  Th  Th11  1  0.194734  0.805266  0.805266  1
  Zn  Zn12  1  0.826028  0.826028  0.521916  1
  Zn  Zn13  1  0.826028  0.521916  0.826028  1
  Zn  Zn14  1  0.521916  0.826028  0.826028  1
  Zn  Zn15  1  0.826028  0.826028  0.826028  1
  Zn  Zn16  1  0.423972  0.423972  0.728084  1
  Zn  Zn17  1  0.423972  0.728084  0.423972  1
  Zn  Zn18  1  0.728084  0.423972  0.423972  1
  Zn  Zn19  1  0.423972  0.423972  0.423972  1
  Zn  Zn20  1  0.625000  0.625000  0.125000  1
  Zn  Zn21  1  0.625000  0.125000  0.625000  1
  Zn  Zn22  1  0.125000  0.625000  0.625000  1
  Zn  Zn23  1  0.625000  0.625000  0.625000  1
  C  C24  1  0.125000  0.125000  0.625000  1
  C  C25  1  0.125000  0.625000  0.125000  1
  C  C26  1  0.625000  0.125000  0.125000  1
  C  C27  1  0.125000  0.125000  0.125000  1
