# generated using pymatgen
data_TmPa(Al5Os)4
_symmetry_space_group_name_H-M   'P 1'
_cell_length_a   6.84214535
_cell_length_b   6.84214508
_cell_length_c   9.15368000
_cell_angle_alpha   90.00000000
_cell_angle_beta   90.00000000
_cell_angle_gamma   97.03018619
_symmetry_Int_Tables_number   1
_chemical_formula_structural   TmPa(Al5Os)4
_chemical_formula_sum   'Tm1 Pa1 Al20 Os4'
_cell_volume   425.30731749
_cell_formula_units_Z   1
loop_
 _symmetry_equiv_pos_site_id
 _symmetry_equiv_pos_as_xyz
  1  'x, y, z'
loop_
 _atom_site_type_symbol
 _atom_site_label
 _atom_site_symmetry_multiplicity
 _atom_site_fract_x
 _atom_site_fract_y
 _atom_site_fract_z
 _atom_site_occupancy
  Tm  Tm0  1  0.132606  0.867394  0.250000  1
  Pa  Pa1  1  0.872696  0.127304  0.750000  1
  Al  Al2  1  0.516703  0.781253  0.750000  1
  Al  Al3  1  0.782383  0.518400  0.250000  1
  Al  Al4  1  0.481600  0.217617  0.250000  1
  Al  Al5  1  0.218747  0.483297  0.750000  1
  Al  Al6  1  0.622702  0.377298  0.953406  1
  Al  Al7  1  0.374887  0.625113  0.046474  1
  Al  Al8  1  0.622702  0.377298  0.546594  1
  Al  Al9  1  0.374887  0.625113  0.453526  1
  Al  Al10  1  0.409834  0.146212  0.750000  1
  Al  Al11  1  0.149247  0.419273  0.250000  1
  Al  Al12  1  0.580727  0.850753  0.250000  1
  Al  Al13  1  0.853788  0.590166  0.750000  1
  Al  Al14  1  0.844853  0.155147  0.396608  1
  Al  Al15  1  0.153491  0.846509  0.600831  1
  Al  Al16  1  0.844853  0.155147  0.103392  1
  Al  Al17  1  0.153491  0.846509  0.899169  1
  Al  Al18  1  0.779561  0.777073  0.001957  1
  Al  Al19  1  0.779561  0.777073  0.498043  1
  Al  Al20  1  0.222927  0.220439  0.001957  1
  Al  Al21  1  0.222927  0.220439  0.498043  1
  Os  Os22  1  0.503142  0.000729  0.998709  1
  Os  Os23  1  0.999271  0.496858  0.998709  1
  Os  Os24  1  0.503142  0.000729  0.501291  1
  Os  Os25  1  0.999271  0.496858  0.501291  1
