# generated using pymatgen
data_ScTaNb5Cl18
_symmetry_space_group_name_H-M   'P 1'
_cell_length_a   10.09911779
_cell_length_b   10.10438914
_cell_length_c   10.10252600
_cell_angle_alpha   56.02883617
_cell_angle_beta   56.00372265
_cell_angle_gamma   56.02326625
_symmetry_Int_Tables_number   1
_chemical_formula_structural   ScTaNb5Cl18
_chemical_formula_sum   'Sc1 Ta1 Nb5 Cl18'
_cell_volume   661.73566436
_cell_formula_units_Z   1
loop_
 _symmetry_equiv_pos_site_id
 _symmetry_equiv_pos_as_xyz
  1  'x, y, z'
loop_
 _atom_site_type_symbol
 _atom_site_label
 _atom_site_symmetry_multiplicity
 _atom_site_fract_x
 _atom_site_fract_y
 _atom_site_fract_z
 _atom_site_occupancy
  Sc  Sc0  1  0.999202  0.999951  0.000273  1
  Ta  Ta1  1  0.402074  0.302165  0.652430  1
  Nb  Nb2  1  0.347583  0.598051  0.697779  1
  Nb  Nb3  1  0.698217  0.347789  0.597514  1
  Nb  Nb4  1  0.302126  0.652731  0.402022  1
  Nb  Nb5  1  0.652819  0.402537  0.301741  1
  Nb  Nb6  1  0.598238  0.698636  0.346937  1
  Cl  Cl7  1  0.562776  0.157490  0.449903  1
  Cl  Cl8  1  0.216692  0.376557  0.908012  1
  Cl  Cl9  1  0.909749  0.215778  0.378341  1
  Cl  Cl10  1  0.378357  0.909619  0.216085  1
  Cl  Cl11  1  0.784363  0.621782  0.090219  1
  Cl  Cl12  1  0.089961  0.783580  0.622160  1
  Cl  Cl13  1  0.719100  0.953506  0.155409  1
  Cl  Cl14  1  0.952498  0.154513  0.720133  1
  Cl  Cl15  1  0.156346  0.720017  0.952398  1
  Cl  Cl16  1  0.281958  0.050807  0.842220  1
  Cl  Cl17  1  0.048093  0.844056  0.279621  1
  Cl  Cl18  1  0.844433  0.279475  0.048053  1
  Cl  Cl19  1  0.552688  0.434859  0.843016  1
  Cl  Cl20  1  0.158821  0.444291  0.566715  1
  Cl  Cl21  1  0.447193  0.564532  0.157269  1
  Cl  Cl22  1  0.435150  0.842748  0.552939  1
  Cl  Cl23  1  0.842978  0.553092  0.434949  1
  Cl  Cl24  1  0.618587  0.091437  0.783861  1
