# generated using pymatgen
data_Dy4Al5ZnPt8
_symmetry_space_group_name_H-M   'P 1'
_cell_length_a   8.14378027
_cell_length_b   8.14378088
_cell_length_c   7.61869400
_cell_angle_alpha   89.97167725
_cell_angle_beta   89.97167901
_cell_angle_gamma   140.04688516
_symmetry_Int_Tables_number   1
_chemical_formula_structural   Dy4Al5ZnPt8
_chemical_formula_sum   'Dy4 Al5 Zn1 Pt8'
_cell_volume   324.47094866
_cell_formula_units_Z   1
loop_
 _symmetry_equiv_pos_site_id
 _symmetry_equiv_pos_as_xyz
  1  'x, y, z'
loop_
 _atom_site_type_symbol
 _atom_site_label
 _atom_site_symmetry_multiplicity
 _atom_site_fract_x
 _atom_site_fract_y
 _atom_site_fract_z
 _atom_site_occupancy
  Dy  Dy0  1  0.606252  0.390433  0.906533  1
  Dy  Dy1  1  0.394152  0.608544  0.090889  1
  Dy  Dy2  1  0.891456  0.105848  0.409111  1
  Dy  Dy3  1  0.109567  0.893748  0.593467  1
  Al  Al4  1  0.500010  0.499407  0.499919  1
  Al  Al5  1  0.000593  0.999990  0.000081  1
  Al  Al6  1  0.976673  0.523327  0.250000  1
  Al  Al7  1  0.476941  0.023059  0.250000  1
  Al  Al8  1  0.023207  0.476793  0.750000  1
  Zn  Zn9  1  0.521807  0.978193  0.750000  1
  Pt  Pt10  1  0.693794  0.806206  0.750000  1
  Pt  Pt11  1  0.808744  0.691256  0.250000  1
  Pt  Pt12  1  0.309303  0.190697  0.250000  1
  Pt  Pt13  1  0.190060  0.309940  0.750000  1
  Pt  Pt14  1  0.689423  0.326312  0.523670  1
  Pt  Pt15  1  0.312457  0.678127  0.467141  1
  Pt  Pt16  1  0.821873  0.187543  0.032859  1
  Pt  Pt17  1  0.173688  0.810577  0.976330  1
