# generated using pymatgen
data_ScNb3Si2(B2Ru5)2
_symmetry_space_group_name_H-M   'P 1'
_cell_length_a   9.30504290
_cell_length_b   9.30504290
_cell_length_c   2.96843300
_cell_angle_alpha   90.00000000
_cell_angle_beta   90.00000000
_cell_angle_gamma   89.76299775
_symmetry_Int_Tables_number   1
_chemical_formula_structural   ScNb3Si2(B2Ru5)2
_chemical_formula_sum   'Sc1 Nb3 Si2 B4 Ru10'
_cell_volume   257.01607981
_cell_formula_units_Z   1
loop_
 _symmetry_equiv_pos_site_id
 _symmetry_equiv_pos_as_xyz
  1  'x, y, z'
loop_
 _atom_site_type_symbol
 _atom_site_label
 _atom_site_symmetry_multiplicity
 _atom_site_fract_x
 _atom_site_fract_y
 _atom_site_fract_z
 _atom_site_occupancy
  Sc  Sc0  1  0.824605  0.675395  0.000000  1
  Nb  Nb1  1  0.175763  0.324237  0.000000  1
  Nb  Nb2  1  0.324115  0.823471  0.000000  1
  Nb  Nb3  1  0.676529  0.175885  0.000000  1
  Si  Si4  1  0.501510  0.501166  0.000000  1
  Si  Si5  1  0.998834  0.998490  0.000000  1
  B  B6  1  0.625381  0.874619  0.000000  1
  B  B7  1  0.374671  0.125329  0.000000  1
  B  B8  1  0.123237  0.623992  0.000000  1
  B  B9  1  0.876008  0.376763  0.000000  1
  Ru  Ru10  1  0.561726  0.712761  0.500000  1
  Ru  Ru11  1  0.432794  0.289450  0.500000  1
  Ru  Ru12  1  0.074114  0.791070  0.500000  1
  Ru  Ru13  1  0.933797  0.210189  0.500000  1
  Ru  Ru14  1  0.289811  0.566203  0.500000  1
  Ru  Ru15  1  0.708930  0.425886  0.500000  1
  Ru  Ru16  1  0.210550  0.067206  0.500000  1
  Ru  Ru17  1  0.787239  0.938274  0.500000  1
  Ru  Ru18  1  0.499320  0.000680  0.500000  1
  Ru  Ru19  1  0.001067  0.498933  0.500000  1
