# generated using pymatgen
data_Hf18Cr2Re6SiP
_symmetry_space_group_name_H-M   'P 1'
_cell_length_a   8.55063300
_cell_length_b   8.55063377
_cell_length_c   8.53433000
_cell_angle_alpha   90.00000000
_cell_angle_beta   90.00000000
_cell_angle_gamma   120.00000088
_symmetry_Int_Tables_number   1
_chemical_formula_structural   Hf18Cr2Re6SiP
_chemical_formula_sum   'Hf18 Cr2 Re6 Si1 P1'
_cell_volume   540.37672151
_cell_formula_units_Z   1
loop_
 _symmetry_equiv_pos_site_id
 _symmetry_equiv_pos_as_xyz
  1  'x, y, z'
loop_
 _atom_site_type_symbol
 _atom_site_label
 _atom_site_symmetry_multiplicity
 _atom_site_fract_x
 _atom_site_fract_y
 _atom_site_fract_z
 _atom_site_occupancy
  Hf  Hf0  1  0.193555  0.806445  0.451961  1
  Hf  Hf1  1  0.193555  0.387107  0.451961  1
  Hf  Hf2  1  0.612893  0.806445  0.451961  1
  Hf  Hf3  1  0.805261  0.194739  0.549027  1
  Hf  Hf4  1  0.805261  0.610523  0.549027  1
  Hf  Hf5  1  0.389477  0.194739  0.549027  1
  Hf  Hf6  1  0.805261  0.194739  0.950973  1
  Hf  Hf7  1  0.805261  0.610523  0.950973  1
  Hf  Hf8  1  0.389477  0.194739  0.950973  1
  Hf  Hf9  1  0.193555  0.806445  0.048039  1
  Hf  Hf10  1  0.193555  0.387107  0.048039  1
  Hf  Hf11  1  0.612893  0.806445  0.048039  1
  Hf  Hf12  1  0.539201  0.460799  0.250000  1
  Hf  Hf13  1  0.539201  0.078402  0.250000  1
  Hf  Hf14  1  0.921598  0.460799  0.250000  1
  Hf  Hf15  1  0.460110  0.539890  0.750000  1
  Hf  Hf16  1  0.460110  0.920220  0.750000  1
  Hf  Hf17  1  0.079780  0.539890  0.750000  1
  Cr  Cr18  1  0.000000  0.000000  0.500006  1
  Cr  Cr19  1  0.000000  0.000000  0.999994  1
  Re  Re20  1  0.892620  0.107380  0.250000  1
  Re  Re21  1  0.892620  0.785239  0.250000  1
  Re  Re22  1  0.214761  0.107380  0.250000  1
  Re  Re23  1  0.107330  0.892670  0.750000  1
  Re  Re24  1  0.107330  0.214661  0.750000  1
  Re  Re25  1  0.785339  0.892670  0.750000  1
  Si  Si26  1  0.333333  0.666667  0.250000  1
  P  P27  1  0.666667  0.333333  0.750000  1
