# generated using pymatgen
data_Yb2Sc2Tc3B8Ru7
_symmetry_space_group_name_H-M   'P 1'
_cell_length_a   3.01857900
_cell_length_b   8.64131501
_cell_length_c   10.11865259
_cell_angle_alpha   90.33895344
_cell_angle_beta   90.00000000
_cell_angle_gamma   90.00000000
_symmetry_Int_Tables_number   1
_chemical_formula_structural   Yb2Sc2Tc3B8Ru7
_chemical_formula_sum   'Yb2 Sc2 Tc3 B8 Ru7'
_cell_volume   263.93529422
_cell_formula_units_Z   1
loop_
 _symmetry_equiv_pos_site_id
 _symmetry_equiv_pos_as_xyz
  1  'x, y, z'
loop_
 _atom_site_type_symbol
 _atom_site_label
 _atom_site_symmetry_multiplicity
 _atom_site_fract_x
 _atom_site_fract_y
 _atom_site_fract_z
 _atom_site_occupancy
  Yb  Yb0  1  0.500000  0.840519  0.182192  1
  Yb  Yb1  1  0.500000  0.158817  0.817102  1
  Sc  Sc2  1  0.500000  0.657360  0.682827  1
  Sc  Sc3  1  0.500000  0.342127  0.315845  1
  Tc  Tc4  1  0.000000  0.657910  0.951426  1
  Tc  Tc5  1  0.000000  0.341545  0.048139  1
  Tc  Tc6  1  0.000000  0.842595  0.455939  1
  B  B7  1  0.500000  0.964434  0.588723  1
  B  B8  1  0.500000  0.033646  0.411245  1
  B  B9  1  0.500000  0.849791  0.900859  1
  B  B10  1  0.500000  0.151305  0.099848  1
  B  B11  1  0.500000  0.649364  0.400979  1
  B  B12  1  0.500000  0.351893  0.599126  1
  B  B13  1  0.500000  0.465223  0.912883  1
  B  B14  1  0.500000  0.535294  0.086679  1
  Ru  Ru15  1  0.000000  0.160807  0.546229  1
  Ru  Ru16  1  0.000000  0.999674  0.999983  1
  Ru  Ru17  1  0.000000  0.411187  0.759022  1
  Ru  Ru18  1  0.000000  0.588406  0.240911  1
  Ru  Ru19  1  0.000000  0.499052  0.499867  1
  Ru  Ru20  1  0.000000  0.899669  0.737783  1
  Ru  Ru21  1  0.000000  0.099379  0.262394  1
