# generated using pymatgen
data_Er9ScPb8
_symmetry_space_group_name_H-M   'P 1'
_cell_length_a   8.39026816
_cell_length_b   8.32185963
_cell_length_c   8.02361400
_cell_angle_alpha   90.07376562
_cell_angle_beta   112.07306058
_cell_angle_gamma   90.02260149
_symmetry_Int_Tables_number   1
_chemical_formula_structural   Er9ScPb8
_chemical_formula_sum   'Er9 Sc1 Pb8'
_cell_volume   519.16738850
_cell_formula_units_Z   1
loop_
 _symmetry_equiv_pos_site_id
 _symmetry_equiv_pos_as_xyz
  1  'x, y, z'
loop_
 _atom_site_type_symbol
 _atom_site_label
 _atom_site_symmetry_multiplicity
 _atom_site_fract_x
 _atom_site_fract_y
 _atom_site_fract_z
 _atom_site_occupancy
  Er  Er0  1  0.000000  0.000000  0.000000  1
  Er  Er1  1  0.693027  0.320979  0.048090  1
  Er  Er2  1  0.745534  0.841159  0.236835  1
  Er  Er3  1  0.255618  0.341919  0.266336  1
  Er  Er4  1  0.306626  0.819096  0.451949  1
  Er  Er5  1  0.693374  0.180905  0.548052  1
  Er  Er6  1  0.744382  0.658082  0.733664  1
  Er  Er7  1  0.254466  0.158841  0.763165  1
  Er  Er8  1  0.306973  0.679020  0.951910  1
  Sc  Sc9  1  0.000000  0.500000  0.500000  1
  Pb  Pb10  1  0.014868  0.642945  0.148416  1
  Pb  Pb11  1  0.413226  0.035577  0.178292  1
  Pb  Pb12  1  0.590966  0.534518  0.323430  1
  Pb  Pb13  1  0.982885  0.150472  0.356537  1
  Pb  Pb14  1  0.017115  0.849528  0.643462  1
  Pb  Pb15  1  0.409034  0.465482  0.676569  1
  Pb  Pb16  1  0.586775  0.964423  0.821708  1
  Pb  Pb17  1  0.985131  0.357056  0.851583  1
