# generated using pymatgen
data_Yb8Pr11SmSn16
_symmetry_space_group_name_H-M   'P 1'
_cell_length_a   8.05447085
_cell_length_b   8.54757890
_cell_length_c   16.12968292
_cell_angle_alpha   90.02678831
_cell_angle_beta   89.94427977
_cell_angle_gamma   90.10076713
_symmetry_Int_Tables_number   1
_chemical_formula_structural   Yb8Pr11SmSn16
_chemical_formula_sum   'Yb8 Pr11 Sm1 Sn16'
_cell_volume   1110.46541854
_cell_formula_units_Z   1
loop_
 _symmetry_equiv_pos_site_id
 _symmetry_equiv_pos_as_xyz
  1  'x, y, z'
loop_
 _atom_site_type_symbol
 _atom_site_label
 _atom_site_symmetry_multiplicity
 _atom_site_fract_x
 _atom_site_fract_y
 _atom_site_fract_z
 _atom_site_occupancy
  Yb  Yb0  1  0.828843  0.670284  0.623650  1
  Yb  Yb1  1  0.669889  0.171407  0.376031  1
  Yb  Yb2  1  0.170747  0.328959  0.123791  1
  Yb  Yb3  1  0.669061  0.171015  0.123843  1
  Yb  Yb4  1  0.159433  0.498970  0.750318  1
  Yb  Yb5  1  0.660445  0.000373  0.749330  1
  Yb  Yb6  1  0.839755  0.497748  0.248720  1
  Yb  Yb7  1  0.341058  0.001575  0.248242  1
  Pr  Pr8  1  0.166749  0.325825  0.374422  1
  Pr  Pr9  1  0.331732  0.827973  0.624591  1
  Pr  Pr10  1  0.831138  0.672199  0.876632  1
  Pr  Pr11  1  0.491633  0.314469  0.904857  1
  Pr  Pr12  1  0.988763  0.185167  0.596614  1
  Pr  Pr13  1  0.511219  0.685833  0.402908  1
  Pr  Pr14  1  0.009363  0.814617  0.096987  1
  Pr  Pr15  1  0.510059  0.685561  0.096265  1
  Pr  Pr16  1  0.007157  0.815774  0.403304  1
  Pr  Pr17  1  0.492027  0.315941  0.595761  1
  Pr  Pr18  1  0.990248  0.185236  0.904680  1
  Sm  Sm19  1  0.329955  0.828709  0.876856  1
  Sn  Sn20  1  0.328607  0.036523  0.039142  1
  Sn  Sn21  1  0.827866  0.464445  0.460637  1
  Sn  Sn22  1  0.672025  0.964810  0.538610  1
  Sn  Sn23  1  0.173041  0.535449  0.961660  1
  Sn  Sn24  1  0.667907  0.965025  0.961955  1
  Sn  Sn25  1  0.168172  0.536726  0.538377  1
  Sn  Sn26  1  0.330567  0.036379  0.460490  1
  Sn  Sn27  1  0.831471  0.462287  0.040307  1
  Sn  Sn28  1  0.528942  0.606047  0.750846  1
  Sn  Sn29  1  0.029247  0.897946  0.751441  1
  Sn  Sn30  1  0.470546  0.396118  0.249238  1
  Sn  Sn31  1  0.967744  0.103714  0.248949  1
  Sn  Sn32  1  0.288901  0.140063  0.750734  1
  Sn  Sn33  1  0.787602  0.357488  0.750598  1
  Sn  Sn34  1  0.713343  0.859224  0.249187  1
  Sn  Sn35  1  0.214744  0.640121  0.250025  1
