# generated using pymatgen
data_Sr8TmLu3(GaO5)4
_symmetry_space_group_name_H-M   'P 1'
_cell_length_a   5.90427546
_cell_length_b   7.59158768
_cell_length_c   12.34457684
_cell_angle_alpha   91.85382786
_cell_angle_beta   89.98255923
_cell_angle_gamma   89.98983637
_symmetry_Int_Tables_number   1
_chemical_formula_structural   Sr8TmLu3(GaO5)4
_chemical_formula_sum   'Sr8 Tm1 Lu3 Ga4 O20'
_cell_volume   553.02916849
_cell_formula_units_Z   1
loop_
 _symmetry_equiv_pos_site_id
 _symmetry_equiv_pos_as_xyz
  1  'x, y, z'
loop_
 _atom_site_type_symbol
 _atom_site_label
 _atom_site_symmetry_multiplicity
 _atom_site_fract_x
 _atom_site_fract_y
 _atom_site_fract_z
 _atom_site_occupancy
  Sr  Sr0  1  0.767855  0.487109  0.331969  1
  Sr  Sr1  1  0.732638  0.986648  0.833005  1
  Sr  Sr2  1  0.232304  0.514024  0.667969  1
  Sr  Sr3  1  0.267205  0.012922  0.167201  1
  Sr  Sr4  1  0.767224  0.985420  0.370130  1
  Sr  Sr5  1  0.733006  0.486232  0.871642  1
  Sr  Sr6  1  0.232683  0.013529  0.629408  1
  Sr  Sr7  1  0.266850  0.513959  0.128968  1
  Tm  Tm8  1  0.757304  0.269460  0.623362  1
  Lu  Lu9  1  0.742017  0.768613  0.123842  1
  Lu  Lu10  1  0.242148  0.731288  0.375927  1
  Lu  Lu11  1  0.257610  0.231402  0.876454  1
  Ga  Ga12  1  0.720403  0.740349  0.578717  1
  Ga  Ga13  1  0.779627  0.240155  0.078729  1
  Ga  Ga14  1  0.280126  0.259479  0.420500  1
  Ga  Ga15  1  0.220420  0.759778  0.921468  1
  O  O16  1  0.782698  0.972523  0.627719  1
  O  O17  1  0.717687  0.473266  0.126959  1
  O  O18  1  0.216972  0.026609  0.372352  1
  O  O19  1  0.282157  0.526797  0.873098  1
  O  O20  1  0.721582  0.063992  0.176324  1
  O  O21  1  0.778653  0.566330  0.677690  1
  O  O22  1  0.278166  0.935483  0.823549  1
  O  O23  1  0.220848  0.435656  0.323048  1
  O  O24  1  0.536757  0.746829  0.274349  1
  O  O25  1  0.962232  0.247000  0.775680  1
  O  O26  1  0.460607  0.253101  0.725888  1
  O  O27  1  0.036746  0.752989  0.225483  1
  O  O28  1  0.586158  0.214250  0.960144  1
  O  O29  1  0.913530  0.713964  0.459971  1
  O  O30  1  0.413775  0.785575  0.040098  1
  O  O31  1  0.090339  0.285985  0.540297  1
  O  O32  1  0.088142  0.233753  0.038903  1
  O  O33  1  0.411948  0.733529  0.538494  1
  O  O34  1  0.912093  0.766394  0.961768  1
  O  O35  1  0.589491  0.265610  0.458895  1
