# generated using pymatgen
data_Y2Ga8CuPd3
_symmetry_space_group_name_H-M   'P 1'
_cell_length_a   7.57925616
_cell_length_b   7.57925539
_cell_length_c   9.48618200
_cell_angle_alpha   90.00000000
_cell_angle_beta   90.00000000
_cell_angle_gamma   118.18965517
_symmetry_Int_Tables_number   1
_chemical_formula_structural   Y2Ga8CuPd3
_chemical_formula_sum   'Y4 Ga16 Cu2 Pd6'
_cell_volume   480.29944624
_cell_formula_units_Z   2
loop_
 _symmetry_equiv_pos_site_id
 _symmetry_equiv_pos_as_xyz
  1  'x, y, z'
loop_
 _atom_site_type_symbol
 _atom_site_label
 _atom_site_symmetry_multiplicity
 _atom_site_fract_x
 _atom_site_fract_y
 _atom_site_fract_z
 _atom_site_occupancy
  Y  Y0  1  0.995691  0.677079  0.250000  1
  Y  Y1  1  0.004309  0.322921  0.750000  1
  Y  Y2  1  0.677079  0.995691  0.250000  1
  Y  Y3  1  0.322921  0.004309  0.750000  1
  Ga  Ga4  1  0.006401  0.332190  0.088545  1
  Ga  Ga5  1  0.993599  0.667810  0.911455  1
  Ga  Ga6  1  0.993599  0.667810  0.588545  1
  Ga  Ga7  1  0.332190  0.006401  0.411455  1
  Ga  Ga8  1  0.006401  0.332190  0.411455  1
  Ga  Ga9  1  0.667810  0.993599  0.588545  1
  Ga  Ga10  1  0.667810  0.993599  0.911455  1
  Ga  Ga11  1  0.332190  0.006401  0.088545  1
  Ga  Ga12  1  0.329803  0.329803  0.556591  1
  Ga  Ga13  1  0.670197  0.670198  0.443409  1
  Ga  Ga14  1  0.670197  0.670198  0.056591  1
  Ga  Ga15  1  0.329803  0.329803  0.943409  1
  Ga  Ga16  1  0.344873  0.546703  0.250000  1
  Ga  Ga17  1  0.655127  0.453297  0.750000  1
  Ga  Ga18  1  0.546703  0.344873  0.250000  1
  Ga  Ga19  1  0.453297  0.655127  0.750000  1
  Cu  Cu20  1  0.153679  0.153679  0.250000  1
  Cu  Cu21  1  0.846321  0.846321  0.750000  1
  Pd  Pd22  1  0.675649  0.324351  0.000000  1
  Pd  Pd23  1  0.324351  0.675649  0.000000  1
  Pd  Pd24  1  0.324351  0.675649  0.500000  1
  Pd  Pd25  1  0.675649  0.324351  0.500000  1
  Pd  Pd26  1  0.000000  0.000000  0.000000  1
  Pd  Pd27  1  0.000000  0.000000  0.500000  1
