# generated using pymatgen
data_LaPr5OsO12
_symmetry_space_group_name_H-M   'P 1'
_cell_length_a   6.81430884
_cell_length_b   6.78974306
_cell_length_c   6.77223345
_cell_angle_alpha   98.47268544
_cell_angle_beta   98.39916627
_cell_angle_gamma   98.56079933
_symmetry_Int_Tables_number   1
_chemical_formula_structural   LaPr5OsO12
_chemical_formula_sum   'La1 Pr5 Os1 O12'
_cell_volume   301.90626213
_cell_formula_units_Z   1
loop_
 _symmetry_equiv_pos_site_id
 _symmetry_equiv_pos_as_xyz
  1  'x, y, z'
loop_
 _atom_site_type_symbol
 _atom_site_label
 _atom_site_symmetry_multiplicity
 _atom_site_fract_x
 _atom_site_fract_y
 _atom_site_fract_z
 _atom_site_occupancy
  La  La0  1  0.855224  0.691455  0.393372  1
  Pr  Pr1  1  0.145064  0.308035  0.611865  1
  Pr  Pr2  1  0.392736  0.857340  0.696901  1
  Pr  Pr3  1  0.690152  0.385350  0.855065  1
  Pr  Pr4  1  0.308987  0.611929  0.144781  1
  Pr  Pr5  1  0.606142  0.142353  0.304062  1
  Os  Os6  1  0.000380  0.000524  0.000390  1
  O  O7  1  0.066752  0.284751  0.968830  1
  O  O8  1  0.036294  0.936092  0.717227  1
  O  O9  1  0.406019  0.557133  0.822036  1
  O  O10  1  0.175259  0.591713  0.441028  1
  O  O11  1  0.709910  0.034977  0.931772  1
  O  O12  1  0.439980  0.176882  0.592485  1
  O  O13  1  0.559648  0.820617  0.406986  1
  O  O14  1  0.290330  0.964742  0.068316  1
  O  O15  1  0.823034  0.405086  0.559485  1
  O  O16  1  0.592502  0.441355  0.177997  1
  O  O17  1  0.968064  0.071529  0.281523  1
  O  O18  1  0.933521  0.718136  0.025881  1
