# generated using pymatgen
data_Sc12Fe3Sn2
_symmetry_space_group_name_H-M   'P 1'
_cell_length_a   7.80307983
_cell_length_b   7.80299595
_cell_length_c   7.80308098
_cell_angle_alpha   108.40785112
_cell_angle_beta   108.40924671
_cell_angle_gamma   111.61858721
_symmetry_Int_Tables_number   1
_chemical_formula_structural   Sc12Fe3Sn2
_chemical_formula_sum   'Sc12 Fe3 Sn2'
_cell_volume   365.35044319
_cell_formula_units_Z   1
loop_
 _symmetry_equiv_pos_site_id
 _symmetry_equiv_pos_as_xyz
  1  'x, y, z'
loop_
 _atom_site_type_symbol
 _atom_site_label
 _atom_site_symmetry_multiplicity
 _atom_site_fract_x
 _atom_site_fract_y
 _atom_site_fract_z
 _atom_site_occupancy
  Sc  Sc0  1  0.304966  0.304967  0.609933  1
  Sc  Sc1  1  0.695034  0.695033  0.390067  1
  Sc  Sc2  1  0.695034  0.304967  0.000001  1
  Sc  Sc3  1  0.304966  0.695033  0.999999  1
  Sc  Sc4  1  0.194486  0.428193  0.233707  1
  Sc  Sc5  1  0.805514  0.571807  0.766293  1
  Sc  Sc6  1  0.194488  0.960780  0.766293  1
  Sc  Sc7  1  0.960784  0.194486  0.766295  1
  Sc  Sc8  1  0.805512  0.039220  0.233707  1
  Sc  Sc9  1  0.039216  0.805514  0.233705  1
  Sc  Sc10  1  0.428190  0.194486  0.233701  1
  Sc  Sc11  1  0.571810  0.805514  0.766299  1
  Fe  Fe12  1  0.380101  0.380101  0.000000  1
  Fe  Fe13  1  0.619899  0.619899  0.000000  1
  Fe  Fe14  1  0.000000  0.000000  0.000000  1
  Sn  Sn15  1  0.000000  0.500000  0.500000  1
  Sn  Sn16  1  0.500000  0.000000  0.500000  1
