# generated using pymatgen
data_Tc2Te4W
_symmetry_space_group_name_H-M   'P 1'
_cell_length_a   7.13459744
_cell_length_b   7.13308438
_cell_length_c   7.18620759
_cell_angle_alpha   93.69599132
_cell_angle_beta   93.14834546
_cell_angle_gamma   93.61437083
_symmetry_Int_Tables_number   1
_chemical_formula_structural   Tc2Te4W
_chemical_formula_sum   'Tc4 Te8 W2'
_cell_volume   363.59228218
_cell_formula_units_Z   2
loop_
 _symmetry_equiv_pos_site_id
 _symmetry_equiv_pos_as_xyz
  1  'x, y, z'
loop_
 _atom_site_type_symbol
 _atom_site_label
 _atom_site_symmetry_multiplicity
 _atom_site_fract_x
 _atom_site_fract_y
 _atom_site_fract_z
 _atom_site_occupancy
  Tc  Tc0  1  0.912459  0.048314  0.747223  1
  Tc  Tc1  1  0.745822  0.914915  0.048656  1
  Tc  Tc2  1  0.045826  0.747015  0.913625  1
  Tc  Tc3  1  0.086983  0.952876  0.251016  1
  Te  Te4  1  0.713851  0.715645  0.717052  1
  Te  Te5  1  0.292755  0.287807  0.292206  1
  Te  Te6  1  0.772586  0.120475  0.384188  1
  Te  Te7  1  0.380048  0.763834  0.122404  1
  Te  Te8  1  0.122755  0.384282  0.763081  1
  Te  Te9  1  0.224911  0.877523  0.615287  1
  Te  Te10  1  0.619499  0.228119  0.880405  1
  Te  Te11  1  0.878185  0.623773  0.226588  1
  W  W12  1  0.247364  0.085347  0.952425  1
  W  W13  1  0.956957  0.250074  0.085844  1
