# generated using pymatgen
data_Yb2Pr8Ir5Ru
_symmetry_space_group_name_H-M   'P 1'
_cell_length_a   11.23363000
_cell_length_b   11.23363000
_cell_length_c   6.55978300
_cell_angle_alpha   90.00000000
_cell_angle_beta   90.00000000
_cell_angle_gamma   90.00000000
_symmetry_Int_Tables_number   1
_chemical_formula_structural   Yb2Pr8Ir5Ru
_chemical_formula_sum   'Yb4 Pr16 Ir10 Ru2'
_cell_volume   827.80816173
_cell_formula_units_Z   2
loop_
 _symmetry_equiv_pos_site_id
 _symmetry_equiv_pos_as_xyz
  1  'x, y, z'
loop_
 _atom_site_type_symbol
 _atom_site_label
 _atom_site_symmetry_multiplicity
 _atom_site_fract_x
 _atom_site_fract_y
 _atom_site_fract_z
 _atom_site_occupancy
  Yb  Yb0  1  0.000000  0.000000  0.499309  1
  Yb  Yb1  1  0.000000  0.000000  0.999309  1
  Yb  Yb2  1  0.500000  0.500000  0.999309  1
  Yb  Yb3  1  0.500000  0.500000  0.499309  1
  Pr  Pr4  1  0.290501  0.087192  0.383534  1
  Pr  Pr5  1  0.290501  0.912808  0.883534  1
  Pr  Pr6  1  0.709499  0.087192  0.883534  1
  Pr  Pr7  1  0.709499  0.912808  0.383534  1
  Pr  Pr8  1  0.587192  0.790501  0.883534  1
  Pr  Pr9  1  0.587192  0.209499  0.383534  1
  Pr  Pr10  1  0.412808  0.790501  0.383534  1
  Pr  Pr11  1  0.412808  0.209499  0.883534  1
  Pr  Pr12  1  0.212542  0.410865  0.616924  1
  Pr  Pr13  1  0.212542  0.589135  0.116924  1
  Pr  Pr14  1  0.787458  0.410865  0.116924  1
  Pr  Pr15  1  0.787458  0.589135  0.616924  1
  Pr  Pr16  1  0.910865  0.712542  0.116924  1
  Pr  Pr17  1  0.910865  0.287458  0.616924  1
  Pr  Pr18  1  0.089135  0.712542  0.616924  1
  Pr  Pr19  1  0.089135  0.287458  0.116924  1
  Ir  Ir20  1  0.846226  0.154944  0.249568  1
  Ir  Ir21  1  0.846226  0.845056  0.749568  1
  Ir  Ir22  1  0.153774  0.154944  0.749568  1
  Ir  Ir23  1  0.153774  0.845056  0.249568  1
  Ir  Ir24  1  0.654944  0.346226  0.749568  1
  Ir  Ir25  1  0.654944  0.653774  0.249568  1
  Ir  Ir26  1  0.345056  0.346226  0.249568  1
  Ir  Ir27  1  0.345056  0.653774  0.749568  1
  Ir  Ir28  1  0.000000  0.500000  0.885214  1
  Ir  Ir29  1  0.000000  0.500000  0.385214  1
  Ru  Ru30  1  0.500000  0.000000  0.116064  1
  Ru  Ru31  1  0.500000  0.000000  0.616064  1
