# generated using pymatgen
data_KLi6OsO6
_symmetry_space_group_name_H-M   'P 1'
_cell_length_a   5.34186925
_cell_length_b   5.34186868
_cell_length_c   5.34186969
_cell_angle_alpha   101.29822056
_cell_angle_beta   101.29821563
_cell_angle_gamma   101.29822489
_symmetry_Int_Tables_number   1
_chemical_formula_structural   KLi6OsO6
_chemical_formula_sum   'K1 Li6 Os1 O6'
_cell_volume   142.16487922
_cell_formula_units_Z   1
loop_
 _symmetry_equiv_pos_site_id
 _symmetry_equiv_pos_as_xyz
  1  'x, y, z'
loop_
 _atom_site_type_symbol
 _atom_site_label
 _atom_site_symmetry_multiplicity
 _atom_site_fract_x
 _atom_site_fract_y
 _atom_site_fract_z
 _atom_site_occupancy
  K  K0  1  0.500000  0.500000  0.500000  1
  Li  Li1  1  0.000000  0.340254  0.659746  1
  Li  Li2  1  0.659746  0.000000  0.340254  1
  Li  Li3  1  0.659746  0.340254  0.000000  1
  Li  Li4  1  0.340254  0.000000  0.659746  1
  Li  Li5  1  0.000000  0.659746  0.340254  1
  Li  Li6  1  0.340254  0.659746  0.000000  1
  Os  Os7  1  0.000000  0.000000  0.000000  1
  O  O8  1  0.918973  0.272516  0.272516  1
  O  O9  1  0.272516  0.272516  0.918973  1
  O  O10  1  0.081027  0.727484  0.727484  1
  O  O11  1  0.727484  0.727484  0.081027  1
  O  O12  1  0.727484  0.081027  0.727484  1
  O  O13  1  0.272516  0.918973  0.272516  1
