# generated using pymatgen
data_HoTmFe6(P3Rh2)2
_symmetry_space_group_name_H-M   'P 1'
_cell_length_a   3.75858200
_cell_length_b   10.31530800
_cell_length_c   12.17483100
_cell_angle_alpha   90.00000000
_cell_angle_beta   90.00000000
_cell_angle_gamma   90.00000000
_symmetry_Int_Tables_number   1
_chemical_formula_structural   HoTmFe6(P3Rh2)2
_chemical_formula_sum   'Ho2 Tm2 Fe12 P12 Rh8'
_cell_volume   472.02953231
_cell_formula_units_Z   2
loop_
 _symmetry_equiv_pos_site_id
 _symmetry_equiv_pos_as_xyz
  1  'x, y, z'
loop_
 _atom_site_type_symbol
 _atom_site_label
 _atom_site_symmetry_multiplicity
 _atom_site_fract_x
 _atom_site_fract_y
 _atom_site_fract_z
 _atom_site_occupancy
  Ho  Ho0  1  0.750000  0.419320  0.288518  1
  Ho  Ho1  1  0.750000  0.080680  0.788518  1
  Tm  Tm2  1  0.250000  0.580672  0.711480  1
  Tm  Tm3  1  0.250000  0.919328  0.211480  1
  Fe  Fe4  1  0.250000  0.223904  0.170753  1
  Fe  Fe5  1  0.250000  0.276096  0.670753  1
  Fe  Fe6  1  0.750000  0.775713  0.829148  1
  Fe  Fe7  1  0.750000  0.724287  0.329148  1
  Fe  Fe8  1  0.250000  0.877144  0.697102  1
  Fe  Fe9  1  0.250000  0.622856  0.197102  1
  Fe  Fe10  1  0.750000  0.122339  0.302731  1
  Fe  Fe11  1  0.750000  0.377661  0.802731  1
  Fe  Fe12  1  0.250000  0.459125  0.935069  1
  Fe  Fe13  1  0.250000  0.040875  0.435069  1
  Fe  Fe14  1  0.750000  0.541007  0.064725  1
  Fe  Fe15  1  0.750000  0.958993  0.564725  1
  P  P16  1  0.250000  0.429565  0.112875  1
  P  P17  1  0.250000  0.070435  0.612875  1
  P  P18  1  0.750000  0.570559  0.886679  1
  P  P19  1  0.750000  0.929441  0.386679  1
  P  P20  1  0.250000  0.273248  0.852811  1
  P  P21  1  0.250000  0.226752  0.352811  1
  P  P22  1  0.750000  0.727250  0.147319  1
  P  P23  1  0.750000  0.772750  0.647319  1
  P  P24  1  0.250000  0.605657  0.377532  1
  P  P25  1  0.250000  0.894343  0.877532  1
  P  P26  1  0.750000  0.394775  0.622612  1
  P  P27  1  0.750000  0.105225  0.122612  1
  Rh  Rh28  1  0.250000  0.707727  0.985040  1
  Rh  Rh29  1  0.250000  0.792273  0.485040  1
  Rh  Rh30  1  0.750000  0.292342  0.015021  1
  Rh  Rh31  1  0.750000  0.207658  0.515021  1
  Rh  Rh32  1  0.250000  0.404962  0.478538  1
  Rh  Rh33  1  0.250000  0.095038  0.978538  1
  Rh  Rh34  1  0.750000  0.595044  0.522046  1
  Rh  Rh35  1  0.750000  0.904956  0.022046  1
