# generated using pymatgen
data_Tb3Ho13Cd4Ru3Pt
_symmetry_space_group_name_H-M   'P 1'
_cell_length_a   9.61696579
_cell_length_b   9.66146836
_cell_length_c   9.65747904
_cell_angle_alpha   59.62862762
_cell_angle_beta   59.41801980
_cell_angle_gamma   59.42541348
_symmetry_Int_Tables_number   1
_chemical_formula_structural   Tb3Ho13Cd4Ru3Pt
_chemical_formula_sum   'Tb3 Ho13 Cd4 Ru3 Pt1'
_cell_volume   627.14215668
_cell_formula_units_Z   1
loop_
 _symmetry_equiv_pos_site_id
 _symmetry_equiv_pos_as_xyz
  1  'x, y, z'
loop_
 _atom_site_type_symbol
 _atom_site_label
 _atom_site_symmetry_multiplicity
 _atom_site_fract_x
 _atom_site_fract_y
 _atom_site_fract_z
 _atom_site_occupancy
  Tb  Tb0  1  0.937898  0.560619  0.938819  1
  Tb  Tb1  1  0.557892  0.566698  0.937302  1
  Tb  Tb2  1  0.937386  0.938682  0.560461  1
  Ho  Ho3  1  0.346404  0.350898  0.350707  1
  Ho  Ho4  1  0.346191  0.350720  0.956310  1
  Ho  Ho5  1  0.346259  0.955736  0.351081  1
  Ho  Ho6  1  0.962942  0.345712  0.346130  1
  Ho  Ho7  1  0.814906  0.188593  0.189019  1
  Ho  Ho8  1  0.185090  0.811650  0.811407  1
  Ho  Ho9  1  0.187812  0.811240  0.188070  1
  Ho  Ho10  1  0.814092  0.188914  0.805348  1
  Ho  Ho11  1  0.188174  0.188038  0.810956  1
  Ho  Ho12  1  0.813595  0.804997  0.189617  1
  Ho  Ho13  1  0.937609  0.560885  0.560498  1
  Ho  Ho14  1  0.556737  0.939077  0.938075  1
  Ho  Ho15  1  0.557384  0.938523  0.565649  1
  Cd  Cd16  1  0.580562  0.580302  0.580031  1
  Cd  Cd17  1  0.580594  0.580337  0.258015  1
  Cd  Cd18  1  0.580469  0.257530  0.580447  1
  Cd  Cd19  1  0.256808  0.580253  0.580471  1
  Ru  Ru20  1  0.145262  0.138054  0.138356  1
  Ru  Ru21  1  0.145526  0.141416  0.578453  1
  Ru  Ru22  1  0.144402  0.578746  0.141619  1
  Pt  Pt23  1  0.576005  0.142380  0.143159  1
