# generated using pymatgen
data_NbAl4Ga3Ru8
_symmetry_space_group_name_H-M   'P 1'
_cell_length_a   6.09243200
_cell_length_b   6.09553302
_cell_length_c   6.15886200
_cell_angle_alpha   89.99779109
_cell_angle_beta   89.99787460
_cell_angle_gamma   89.99589228
_symmetry_Int_Tables_number   1
_chemical_formula_structural   NbAl4Ga3Ru8
_chemical_formula_sum   'Nb1 Al4 Ga3 Ru8'
_cell_volume   228.71931961
_cell_formula_units_Z   1
loop_
 _symmetry_equiv_pos_site_id
 _symmetry_equiv_pos_as_xyz
  1  'x, y, z'
loop_
 _atom_site_type_symbol
 _atom_site_label
 _atom_site_symmetry_multiplicity
 _atom_site_fract_x
 _atom_site_fract_y
 _atom_site_fract_z
 _atom_site_occupancy
  Nb  Nb0  1  0.750013  0.749959  0.999885  1
  Al  Al1  1  0.750071  0.250043  0.999992  1
  Al  Al2  1  0.250033  0.749947  0.500019  1
  Al  Al3  1  0.749970  0.250045  0.500151  1
  Al  Al4  1  0.249949  0.749959  0.999851  1
  Ga  Ga5  1  0.249976  0.250044  0.000005  1
  Ga  Ga6  1  0.750004  0.749968  0.499995  1
  Ga  Ga7  1  0.249982  0.250041  0.500118  1
  Ru  Ru8  1  0.496695  0.003300  0.252501  1
  Ru  Ru9  1  0.496700  0.496711  0.252522  1
  Ru  Ru10  1  0.003300  0.003278  0.252553  1
  Ru  Ru11  1  0.003314  0.496718  0.252533  1
  Ru  Ru12  1  0.003304  0.003287  0.747451  1
  Ru  Ru13  1  0.003311  0.496702  0.747461  1
  Ru  Ru14  1  0.496682  0.003292  0.747497  1
  Ru  Ru15  1  0.496697  0.496708  0.747473  1
