# generated using pymatgen
data_Tb3RuI3
_symmetry_space_group_name_H-M   'P 1'
_cell_length_a   8.89163709
_cell_length_b   4.25535400
_cell_length_c   12.35809545
_cell_angle_alpha   90.00000000
_cell_angle_beta   93.93343241
_cell_angle_gamma   90.00000000
_symmetry_Int_Tables_number   1
_chemical_formula_structural   Tb3RuI3
_chemical_formula_sum   'Tb6 Ru2 I6'
_cell_volume   466.49258755
_cell_formula_units_Z   2
loop_
 _symmetry_equiv_pos_site_id
 _symmetry_equiv_pos_as_xyz
  1  'x, y, z'
loop_
 _atom_site_type_symbol
 _atom_site_label
 _atom_site_symmetry_multiplicity
 _atom_site_fract_x
 _atom_site_fract_y
 _atom_site_fract_z
 _atom_site_occupancy
  Tb  Tb0  1  0.261740  0.750000  0.104069  1
  Tb  Tb1  1  0.870341  0.750000  0.124691  1
  Tb  Tb2  1  0.099550  0.249999  0.317421  1
  Tb  Tb3  1  0.900451  0.750000  0.682579  1
  Tb  Tb4  1  0.129658  0.249999  0.875309  1
  Tb  Tb5  1  0.738259  0.249999  0.895930  1
  Ru  Ru6  1  0.054478  0.249999  0.094376  1
  Ru  Ru7  1  0.945522  0.750000  0.905624  1
  I  I8  1  0.573390  0.249999  0.133387  1
  I  I9  1  0.353986  0.750000  0.364912  1
  I  I10  1  0.857433  0.750000  0.392161  1
  I  I11  1  0.142567  0.249999  0.607840  1
  I  I12  1  0.646014  0.249999  0.635088  1
  I  I13  1  0.426610  0.750000  0.866614  1
