# generated using pymatgen
data_Nd3Sn2BiRh3
_symmetry_space_group_name_H-M   'P 1'
_cell_length_a   7.62189633
_cell_length_b   7.62189593
_cell_length_c   4.10133900
_cell_angle_alpha   90.00000000
_cell_angle_beta   90.00000000
_cell_angle_gamma   119.46415018
_symmetry_Int_Tables_number   1
_chemical_formula_structural   Nd3Sn2BiRh3
_chemical_formula_sum   'Nd3 Sn2 Bi1 Rh3'
_cell_volume   207.44459561
_cell_formula_units_Z   1
loop_
 _symmetry_equiv_pos_site_id
 _symmetry_equiv_pos_as_xyz
  1  'x, y, z'
loop_
 _atom_site_type_symbol
 _atom_site_label
 _atom_site_symmetry_multiplicity
 _atom_site_fract_x
 _atom_site_fract_y
 _atom_site_fract_z
 _atom_site_occupancy
  Nd  Nd0  1  0.005056  0.589663  0.000000  1
  Nd  Nd1  1  0.405209  0.405209  0.000000  1
  Nd  Nd2  1  0.589663  0.005056  0.000000  1
  Sn  Sn3  1  0.002360  0.256815  0.500000  1
  Sn  Sn4  1  0.256815  0.002360  0.500000  1
  Bi  Bi5  1  0.744364  0.744364  0.500000  1
  Rh  Rh6  1  0.008817  0.008817  0.000000  1
  Rh  Rh7  1  0.663785  0.323931  0.500000  1
  Rh  Rh8  1  0.323931  0.663785  0.500000  1
