# generated using pymatgen
data_Y4Sn5SbRh7
_symmetry_space_group_name_H-M   'P 1'
_cell_length_a   7.61788447
_cell_length_b   7.61788658
_cell_length_c   7.61788546
_cell_angle_alpha   109.41545639
_cell_angle_beta   109.41547295
_cell_angle_gamma   109.58279494
_symmetry_Int_Tables_number   1
_chemical_formula_structural   Y4Sn5SbRh7
_chemical_formula_sum   'Y4 Sn5 Sb1 Rh7'
_cell_volume   340.31427901
_cell_formula_units_Z   1
loop_
 _symmetry_equiv_pos_site_id
 _symmetry_equiv_pos_as_xyz
  1  'x, y, z'
loop_
 _atom_site_type_symbol
 _atom_site_label
 _atom_site_symmetry_multiplicity
 _atom_site_fract_x
 _atom_site_fract_y
 _atom_site_fract_z
 _atom_site_occupancy
  Y  Y0  1  0.499238  0.999061  0.000000  1
  Y  Y1  1  0.999061  0.499238  0.000000  1
  Y  Y2  1  0.999061  0.999061  0.499823  1
  Y  Y3  1  0.499238  0.499238  0.500177  1
  Sn  Sn4  1  0.315891  0.998910  0.316982  1
  Sn  Sn5  1  0.998910  0.681927  0.683018  1
  Sn  Sn6  1  0.687126  0.687126  0.000000  1
  Sn  Sn7  1  0.681927  0.998910  0.683018  1
  Sn  Sn8  1  0.998910  0.315891  0.316982  1
  Sb  Sb9  1  0.319237  0.319237  0.000000  1
  Rh  Rh10  1  0.250905  0.499880  0.751025  1
  Rh  Rh11  1  0.499880  0.250905  0.751025  1
  Rh  Rh12  1  0.748966  0.248966  0.500000  1
  Rh  Rh13  1  0.499880  0.748856  0.248975  1
  Rh  Rh14  1  0.003947  0.003947  0.000000  1
  Rh  Rh15  1  0.248966  0.748966  0.500000  1
  Rh  Rh16  1  0.748856  0.499880  0.248975  1
