# generated using pymatgen
data_Dy2Y5Th(ReB6)4
_symmetry_space_group_name_H-M   'P 1'
_cell_length_a   3.71296300
_cell_length_b   9.21162685
_cell_length_c   11.61276209
_cell_angle_alpha   90.04351546
_cell_angle_beta   90.00000000
_cell_angle_gamma   90.00000000
_symmetry_Int_Tables_number   1
_chemical_formula_structural   Dy2Y5Th(ReB6)4
_chemical_formula_sum   'Dy2 Y5 Th1 Re4 B24'
_cell_volume   397.18456409
_cell_formula_units_Z   1
loop_
 _symmetry_equiv_pos_site_id
 _symmetry_equiv_pos_as_xyz
  1  'x, y, z'
loop_
 _atom_site_type_symbol
 _atom_site_label
 _atom_site_symmetry_multiplicity
 _atom_site_fract_x
 _atom_site_fract_y
 _atom_site_fract_z
 _atom_site_occupancy
  Dy  Dy0  1  0.000000  0.443052  0.128414  1
  Dy  Dy1  1  0.000000  0.557825  0.870466  1
  Y  Y2  1  0.000000  0.677835  0.587177  1
  Y  Y3  1  0.000000  0.823124  0.085028  1
  Y  Y4  1  0.000000  0.176257  0.914115  1
  Y  Y5  1  0.000000  0.941583  0.369485  1
  Y  Y6  1  0.000000  0.056409  0.631281  1
  Th  Th7  1  0.000000  0.322448  0.414084  1
  Re  Re8  1  0.000000  0.638379  0.320521  1
  Re  Re9  1  0.000000  0.362360  0.680158  1
  Re  Re10  1  0.000000  0.138149  0.178284  1
  Re  Re11  1  0.000000  0.861738  0.821140  1
  B  B12  1  0.500000  0.555417  0.432022  1
  B  B13  1  0.500000  0.447033  0.569590  1
  B  B14  1  0.500000  0.052906  0.066540  1
  B  B15  1  0.500000  0.946673  0.932753  1
  B  B16  1  0.500000  0.749349  0.417880  1
  B  B17  1  0.500000  0.251647  0.585172  1
  B  B18  1  0.500000  0.248171  0.080556  1
  B  B19  1  0.500000  0.751441  0.918110  1
  B  B20  1  0.500000  0.791276  0.265013  1
  B  B21  1  0.500000  0.208956  0.736088  1
  B  B22  1  0.500000  0.289717  0.232165  1
  B  B23  1  0.500000  0.708838  0.765869  1
  B  B24  1  0.500000  0.631508  0.184750  1
  B  B25  1  0.500000  0.370071  0.814990  1
  B  B26  1  0.500000  0.129078  0.312063  1
  B  B27  1  0.500000  0.869241  0.686416  1
  B  B28  1  0.500000  0.981993  0.210803  1
  B  B29  1  0.500000  0.017142  0.788758  1
  B  B30  1  0.500000  0.485302  0.286354  1
  B  B31  1  0.500000  0.518130  0.713474  1
  B  B32  1  0.500000  0.601316  0.027797  1
  B  B33  1  0.500000  0.399420  0.971433  1
  B  B34  1  0.500000  0.097424  0.472743  1
  B  B35  1  0.500000  0.898794  0.528504  1
