# generated using pymatgen
data_La3Yb4Pr13Ir12
_symmetry_space_group_name_H-M   'P 1'
_cell_length_a   11.31195600
_cell_length_b   11.32948132
_cell_length_c   6.49776047
_cell_angle_alpha   90.01306719
_cell_angle_beta   89.95818687
_cell_angle_gamma   90.02383026
_symmetry_Int_Tables_number   1
_chemical_formula_structural   La3Yb4Pr13Ir12
_chemical_formula_sum   'La3 Yb4 Pr13 Ir12'
_cell_volume   832.74353220
_cell_formula_units_Z   1
loop_
 _symmetry_equiv_pos_site_id
 _symmetry_equiv_pos_as_xyz
  1  'x, y, z'
loop_
 _atom_site_type_symbol
 _atom_site_label
 _atom_site_symmetry_multiplicity
 _atom_site_fract_x
 _atom_site_fract_y
 _atom_site_fract_z
 _atom_site_occupancy
  La  La0  1  0.288007  0.089346  0.385607  1
  La  La1  1  0.287829  0.910642  0.885630  1
  La  La2  1  0.712197  0.089012  0.885530  1
  Yb  Yb3  1  0.999757  0.999895  0.499727  1
  Yb  Yb4  1  0.999910  0.999992  0.000090  1
  Yb  Yb5  1  0.500031  0.499994  0.000037  1
  Yb  Yb6  1  0.500051  0.499991  0.499980  1
  Pr  Pr7  1  0.711992  0.910921  0.384452  1
  Pr  Pr8  1  0.588807  0.787552  0.884356  1
  Pr  Pr9  1  0.588635  0.212354  0.384387  1
  Pr  Pr10  1  0.411848  0.787509  0.384512  1
  Pr  Pr11  1  0.411459  0.212704  0.884243  1
  Pr  Pr12  1  0.211775  0.411742  0.615756  1
  Pr  Pr13  1  0.211771  0.588247  0.115771  1
  Pr  Pr14  1  0.788214  0.411682  0.115797  1
  Pr  Pr15  1  0.788128  0.588458  0.615589  1
  Pr  Pr16  1  0.911225  0.711706  0.115732  1
  Pr  Pr17  1  0.911423  0.288411  0.615272  1
  Pr  Pr18  1  0.088426  0.711545  0.615541  1
  Pr  Pr19  1  0.088514  0.288501  0.115540  1
  Ir  Ir20  1  0.844911  0.154214  0.248734  1
  Ir  Ir21  1  0.845459  0.845407  0.749877  1
  Ir  Ir22  1  0.155073  0.154326  0.748677  1
  Ir  Ir23  1  0.155087  0.845740  0.248695  1
  Ir  Ir24  1  0.654654  0.345184  0.750047  1
  Ir  Ir25  1  0.654578  0.654696  0.249986  1
  Ir  Ir26  1  0.345327  0.345207  0.250232  1
  Ir  Ir27  1  0.345354  0.654818  0.750056  1
  Ir  Ir28  1  0.499619  0.000145  0.112698  1
  Ir  Ir29  1  0.499865  0.000011  0.613247  1
  Ir  Ir30  1  0.000055  0.499964  0.887047  1
  Ir  Ir31  1  0.000017  0.500083  0.387155  1
