# generated using pymatgen
data_Dy2ThSnRh3Pb2
_symmetry_space_group_name_H-M   'P 1'
_cell_length_a   7.67579104
_cell_length_b   7.66299695
_cell_length_c   3.93031900
_cell_angle_alpha   90.00000000
_cell_angle_beta   90.00000000
_cell_angle_gamma   118.90614997
_symmetry_Int_Tables_number   1
_chemical_formula_structural   Dy2ThSnRh3Pb2
_chemical_formula_sum   'Dy2 Th1 Sn1 Rh3 Pb2'
_cell_volume   202.37758725
_cell_formula_units_Z   1
loop_
 _symmetry_equiv_pos_site_id
 _symmetry_equiv_pos_as_xyz
  1  'x, y, z'
loop_
 _atom_site_type_symbol
 _atom_site_label
 _atom_site_symmetry_multiplicity
 _atom_site_fract_x
 _atom_site_fract_y
 _atom_site_fract_z
 _atom_site_occupancy
  Dy  Dy0  1  0.600356  0.005866  0.500000  1
  Dy  Dy1  1  0.997710  0.589618  0.500000  1
  Th  Th2  1  0.409062  0.411444  0.500000  1
  Sn  Sn3  1  0.988401  0.260801  0.000000  1
  Rh  Rh4  1  0.657185  0.331022  0.000000  1
  Rh  Rh5  1  0.325978  0.640435  0.000000  1
  Rh  Rh6  1  0.009625  0.021772  0.500000  1
  Pb  Pb7  1  0.751237  0.752334  0.000000  1
  Pb  Pb8  1  0.260447  0.986709  0.000000  1
