# generated using pymatgen
data_Dy3Lu5Cd2RuPt
_symmetry_space_group_name_H-M   'P 1'
_cell_length_a   9.51763357
_cell_length_b   9.51763356
_cell_length_c   9.56366200
_cell_angle_alpha   59.83988605
_cell_angle_beta   59.83988607
_cell_angle_gamma   59.69460720
_symmetry_Int_Tables_number   1
_chemical_formula_structural   Dy3Lu5Cd2RuPt
_chemical_formula_sum   'Dy6 Lu10 Cd4 Ru2 Pt2'
_cell_volume   609.68337168
_cell_formula_units_Z   2
loop_
 _symmetry_equiv_pos_site_id
 _symmetry_equiv_pos_as_xyz
  1  'x, y, z'
loop_
 _atom_site_type_symbol
 _atom_site_label
 _atom_site_symmetry_multiplicity
 _atom_site_fract_x
 _atom_site_fract_y
 _atom_site_fract_z
 _atom_site_occupancy
  Dy  Dy0  1  0.938718  0.557364  0.564941  1
  Dy  Dy1  1  0.557364  0.938718  0.938977  1
  Dy  Dy2  1  0.557364  0.938718  0.564941  1
  Dy  Dy3  1  0.938718  0.557363  0.938977  1
  Dy  Dy4  1  0.562363  0.562363  0.937637  1
  Dy  Dy5  1  0.940043  0.940043  0.559956  1
  Lu  Lu6  1  0.349639  0.349639  0.351094  1
  Lu  Lu7  1  0.349639  0.349639  0.949630  1
  Lu  Lu8  1  0.347004  0.955326  0.348836  1
  Lu  Lu9  1  0.955326  0.347004  0.348836  1
  Lu  Lu10  1  0.817475  0.185506  0.188081  1
  Lu  Lu11  1  0.185506  0.817475  0.808938  1
  Lu  Lu12  1  0.185506  0.817475  0.188081  1
  Lu  Lu13  1  0.817475  0.185506  0.808938  1
  Lu  Lu14  1  0.185929  0.185929  0.814071  1
  Lu  Lu15  1  0.810802  0.810802  0.189198  1
  Cd  Cd16  1  0.579199  0.579199  0.581243  1
  Cd  Cd17  1  0.579199  0.579199  0.260357  1
  Cd  Cd18  1  0.580045  0.256184  0.581885  1
  Cd  Cd19  1  0.256184  0.580045  0.581885  1
  Ru  Ru20  1  0.144154  0.144154  0.139366  1
  Ru  Ru21  1  0.144154  0.144154  0.572327  1
  Pt  Pt22  1  0.144351  0.573841  0.140904  1
  Pt  Pt23  1  0.573841  0.144351  0.140904  1
