# generated using pymatgen
data_BaV2PtO8
_symmetry_space_group_name_H-M   'P 1'
_cell_length_a   5.20405263
_cell_length_b   5.20405178
_cell_length_c   7.75799205
_cell_angle_alpha   93.24358472
_cell_angle_beta   93.24358850
_cell_angle_gamma   66.32411555
_symmetry_Int_Tables_number   1
_chemical_formula_structural   BaV2PtO8
_chemical_formula_sum   'Ba1 V2 Pt1 O8'
_cell_volume   191.97912577
_cell_formula_units_Z   1
loop_
 _symmetry_equiv_pos_site_id
 _symmetry_equiv_pos_as_xyz
  1  'x, y, z'
loop_
 _atom_site_type_symbol
 _atom_site_label
 _atom_site_symmetry_multiplicity
 _atom_site_fract_x
 _atom_site_fract_y
 _atom_site_fract_z
 _atom_site_occupancy
  Ba  Ba0  1  0.000000  0.000000  0.000000  1
  V  V1  1  0.627882  0.627882  0.298966  1
  V  V2  1  0.372118  0.372118  0.701035  1
  Pt  Pt3  1  0.000000  0.000000  0.500000  1
  O  O4  1  0.689929  0.689929  0.097155  1
  O  O5  1  0.770147  0.252505  0.310578  1
  O  O6  1  0.252505  0.770147  0.310578  1
  O  O7  1  0.773144  0.773144  0.461316  1
  O  O8  1  0.226857  0.226857  0.538685  1
  O  O9  1  0.747496  0.229854  0.689421  1
  O  O10  1  0.229854  0.747496  0.689421  1
  O  O11  1  0.310070  0.310070  0.902845  1
