# generated using pymatgen
data_Y9ErCd3Ni
_symmetry_space_group_name_H-M   'P 1'
_cell_length_a   9.62689500
_cell_length_b   9.62689507
_cell_length_c   9.78367800
_cell_angle_alpha   90.00000000
_cell_angle_beta   90.00000000
_cell_angle_gamma   119.99999632
_symmetry_Int_Tables_number   1
_chemical_formula_structural   Y9ErCd3Ni
_chemical_formula_sum   'Y18 Er2 Cd6 Ni2'
_cell_volume   785.24516647
_cell_formula_units_Z   2
loop_
 _symmetry_equiv_pos_site_id
 _symmetry_equiv_pos_as_xyz
  1  'x, y, z'
loop_
 _atom_site_type_symbol
 _atom_site_label
 _atom_site_symmetry_multiplicity
 _atom_site_fract_x
 _atom_site_fract_y
 _atom_site_fract_z
 _atom_site_occupancy
  Y  Y0  1  0.543375  0.456625  0.250000  1
  Y  Y1  1  0.543375  0.086750  0.250000  1
  Y  Y2  1  0.913250  0.456625  0.250000  1
  Y  Y3  1  0.456625  0.543375  0.750000  1
  Y  Y4  1  0.456625  0.913250  0.750000  1
  Y  Y5  1  0.086750  0.543375  0.750000  1
  Y  Y6  1  0.209683  0.790317  0.437007  1
  Y  Y7  1  0.209683  0.419366  0.437007  1
  Y  Y8  1  0.580634  0.790317  0.437007  1
  Y  Y9  1  0.790317  0.209683  0.562993  1
  Y  Y10  1  0.790317  0.580634  0.562993  1
  Y  Y11  1  0.419366  0.209683  0.562993  1
  Y  Y12  1  0.790317  0.209683  0.937007  1
  Y  Y13  1  0.790317  0.580634  0.937007  1
  Y  Y14  1  0.419366  0.209683  0.937007  1
  Y  Y15  1  0.209683  0.790317  0.062993  1
  Y  Y16  1  0.209683  0.419366  0.062993  1
  Y  Y17  1  0.580634  0.790317  0.062993  1
  Er  Er18  1  0.000000  0.000000  0.500000  1
  Er  Er19  1  0.000000  0.000000  0.000000  1
  Cd  Cd20  1  0.885334  0.114666  0.250000  1
  Cd  Cd21  1  0.885334  0.770668  0.250000  1
  Cd  Cd22  1  0.229332  0.114666  0.250000  1
  Cd  Cd23  1  0.114666  0.885334  0.750000  1
  Cd  Cd24  1  0.114666  0.229332  0.750000  1
  Cd  Cd25  1  0.770668  0.885334  0.750000  1
  Ni  Ni26  1  0.333333  0.666667  0.250000  1
  Ni  Ni27  1  0.666667  0.333333  0.750000  1
