# generated using pymatgen
data_Li3La4MgIr4
_symmetry_space_group_name_H-M   'P 1'
_cell_length_a   4.10336900
_cell_length_b   7.21647441
_cell_length_c   8.65622900
_cell_angle_alpha   90.14903403
_cell_angle_beta   90.00000000
_cell_angle_gamma   90.00000000
_symmetry_Int_Tables_number   1
_chemical_formula_structural   Li3La4MgIr4
_chemical_formula_sum   'Li3 La4 Mg1 Ir4'
_cell_volume   256.32615159
_cell_formula_units_Z   1
loop_
 _symmetry_equiv_pos_site_id
 _symmetry_equiv_pos_as_xyz
  1  'x, y, z'
loop_
 _atom_site_type_symbol
 _atom_site_label
 _atom_site_symmetry_multiplicity
 _atom_site_fract_x
 _atom_site_fract_y
 _atom_site_fract_z
 _atom_site_occupancy
  Li  Li0  1  0.250000  0.120096  0.948419  1
  Li  Li1  1  0.250000  0.626508  0.554668  1
  Li  Li2  1  0.750000  0.880897  0.048151  1
  La  La3  1  0.250000  0.044806  0.318974  1
  La  La4  1  0.250000  0.552808  0.174683  1
  La  La5  1  0.750000  0.947248  0.676287  1
  La  La6  1  0.750000  0.449685  0.826670  1
  Mg  Mg7  1  0.750000  0.379638  0.447194  1
  Ir  Ir8  1  0.250000  0.241518  0.627984  1
  Ir  Ir9  1  0.250000  0.737889  0.869399  1
  Ir  Ir10  1  0.750000  0.756839  0.371147  1
  Ir  Ir11  1  0.750000  0.262068  0.136424  1
