# generated using pymatgen
data_Ce4AlVOs6
_symmetry_space_group_name_H-M   'P 1'
_cell_length_a   5.14068400
_cell_length_b   5.14068464
_cell_length_c   9.16986100
_cell_angle_alpha   90.00000000
_cell_angle_beta   90.00000000
_cell_angle_gamma   113.74523019
_symmetry_Int_Tables_number   1
_chemical_formula_structural   Ce4AlVOs6
_chemical_formula_sum   'Ce4 Al1 V1 Os6'
_cell_volume   221.81424777
_cell_formula_units_Z   1
loop_
 _symmetry_equiv_pos_site_id
 _symmetry_equiv_pos_as_xyz
  1  'x, y, z'
loop_
 _atom_site_type_symbol
 _atom_site_label
 _atom_site_symmetry_multiplicity
 _atom_site_fract_x
 _atom_site_fract_y
 _atom_site_fract_z
 _atom_site_occupancy
  Ce  Ce0  1  0.330651  0.669349  0.432714  1
  Ce  Ce1  1  0.669077  0.330923  0.566575  1
  Ce  Ce2  1  0.669077  0.330923  0.933425  1
  Ce  Ce3  1  0.330651  0.669349  0.067286  1
  Al  Al4  1  0.833207  0.166793  0.250000  1
  V  V5  1  0.165342  0.834658  0.750000  1
  Os  Os6  1  0.007572  0.992428  0.501166  1
  Os  Os7  1  0.007572  0.992428  0.998834  1
  Os  Os8  1  0.823695  0.661429  0.250000  1
  Os  Os9  1  0.338571  0.176305  0.250000  1
  Os  Os10  1  0.168926  0.344341  0.750000  1
  Os  Os11  1  0.655659  0.831074  0.750000  1
