# generated using pymatgen
data_Ce2Dy2TmRu2
_symmetry_space_group_name_H-M   'P 1'
_cell_length_a   6.37712049
_cell_length_b   7.01427987
_cell_length_c   8.80030027
_cell_angle_alpha   95.57793517
_cell_angle_beta   111.24299520
_cell_angle_gamma   90.00000246
_symmetry_Int_Tables_number   1
_chemical_formula_structural   Ce2Dy2TmRu2
_chemical_formula_sum   'Ce4 Dy4 Tm2 Ru4'
_cell_volume   364.89751666
_cell_formula_units_Z   2
loop_
 _symmetry_equiv_pos_site_id
 _symmetry_equiv_pos_as_xyz
  1  'x, y, z'
loop_
 _atom_site_type_symbol
 _atom_site_label
 _atom_site_symmetry_multiplicity
 _atom_site_fract_x
 _atom_site_fract_y
 _atom_site_fract_z
 _atom_site_occupancy
  Ce  Ce0  1  0.790090  0.094883  0.810586  1
  Ce  Ce1  1  0.979505  0.405117  0.189414  1
  Ce  Ce2  1  0.209910  0.905117  0.189414  1
  Ce  Ce3  1  0.020495  0.594883  0.810586  1
  Dy  Dy4  1  0.206972  0.185348  0.567385  1
  Dy  Dy5  1  0.639587  0.314652  0.432615  1
  Dy  Dy6  1  0.793028  0.814652  0.432615  1
  Dy  Dy7  1  0.360413  0.685348  0.567385  1
  Tm  Tm8  1  0.419451  0.250000  0.000000  1
  Tm  Tm9  1  0.580549  0.750000  0.000000  1
  Ru  Ru10  1  0.626522  0.406821  0.781108  1
  Ru  Ru11  1  0.845413  0.093179  0.218892  1
  Ru  Ru12  1  0.373478  0.593179  0.218892  1
  Ru  Ru13  1  0.154587  0.906821  0.781108  1
