# generated using pymatgen
data_Nd5HoCd23P
_symmetry_space_group_name_H-M   'P 1'
_cell_length_a   10.06723856
_cell_length_b   10.06723897
_cell_length_c   9.94818400
_cell_angle_alpha   60.39043526
_cell_angle_beta   60.39043394
_cell_angle_gamma   59.21912693
_symmetry_Int_Tables_number   1
_chemical_formula_structural   Nd5HoCd23P
_chemical_formula_sum   'Nd5 Ho1 Cd23 P1'
_cell_volume   712.73725447
_cell_formula_units_Z   1
loop_
 _symmetry_equiv_pos_site_id
 _symmetry_equiv_pos_as_xyz
  1  'x, y, z'
loop_
 _atom_site_type_symbol
 _atom_site_label
 _atom_site_symmetry_multiplicity
 _atom_site_fract_x
 _atom_site_fract_y
 _atom_site_fract_z
 _atom_site_occupancy
  Nd  Nd0  1  0.204495  0.795483  0.204517  1
  Nd  Nd1  1  0.795483  0.204495  0.204517  1
  Nd  Nd2  1  0.198276  0.198276  0.801724  1
  Nd  Nd3  1  0.795483  0.204495  0.795505  1
  Nd  Nd4  1  0.204495  0.795483  0.795505  1
  Ho  Ho5  1  0.806243  0.806243  0.193757  1
  Cd  Cd6  1  0.835496  0.835496  0.493680  1
  Cd  Cd7  1  0.830374  0.499348  0.835138  1
  Cd  Cd8  1  0.499348  0.830374  0.835138  1
  Cd  Cd9  1  0.835496  0.835496  0.835327  1
  Cd  Cd10  1  0.164862  0.164862  0.500652  1
  Cd  Cd11  1  0.164673  0.506320  0.164504  1
  Cd  Cd12  1  0.506320  0.164673  0.164504  1
  Cd  Cd13  1  0.164862  0.164862  0.169626  1
  Cd  Cd14  1  0.624443  0.624443  0.137314  1
  Cd  Cd15  1  0.618954  0.133006  0.624020  1
  Cd  Cd16  1  0.133006  0.618954  0.624020  1
  Cd  Cd17  1  0.624443  0.624443  0.613799  1
  Cd  Cd18  1  0.375980  0.375980  0.866994  1
  Cd  Cd19  1  0.386201  0.862686  0.375557  1
  Cd  Cd20  1  0.862686  0.386201  0.375557  1
  Cd  Cd21  1  0.375980  0.375980  0.381046  1
  Cd  Cd22  1  0.999048  0.999048  0.500952  1
  Cd  Cd23  1  0.499995  0.999588  0.500005  1
  Cd  Cd24  1  0.999588  0.499995  0.500005  1
  Cd  Cd25  1  0.499048  0.499048  0.000952  1
  Cd  Cd26  1  0.999588  0.499995  0.000412  1
  Cd  Cd27  1  0.499995  0.999588  0.000412  1
  Cd  Cd28  1  0.497469  0.497469  0.502531  1
  P  P29  1  0.997669  0.997669  0.002331  1
