# generated using pymatgen
data_Ho4Zn28CuNi5
_symmetry_space_group_name_H-M   'P 1'
_cell_length_a   8.79954786
_cell_length_b   8.79954778
_cell_length_c   8.62679318
_cell_angle_alpha   89.94874328
_cell_angle_beta   90.05125751
_cell_angle_gamma   119.99668130
_symmetry_Int_Tables_number   1
_chemical_formula_structural   Ho4Zn28CuNi5
_chemical_formula_sum   'Ho4 Zn28 Cu1 Ni5'
_cell_volume   578.51552751
_cell_formula_units_Z   1
loop_
 _symmetry_equiv_pos_site_id
 _symmetry_equiv_pos_as_xyz
  1  'x, y, z'
loop_
 _atom_site_type_symbol
 _atom_site_label
 _atom_site_symmetry_multiplicity
 _atom_site_fract_x
 _atom_site_fract_y
 _atom_site_fract_z
 _atom_site_occupancy
  Ho  Ho0  1  0.000200  0.999800  0.749037  1
  Ho  Ho1  1  0.999800  0.000200  0.250963  1
  Ho  Ho2  1  0.667298  0.332702  0.248961  1
  Ho  Ho3  1  0.332702  0.667298  0.751039  1
  Zn  Zn4  1  0.668724  0.331276  0.594730  1
  Zn  Zn5  1  0.331276  0.668724  0.405270  1
  Zn  Zn6  1  0.333721  0.666279  0.094108  1
  Zn  Zn7  1  0.666279  0.333721  0.905892  1
  Zn  Zn8  1  0.663782  0.033266  0.750256  1
  Zn  Zn9  1  0.368707  0.334787  0.752318  1
  Zn  Zn10  1  0.965168  0.629122  0.749970  1
  Zn  Zn11  1  0.370878  0.034832  0.749970  1
  Zn  Zn12  1  0.966734  0.336218  0.750256  1
  Zn  Zn13  1  0.665213  0.631293  0.752318  1
  Zn  Zn14  1  0.336218  0.966734  0.249744  1
  Zn  Zn15  1  0.631293  0.665213  0.247682  1
  Zn  Zn16  1  0.034832  0.370878  0.250030  1
  Zn  Zn17  1  0.629122  0.965168  0.250030  1
  Zn  Zn18  1  0.033266  0.663782  0.249744  1
  Zn  Zn19  1  0.334787  0.368707  0.247682  1
  Zn  Zn20  1  0.835265  0.667454  0.481036  1
  Zn  Zn21  1  0.832163  0.167837  0.480409  1
  Zn  Zn22  1  0.332546  0.164735  0.481036  1
  Zn  Zn23  1  0.164735  0.332546  0.518964  1
  Zn  Zn24  1  0.167837  0.832163  0.519591  1
  Zn  Zn25  1  0.667454  0.835265  0.518964  1
  Zn  Zn26  1  0.166811  0.334586  0.980768  1
  Zn  Zn27  1  0.167398  0.832602  0.980967  1
  Zn  Zn28  1  0.665414  0.833189  0.980768  1
  Zn  Zn29  1  0.833189  0.665414  0.019232  1
  Zn  Zn30  1  0.832602  0.167398  0.019033  1
  Zn  Zn31  1  0.334586  0.166811  0.019232  1
  Cu  Cu32  1  0.500000  0.500000  0.500000  1
  Ni  Ni33  1  0.500000  0.000000  0.500000  1
  Ni  Ni34  1  0.000000  0.500000  0.500000  1
  Ni  Ni35  1  0.500000  0.000000  0.000000  1
  Ni  Ni36  1  0.500000  0.500000  0.000000  1
  Ni  Ni37  1  0.000000  0.500000  0.000000  1
