# generated using pymatgen
data_Co6GeMo6
_symmetry_space_group_name_H-M   'P 1'
_cell_length_a   8.92818185
_cell_length_b   8.92818168
_cell_length_c   8.92818280
_cell_angle_alpha   31.11900986
_cell_angle_beta   31.11901239
_cell_angle_gamma   31.11901086
_symmetry_Int_Tables_number   1
_chemical_formula_structural   Co6GeMo6
_chemical_formula_sum   'Co6 Ge1 Mo6'
_cell_volume   168.66431408
_cell_formula_units_Z   1
loop_
 _symmetry_equiv_pos_site_id
 _symmetry_equiv_pos_as_xyz
  1  'x, y, z'
loop_
 _atom_site_type_symbol
 _atom_site_label
 _atom_site_symmetry_multiplicity
 _atom_site_fract_x
 _atom_site_fract_y
 _atom_site_fract_z
 _atom_site_occupancy
  Co  Co0  1  0.090563  0.090563  0.584328  1
  Co  Co1  1  0.415672  0.909437  0.909437  1
  Co  Co2  1  0.584328  0.090563  0.090563  1
  Co  Co3  1  0.909437  0.909437  0.415672  1
  Co  Co4  1  0.909437  0.415672  0.909437  1
  Co  Co5  1  0.090563  0.584328  0.090563  1
  Ge  Ge6  1  0.000000  0.000000  0.000000  1
  Mo  Mo7  1  0.832102  0.832102  0.832102  1
  Mo  Mo8  1  0.651776  0.651776  0.651776  1
  Mo  Mo9  1  0.450972  0.450972  0.450972  1
  Mo  Mo10  1  0.549028  0.549028  0.549028  1
  Mo  Mo11  1  0.167898  0.167898  0.167898  1
  Mo  Mo12  1  0.348224  0.348224  0.348224  1
