# generated using pymatgen
data_Sc3PaSi6Ir7
_symmetry_space_group_name_H-M   'P 1'
_cell_length_a   7.00985879
_cell_length_b   7.05999248
_cell_length_c   7.05999204
_cell_angle_alpha   109.61241671
_cell_angle_beta   109.32868107
_cell_angle_gamma   109.32869149
_symmetry_Int_Tables_number   1
_chemical_formula_structural   Sc3PaSi6Ir7
_chemical_formula_sum   'Sc3 Pa1 Si6 Ir7'
_cell_volume   269.43989326
_cell_formula_units_Z   1
loop_
 _symmetry_equiv_pos_site_id
 _symmetry_equiv_pos_as_xyz
  1  'x, y, z'
loop_
 _atom_site_type_symbol
 _atom_site_label
 _atom_site_symmetry_multiplicity
 _atom_site_fract_x
 _atom_site_fract_y
 _atom_site_fract_z
 _atom_site_occupancy
  Sc  Sc0  1  0.000000  0.000000  0.500000  1
  Sc  Sc1  1  0.000000  0.500000  0.000000  1
  Sc  Sc2  1  0.500000  0.500000  0.500000  1
  Pa  Pa3  1  0.500000  0.000000  0.000000  1
  Si  Si4  1  0.685790  0.675899  0.999988  1
  Si  Si5  1  0.314210  0.000012  0.324101  1
  Si  Si6  1  0.009886  0.324079  0.324079  1
  Si  Si7  1  0.314210  0.324101  0.000012  1
  Si  Si8  1  0.685790  0.999988  0.675899  1
  Si  Si9  1  0.990114  0.675921  0.675921  1
  Ir  Ir10  1  0.750061  0.250077  0.500088  1
  Ir  Ir11  1  0.750061  0.500088  0.250077  1
  Ir  Ir12  1  0.500000  0.250037  0.749963  1
  Ir  Ir13  1  0.249939  0.499912  0.749923  1
  Ir  Ir14  1  0.249939  0.749923  0.499912  1
  Ir  Ir15  1  0.500000  0.749963  0.250037  1
  Ir  Ir16  1  0.000000  0.000000  0.000000  1
