# generated using pymatgen
data_Pr8Mg6Zn2Ir7Rh
_symmetry_space_group_name_H-M   'P 1'
_cell_length_a   4.17929400
_cell_length_b   7.48208236
_cell_length_c   16.87375211
_cell_angle_alpha   89.96902532
_cell_angle_beta   90.00000000
_cell_angle_gamma   90.00000000
_symmetry_Int_Tables_number   1
_chemical_formula_structural   Pr8Mg6Zn2Ir7Rh
_chemical_formula_sum   'Pr8 Mg6 Zn2 Ir7 Rh1'
_cell_volume   527.63914649
_cell_formula_units_Z   1
loop_
 _symmetry_equiv_pos_site_id
 _symmetry_equiv_pos_as_xyz
  1  'x, y, z'
loop_
 _atom_site_type_symbol
 _atom_site_label
 _atom_site_symmetry_multiplicity
 _atom_site_fract_x
 _atom_site_fract_y
 _atom_site_fract_z
 _atom_site_occupancy
  Pr  Pr0  1  0.750000  0.447996  0.212338  1
  Pr  Pr1  1  0.750000  0.961280  0.278519  1
  Pr  Pr2  1  0.750000  0.837769  0.063839  1
  Pr  Pr3  1  0.250000  0.045929  0.717780  1
  Pr  Pr4  1  0.250000  0.162374  0.942037  1
  Pr  Pr5  1  0.250000  0.545955  0.785213  1
  Pr  Pr6  1  0.750000  0.340631  0.436781  1
  Pr  Pr7  1  0.250000  0.659881  0.561691  1
  Mg  Mg8  1  0.250000  0.996525  0.434282  1
  Mg  Mg9  1  0.750000  0.502427  0.940496  1
  Mg  Mg10  1  0.750000  0.003309  0.563817  1
  Mg  Mg11  1  0.250000  0.628346  0.348065  1
  Mg  Mg12  1  0.750000  0.371800  0.650614  1
  Mg  Mg13  1  0.750000  0.872344  0.851848  1
  Zn  Zn14  1  0.250000  0.497337  0.062316  1
  Zn  Zn15  1  0.250000  0.128298  0.148009  1
  Ir  Ir16  1  0.250000  0.245216  0.561418  1
  Ir  Ir17  1  0.750000  0.255955  0.064674  1
  Ir  Ir18  1  0.250000  0.248333  0.308834  1
  Ir  Ir19  1  0.750000  0.250072  0.813155  1
  Ir  Ir20  1  0.250000  0.743864  0.941059  1
  Ir  Ir21  1  0.750000  0.750070  0.689432  1
  Ir  Ir22  1  0.750000  0.755826  0.436880  1
  Rh  Rh23  1  0.250000  0.748465  0.186906  1
