# generated using pymatgen
data_La10Al4GeI8
_symmetry_space_group_name_H-M   'P 1'
_cell_length_a   10.17169114
_cell_length_b   10.17169076
_cell_length_c   18.17551108
_cell_angle_alpha   84.03868181
_cell_angle_beta   84.03868134
_cell_angle_gamma   24.90609437
_symmetry_Int_Tables_number   1
_chemical_formula_structural   La10Al4GeI8
_chemical_formula_sum   'La10 Al4 Ge1 I8'
_cell_volume   787.44648893
_cell_formula_units_Z   1
loop_
 _symmetry_equiv_pos_site_id
 _symmetry_equiv_pos_as_xyz
  1  'x, y, z'
loop_
 _atom_site_type_symbol
 _atom_site_label
 _atom_site_symmetry_multiplicity
 _atom_site_fract_x
 _atom_site_fract_y
 _atom_site_fract_z
 _atom_site_occupancy
  La  La0  1  0.870871  0.870871  0.325240  1
  La  La1  1  0.129129  0.129129  0.674760  1
  La  La2  1  0.537687  0.537687  0.390076  1
  La  La3  1  0.462313  0.462313  0.609924  1
  La  La4  1  0.514906  0.514906  0.108129  1
  La  La5  1  0.485094  0.485094  0.891871  1
  La  La6  1  0.789992  0.789992  0.566548  1
  La  La7  1  0.210008  0.210008  0.433452  1
  La  La8  1  0.854173  0.854173  0.043410  1
  La  La9  1  0.145827  0.145827  0.956590  1
  Al  Al10  1  0.938927  0.938927  0.480921  1
  Al  Al11  1  0.061073  0.061073  0.519079  1
  Al  Al12  1  0.627417  0.627417  0.547197  1
  Al  Al13  1  0.372583  0.372583  0.452803  1
  Ge  Ge14  1  0.000000  0.000000  0.000000  1
  I  I15  1  0.353877  0.353877  0.180377  1
  I  I16  1  0.646123  0.646123  0.819623  1
  I  I17  1  0.968471  0.968471  0.750512  1
  I  I18  1  0.031529  0.031529  0.249488  1
  I  I19  1  0.703249  0.703249  0.300995  1
  I  I20  1  0.296751  0.296751  0.699005  1
  I  I21  1  0.681457  0.681457  0.081783  1
  I  I22  1  0.318543  0.318543  0.918217  1
