# generated using pymatgen
data_Nd3TaZn2Ir3
_symmetry_space_group_name_H-M   'P 1'
_cell_length_a   7.23193244
_cell_length_b   7.04963534
_cell_length_c   4.28759800
_cell_angle_alpha   90.00000000
_cell_angle_beta   90.00000000
_cell_angle_gamma   119.16958211
_symmetry_Int_Tables_number   1
_chemical_formula_structural   Nd3TaZn2Ir3
_chemical_formula_sum   'Nd3 Ta1 Zn2 Ir3'
_cell_volume   190.87072692
_cell_formula_units_Z   1
loop_
 _symmetry_equiv_pos_site_id
 _symmetry_equiv_pos_as_xyz
  1  'x, y, z'
loop_
 _atom_site_type_symbol
 _atom_site_label
 _atom_site_symmetry_multiplicity
 _atom_site_fract_x
 _atom_site_fract_y
 _atom_site_fract_z
 _atom_site_occupancy
  Nd  Nd0  1  0.568845  0.581539  0.000000  1
  Nd  Nd1  1  0.431155  0.012693  0.000000  1
  Nd  Nd2  1  0.000000  0.392785  0.000000  1
  Ta  Ta3  1  0.000000  0.762705  0.500000  1
  Zn  Zn4  1  0.238244  0.239282  0.500000  1
  Zn  Zn5  1  0.761756  0.001038  0.500000  1
  Ir  Ir6  1  0.000000  0.966122  0.000000  1
  Ir  Ir7  1  0.687036  0.365436  0.500000  1
  Ir  Ir8  1  0.312964  0.678401  0.500000  1
