# generated using pymatgen
data_TbLu7Hg4
_symmetry_space_group_name_H-M   'P 1'
_cell_length_a   5.04867200
_cell_length_b   6.84111040
_cell_length_c   9.11309073
_cell_angle_alpha   90.06316049
_cell_angle_beta   90.00000000
_cell_angle_gamma   90.00000000
_symmetry_Int_Tables_number   1
_chemical_formula_structural   TbLu7Hg4
_chemical_formula_sum   'Tb1 Lu7 Hg4'
_cell_volume   314.75249829
_cell_formula_units_Z   1
loop_
 _symmetry_equiv_pos_site_id
 _symmetry_equiv_pos_as_xyz
  1  'x, y, z'
loop_
 _atom_site_type_symbol
 _atom_site_label
 _atom_site_symmetry_multiplicity
 _atom_site_fract_x
 _atom_site_fract_y
 _atom_site_fract_z
 _atom_site_occupancy
  Tb  Tb0  1  0.750000  0.328883  0.925249  1
  Lu  Lu1  1  0.250000  0.015230  0.802696  1
  Lu  Lu2  1  0.250000  0.518299  0.693351  1
  Lu  Lu3  1  0.750000  0.980951  0.198987  1
  Lu  Lu4  1  0.750000  0.482991  0.304398  1
  Lu  Lu5  1  0.250000  0.167390  0.427267  1
  Lu  Lu6  1  0.250000  0.671370  0.073983  1
  Lu  Lu7  1  0.750000  0.830586  0.574636  1
  Hg  Hg8  1  0.250000  0.733033  0.397538  1
  Hg  Hg9  1  0.250000  0.231122  0.106348  1
  Hg  Hg10  1  0.750000  0.266320  0.596666  1
  Hg  Hg11  1  0.750000  0.773827  0.898881  1
