# generated using pymatgen
data_Zr10InAg(BiPb)3
_symmetry_space_group_name_H-M   'P 1'
_cell_length_a   8.94005700
_cell_length_b   8.94005607
_cell_length_c   6.00561500
_cell_angle_alpha   90.00003447
_cell_angle_beta   90.00003831
_cell_angle_gamma   119.99912413
_symmetry_Int_Tables_number   1
_chemical_formula_structural   Zr10InAg(BiPb)3
_chemical_formula_sum   'Zr10 In1 Ag1 Bi3 Pb3'
_cell_volume   415.69278109
_cell_formula_units_Z   1
loop_
 _symmetry_equiv_pos_site_id
 _symmetry_equiv_pos_as_xyz
  1  'x, y, z'
loop_
 _atom_site_type_symbol
 _atom_site_label
 _atom_site_symmetry_multiplicity
 _atom_site_fract_x
 _atom_site_fract_y
 _atom_site_fract_z
 _atom_site_occupancy
  Zr  Zr0  1  0.666670  0.333334  0.002021  1
  Zr  Zr1  1  0.333332  0.666668  0.002021  1
  Zr  Zr2  1  0.333332  0.666668  0.498072  1
  Zr  Zr3  1  0.666670  0.333334  0.498072  1
  Zr  Zr4  1  0.722293  0.722294  0.749646  1
  Zr  Zr5  1  0.277695  0.999988  0.749646  1
  Zr  Zr6  1  0.999990  0.277694  0.749646  1
  Zr  Zr7  1  0.279378  0.279378  0.250175  1
  Zr  Zr8  1  0.720631  0.000008  0.250174  1
  Zr  Zr9  1  0.000006  0.720630  0.250174  1
  In  In10  1  0.000001  0.000001  0.001858  1
  Ag  Ag11  1  0.999998  0.999998  0.497636  1
  Bi  Bi12  1  0.381997  0.381999  0.749631  1
  Bi  Bi13  1  0.617987  0.000012  0.749635  1
  Bi  Bi14  1  0.000011  0.617984  0.749635  1
  Pb  Pb15  1  0.620396  0.620396  0.250655  1
  Pb  Pb16  1  0.379615  0.999993  0.250652  1
  Pb  Pb17  1  0.999995  0.379619  0.250652  1
