# generated using pymatgen
data_Nd4Tm4Sc12Si15Hg
_symmetry_space_group_name_H-M   'P 1'
_cell_length_a   7.17583305
_cell_length_b   7.42968786
_cell_length_c   14.16919316
_cell_angle_alpha   90.03923581
_cell_angle_beta   89.70044746
_cell_angle_gamma   90.32022413
_symmetry_Int_Tables_number   1
_chemical_formula_structural   Nd4Tm4Sc12Si15Hg
_chemical_formula_sum   'Nd4 Tm4 Sc12 Si15 Hg1'
_cell_volume   755.39690891
_cell_formula_units_Z   1
loop_
 _symmetry_equiv_pos_site_id
 _symmetry_equiv_pos_as_xyz
  1  'x, y, z'
loop_
 _atom_site_type_symbol
 _atom_site_label
 _atom_site_symmetry_multiplicity
 _atom_site_fract_x
 _atom_site_fract_y
 _atom_site_fract_z
 _atom_site_occupancy
  Nd  Nd0  1  0.011236  0.173357  0.098373  1
  Nd  Nd1  1  0.987711  0.828665  0.904608  1
  Nd  Nd2  1  0.490016  0.672508  0.906660  1
  Nd  Nd3  1  0.988818  0.832670  0.594906  1
  Tm  Tm4  1  0.511202  0.323081  0.099690  1
  Tm  Tm5  1  0.007776  0.173430  0.395723  1
  Tm  Tm6  1  0.511180  0.321834  0.398888  1
  Tm  Tm7  1  0.496655  0.681943  0.599259  1
  Sc  Sc8  1  0.163013  0.500499  0.753149  1
  Sc  Sc9  1  0.836490  0.497578  0.250993  1
  Sc  Sc10  1  0.337686  0.001285  0.249801  1
  Sc  Sc11  1  0.664946  0.998954  0.750932  1
  Sc  Sc12  1  0.343070  0.169178  0.628096  1
  Sc  Sc13  1  0.663745  0.823300  0.372640  1
  Sc  Sc14  1  0.168655  0.676220  0.370779  1
  Sc  Sc15  1  0.668449  0.823736  0.126734  1
  Sc  Sc16  1  0.824840  0.325193  0.624019  1
  Sc  Sc17  1  0.331373  0.176410  0.875534  1
  Sc  Sc18  1  0.828023  0.324881  0.875873  1
  Sc  Sc19  1  0.170413  0.673956  0.126540  1
  Si  Si20  1  0.036421  0.127163  0.750550  1
  Si  Si21  1  0.964506  0.880599  0.250563  1
  Si  Si22  1  0.466889  0.613665  0.248992  1
  Si  Si23  1  0.534633  0.382885  0.750117  1
  Si  Si24  1  0.289271  0.875926  0.749047  1
  Si  Si25  1  0.709059  0.127844  0.250870  1
  Si  Si26  1  0.215970  0.372417  0.250534  1
  Si  Si27  1  0.786832  0.622617  0.749400  1
  Si  Si28  1  0.831015  0.533276  0.456829  1
  Si  Si29  1  0.341504  0.964714  0.458247  1
  Si  Si30  1  0.841285  0.534408  0.041064  1
  Si  Si31  1  0.652896  0.039092  0.535228  1
  Si  Si32  1  0.152255  0.462284  0.962763  1
  Si  Si33  1  0.651777  0.042440  0.963478  1
  Si  Si34  1  0.348539  0.967386  0.041729  1
  Hg  Hg35  1  0.171852  0.454607  0.537391  1
