# generated using pymatgen
data_Sr9Yb3(DySi2)8
_symmetry_space_group_name_H-M   'P 1'
_cell_length_a   7.60131600
_cell_length_b   8.00040000
_cell_length_c   15.48795400
_cell_angle_alpha   90.00000000
_cell_angle_beta   90.00000000
_cell_angle_gamma   90.00312001
_symmetry_Int_Tables_number   1
_chemical_formula_structural   Sr9Yb3(DySi2)8
_chemical_formula_sum   'Sr9 Yb3 Dy8 Si16'
_cell_volume   941.87775121
_cell_formula_units_Z   1
loop_
 _symmetry_equiv_pos_site_id
 _symmetry_equiv_pos_as_xyz
  1  'x, y, z'
loop_
 _atom_site_type_symbol
 _atom_site_label
 _atom_site_symmetry_multiplicity
 _atom_site_fract_x
 _atom_site_fract_y
 _atom_site_fract_z
 _atom_site_occupancy
  Sr  Sr0  1  0.974941  0.821432  0.402326  1
  Sr  Sr1  1  0.474538  0.678644  0.098052  1
  Sr  Sr2  1  0.526369  0.324025  0.595423  1
  Sr  Sr3  1  0.022345  0.178756  0.905378  1
  Sr  Sr4  1  0.022345  0.178756  0.594622  1
  Sr  Sr5  1  0.526369  0.324025  0.904577  1
  Sr  Sr6  1  0.474538  0.678644  0.401948  1
  Sr  Sr7  1  0.974941  0.821432  0.097674  1
  Sr  Sr8  1  0.350595  0.022631  0.750000  1
  Yb  Yb9  1  0.854741  0.484111  0.750000  1
  Yb  Yb10  1  0.145155  0.513942  0.250000  1
  Yb  Yb11  1  0.645390  0.985684  0.250000  1
  Dy  Dy12  1  0.315795  0.178395  0.122130  1
  Dy  Dy13  1  0.815714  0.321261  0.377778  1
  Dy  Dy14  1  0.183974  0.676863  0.879251  1
  Dy  Dy15  1  0.685076  0.820035  0.621001  1
  Dy  Dy16  1  0.315795  0.178395  0.377870  1
  Dy  Dy17  1  0.815714  0.321261  0.122222  1
  Dy  Dy18  1  0.183974  0.676863  0.620749  1
  Dy  Dy19  1  0.685076  0.820035  0.878999  1
  Si  Si20  1  0.863357  0.537538  0.537095  1
  Si  Si21  1  0.362957  0.961514  0.964120  1
  Si  Si22  1  0.637440  0.037783  0.461454  1
  Si  Si23  1  0.137288  0.462324  0.038778  1
  Si  Si24  1  0.137288  0.462324  0.461222  1
  Si  Si25  1  0.637440  0.037783  0.038546  1
  Si  Si26  1  0.362957  0.961514  0.535880  1
  Si  Si27  1  0.863357  0.537538  0.962905  1
  Si  Si28  1  0.970011  0.867662  0.750000  1
  Si  Si29  1  0.477249  0.622054  0.750000  1
  Si  Si30  1  0.525720  0.376112  0.250000  1
  Si  Si31  1  0.025547  0.123555  0.250000  1
  Si  Si32  1  0.244194  0.412546  0.750000  1
  Si  Si33  1  0.755340  0.094746  0.750000  1
  Si  Si34  1  0.253204  0.906067  0.250000  1
  Si  Si35  1  0.753266  0.593750  0.250000  1
