# generated using pymatgen
data_Tm12Fe4CoBi
_symmetry_space_group_name_H-M   'P 1'
_cell_length_a   8.20208386
_cell_length_b   8.20206363
_cell_length_c   8.20208434
_cell_angle_alpha   111.28090314
_cell_angle_beta   110.78861324
_cell_angle_gamma   106.38794915
_symmetry_Int_Tables_number   1
_chemical_formula_structural   Tm12Fe4CoBi
_chemical_formula_sum   'Tm12 Fe4 Co1 Bi1'
_cell_volume   423.84091125
_cell_formula_units_Z   1
loop_
 _symmetry_equiv_pos_site_id
 _symmetry_equiv_pos_as_xyz
  1  'x, y, z'
loop_
 _atom_site_type_symbol
 _atom_site_label
 _atom_site_symmetry_multiplicity
 _atom_site_fract_x
 _atom_site_fract_y
 _atom_site_fract_z
 _atom_site_occupancy
  Tm  Tm0  1  0.283487  0.183898  0.467386  1
  Tm  Tm1  1  0.716513  0.816102  0.532614  1
  Tm  Tm2  1  0.283488  0.816102  0.099590  1
  Tm  Tm3  1  0.716512  0.183898  0.900410  1
  Tm  Tm4  1  0.615520  0.309525  0.305996  1
  Tm  Tm5  1  0.384480  0.690475  0.694004  1
  Tm  Tm6  1  0.003530  0.309525  0.694005  1
  Tm  Tm7  1  0.996470  0.690475  0.305995  1
  Tm  Tm8  1  0.209629  0.405901  0.196272  1
  Tm  Tm9  1  0.790371  0.594099  0.803728  1
  Tm  Tm10  1  0.209628  0.013354  0.803727  1
  Tm  Tm11  1  0.790372  0.986646  0.196273  1
  Fe  Fe12  1  0.000001  0.383257  0.383256  1
  Fe  Fe13  1  0.999999  0.616743  0.616744  1
  Fe  Fe14  1  0.392452  0.892452  0.500000  1
  Fe  Fe15  1  0.607548  0.107548  0.500000  1
  Co  Co16  1  0.000000  0.000000  0.000000  1
  Bi  Bi17  1  0.500000  0.500000  0.000000  1
