# generated using pymatgen
data_La4YPb4
_symmetry_space_group_name_H-M   'P 1'
_cell_length_a   8.52691300
_cell_length_b   8.62677400
_cell_length_c   16.43301900
_cell_angle_alpha   90.00000000
_cell_angle_beta   90.00000000
_cell_angle_gamma   90.00000000
_symmetry_Int_Tables_number   1
_chemical_formula_structural   La4YPb4
_chemical_formula_sum   'La16 Y4 Pb16'
_cell_volume   1208.80879188
_cell_formula_units_Z   4
loop_
 _symmetry_equiv_pos_site_id
 _symmetry_equiv_pos_as_xyz
  1  'x, y, z'
loop_
 _atom_site_type_symbol
 _atom_site_label
 _atom_site_symmetry_multiplicity
 _atom_site_fract_x
 _atom_site_fract_y
 _atom_site_fract_z
 _atom_site_occupancy
  La  La0  1  0.879399  0.659120  0.117572  1
  La  La1  1  0.379399  0.840880  0.382428  1
  La  La2  1  0.620601  0.159120  0.882428  1
  La  La3  1  0.120601  0.340880  0.617572  1
  La  La4  1  0.120601  0.340880  0.882428  1
  La  La5  1  0.620601  0.159120  0.617572  1
  La  La6  1  0.379399  0.840880  0.117572  1
  La  La7  1  0.879399  0.659120  0.382428  1
  La  La8  1  0.028887  0.179348  0.100692  1
  La  La9  1  0.528887  0.320652  0.399308  1
  La  La10  1  0.471113  0.679348  0.899308  1
  La  La11  1  0.971113  0.820652  0.600692  1
  La  La12  1  0.971113  0.820652  0.899308  1
  La  La13  1  0.471113  0.679348  0.600692  1
  La  La14  1  0.528887  0.320652  0.100692  1
  La  La15  1  0.028887  0.179348  0.399308  1
  Y  Y16  1  0.711387  0.997077  0.250000  1
  Y  Y17  1  0.211387  0.502923  0.250000  1
  Y  Y18  1  0.788613  0.497077  0.750000  1
  Y  Y19  1  0.288613  0.002923  0.750000  1
  Pb  Pb20  1  0.074109  0.877808  0.250000  1
  Pb  Pb21  1  0.574109  0.622192  0.250000  1
  Pb  Pb22  1  0.425891  0.377808  0.750000  1
  Pb  Pb23  1  0.925891  0.122192  0.750000  1
  Pb  Pb24  1  0.837264  0.351592  0.250000  1
  Pb  Pb25  1  0.337264  0.148408  0.250000  1
  Pb  Pb26  1  0.662736  0.851592  0.750000  1
  Pb  Pb27  1  0.162736  0.648408  0.750000  1
  Pb  Pb28  1  0.779653  0.468822  0.954698  1
  Pb  Pb29  1  0.279653  0.031178  0.545302  1
  Pb  Pb30  1  0.720347  0.968822  0.045302  1
  Pb  Pb31  1  0.220347  0.531178  0.454698  1
  Pb  Pb32  1  0.220347  0.531178  0.045302  1
  Pb  Pb33  1  0.720347  0.968822  0.454698  1
  Pb  Pb34  1  0.279653  0.031178  0.954698  1
  Pb  Pb35  1  0.779653  0.468822  0.545302  1
