# generated using pymatgen
data_YbGaSnPd
_symmetry_space_group_name_H-M   'P 1'
_cell_length_a   5.74822323
_cell_length_b   5.74822372
_cell_length_c   7.03967800
_cell_angle_alpha   90.00000000
_cell_angle_beta   90.00000000
_cell_angle_gamma   133.76045097
_symmetry_Int_Tables_number   1
_chemical_formula_structural   YbGaSnPd
_chemical_formula_sum   'Yb2 Ga2 Sn2 Pd2'
_cell_volume   167.99652819
_cell_formula_units_Z   2
loop_
 _symmetry_equiv_pos_site_id
 _symmetry_equiv_pos_as_xyz
  1  'x, y, z'
loop_
 _atom_site_type_symbol
 _atom_site_label
 _atom_site_symmetry_multiplicity
 _atom_site_fract_x
 _atom_site_fract_y
 _atom_site_fract_z
 _atom_site_occupancy
  Yb  Yb0  1  0.580325  0.419675  0.239733  1
  Yb  Yb1  1  0.419675  0.580325  0.739733  1
  Ga  Ga2  1  0.143512  0.856488  0.952224  1
  Ga  Ga3  1  0.856488  0.143512  0.452224  1
  Sn  Sn4  1  0.872384  0.127616  0.053028  1
  Sn  Sn5  1  0.127616  0.872384  0.553028  1
  Pd  Pd6  1  0.296628  0.703372  0.255014  1
  Pd  Pd7  1  0.703372  0.296628  0.755014  1
