# generated using pymatgen
data_Tb(Th2Ir)3
_symmetry_space_group_name_H-M   'P 1'
_cell_length_a   10.02187600
_cell_length_b   10.04594493
_cell_length_c   6.33262878
_cell_angle_alpha   90.33843074
_cell_angle_beta   90.00000000
_cell_angle_gamma   119.92077636
_symmetry_Int_Tables_number   1
_chemical_formula_structural   Tb(Th2Ir)3
_chemical_formula_sum   'Tb2 Th12 Ir6'
_cell_volume   552.57412291
_cell_formula_units_Z   2
loop_
 _symmetry_equiv_pos_site_id
 _symmetry_equiv_pos_as_xyz
  1  'x, y, z'
loop_
 _atom_site_type_symbol
 _atom_site_label
 _atom_site_symmetry_multiplicity
 _atom_site_fract_x
 _atom_site_fract_y
 _atom_site_fract_z
 _atom_site_occupancy
  Tb  Tb0  1  0.458906  0.539401  0.295711  1
  Tb  Tb1  1  0.080494  0.539401  0.295711  1
  Th  Th2  1  0.915966  0.458232  0.796863  1
  Th  Th3  1  0.255141  0.129348  0.499157  1
  Th  Th4  1  0.542016  0.084032  0.793934  1
  Th  Th5  1  0.744750  0.872740  0.000633  1
  Th  Th6  1  0.666319  0.332636  0.306537  1
  Th  Th7  1  0.127990  0.872740  0.000633  1
  Th  Th8  1  0.456574  0.913148  0.292611  1
  Th  Th9  1  0.542267  0.458232  0.796863  1
  Th  Th10  1  0.874206  0.129348  0.499157  1
  Th  Th11  1  0.127955  0.255911  0.000007  1
  Th  Th12  1  0.871203  0.742406  0.497162  1
  Th  Th13  1  0.333032  0.666066  0.784122  1
  Ir  Ir14  1  0.811788  0.623576  0.053169  1
  Ir  Ir15  1  0.812789  0.188763  0.054220  1
  Ir  Ir16  1  0.626591  0.816049  0.552835  1
  Ir  Ir17  1  0.375974  0.188763  0.054220  1
  Ir  Ir18  1  0.186580  0.373159  0.557620  1
  Ir  Ir19  1  0.189458  0.816049  0.552835  1
