# generated using pymatgen
data_Y5Co16(P4Os)3
_symmetry_space_group_name_H-M   'P 1'
_cell_length_a   12.02900500
_cell_length_b   12.02900533
_cell_length_c   3.72842000
_cell_angle_alpha   90.00000000
_cell_angle_beta   90.00000000
_cell_angle_gamma   120.00000185
_symmetry_Int_Tables_number   1
_chemical_formula_structural   Y5Co16(P4Os)3
_chemical_formula_sum   'Y5 Co16 P12 Os3'
_cell_volume   467.21295351
_cell_formula_units_Z   1
loop_
 _symmetry_equiv_pos_site_id
 _symmetry_equiv_pos_as_xyz
  1  'x, y, z'
loop_
 _atom_site_type_symbol
 _atom_site_label
 _atom_site_symmetry_multiplicity
 _atom_site_fract_x
 _atom_site_fract_y
 _atom_site_fract_z
 _atom_site_occupancy
  Y  Y0  1  0.666667  0.333333  0.000000  1
  Y  Y1  1  0.333333  0.666667  0.000000  1
  Y  Y2  1  0.815361  0.815361  0.500000  1
  Y  Y3  1  0.184639  0.000000  0.500000  1
  Y  Y4  1  0.000000  0.184639  0.500000  1
  Co  Co5  1  0.874395  0.359163  0.500000  1
  Co  Co6  1  0.640837  0.515232  0.500000  1
  Co  Co7  1  0.484768  0.125605  0.500000  1
  Co  Co8  1  0.359163  0.874395  0.500000  1
  Co  Co9  1  0.515232  0.640837  0.500000  1
  Co  Co10  1  0.125605  0.484768  0.500000  1
  Co  Co11  1  0.803395  0.179821  0.000000  1
  Co  Co12  1  0.820179  0.623573  0.000000  1
  Co  Co13  1  0.376427  0.196605  0.000000  1
  Co  Co14  1  0.179821  0.803395  0.000000  1
  Co  Co15  1  0.623573  0.820179  0.000000  1
  Co  Co16  1  0.196605  0.376427  0.000000  1
  Co  Co17  1  0.283649  0.283649  0.500000  1
  Co  Co18  1  0.716351  0.000000  0.500000  1
  Co  Co19  1  0.000000  0.716351  0.500000  1
  Co  Co20  1  0.000000  0.000000  0.000000  1
  P  P21  1  0.687601  0.166048  0.500000  1
  P  P22  1  0.833952  0.521553  0.500000  1
  P  P23  1  0.478447  0.312399  0.500000  1
  P  P24  1  0.166048  0.687601  0.500000  1
  P  P25  1  0.521553  0.833952  0.500000  1
  P  P26  1  0.312399  0.478447  0.500000  1
  P  P27  1  0.179402  0.179402  0.000000  1
  P  P28  1  0.820598  0.000000  0.000000  1
  P  P29  1  0.000000  0.820598  0.000000  1
  P  P30  1  0.637369  0.637369  0.000000  1
  P  P31  1  0.362631  0.000000  0.000000  1
  P  P32  1  0.000000  0.362631  0.000000  1
  Os  Os33  1  0.446245  0.446245  0.000000  1
  Os  Os34  1  0.553755  0.000000  0.000000  1
  Os  Os35  1  0.000000  0.553755  0.000000  1
