# generated using pymatgen
data_Pr16Tm4Si15Tc
_symmetry_space_group_name_H-M   'P 1'
_cell_length_a   7.87508243
_cell_length_b   7.82817155
_cell_length_c   15.09665067
_cell_angle_alpha   90.23335293
_cell_angle_beta   89.93293760
_cell_angle_gamma   90.07169358
_symmetry_Int_Tables_number   1
_chemical_formula_structural   Pr16Tm4Si15Tc
_chemical_formula_sum   'Pr16 Tm4 Si15 Tc1'
_cell_volume   930.66163630
_cell_formula_units_Z   1
loop_
 _symmetry_equiv_pos_site_id
 _symmetry_equiv_pos_as_xyz
  1  'x, y, z'
loop_
 _atom_site_type_symbol
 _atom_site_label
 _atom_site_symmetry_multiplicity
 _atom_site_fract_x
 _atom_site_fract_y
 _atom_site_fract_z
 _atom_site_occupancy
  Pr  Pr0  1  0.370625  0.012613  0.451923  1
  Pr  Pr1  1  0.485031  0.879636  0.698039  1
  Pr  Pr2  1  0.512025  0.124531  0.199401  1
  Pr  Pr3  1  0.875798  0.487690  0.301344  1
  Pr  Pr4  1  0.128410  0.500615  0.796944  1
  Pr  Pr5  1  0.626443  0.987438  0.948707  1
  Pr  Pr6  1  0.007578  0.377938  0.551420  1
  Pr  Pr7  1  0.988299  0.625935  0.051131  1
  Pr  Pr8  1  0.131807  0.983262  0.871600  1
  Pr  Pr9  1  0.519417  0.629842  0.127283  1
  Pr  Pr10  1  0.470901  0.361318  0.630696  1
  Pr  Pr11  1  0.628842  0.518144  0.873814  1
  Pr  Pr12  1  0.374835  0.481332  0.372868  1
  Pr  Pr13  1  0.874064  0.022738  0.377772  1
  Pr  Pr14  1  0.980099  0.126911  0.123205  1
  Pr  Pr15  1  0.026779  0.881942  0.626743  1
  Tm  Tm16  1  0.310566  0.308648  0.998478  1
  Tm  Tm17  1  0.188255  0.810639  0.251062  1
  Tm  Tm18  1  0.821853  0.189870  0.747711  1
  Tm  Tm19  1  0.691575  0.689758  0.502494  1
  Si  Si20  1  0.329995  0.689032  0.953591  1
  Si  Si21  1  0.665749  0.306408  0.454793  1
  Si  Si22  1  0.692908  0.331363  0.047423  1
  Si  Si23  1  0.308584  0.669234  0.545050  1
  Si  Si24  1  0.810622  0.829991  0.206165  1
  Si  Si25  1  0.170688  0.191368  0.295009  1
  Si  Si26  1  0.829121  0.807004  0.796434  1
  Si  Si27  1  0.287376  0.923212  0.062063  1
  Si  Si28  1  0.578489  0.786692  0.314496  1
  Si  Si29  1  0.424550  0.211462  0.816090  1
  Si  Si30  1  0.776727  0.582734  0.686698  1
  Si  Si31  1  0.212206  0.424497  0.186227  1
  Si  Si32  1  0.707457  0.072337  0.561845  1
  Si  Si33  1  0.923232  0.286022  0.937533  1
  Si  Si34  1  0.078516  0.716673  0.436911  1
  Tc  Tc35  1  0.190574  0.171165  0.697035  1
