# generated using pymatgen
data_CeHo4Al15
_symmetry_space_group_name_H-M   'P 1'
_cell_length_a   12.42154399
_cell_length_b   12.42154394
_cell_length_c   12.42154485
_cell_angle_alpha   28.62758763
_cell_angle_beta   28.62758980
_cell_angle_gamma   28.62758772
_symmetry_Int_Tables_number   1
_chemical_formula_structural   CeHo4Al15
_chemical_formula_sum   'Ce1 Ho4 Al15'
_cell_volume   388.92671064
_cell_formula_units_Z   1
loop_
 _symmetry_equiv_pos_site_id
 _symmetry_equiv_pos_as_xyz
  1  'x, y, z'
loop_
 _atom_site_type_symbol
 _atom_site_label
 _atom_site_symmetry_multiplicity
 _atom_site_fract_x
 _atom_site_fract_y
 _atom_site_fract_z
 _atom_site_occupancy
  Ce  Ce0  1  0.000000  0.000000  0.000000  1
  Ho  Ho1  1  0.599982  0.599982  0.599982  1
  Ho  Ho2  1  0.400018  0.400018  0.400018  1
  Ho  Ho3  1  0.869395  0.869395  0.869395  1
  Ho  Ho4  1  0.130605  0.130605  0.130605  1
  Al  Al5  1  0.566186  0.116943  0.116943  1
  Al  Al6  1  0.116943  0.566186  0.116943  1
  Al  Al7  1  0.116943  0.116943  0.566186  1
  Al  Al8  1  0.433814  0.883057  0.883057  1
  Al  Al9  1  0.883057  0.433814  0.883057  1
  Al  Al10  1  0.500000  0.500000  0.000000  1
  Al  Al11  1  0.500000  0.000000  0.500000  1
  Al  Al12  1  0.000000  0.500000  0.500000  1
  Al  Al13  1  0.636282  0.636282  0.129074  1
  Al  Al14  1  0.636282  0.129074  0.636282  1
  Al  Al15  1  0.129074  0.636282  0.636282  1
  Al  Al16  1  0.363718  0.363718  0.870926  1
  Al  Al17  1  0.363718  0.870926  0.363718  1
  Al  Al18  1  0.870926  0.363718  0.363718  1
  Al  Al19  1  0.883057  0.883057  0.433814  1
