# generated using pymatgen
data_Tm3LuTc3Ru5
_symmetry_space_group_name_H-M   'P 1'
_cell_length_a   5.24730532
_cell_length_b   5.24794803
_cell_length_c   8.95976310
_cell_angle_alpha   89.99332025
_cell_angle_beta   90.01743867
_cell_angle_gamma   119.99513309
_symmetry_Int_Tables_number   1
_chemical_formula_structural   Tm3LuTc3Ru5
_chemical_formula_sum   'Tm3 Lu1 Tc3 Ru5'
_cell_volume   213.68512714
_cell_formula_units_Z   1
loop_
 _symmetry_equiv_pos_site_id
 _symmetry_equiv_pos_as_xyz
  1  'x, y, z'
loop_
 _atom_site_type_symbol
 _atom_site_label
 _atom_site_symmetry_multiplicity
 _atom_site_fract_x
 _atom_site_fract_y
 _atom_site_fract_z
 _atom_site_occupancy
  Tm  Tm0  1  0.336534  0.668400  0.433265  1
  Tm  Tm1  1  0.670154  0.335124  0.564526  1
  Tm  Tm2  1  0.670336  0.335053  0.935806  1
  Lu  Lu3  1  0.336686  0.668260  0.066701  1
  Tc  Tc4  1  0.163737  0.336486  0.750580  1
  Tc  Tc5  1  0.163627  0.827158  0.750274  1
  Tc  Tc6  1  0.329314  0.164886  0.249355  1
  Ru  Ru7  1  0.817548  0.650422  0.249449  1
  Ru  Ru8  1  0.647737  0.823898  0.750484  1
  Ru  Ru9  1  0.023709  0.011529  0.001803  1
  Ru  Ru10  1  0.817195  0.166821  0.249396  1
  Ru  Ru11  1  0.023423  0.011964  0.498362  1
