# generated using pymatgen
data_Pa4Fe3Si2Ni3
_symmetry_space_group_name_H-M   'P 1'
_cell_length_a   5.11129100
_cell_length_b   5.11129077
_cell_length_c   8.03531900
_cell_angle_alpha   90.00000000
_cell_angle_beta   90.00000000
_cell_angle_gamma   119.89874854
_symmetry_Int_Tables_number   1
_chemical_formula_structural   Pa4Fe3Si2Ni3
_chemical_formula_sum   'Pa4 Fe3 Si2 Ni3'
_cell_volume   181.98565089
_cell_formula_units_Z   1
loop_
 _symmetry_equiv_pos_site_id
 _symmetry_equiv_pos_as_xyz
  1  'x, y, z'
loop_
 _atom_site_type_symbol
 _atom_site_label
 _atom_site_symmetry_multiplicity
 _atom_site_fract_x
 _atom_site_fract_y
 _atom_site_fract_z
 _atom_site_occupancy
  Pa  Pa0  1  0.666528  0.333472  0.077827  1
  Pa  Pa1  1  0.333445  0.666555  0.953060  1
  Pa  Pa2  1  0.333445  0.666555  0.546940  1
  Pa  Pa3  1  0.666528  0.333472  0.422173  1
  Fe  Fe4  1  0.163812  0.327813  0.250000  1
  Fe  Fe5  1  0.163899  0.836101  0.250000  1
  Fe  Fe6  1  0.672187  0.836188  0.250000  1
  Si  Si7  1  0.999949  0.000051  0.496436  1
  Si  Si8  1  0.999949  0.000051  0.003564  1
  Ni  Ni9  1  0.833995  0.667686  0.750000  1
  Ni  Ni10  1  0.833951  0.166049  0.750000  1
  Ni  Ni11  1  0.332314  0.166005  0.750000  1
