# generated using pymatgen
data_CeGd2(GaNi)3
_symmetry_space_group_name_H-M   'P 1'
_cell_length_a   7.10366600
_cell_length_b   7.06270474
_cell_length_c   3.80010100
_cell_angle_alpha   90.00000000
_cell_angle_beta   90.00000000
_cell_angle_gamma   120.19202787
_symmetry_Int_Tables_number   1
_chemical_formula_structural   CeGd2(GaNi)3
_chemical_formula_sum   'Ce1 Gd2 Ga3 Ni3'
_cell_volume   164.79185377
_cell_formula_units_Z   1
loop_
 _symmetry_equiv_pos_site_id
 _symmetry_equiv_pos_as_xyz
  1  'x, y, z'
loop_
 _atom_site_type_symbol
 _atom_site_label
 _atom_site_symmetry_multiplicity
 _atom_site_fract_x
 _atom_site_fract_y
 _atom_site_fract_z
 _atom_site_occupancy
  Ce  Ce0  1  0.581596  0.000000  0.500000  1
  Gd  Gd1  1  0.001179  0.585351  0.500000  1
  Gd  Gd2  1  0.415828  0.414649  0.500000  1
  Ga  Ga3  1  0.235944  0.000000  0.000000  1
  Ga  Ga4  1  0.758456  0.754871  0.000000  1
  Ga  Ga5  1  0.003585  0.245129  0.000000  1
  Ni  Ni6  1  0.663562  0.316486  0.000000  1
  Ni  Ni7  1  0.347075  0.683514  0.000000  1
  Ni  Ni8  1  0.992775  0.000000  0.500000  1
