# generated using pymatgen
data_Sc8CoBi4Pt
_symmetry_space_group_name_H-M   'P 1'
_cell_length_a   8.34285179
_cell_length_b   8.34294972
_cell_length_c   8.34318348
_cell_angle_alpha   96.16415535
_cell_angle_beta   96.16514768
_cell_angle_gamma   141.74289997
_symmetry_Int_Tables_number   1
_chemical_formula_structural   Sc8CoBi4Pt
_chemical_formula_sum   'Sc8 Co1 Bi4 Pt1'
_cell_volume   339.72001202
_cell_formula_units_Z   1
loop_
 _symmetry_equiv_pos_site_id
 _symmetry_equiv_pos_as_xyz
  1  'x, y, z'
loop_
 _atom_site_type_symbol
 _atom_site_label
 _atom_site_symmetry_multiplicity
 _atom_site_fract_x
 _atom_site_fract_y
 _atom_site_fract_z
 _atom_site_occupancy
  Sc  Sc0  1  0.703611  0.588002  0.277764  1
  Sc  Sc1  1  0.588017  0.310271  0.884423  1
  Sc  Sc2  1  0.074176  0.189755  0.277773  1
  Sc  Sc3  1  0.911982  0.796401  0.722246  1
  Sc  Sc4  1  0.189742  0.911992  0.115590  1
  Sc  Sc5  1  0.796393  0.074157  0.884386  1
  Sc  Sc6  1  0.310243  0.425825  0.722226  1
  Sc  Sc7  1  0.425830  0.703596  0.115597  1
  Co  Co8  1  0.750004  0.749990  0.999991  1
  Bi  Bi9  1  0.140892  0.640892  0.781787  1
  Bi  Bi10  1  0.359109  0.140891  0.499999  1
  Bi  Bi11  1  0.640896  0.859108  0.499997  1
  Bi  Bi12  1  0.859102  0.359104  0.218211  1
  Pt  Pt13  1  0.250003  0.250015  0.000008  1
