# generated using pymatgen
data_Ce3Al2NiPd2Au
_symmetry_space_group_name_H-M   'P 1'
_cell_length_a   7.10379126
_cell_length_b   7.25821352
_cell_length_c   4.13512600
_cell_angle_alpha   90.00000000
_cell_angle_beta   90.00000000
_cell_angle_gamma   120.72171780
_symmetry_Int_Tables_number   1
_chemical_formula_structural   Ce3Al2NiPd2Au
_chemical_formula_sum   'Ce3 Al2 Ni1 Pd2 Au1'
_cell_volume   183.28829713
_cell_formula_units_Z   1
loop_
 _symmetry_equiv_pos_site_id
 _symmetry_equiv_pos_as_xyz
  1  'x, y, z'
loop_
 _atom_site_type_symbol
 _atom_site_label
 _atom_site_symmetry_multiplicity
 _atom_site_fract_x
 _atom_site_fract_y
 _atom_site_fract_z
 _atom_site_occupancy
  Ce  Ce0  1  0.000000  0.587244  0.500000  1
  Ce  Ce1  1  0.398383  0.408581  0.500000  1
  Ce  Ce2  1  0.601617  0.010197  0.500000  1
  Al  Al3  1  0.772355  0.772497  0.000000  1
  Al  Al4  1  0.227645  0.000142  0.000000  1
  Ni  Ni5  1  0.000000  0.959890  0.500000  1
  Pd  Pd6  1  0.351975  0.691494  0.000000  1
  Pd  Pd7  1  0.648025  0.339519  0.000000  1
  Au  Au8  1  0.000000  0.230437  0.000000  1
