# generated using pymatgen
data_ScMnCo3NiP3
_symmetry_space_group_name_H-M   'P 1'
_cell_length_a   3.60425500
_cell_length_b   10.18530700
_cell_length_c   11.76468300
_cell_angle_alpha   90.00000000
_cell_angle_beta   90.00000000
_cell_angle_gamma   90.00000000
_symmetry_Int_Tables_number   1
_chemical_formula_structural   ScMnCo3NiP3
_chemical_formula_sum   'Sc4 Mn4 Co12 Ni4 P12'
_cell_volume   431.88673270
_cell_formula_units_Z   4
loop_
 _symmetry_equiv_pos_site_id
 _symmetry_equiv_pos_as_xyz
  1  'x, y, z'
loop_
 _atom_site_type_symbol
 _atom_site_label
 _atom_site_symmetry_multiplicity
 _atom_site_fract_x
 _atom_site_fract_y
 _atom_site_fract_z
 _atom_site_occupancy
  Sc  Sc0  1  0.250000  0.580112  0.707518  1
  Sc  Sc1  1  0.250000  0.919888  0.207518  1
  Sc  Sc2  1  0.750000  0.419888  0.292482  1
  Sc  Sc3  1  0.750000  0.080112  0.792482  1
  Mn  Mn4  1  0.250000  0.711432  0.988464  1
  Mn  Mn5  1  0.250000  0.788568  0.488464  1
  Mn  Mn6  1  0.750000  0.288568  0.011536  1
  Mn  Mn7  1  0.750000  0.211432  0.511536  1
  Co  Co8  1  0.250000  0.221344  0.176663  1
  Co  Co9  1  0.250000  0.278657  0.676663  1
  Co  Co10  1  0.750000  0.778657  0.823337  1
  Co  Co11  1  0.750000  0.721343  0.323337  1
  Co  Co12  1  0.250000  0.882952  0.698974  1
  Co  Co13  1  0.250000  0.617048  0.198974  1
  Co  Co14  1  0.750000  0.117048  0.301026  1
  Co  Co15  1  0.750000  0.382952  0.801026  1
  Co  Co16  1  0.250000  0.464827  0.931641  1
  Co  Co17  1  0.250000  0.035173  0.431641  1
  Co  Co18  1  0.750000  0.535173  0.068359  1
  Co  Co19  1  0.750000  0.964827  0.568359  1
  Ni  Ni20  1  0.250000  0.409111  0.483858  1
  Ni  Ni21  1  0.250000  0.090889  0.983858  1
  Ni  Ni22  1  0.750000  0.590889  0.516142  1
  Ni  Ni23  1  0.750000  0.909111  0.016142  1
  P  P24  1  0.250000  0.419367  0.114693  1
  P  P25  1  0.250000  0.080633  0.614693  1
  P  P26  1  0.750000  0.580633  0.885307  1
  P  P27  1  0.750000  0.919367  0.385307  1
  P  P28  1  0.250000  0.265686  0.864699  1
  P  P29  1  0.250000  0.234314  0.364699  1
  P  P30  1  0.750000  0.734314  0.135301  1
  P  P31  1  0.750000  0.765686  0.635301  1
  P  P32  1  0.250000  0.600689  0.386330  1
  P  P33  1  0.250000  0.899311  0.886330  1
  P  P34  1  0.750000  0.399311  0.613670  1
  P  P35  1  0.750000  0.100689  0.113670  1
