# generated using pymatgen
data_Li3Dy4Y12InRh4
_symmetry_space_group_name_H-M   'P 1'
_cell_length_a   9.69199971
_cell_length_b   9.69200026
_cell_length_c   9.68110335
_cell_angle_alpha   59.89003319
_cell_angle_beta   59.89002805
_cell_angle_gamma   60.08480658
_symmetry_Int_Tables_number   1
_chemical_formula_structural   Li3Dy4Y12InRh4
_chemical_formula_sum   'Li3 Dy4 Y12 In1 Rh4'
_cell_volume   642.37618581
_cell_formula_units_Z   1
loop_
 _symmetry_equiv_pos_site_id
 _symmetry_equiv_pos_as_xyz
  1  'x, y, z'
loop_
 _atom_site_type_symbol
 _atom_site_label
 _atom_site_symmetry_multiplicity
 _atom_site_fract_x
 _atom_site_fract_y
 _atom_site_fract_z
 _atom_site_occupancy
  Li  Li0  1  0.923706  0.923706  0.226651  1
  Li  Li1  1  0.226852  0.923549  0.924172  1
  Li  Li2  1  0.923549  0.226852  0.924172  1
  Dy  Dy3  1  0.150103  0.544853  0.150690  1
  Dy  Dy4  1  0.310043  0.689770  0.689246  1
  Dy  Dy5  1  0.689770  0.310043  0.689246  1
  Dy  Dy6  1  0.544853  0.150103  0.150690  1
  Y  Y7  1  0.686264  0.315465  0.315271  1
  Y  Y8  1  0.690027  0.690027  0.308934  1
  Y  Y9  1  0.315465  0.686264  0.315271  1
  Y  Y10  1  0.935062  0.935062  0.563395  1
  Y  Y11  1  0.149401  0.149401  0.548703  1
  Y  Y12  1  0.562197  0.936305  0.561933  1
  Y  Y13  1  0.155594  0.155594  0.154769  1
  Y  Y14  1  0.315821  0.315821  0.685552  1
  Y  Y15  1  0.936305  0.562197  0.561933  1
  Y  Y16  1  0.561291  0.561291  0.937078  1
  Y  Y17  1  0.563815  0.934755  0.934506  1
  Y  Y18  1  0.934755  0.563815  0.934506  1
  In  In19  1  0.918529  0.918529  0.919623  1
  Rh  Rh20  1  0.358280  0.358280  0.355624  1
  Rh  Rh21  1  0.927199  0.359591  0.360749  1
  Rh  Rh22  1  0.361527  0.361527  0.926536  1
  Rh  Rh23  1  0.359591  0.927199  0.360749  1
