# generated using pymatgen
data_TbGd4NbRuO12
_symmetry_space_group_name_H-M   'P 1'
_cell_length_a   6.90118603
_cell_length_b   6.89740456
_cell_length_c   7.59100377
_cell_angle_alpha   74.03628365
_cell_angle_beta   74.02400061
_cell_angle_gamma   50.53202976
_symmetry_Int_Tables_number   1
_chemical_formula_structural   TbGd4NbRuO12
_chemical_formula_sum   'Tb1 Gd4 Nb1 Ru1 O12'
_cell_volume   265.71970286
_cell_formula_units_Z   1
loop_
 _symmetry_equiv_pos_site_id
 _symmetry_equiv_pos_as_xyz
  1  'x, y, z'
loop_
 _atom_site_type_symbol
 _atom_site_label
 _atom_site_symmetry_multiplicity
 _atom_site_fract_x
 _atom_site_fract_y
 _atom_site_fract_z
 _atom_site_occupancy
  Tb  Tb0  1  0.317836  0.305058  0.326597  1
  Gd  Gd1  1  0.695108  0.682196  0.672742  1
  Gd  Gd2  1  0.701004  0.688759  0.141153  1
  Gd  Gd3  1  0.001298  0.998295  0.000416  1
  Gd  Gd4  1  0.311246  0.299098  0.860105  1
  Nb  Nb5  1  0.207476  0.792543  0.499736  1
  Ru  Ru6  1  0.752517  0.247641  0.499824  1
  O  O7  1  0.409641  0.898333  0.924042  1
  O  O8  1  0.581407  0.092071  0.581525  1
  O  O9  1  0.911170  0.416549  0.416530  1
  O  O10  1  0.102696  0.589190  0.077857  1
  O  O11  1  0.992419  0.007378  0.301878  1
  O  O12  1  0.495009  0.505450  0.680512  1
  O  O13  1  0.908139  0.402561  0.924654  1
  O  O14  1  0.102167  0.569839  0.580893  1
  O  O15  1  0.427978  0.900797  0.417255  1
  O  O16  1  0.596269  0.093089  0.077199  1
  O  O17  1  0.494232  0.503950  0.319005  1
  O  O18  1  0.992388  0.007201  0.698079  1
