# generated using pymatgen
data_Hf8Al14PRh7
_symmetry_space_group_name_H-M   'P 1'
_cell_length_a   8.83153889
_cell_length_b   8.83153573
_cell_length_c   8.83154105
_cell_angle_alpha   120.12153879
_cell_angle_beta   119.76088019
_cell_angle_gamma   90.10215735
_symmetry_Int_Tables_number   1
_chemical_formula_structural   Hf8Al14PRh7
_chemical_formula_sum   'Hf8 Al14 P1 Rh7'
_cell_volume   487.49895279
_cell_formula_units_Z   1
loop_
 _symmetry_equiv_pos_site_id
 _symmetry_equiv_pos_as_xyz
  1  'x, y, z'
loop_
 _atom_site_type_symbol
 _atom_site_label
 _atom_site_symmetry_multiplicity
 _atom_site_fract_x
 _atom_site_fract_y
 _atom_site_fract_z
 _atom_site_occupancy
  Hf  Hf0  1  0.806705  0.301391  0.097214  1
  Hf  Hf1  1  0.204177  0.301391  0.494686  1
  Hf  Hf2  1  0.193795  0.693796  0.500001  1
  Hf  Hf3  1  0.204176  0.709490  0.902785  1
  Hf  Hf4  1  0.806705  0.709490  0.505313  1
  Hf  Hf5  1  0.792147  0.292147  0.500001  1
  Hf  Hf6  1  0.380252  0.120375  0.740123  1
  Hf  Hf7  1  0.380251  0.640129  0.259877  1
  Al  Al8  1  0.163654  0.329826  0.166172  1
  Al  Al9  1  0.163654  0.997482  0.833828  1
  Al  Al10  1  0.156642  0.335550  0.821090  1
  Al  Al11  1  0.514459  0.335551  0.178909  1
  Al  Al12  1  0.833570  0.663930  0.830359  1
  Al  Al13  1  0.833571  0.003213  0.169643  1
  Al  Al14  1  0.833913  0.665918  0.167994  1
  Al  Al15  1  0.497924  0.665919  0.832006  1
  Al  Al16  1  0.380374  0.119538  0.260835  1
  Al  Al17  1  0.858702  0.119537  0.739163  1
  Al  Al18  1  0.621570  0.879081  0.257511  1
  Al  Al19  1  0.621570  0.364060  0.742489  1
  Al  Al20  1  0.622960  0.880283  0.742678  1
  Al  Al21  1  0.137604  0.880282  0.257321  1
  P  P22  1  0.993191  0.493190  0.500000  1
  Rh  Rh23  1  0.999055  0.999167  0.500931  1
  Rh  Rh24  1  0.498238  0.999168  0.000113  1
  Rh  Rh25  1  0.499445  0.499447  0.000003  1
  Rh  Rh26  1  0.498235  0.498123  0.499068  1
  Rh  Rh27  1  0.999053  0.498122  0.999884  1
  Rh  Rh28  1  0.999572  0.999572  0.000003  1
  Rh  Rh29  1  0.504831  0.004832  0.500000  1
