# generated using pymatgen
data_Ho4Ga18(IrPd)3
_symmetry_space_group_name_H-M   'P 1'
_cell_length_a   7.62216925
_cell_length_b   7.62216863
_cell_length_c   9.49179900
_cell_angle_alpha   89.99837355
_cell_angle_beta   89.99836969
_cell_angle_gamma   119.75020699
_symmetry_Int_Tables_number   1
_chemical_formula_structural   Ho4Ga18(IrPd)3
_chemical_formula_sum   'Ho4 Ga18 Ir3 Pd3'
_cell_volume   478.76673232
_cell_formula_units_Z   1
loop_
 _symmetry_equiv_pos_site_id
 _symmetry_equiv_pos_as_xyz
  1  'x, y, z'
loop_
 _atom_site_type_symbol
 _atom_site_label
 _atom_site_symmetry_multiplicity
 _atom_site_fract_x
 _atom_site_fract_y
 _atom_site_fract_z
 _atom_site_occupancy
  Ho  Ho0  1  0.996642  0.669595  0.249835  1
  Ho  Ho1  1  0.002333  0.329593  0.749978  1
  Ho  Ho2  1  0.670407  0.997667  0.250022  1
  Ho  Ho3  1  0.330405  0.003358  0.750165  1
  Ga  Ga4  1  0.130079  0.128313  0.250557  1
  Ga  Ga5  1  0.871687  0.869921  0.749443  1
  Ga  Ga6  1  0.001560  0.336414  0.081939  1
  Ga  Ga7  1  0.003391  0.665518  0.919009  1
  Ga  Ga8  1  0.001099  0.662896  0.578986  1
  Ga  Ga9  1  0.337104  0.998901  0.421014  1
  Ga  Ga10  1  0.998072  0.337579  0.420166  1
  Ga  Ga11  1  0.662421  0.001928  0.579834  1
  Ga  Ga12  1  0.663586  0.998440  0.918061  1
  Ga  Ga13  1  0.334482  0.996609  0.080991  1
  Ga  Ga14  1  0.333986  0.334341  0.568267  1
  Ga  Ga15  1  0.665659  0.666014  0.431733  1
  Ga  Ga16  1  0.665289  0.667253  0.071602  1
  Ga  Ga17  1  0.332747  0.334711  0.928398  1
  Ga  Ga18  1  0.337331  0.546036  0.250378  1
  Ga  Ga19  1  0.664427  0.456158  0.748270  1
  Ga  Ga20  1  0.543842  0.335573  0.251730  1
  Ga  Ga21  1  0.453964  0.662669  0.749622  1
  Ir  Ir22  1  0.329587  0.670413  0.000000  1
  Ir  Ir23  1  0.328335  0.671665  0.500000  1
  Ir  Ir24  1  0.671079  0.328921  0.500000  1
  Pd  Pd25  1  0.671279  0.328721  0.000000  1
  Pd  Pd26  1  0.999927  0.000073  0.000000  1
  Pd  Pd27  1  0.999281  0.000719  0.500000  1
