# generated using pymatgen
data_Zr6Tc3IrRu2
_symmetry_space_group_name_H-M   'P 1'
_cell_length_a   4.65967800
_cell_length_b   6.56117400
_cell_length_c   13.99424300
_cell_angle_alpha   90.00000000
_cell_angle_beta   89.99995088
_cell_angle_gamma   90.00000000
_symmetry_Int_Tables_number   1
_chemical_formula_structural   Zr6Tc3IrRu2
_chemical_formula_sum   'Zr12 Tc6 Ir2 Ru4'
_cell_volume   427.84540547
_cell_formula_units_Z   2
loop_
 _symmetry_equiv_pos_site_id
 _symmetry_equiv_pos_as_xyz
  1  'x, y, z'
loop_
 _atom_site_type_symbol
 _atom_site_label
 _atom_site_symmetry_multiplicity
 _atom_site_fract_x
 _atom_site_fract_y
 _atom_site_fract_z
 _atom_site_occupancy
  Zr  Zr0  1  0.500002  0.250767  0.998639  1
  Zr  Zr1  1  0.500002  0.749233  0.998639  1
  Zr  Zr2  1  0.999980  0.249239  0.168027  1
  Zr  Zr3  1  0.999980  0.750761  0.168027  1
  Zr  Zr4  1  0.499981  0.248763  0.334856  1
  Zr  Zr5  1  0.499981  0.751238  0.334856  1
  Zr  Zr6  1  0.000001  0.249924  0.500215  1
  Zr  Zr7  1  0.000001  0.750076  0.500215  1
  Zr  Zr8  1  0.500021  0.250073  0.666454  1
  Zr  Zr9  1  0.500021  0.749928  0.666454  1
  Zr  Zr10  1  0.000020  0.251240  0.831812  1
  Zr  Zr11  1  0.000020  0.748760  0.831812  1
  Tc  Tc12  1  0.000001  0.500000  0.000817  1
  Tc  Tc13  1  0.499982  0.000000  0.165832  1
  Tc  Tc14  1  0.999982  0.500000  0.332364  1
  Tc  Tc15  1  0.500002  0.000000  0.499705  1
  Tc  Tc16  1  0.000019  0.500000  0.666936  1
  Tc  Tc17  1  0.500019  0.000000  0.834353  1
  Ir  Ir18  1  0.000001  0.000000  0.000316  1
  Ir  Ir19  1  0.499970  0.500000  0.166365  1
  Ru  Ru20  1  0.999987  0.000000  0.332443  1
  Ru  Ru21  1  0.499999  0.500000  0.499454  1
  Ru  Ru22  1  0.000018  0.000000  0.667223  1
  Ru  Ru23  1  0.500012  0.500000  0.834191  1
