# generated using pymatgen
data_NaLuU2(Al3Ir)6
_symmetry_space_group_name_H-M   'P 1'
_cell_length_a   7.56720200
_cell_length_b   7.54319997
_cell_length_c   9.29180700
_cell_angle_alpha   90.00000000
_cell_angle_beta   90.00000000
_cell_angle_gamma   119.47725636
_symmetry_Int_Tables_number   1
_chemical_formula_structural   NaLuU2(Al3Ir)6
_chemical_formula_sum   'Na1 Lu1 U2 Al18 Ir6'
_cell_volume   461.72713197
_cell_formula_units_Z   1
loop_
 _symmetry_equiv_pos_site_id
 _symmetry_equiv_pos_as_xyz
  1  'x, y, z'
loop_
 _atom_site_type_symbol
 _atom_site_label
 _atom_site_symmetry_multiplicity
 _atom_site_fract_x
 _atom_site_fract_y
 _atom_site_fract_z
 _atom_site_occupancy
  Na  Na0  1  0.990178  0.673722  0.250000  1
  Lu  Lu1  1  0.324338  0.002679  0.750000  1
  U  U2  1  0.003814  0.326743  0.750000  1
  U  U3  1  0.674349  0.002324  0.250000  1
  Al  Al4  1  0.126735  0.129385  0.250000  1
  Al  Al5  1  0.870488  0.866646  0.750000  1
  Al  Al6  1  0.005063  0.345368  0.081717  1
  Al  Al7  1  0.999713  0.666019  0.928828  1
  Al  Al8  1  0.999713  0.666019  0.571172  1
  Al  Al9  1  0.328739  0.994354  0.419932  1
  Al  Al10  1  0.005063  0.345368  0.418283  1
  Al  Al11  1  0.660435  0.995512  0.580750  1
  Al  Al12  1  0.660435  0.995512  0.919250  1
  Al  Al13  1  0.328739  0.994354  0.080068  1
  Al  Al14  1  0.336068  0.332912  0.552489  1
  Al  Al15  1  0.669887  0.666401  0.443539  1
  Al  Al16  1  0.669887  0.666401  0.056461  1
  Al  Al17  1  0.336068  0.332912  0.947511  1
  Al  Al18  1  0.350139  0.556816  0.250000  1
  Al  Al19  1  0.661927  0.449587  0.750000  1
  Al  Al20  1  0.549190  0.337085  0.250000  1
  Al  Al21  1  0.449536  0.652778  0.750000  1
  Ir  Ir22  1  0.671144  0.321700  0.998707  1
  Ir  Ir23  1  0.329748  0.672184  0.996916  1
  Ir  Ir24  1  0.329748  0.672184  0.503084  1
  Ir  Ir25  1  0.671144  0.321700  0.501293  1
  Ir  Ir26  1  0.998858  0.006669  0.997143  1
  Ir  Ir27  1  0.998858  0.006669  0.502857  1
