# generated using pymatgen
data_HfPa3(SnRh5)2
_symmetry_space_group_name_H-M   'P 1'
_cell_length_a   4.19093400
_cell_length_b   5.85387262
_cell_length_c   11.43602177
_cell_angle_alpha   90.04098357
_cell_angle_beta   90.00000000
_cell_angle_gamma   90.00000000
_symmetry_Int_Tables_number   1
_chemical_formula_structural   HfPa3(SnRh5)2
_chemical_formula_sum   'Hf1 Pa3 Sn2 Rh10'
_cell_volume   280.56206639
_cell_formula_units_Z   1
loop_
 _symmetry_equiv_pos_site_id
 _symmetry_equiv_pos_as_xyz
  1  'x, y, z'
loop_
 _atom_site_type_symbol
 _atom_site_label
 _atom_site_symmetry_multiplicity
 _atom_site_fract_x
 _atom_site_fract_y
 _atom_site_fract_z
 _atom_site_occupancy
  Hf  Hf0  1  0.500000  0.325446  0.144022  1
  Pa  Pa1  1  0.500000  0.172295  0.643520  1
  Pa  Pa2  1  0.500000  0.825064  0.350142  1
  Pa  Pa3  1  0.500000  0.672864  0.862793  1
  Sn  Sn4  1  0.000000  0.500724  0.497894  1
  Sn  Sn5  1  0.000000  0.013376  0.004363  1
  Rh  Rh6  1  0.500000  0.200898  0.886780  1
  Rh  Rh7  1  0.500000  0.796996  0.111341  1
  Rh  Rh8  1  0.500000  0.700073  0.615370  1
  Rh  Rh9  1  0.500000  0.297168  0.383685  1
  Rh  Rh10  1  0.000000  0.432574  0.748536  1
  Rh  Rh11  1  0.000000  0.563895  0.250890  1
  Rh  Rh12  1  0.000000  0.000162  0.497837  1
  Rh  Rh13  1  0.000000  0.498420  0.003482  1
  Rh  Rh14  1  0.000000  0.067589  0.244542  1
  Rh  Rh15  1  0.000000  0.932457  0.754804  1
