# generated using pymatgen
data_Ho4Er4TcB24Ir2Rh
_symmetry_space_group_name_H-M   'P 1'
_cell_length_a   3.63458700
_cell_length_b   9.15528781
_cell_length_c   11.49079400
_cell_angle_alpha   90.09585716
_cell_angle_beta   90.00000000
_cell_angle_gamma   90.00000000
_symmetry_Int_Tables_number   1
_chemical_formula_structural   Ho4Er4TcB24Ir2Rh
_chemical_formula_sum   'Ho4 Er4 Tc1 B24 Ir2 Rh1'
_cell_volume   382.36356463
_cell_formula_units_Z   1
loop_
 _symmetry_equiv_pos_site_id
 _symmetry_equiv_pos_as_xyz
  1  'x, y, z'
loop_
 _atom_site_type_symbol
 _atom_site_label
 _atom_site_symmetry_multiplicity
 _atom_site_fract_x
 _atom_site_fract_y
 _atom_site_fract_z
 _atom_site_occupancy
  Ho  Ho0  1  0.500000  0.321833  0.417094  1
  Ho  Ho1  1  0.500000  0.674450  0.586759  1
  Ho  Ho2  1  0.500000  0.182688  0.909773  1
  Ho  Ho3  1  0.500000  0.820911  0.086948  1
  Er  Er4  1  0.500000  0.444897  0.127295  1
  Er  Er5  1  0.500000  0.552843  0.873342  1
  Er  Er6  1  0.500000  0.057541  0.625035  1
  Er  Er7  1  0.500000  0.943324  0.373714  1
  Tc  Tc8  1  0.500000  0.361339  0.679470  1
  B  B9  1  0.000000  0.108994  0.468783  1
  B  B10  1  0.000000  0.888486  0.529817  1
  B  B11  1  0.000000  0.391159  0.971305  1
  B  B12  1  0.000000  0.609403  0.030710  1
  B  B13  1  0.000000  0.131452  0.315693  1
  B  B14  1  0.000000  0.867786  0.684206  1
  B  B15  1  0.000000  0.367973  0.814829  1
  B  B16  1  0.000000  0.633682  0.184620  1
  B  B17  1  0.000000  0.053841  0.066145  1
  B  B18  1  0.000000  0.946870  0.933631  1
  B  B19  1  0.000000  0.446513  0.566760  1
  B  B20  1  0.000000  0.552991  0.433172  1
  B  B21  1  0.000000  0.481793  0.287919  1
  B  B22  1  0.000000  0.516485  0.713502  1
  B  B23  1  0.000000  0.017427  0.785999  1
  B  B24  1  0.000000  0.981928  0.213104  1
  B  B25  1  0.000000  0.250726  0.079617  1
  B  B26  1  0.000000  0.749920  0.920772  1
  B  B27  1  0.000000  0.251757  0.580109  1
  B  B28  1  0.000000  0.749336  0.420187  1
  B  B29  1  0.000000  0.292860  0.234677  1
  B  B30  1  0.000000  0.707117  0.766427  1
  B  B31  1  0.000000  0.207500  0.733974  1
  B  B32  1  0.000000  0.794602  0.264348  1
  Ir  Ir33  1  0.500000  0.138628  0.177467  1
  Ir  Ir34  1  0.500000  0.862128  0.821987  1
  Rh  Rh35  1  0.500000  0.638817  0.320806  1
