# generated using pymatgen
data_La20Si15Ru
_symmetry_space_group_name_H-M   'P 1'
_cell_length_a   8.03665082
_cell_length_b   8.03135977
_cell_length_c   15.48454240
_cell_angle_alpha   89.53999797
_cell_angle_beta   89.47472522
_cell_angle_gamma   89.75112401
_symmetry_Int_Tables_number   1
_chemical_formula_structural   La20Si15Ru
_chemical_formula_sum   'La20 Si15 Ru1'
_cell_volume   999.37009111
_cell_formula_units_Z   1
loop_
 _symmetry_equiv_pos_site_id
 _symmetry_equiv_pos_as_xyz
  1  'x, y, z'
loop_
 _atom_site_type_symbol
 _atom_site_label
 _atom_site_symmetry_multiplicity
 _atom_site_fract_x
 _atom_site_fract_y
 _atom_site_fract_z
 _atom_site_occupancy
  La  La0  1  0.365126  0.484526  0.376290  1
  La  La1  1  0.879408  0.008471  0.378586  1
  La  La2  1  0.980119  0.126865  0.124441  1
  La  La3  1  0.027588  0.875307  0.622013  1
  La  La4  1  0.626965  0.520972  0.873134  1
  La  La5  1  0.481385  0.379440  0.624863  1
  La  La6  1  0.517372  0.625389  0.126827  1
  La  La7  1  0.125035  0.978154  0.876065  1
  La  La8  1  0.988455  0.619915  0.054886  1
  La  La9  1  0.015003  0.387641  0.545637  1
  La  La10  1  0.622649  0.986768  0.949849  1
  La  La11  1  0.122241  0.511469  0.801835  1
  La  La12  1  0.871396  0.482074  0.302904  1
  La  La13  1  0.508097  0.118907  0.197440  1
  La  La14  1  0.493763  0.882325  0.696515  1
  La  La15  1  0.386125  0.017201  0.450149  1
  La  La16  1  0.704627  0.692772  0.497076  1
  La  La17  1  0.809327  0.192784  0.748694  1
  La  La18  1  0.184957  0.798603  0.265287  1
  La  La19  1  0.302329  0.304814  0.999198  1
  Si  Si20  1  0.918621  0.289569  0.940086  1
  Si  Si21  1  0.711580  0.083157  0.560067  1
  Si  Si22  1  0.212862  0.417022  0.190877  1
  Si  Si23  1  0.792363  0.582279  0.689717  1
  Si  Si24  1  0.422078  0.211675  0.808879  1
  Si  Si25  1  0.577521  0.789583  0.309303  1
  Si  Si26  1  0.286796  0.918528  0.061540  1
  Si  Si27  1  0.831360  0.806346  0.795545  1
  Si  Si28  1  0.168829  0.196448  0.298016  1
  Si  Si29  1  0.798504  0.832927  0.201799  1
  Si  Si30  1  0.307173  0.679680  0.543406  1
  Si  Si31  1  0.693705  0.330119  0.045816  1
  Si  Si32  1  0.667709  0.301479  0.452219  1
  Si  Si33  1  0.328526  0.693852  0.955702  1
  Si  Si34  1  0.200253  0.172736  0.702124  1
  Ru  Ru35  1  0.070157  0.700201  0.433216  1
