# generated using pymatgen
data_LaDy7(Si4W3)4
_symmetry_space_group_name_H-M   'P 1'
_cell_length_a   6.81098257
_cell_length_b   6.96477129
_cell_length_c   12.94833661
_cell_angle_alpha   89.82068507
_cell_angle_beta   90.02935456
_cell_angle_gamma   89.93325836
_symmetry_Int_Tables_number   1
_chemical_formula_structural   LaDy7(Si4W3)4
_chemical_formula_sum   'La1 Dy7 Si16 W12'
_cell_volume   614.22590658
_cell_formula_units_Z   1
loop_
 _symmetry_equiv_pos_site_id
 _symmetry_equiv_pos_as_xyz
  1  'x, y, z'
loop_
 _atom_site_type_symbol
 _atom_site_label
 _atom_site_symmetry_multiplicity
 _atom_site_fract_x
 _atom_site_fract_y
 _atom_site_fract_z
 _atom_site_occupancy
  La  La0  1  0.997738  0.834344  0.591454  1
  Dy  Dy1  1  0.495376  0.667568  0.593698  1
  Dy  Dy2  1  0.995737  0.832340  0.906505  1
  Dy  Dy3  1  0.504813  0.332151  0.093640  1
  Dy  Dy4  1  0.005048  0.166461  0.405722  1
  Dy  Dy5  1  0.505020  0.333052  0.405321  1
  Dy  Dy6  1  0.004423  0.167942  0.093666  1
  Dy  Dy7  1  0.495430  0.667508  0.907852  1
  Si  Si8  1  0.658248  0.957428  0.450801  1
  Si  Si9  1  0.161379  0.542910  0.047402  1
  Si  Si10  1  0.337993  0.042488  0.953684  1
  Si  Si11  1  0.836653  0.452245  0.546772  1
  Si  Si12  1  0.344307  0.046246  0.546300  1
  Si  Si13  1  0.839044  0.457948  0.953116  1
  Si  Si14  1  0.661755  0.957315  0.047155  1
  Si  Si15  1  0.162197  0.539816  0.450524  1
  Si  Si16  1  0.463291  0.370356  0.750617  1
  Si  Si17  1  0.962781  0.133701  0.751982  1
  Si  Si18  1  0.536217  0.630028  0.249247  1
  Si  Si19  1  0.036429  0.869221  0.249878  1
  Si  Si20  1  0.692793  0.868917  0.751845  1
  Si  Si21  1  0.198638  0.629381  0.751952  1
  Si  Si22  1  0.303737  0.132268  0.249523  1
  Si  Si23  1  0.803475  0.366968  0.249523  1
  W  W24  1  0.665747  0.165344  0.627042  1
  W  W25  1  0.168579  0.336739  0.875684  1
  W  W26  1  0.332179  0.836185  0.125768  1
  W  W27  1  0.831018  0.661538  0.372511  1
  W  W28  1  0.333169  0.836150  0.373116  1
  W  W29  1  0.832272  0.663105  0.125483  1
  W  W30  1  0.666292  0.164973  0.875268  1
  W  W31  1  0.167976  0.336768  0.626661  1
  W  W32  1  0.833402  0.498200  0.750681  1
  W  W33  1  0.334804  0.003305  0.751358  1
  W  W34  1  0.165963  0.500395  0.249361  1
  W  W35  1  0.666075  0.998694  0.248891  1
