# generated using pymatgen
data_Pr6Nd2Sc12Si15Hg
_symmetry_space_group_name_H-M   'P 1'
_cell_length_a   7.28110215
_cell_length_b   7.53502312
_cell_length_c   14.33837614
_cell_angle_alpha   89.96102185
_cell_angle_beta   89.66046736
_cell_angle_gamma   90.19979845
_symmetry_Int_Tables_number   1
_chemical_formula_structural   Pr6Nd2Sc12Si15Hg
_chemical_formula_sum   'Pr6 Nd2 Sc12 Si15 Hg1'
_cell_volume   786.63145642
_cell_formula_units_Z   1
loop_
 _symmetry_equiv_pos_site_id
 _symmetry_equiv_pos_as_xyz
  1  'x, y, z'
loop_
 _atom_site_type_symbol
 _atom_site_label
 _atom_site_symmetry_multiplicity
 _atom_site_fract_x
 _atom_site_fract_y
 _atom_site_fract_z
 _atom_site_occupancy
  Pr  Pr0  1  0.487684  0.672698  0.902925  1
  Pr  Pr1  1  0.495468  0.678451  0.600803  1
  Pr  Pr2  1  0.988066  0.834207  0.598209  1
  Pr  Pr3  1  0.987056  0.827996  0.903331  1
  Pr  Pr4  1  0.512171  0.327350  0.097481  1
  Pr  Pr5  1  0.012664  0.172724  0.098121  1
  Nd  Nd6  1  0.008261  0.169417  0.397498  1
  Nd  Nd7  1  0.513161  0.325625  0.397791  1
  Sc  Sc8  1  0.341210  0.168898  0.628944  1
  Sc  Sc9  1  0.665904  0.824396  0.373020  1
  Sc  Sc10  1  0.663040  0.001440  0.752085  1
  Sc  Sc11  1  0.168075  0.677853  0.371001  1
  Sc  Sc12  1  0.829428  0.323202  0.876434  1
  Sc  Sc13  1  0.822679  0.324250  0.626077  1
  Sc  Sc14  1  0.839066  0.502415  0.249866  1
  Sc  Sc15  1  0.339813  0.996640  0.248610  1
  Sc  Sc16  1  0.328378  0.174375  0.876101  1
  Sc  Sc17  1  0.169542  0.676136  0.124927  1
  Sc  Sc18  1  0.671003  0.824064  0.124339  1
  Sc  Sc19  1  0.160972  0.497589  0.754907  1
  Si  Si20  1  0.286164  0.881941  0.751527  1
  Si  Si21  1  0.464961  0.625140  0.248407  1
  Si  Si22  1  0.035542  0.128492  0.751355  1
  Si  Si23  1  0.535051  0.376402  0.751945  1
  Si  Si24  1  0.964181  0.875236  0.248610  1
  Si  Si25  1  0.710595  0.117688  0.248439  1
  Si  Si26  1  0.849385  0.536757  0.039721  1
  Si  Si27  1  0.348923  0.962686  0.040091  1
  Si  Si28  1  0.150452  0.462773  0.961385  1
  Si  Si29  1  0.652083  0.040367  0.537146  1
  Si  Si30  1  0.346116  0.961400  0.459605  1
  Si  Si31  1  0.837968  0.541561  0.457422  1
  Si  Si32  1  0.790857  0.617136  0.751955  1
  Si  Si33  1  0.211351  0.381862  0.249286  1
  Si  Si34  1  0.650230  0.036957  0.960347  1
  Hg  Hg35  1  0.162500  0.453872  0.540293  1
