# generated using pymatgen
data_TaMn5(GaRh2)6
_symmetry_space_group_name_H-M   'P 1'
_cell_length_a   4.33268900
_cell_length_b   6.10417900
_cell_length_c   12.96590600
_cell_angle_alpha   90.00000000
_cell_angle_beta   90.00008386
_cell_angle_gamma   90.00000000
_symmetry_Int_Tables_number   1
_chemical_formula_structural   TaMn5(GaRh2)6
_chemical_formula_sum   'Ta1 Mn5 Ga6 Rh12'
_cell_volume   342.91591832
_cell_formula_units_Z   1
loop_
 _symmetry_equiv_pos_site_id
 _symmetry_equiv_pos_as_xyz
  1  'x, y, z'
loop_
 _atom_site_type_symbol
 _atom_site_label
 _atom_site_symmetry_multiplicity
 _atom_site_fract_x
 _atom_site_fract_y
 _atom_site_fract_z
 _atom_site_occupancy
  Ta  Ta0  1  0.000000  0.500000  0.000000  1
  Mn  Mn1  1  0.499788  0.000000  0.169401  1
  Mn  Mn2  1  0.999790  0.500000  0.334368  1
  Mn  Mn3  1  0.499999  0.000000  0.500000  1
  Mn  Mn4  1  0.000210  0.500000  0.665632  1
  Mn  Mn5  1  0.500212  0.000000  0.830598  1
  Ga  Ga6  1  0.000000  0.000000  0.000000  1
  Ga  Ga7  1  0.499802  0.500000  0.171300  1
  Ga  Ga8  1  0.999789  0.000000  0.336394  1
  Ga  Ga9  1  0.499999  0.500000  0.500000  1
  Ga  Ga10  1  0.000211  0.000000  0.663605  1
  Ga  Ga11  1  0.500198  0.500000  0.828699  1
  Rh  Rh12  1  0.499999  0.248179  0.000000  1
  Rh  Rh13  1  0.499999  0.751821  0.000000  1
  Rh  Rh14  1  0.999793  0.250375  0.165309  1
  Rh  Rh15  1  0.999793  0.749625  0.165309  1
  Rh  Rh16  1  0.499788  0.248451  0.333244  1
  Rh  Rh17  1  0.499788  0.751549  0.333244  1
  Rh  Rh18  1  0.000000  0.251356  0.500000  1
  Rh  Rh19  1  0.000000  0.748644  0.500000  1
  Rh  Rh20  1  0.500212  0.248451  0.666756  1
  Rh  Rh21  1  0.500212  0.751549  0.666756  1
  Rh  Rh22  1  0.000207  0.250375  0.834691  1
  Rh  Rh23  1  0.000207  0.749625  0.834691  1
