# generated using pymatgen
data_Pr4NdErTa2O14
_symmetry_space_group_name_H-M   'P 1'
_cell_length_a   6.69084230
_cell_length_b   6.66202554
_cell_length_c   7.71379700
_cell_angle_alpha   90.00000000
_cell_angle_beta   90.00000000
_cell_angle_gamma   108.70041706
_symmetry_Int_Tables_number   1
_chemical_formula_structural   Pr4NdErTa2O14
_chemical_formula_sum   'Pr4 Nd1 Er1 Ta2 O14'
_cell_volume   325.68715055
_cell_formula_units_Z   1
loop_
 _symmetry_equiv_pos_site_id
 _symmetry_equiv_pos_as_xyz
  1  'x, y, z'
loop_
 _atom_site_type_symbol
 _atom_site_label
 _atom_site_symmetry_multiplicity
 _atom_site_fract_x
 _atom_site_fract_y
 _atom_site_fract_z
 _atom_site_occupancy
  Pr  Pr0  1  0.534481  0.527832  0.498564  1
  Pr  Pr1  1  0.534481  0.527832  0.001436  1
  Pr  Pr2  1  0.007763  0.462594  0.750000  1
  Pr  Pr3  1  0.461523  0.004052  0.250000  1
  Nd  Nd4  1  0.532704  0.003774  0.750000  1
  Er  Er5  1  0.003467  0.528714  0.250000  1
  Ta  Ta6  1  0.000568  0.001095  0.497489  1
  Ta  Ta7  1  0.000568  0.001095  0.002511  1
  O  O8  1  0.945469  0.055958  0.750000  1
  O  O9  1  0.057779  0.936833  0.250000  1
  O  O10  1  0.350393  0.633177  0.250000  1
  O  O11  1  0.642252  0.368290  0.750000  1
  O  O12  1  0.373859  0.634106  0.750000  1
  O  O13  1  0.648976  0.378983  0.250000  1
  O  O14  1  0.306880  0.069354  0.967832  1
  O  O15  1  0.679001  0.919258  0.474215  1
  O  O16  1  0.306880  0.069354  0.532168  1
  O  O17  1  0.679001  0.919258  0.025785  1
  O  O18  1  0.035090  0.299038  0.455513  1
  O  O19  1  0.931887  0.680180  0.979351  1
  O  O20  1  0.931887  0.680180  0.520649  1
  O  O21  1  0.035090  0.299038  0.044487  1
