# generated using pymatgen
data_Y4Er6Os3Ru
_symmetry_space_group_name_H-M   'P 1'
_cell_length_a   6.32296810
_cell_length_b   7.33468036
_cell_length_c   8.41673419
_cell_angle_alpha   96.97870067
_cell_angle_beta   112.14185656
_cell_angle_gamma   90.03070717
_symmetry_Int_Tables_number   1
_chemical_formula_structural   Y4Er6Os3Ru
_chemical_formula_sum   'Y4 Er6 Os3 Ru1'
_cell_volume   358.42151589
_cell_formula_units_Z   1
loop_
 _symmetry_equiv_pos_site_id
 _symmetry_equiv_pos_as_xyz
  1  'x, y, z'
loop_
 _atom_site_type_symbol
 _atom_site_label
 _atom_site_symmetry_multiplicity
 _atom_site_fract_x
 _atom_site_fract_y
 _atom_site_fract_z
 _atom_site_occupancy
  Y  Y0  1  0.792548  0.582880  0.814551  1
  Y  Y1  1  0.975793  0.917140  0.184745  1
  Y  Y2  1  0.209772  0.418007  0.188677  1
  Y  Y3  1  0.024014  0.083866  0.816017  1
  Er  Er4  1  0.201983  0.682924  0.565482  1
  Er  Er5  1  0.638532  0.817788  0.435758  1
  Er  Er6  1  0.796101  0.316255  0.433606  1
  Er  Er7  1  0.362581  0.181167  0.563828  1
  Er  Er8  1  0.422563  0.749788  0.000072  1
  Er  Er9  1  0.578185  0.250275  0.000294  1
  Os  Os10  1  0.597854  0.922890  0.779342  1
  Os  Os11  1  0.817564  0.577224  0.221281  1
  Os  Os12  1  0.402005  0.077139  0.219799  1
  Ru  Ru13  1  0.180506  0.422657  0.776549  1
