# generated using pymatgen
data_U6TaVSb10
_symmetry_space_group_name_H-M   'P 1'
_cell_length_a   9.15316400
_cell_length_b   9.15316352
_cell_length_c   6.08915500
_cell_angle_alpha   90.00000000
_cell_angle_beta   90.00000000
_cell_angle_gamma   120.00000172
_symmetry_Int_Tables_number   1
_chemical_formula_structural   U6TaVSb10
_chemical_formula_sum   'U6 Ta1 V1 Sb10'
_cell_volume   441.80448310
_cell_formula_units_Z   1
loop_
 _symmetry_equiv_pos_site_id
 _symmetry_equiv_pos_as_xyz
  1  'x, y, z'
loop_
 _atom_site_type_symbol
 _atom_site_label
 _atom_site_symmetry_multiplicity
 _atom_site_fract_x
 _atom_site_fract_y
 _atom_site_fract_z
 _atom_site_occupancy
  U  U0  1  0.387710  0.387710  0.753602  1
  U  U1  1  0.612290  0.000000  0.753602  1
  U  U2  1  0.000000  0.612290  0.753602  1
  U  U3  1  0.612290  0.612290  0.246398  1
  U  U4  1  0.387710  0.000000  0.246398  1
  U  U5  1  0.000000  0.387710  0.246398  1
  Ta  Ta6  1  0.000000  0.000000  0.000000  1
  V  V7  1  0.000000  0.000000  0.500000  1
  Sb  Sb8  1  0.738548  0.738548  0.744184  1
  Sb  Sb9  1  0.261452  0.000000  0.744184  1
  Sb  Sb10  1  0.000000  0.261452  0.744184  1
  Sb  Sb11  1  0.261452  0.261452  0.255816  1
  Sb  Sb12  1  0.738548  0.000000  0.255816  1
  Sb  Sb13  1  0.000000  0.738548  0.255816  1
  Sb  Sb14  1  0.666667  0.333333  0.000000  1
  Sb  Sb15  1  0.333333  0.666667  0.000000  1
  Sb  Sb16  1  0.333333  0.666667  0.500000  1
  Sb  Sb17  1  0.666667  0.333333  0.500000  1
