# generated using pymatgen
data_DyEr3Tc5Ru3
_symmetry_space_group_name_H-M   'P 1'
_cell_length_a   5.30060639
_cell_length_b   5.30055565
_cell_length_c   9.13408401
_cell_angle_alpha   90.00528996
_cell_angle_beta   89.99550869
_cell_angle_gamma   121.87678801
_symmetry_Int_Tables_number   1
_chemical_formula_structural   DyEr3Tc5Ru3
_chemical_formula_sum   'Dy1 Er3 Tc5 Ru3'
_cell_volume   217.92880000
_cell_formula_units_Z   1
loop_
 _symmetry_equiv_pos_site_id
 _symmetry_equiv_pos_as_xyz
  1  'x, y, z'
loop_
 _atom_site_type_symbol
 _atom_site_label
 _atom_site_symmetry_multiplicity
 _atom_site_fract_x
 _atom_site_fract_y
 _atom_site_fract_z
 _atom_site_occupancy
  Dy  Dy0  1  0.335392  0.664591  0.435205  1
  Er  Er1  1  0.664953  0.335056  0.563671  1
  Er  Er2  1  0.664973  0.335002  0.936676  1
  Er  Er3  1  0.335634  0.664406  0.064858  1
  Tc  Tc4  1  0.170561  0.341456  0.750316  1
  Tc  Tc5  1  0.171486  0.828506  0.750295  1
  Tc  Tc6  1  0.340108  0.174561  0.249538  1
  Tc  Tc7  1  0.825418  0.659877  0.249537  1
  Tc  Tc8  1  0.658552  0.829411  0.750313  1
  Ru  Ru9  1  0.003527  0.996489  0.001671  1
  Ru  Ru10  1  0.825767  0.174241  0.249501  1
  Ru  Ru11  1  0.003627  0.996404  0.498418  1
