# generated using pymatgen
data_Tb8Ta3Ti9Si15As
_symmetry_space_group_name_H-M   'P 1'
_cell_length_a   7.07167661
_cell_length_b   7.06857657
_cell_length_c   13.01022026
_cell_angle_alpha   89.97796369
_cell_angle_beta   89.88416667
_cell_angle_gamma   89.89119463
_symmetry_Int_Tables_number   1
_chemical_formula_structural   Tb8Ta3Ti9Si15As
_chemical_formula_sum   'Tb8 Ta3 Ti9 Si15 As1'
_cell_volume   650.33526686
_cell_formula_units_Z   1
loop_
 _symmetry_equiv_pos_site_id
 _symmetry_equiv_pos_as_xyz
  1  'x, y, z'
loop_
 _atom_site_type_symbol
 _atom_site_label
 _atom_site_symmetry_multiplicity
 _atom_site_fract_x
 _atom_site_fract_y
 _atom_site_fract_z
 _atom_site_occupancy
  Tb  Tb0  1  0.340715  0.001441  0.466020  1
  Tb  Tb1  1  0.497325  0.840891  0.718036  1
  Tb  Tb2  1  0.502535  0.159390  0.217020  1
  Tb  Tb3  1  0.839581  0.497104  0.282594  1
  Tb  Tb4  1  0.159503  0.501508  0.782757  1
  Tb  Tb5  1  0.661254  0.995825  0.967673  1
  Tb  Tb6  1  0.999648  0.342647  0.532173  1
  Tb  Tb7  1  0.998121  0.659946  0.033238  1
  Ta  Ta8  1  0.325605  0.326380  0.999873  1
  Ta  Ta9  1  0.173361  0.826952  0.249999  1
  Ta  Ta10  1  0.823203  0.174252  0.750046  1
  Ti  Ti11  1  0.673373  0.673131  0.500077  1
  Ti  Ti12  1  0.155641  0.010072  0.875161  1
  Ti  Ti13  1  0.490170  0.653606  0.125756  1
  Ti  Ti14  1  0.510062  0.345430  0.627488  1
  Ti  Ti15  1  0.655649  0.493054  0.874698  1
  Ti  Ti16  1  0.345258  0.509060  0.373483  1
  Ti  Ti17  1  0.846971  0.991642  0.374899  1
  Ti  Ti18  1  0.009061  0.153695  0.124773  1
  Ti  Ti19  1  0.988938  0.843002  0.623943  1
  Si  Si20  1  0.370347  0.702001  0.934425  1
  Si  Si21  1  0.628060  0.298827  0.435145  1
  Si  Si22  1  0.701674  0.370846  0.065384  1
  Si  Si23  1  0.298475  0.629164  0.565151  1
  Si  Si24  1  0.798395  0.870600  0.185245  1
  Si  Si25  1  0.129096  0.201926  0.315454  1
  Si  Si26  1  0.871456  0.798277  0.814758  1
  Si  Si27  1  0.291953  0.954022  0.064128  1
  Si  Si28  1  0.546809  0.790567  0.314752  1
  Si  Si29  1  0.461746  0.210329  0.818795  1
  Si  Si30  1  0.790494  0.547053  0.685059  1
  Si  Si31  1  0.208118  0.453626  0.185952  1
  Si  Si32  1  0.708240  0.045742  0.563975  1
  Si  Si33  1  0.954109  0.291790  0.935836  1
  Si  Si34  1  0.046029  0.708808  0.435326  1
  As  As35  1  0.199026  0.127399  0.680906  1
