# generated using pymatgen
data_LiNdCr4O14
_symmetry_space_group_name_H-M   'P 1'
_cell_length_a   7.41375578
_cell_length_b   7.41375557
_cell_length_c   7.41375481
_cell_angle_alpha   109.35177971
_cell_angle_beta   109.35177332
_cell_angle_gamma   109.71036912
_symmetry_Int_Tables_number   1
_chemical_formula_structural   LiNdCr4O14
_chemical_formula_sum   'Li1 Nd1 Cr4 O14'
_cell_volume   313.68027881
_cell_formula_units_Z   1
loop_
 _symmetry_equiv_pos_site_id
 _symmetry_equiv_pos_as_xyz
  1  'x, y, z'
loop_
 _atom_site_type_symbol
 _atom_site_label
 _atom_site_symmetry_multiplicity
 _atom_site_fract_x
 _atom_site_fract_y
 _atom_site_fract_z
 _atom_site_occupancy
  Li  Li0  1  0.501623  0.501623  0.000000  1
  Nd  Nd1  1  0.014416  0.014416  0.000000  1
  Cr  Cr2  1  0.818916  0.372420  0.784173  1
  Cr  Cr3  1  0.034743  0.818916  0.446496  1
  Cr  Cr4  1  0.372420  0.588247  0.553504  1
  Cr  Cr5  1  0.588247  0.034743  0.215827  1
  O  O6  1  0.220907  0.720907  0.500000  1
  O  O7  1  0.720907  0.220907  0.500000  1
  O  O8  1  0.958581  0.638301  0.871017  1
  O  O9  1  0.087563  0.958581  0.320280  1
  O  O10  1  0.638301  0.767282  0.679720  1
  O  O11  1  0.767282  0.087563  0.128983  1
  O  O12  1  0.492488  0.782796  0.169209  1
  O  O13  1  0.323279  0.492488  0.709693  1
  O  O14  1  0.782796  0.613585  0.290307  1
  O  O15  1  0.613585  0.323279  0.830791  1
  O  O16  1  0.383466  0.067369  0.087512  1
  O  O17  1  0.295955  0.383466  0.316097  1
  O  O18  1  0.067369  0.979856  0.683903  1
  O  O19  1  0.979856  0.295955  0.912488  1
