# generated using pymatgen
data_Li8B3PPd12
_symmetry_space_group_name_H-M   'P 1'
_cell_length_a   6.91728463
_cell_length_b   6.91728446
_cell_length_c   6.91728400
_cell_angle_alpha   90.84524373
_cell_angle_beta   90.84524323
_cell_angle_gamma   89.15475477
_symmetry_Int_Tables_number   1
_chemical_formula_structural   Li8B3PPd12
_chemical_formula_sum   'Li8 B3 P1 Pd12'
_cell_volume   330.87691995
_cell_formula_units_Z   1
loop_
 _symmetry_equiv_pos_site_id
 _symmetry_equiv_pos_as_xyz
  1  'x, y, z'
loop_
 _atom_site_type_symbol
 _atom_site_label
 _atom_site_symmetry_multiplicity
 _atom_site_fract_x
 _atom_site_fract_y
 _atom_site_fract_z
 _atom_site_occupancy
  Li  Li0  1  0.300753  0.303879  0.304267  1
  Li  Li1  1  0.054267  0.446121  0.550753  1
  Li  Li2  1  0.550550  0.050550  0.449450  1
  Li  Li3  1  0.449247  0.554267  0.053879  1
  Li  Li4  1  0.199450  0.699450  0.800550  1
  Li  Li5  1  0.946121  0.949247  0.945733  1
  Li  Li6  1  0.803879  0.195733  0.699247  1
  Li  Li7  1  0.695733  0.800753  0.196121  1
  B  B8  1  0.375000  0.119776  0.869776  1
  B  B9  1  0.619776  0.630224  0.625000  1
  B  B10  1  0.130224  0.875000  0.380224  1
  P  P11  1  0.875000  0.375000  0.125000  1
  Pd  Pd12  1  0.192906  0.057094  0.625000  1
  Pd  Pd13  1  0.443381  0.375000  0.693381  1
  Pd  Pd14  1  0.063575  0.642789  0.186721  1
  Pd  Pd15  1  0.936721  0.107211  0.313575  1
  Pd  Pd16  1  0.306619  0.943381  0.125000  1
  Pd  Pd17  1  0.686425  0.436721  0.392789  1
  Pd  Pd18  1  0.557094  0.875000  0.807094  1
  Pd  Pd19  1  0.607211  0.186425  0.063279  1
  Pd  Pd20  1  0.375000  0.692906  0.442906  1
  Pd  Pd21  1  0.875000  0.806619  0.556619  1
  Pd  Pd22  1  0.142789  0.313279  0.936425  1
  Pd  Pd23  1  0.813279  0.563575  0.857211  1
