# generated using pymatgen
data_Th5InRh10
_symmetry_space_group_name_H-M   'P 1'
_cell_length_a   5.97141888
_cell_length_b   5.97142052
_cell_length_c   9.01983100
_cell_angle_alpha   90.00000000
_cell_angle_beta   90.00000000
_cell_angle_gamma   103.00963280
_symmetry_Int_Tables_number   1
_chemical_formula_structural   Th5InRh10
_chemical_formula_sum   'Th5 In1 Rh10'
_cell_volume   313.37234170
_cell_formula_units_Z   1
loop_
 _symmetry_equiv_pos_site_id
 _symmetry_equiv_pos_as_xyz
  1  'x, y, z'
loop_
 _atom_site_type_symbol
 _atom_site_label
 _atom_site_symmetry_multiplicity
 _atom_site_fract_x
 _atom_site_fract_y
 _atom_site_fract_z
 _atom_site_occupancy
  Th  Th0  1  0.386481  0.386481  0.250000  1
  Th  Th1  1  0.798127  0.213594  0.506514  1
  Th  Th2  1  0.213594  0.798127  0.993486  1
  Th  Th3  1  0.213594  0.798127  0.506514  1
  Th  Th4  1  0.798127  0.213594  0.993486  1
  In  In5  1  0.595794  0.595794  0.750000  1
  Rh  Rh6  1  0.706962  0.706962  0.033660  1
  Rh  Rh7  1  0.706962  0.706962  0.466340  1
  Rh  Rh8  1  0.305928  0.305928  0.947661  1
  Rh  Rh9  1  0.305928  0.305928  0.552339  1
  Rh  Rh10  1  0.504635  0.029834  0.750000  1
  Rh  Rh11  1  0.501222  0.946805  0.250000  1
  Rh  Rh12  1  0.988548  0.988548  0.250000  1
  Rh  Rh13  1  0.997459  0.997459  0.750000  1
  Rh  Rh14  1  0.029834  0.504635  0.750000  1
  Rh  Rh15  1  0.946805  0.501222  0.250000  1
