# generated using pymatgen
data_NdU(Al3Ir)3
_symmetry_space_group_name_H-M   'P 1'
_cell_length_a   7.59935682
_cell_length_b   7.62251405
_cell_length_c   9.48302300
_cell_angle_alpha   90.00000000
_cell_angle_beta   90.00000000
_cell_angle_gamma   119.58437708
_symmetry_Int_Tables_number   1
_chemical_formula_structural   NdU(Al3Ir)3
_chemical_formula_sum   'Nd2 U2 Al18 Ir6'
_cell_volume   477.70103047
_cell_formula_units_Z   2
loop_
 _symmetry_equiv_pos_site_id
 _symmetry_equiv_pos_as_xyz
  1  'x, y, z'
loop_
 _atom_site_type_symbol
 _atom_site_label
 _atom_site_symmetry_multiplicity
 _atom_site_fract_x
 _atom_site_fract_y
 _atom_site_fract_z
 _atom_site_occupancy
  Nd  Nd0  1  0.996166  0.670823  0.750000  1
  Nd  Nd1  1  0.003834  0.329177  0.250000  1
  U  U2  1  0.669706  0.996436  0.750000  1
  U  U3  1  0.330294  0.003564  0.250000  1
  Al  Al4  1  0.128464  0.129791  0.750000  1
  Al  Al5  1  0.871536  0.870209  0.250000  1
  Al  Al6  1  0.002455  0.335084  0.575397  1
  Al  Al7  1  0.997545  0.664916  0.424603  1
  Al  Al8  1  0.997545  0.664916  0.075397  1
  Al  Al9  1  0.335498  0.002338  0.927003  1
  Al  Al10  1  0.002455  0.335084  0.924603  1
  Al  Al11  1  0.664502  0.997662  0.072997  1
  Al  Al12  1  0.664502  0.997662  0.427003  1
  Al  Al13  1  0.335498  0.002338  0.572997  1
  Al  Al14  1  0.334801  0.334820  0.053037  1
  Al  Al15  1  0.665199  0.665180  0.946963  1
  Al  Al16  1  0.665199  0.665180  0.553037  1
  Al  Al17  1  0.334801  0.334820  0.446963  1
  Al  Al18  1  0.342038  0.547389  0.750000  1
  Al  Al19  1  0.657962  0.452611  0.250000  1
  Al  Al20  1  0.546022  0.337173  0.750000  1
  Al  Al21  1  0.453978  0.662827  0.250000  1
  Ir  Ir22  1  0.670644  0.327273  0.500041  1
  Ir  Ir23  1  0.329356  0.672727  0.499959  1
  Ir  Ir24  1  0.329356  0.672727  0.000041  1
  Ir  Ir25  1  0.670644  0.327273  0.999959  1
  Ir  Ir26  1  0.000000  0.000000  0.500000  1
  Ir  Ir27  1  0.000000  0.000000  0.000000  1
