# generated using pymatgen
data_V7Re4SiOs4
_symmetry_space_group_name_H-M   'P 1'
_cell_length_a   6.04128600
_cell_length_b   4.26724400
_cell_length_c   8.56478500
_cell_angle_alpha   90.00000000
_cell_angle_beta   89.99818922
_cell_angle_gamma   90.00000000
_symmetry_Int_Tables_number   1
_chemical_formula_structural   V7Re4SiOs4
_chemical_formula_sum   'V7 Re4 Si1 Os4'
_cell_volume   220.79708622
_cell_formula_units_Z   1
loop_
 _symmetry_equiv_pos_site_id
 _symmetry_equiv_pos_as_xyz
  1  'x, y, z'
loop_
 _atom_site_type_symbol
 _atom_site_label
 _atom_site_symmetry_multiplicity
 _atom_site_fract_x
 _atom_site_fract_y
 _atom_site_fract_z
 _atom_site_occupancy
  V  V0  1  0.999685  0.749999  0.125108  1
  V  V1  1  0.499894  0.250000  0.378394  1
  V  V2  1  0.999777  0.250000  0.374828  1
  V  V3  1  0.998030  0.749999  0.624921  1
  V  V4  1  0.497587  0.749999  0.624948  1
  V  V5  1  0.999571  0.250000  0.875208  1
  V  V6  1  0.499770  0.250000  0.871642  1
  Re  Re7  1  0.750530  0.250000  0.125022  1
  Re  Re8  1  0.250607  0.749999  0.374016  1
  Re  Re9  1  0.750852  0.250000  0.625000  1
  Re  Re10  1  0.250496  0.749999  0.875955  1
  Si  Si11  1  0.500557  0.749999  0.124958  1
  Os  Os12  1  0.257201  0.250000  0.125007  1
  Os  Os13  1  0.747752  0.749999  0.372192  1
  Os  Os14  1  0.249980  0.250000  0.625025  1
  Os  Os15  1  0.747715  0.749999  0.877775  1
