# generated using pymatgen
data_Pr3Dy(Rh2O7)2
_symmetry_space_group_name_H-M   'P 1'
_cell_length_a   7.39074172
_cell_length_b   7.36280324
_cell_length_c   7.39074200
_cell_angle_alpha   59.87439666
_cell_angle_beta   59.99999874
_cell_angle_gamma   59.87439188
_symmetry_Int_Tables_number   1
_chemical_formula_structural   Pr3Dy(Rh2O7)2
_chemical_formula_sum   'Pr3 Dy1 Rh4 O14'
_cell_volume   283.84230495
_cell_formula_units_Z   1
loop_
 _symmetry_equiv_pos_site_id
 _symmetry_equiv_pos_as_xyz
  1  'x, y, z'
loop_
 _atom_site_type_symbol
 _atom_site_label
 _atom_site_symmetry_multiplicity
 _atom_site_fract_x
 _atom_site_fract_y
 _atom_site_fract_z
 _atom_site_occupancy
  Pr  Pr0  1  0.125000  0.125000  0.125000  1
  Pr  Pr1  1  0.625000  0.125000  0.125000  1
  Pr  Pr2  1  0.125000  0.125000  0.625000  1
  Dy  Dy3  1  0.125000  0.625000  0.125000  1
  Rh  Rh4  1  0.625000  0.625000  0.625000  1
  Rh  Rh5  1  0.625000  0.625000  0.125000  1
  Rh  Rh6  1  0.125000  0.625000  0.625000  1
  Rh  Rh7  1  0.625000  0.125000  0.625000  1
  O  O8  1  0.245421  0.263739  0.245421  1
  O  O9  1  0.292676  0.700507  0.292676  1
  O  O10  1  0.957810  0.956479  0.542856  1
  O  O11  1  0.542856  0.956479  0.542856  1
  O  O12  1  0.714141  0.700507  0.292676  1
  O  O13  1  0.957324  0.549493  0.535859  1
  O  O14  1  0.707144  0.293521  0.707144  1
  O  O15  1  0.292190  0.293521  0.707144  1
  O  O16  1  0.707144  0.293521  0.292190  1
  O  O17  1  0.292676  0.700507  0.714141  1
  O  O18  1  0.957324  0.549493  0.957324  1
  O  O19  1  0.535859  0.549493  0.957324  1
  O  O20  1  0.004579  0.986261  0.004579  1
  O  O21  1  0.542856  0.956479  0.957810  1
