# generated using pymatgen
data_SrLi2SnS4
_symmetry_space_group_name_H-M   'P 1'
_cell_length_a   6.44947500
_cell_length_b   6.44947422
_cell_length_c   15.88041200
_cell_angle_alpha   90.00000000
_cell_angle_beta   90.00000000
_cell_angle_gamma   120.00000914
_symmetry_Int_Tables_number   1
_chemical_formula_structural   SrLi2SnS4
_chemical_formula_sum   'Sr3 Li6 Sn3 S12'
_cell_volume   572.05927572
_cell_formula_units_Z   3
loop_
 _symmetry_equiv_pos_site_id
 _symmetry_equiv_pos_as_xyz
  1  'x, y, z'
loop_
 _atom_site_type_symbol
 _atom_site_label
 _atom_site_symmetry_multiplicity
 _atom_site_fract_x
 _atom_site_fract_y
 _atom_site_fract_z
 _atom_site_occupancy
  Sr  Sr0  1  0.557912  0.000000  0.833333  1
  Sr  Sr1  1  0.000000  0.557912  0.166667  1
  Sr  Sr2  1  0.442088  0.442088  0.500000  1
  Li  Li3  1  0.414147  0.342316  0.255357  1
  Li  Li4  1  0.585853  0.928169  0.077976  1
  Li  Li5  1  0.342316  0.414147  0.744643  1
  Li  Li6  1  0.657684  0.071831  0.588690  1
  Li  Li7  1  0.928169  0.585853  0.922024  1
  Li  Li8  1  0.071831  0.657684  0.411310  1
  Sn  Sn9  1  0.705085  0.000000  0.333333  1
  Sn  Sn10  1  0.294915  0.294915  0.000000  1
  Sn  Sn11  1  0.000000  0.705085  0.666667  1
  S  S12  1  0.752645  0.649912  0.333521  1
  S  S13  1  0.897266  0.247355  0.000187  1
  S  S14  1  0.350088  0.102734  0.666854  1
  S  S15  1  0.102734  0.350088  0.333146  1
  S  S16  1  0.247355  0.897266  0.999813  1
  S  S17  1  0.649912  0.752645  0.666479  1
  S  S18  1  0.957792  0.461954  0.546015  1
  S  S19  1  0.504162  0.042208  0.212681  1
  S  S20  1  0.042208  0.504162  0.787319  1
  S  S21  1  0.461954  0.957792  0.453985  1
  S  S22  1  0.495838  0.538046  0.120652  1
  S  S23  1  0.538046  0.495838  0.879348  1
