# generated using pymatgen
data_YbY2Tm(Ga2Ag)4
_symmetry_space_group_name_H-M   'P 1'
_cell_length_a   4.35604400
_cell_length_b   6.97685790
_cell_length_c   10.27371706
_cell_angle_alpha   90.25194216
_cell_angle_beta   90.00000000
_cell_angle_gamma   90.00000000
_symmetry_Int_Tables_number   1
_chemical_formula_structural   YbY2Tm(Ga2Ag)4
_chemical_formula_sum   'Yb1 Y2 Tm1 Ga8 Ag4'
_cell_volume   312.23065325
_cell_formula_units_Z   1
loop_
 _symmetry_equiv_pos_site_id
 _symmetry_equiv_pos_as_xyz
  1  'x, y, z'
loop_
 _atom_site_type_symbol
 _atom_site_label
 _atom_site_symmetry_multiplicity
 _atom_site_fract_x
 _atom_site_fract_y
 _atom_site_fract_z
 _atom_site_occupancy
  Yb  Yb0  1  0.250000  0.275615  0.671631  1
  Y  Y1  1  0.250000  0.778899  0.826696  1
  Y  Y2  1  0.750000  0.223876  0.173115  1
  Tm  Tm3  1  0.750000  0.721897  0.328638  1
  Ga  Ga4  1  0.250000  0.704143  0.535179  1
  Ga  Ga5  1  0.750000  0.299248  0.464391  1
  Ga  Ga6  1  0.750000  0.792399  0.038818  1
  Ga  Ga7  1  0.250000  0.201580  0.963865  1
  Ga  Ga8  1  0.250000  0.925698  0.155422  1
  Ga  Ga9  1  0.750000  0.071952  0.848597  1
  Ga  Ga10  1  0.750000  0.571479  0.650749  1
  Ga  Ga11  1  0.250000  0.430659  0.345003  1
  Ag  Ag12  1  0.250000  0.544163  0.097475  1
  Ag  Ag13  1  0.750000  0.455694  0.901363  1
  Ag  Ag14  1  0.750000  0.958364  0.596929  1
  Ag  Ag15  1  0.250000  0.044335  0.402127  1
