# generated using pymatgen
data_Sr2La2TbU3O14
_symmetry_space_group_name_H-M   'P 1'
_cell_length_a   7.86937582
_cell_length_b   7.85658006
_cell_length_c   7.86937589
_cell_angle_alpha   61.23159837
_cell_angle_beta   60.99757916
_cell_angle_gamma   61.23160200
_symmetry_Int_Tables_number   1
_chemical_formula_structural   Sr2La2TbU3O14
_chemical_formula_sum   'Sr2 La2 Tb1 U3 O14'
_cell_volume   352.95861521
_cell_formula_units_Z   1
loop_
 _symmetry_equiv_pos_site_id
 _symmetry_equiv_pos_as_xyz
  1  'x, y, z'
loop_
 _atom_site_type_symbol
 _atom_site_label
 _atom_site_symmetry_multiplicity
 _atom_site_fract_x
 _atom_site_fract_y
 _atom_site_fract_z
 _atom_site_occupancy
  Sr  Sr0  1  0.125000  0.125000  0.125000  1
  Sr  Sr1  1  0.125000  0.625000  0.125000  1
  La  La2  1  0.625000  0.125000  0.125000  1
  La  La3  1  0.125000  0.125000  0.625000  1
  Tb  Tb4  1  0.625000  0.625000  0.625000  1
  U  U5  1  0.625000  0.625000  0.125000  1
  U  U6  1  0.625000  0.125000  0.625000  1
  U  U7  1  0.125000  0.625000  0.625000  1
  O  O8  1  0.704165  0.293699  0.297184  1
  O  O9  1  0.704114  0.713627  0.280912  1
  O  O10  1  0.298248  0.705821  0.298248  1
  O  O11  1  0.986645  0.012851  0.986645  1
  O  O12  1  0.710911  0.280048  0.710911  1
  O  O13  1  0.969088  0.536373  0.545886  1
  O  O14  1  0.280912  0.713627  0.704114  1
  O  O15  1  0.539089  0.969952  0.539089  1
  O  O16  1  0.263355  0.237149  0.263355  1
  O  O17  1  0.951752  0.544179  0.951752  1
  O  O18  1  0.545886  0.536373  0.969088  1
  O  O19  1  0.952816  0.956301  0.545835  1
  O  O20  1  0.545835  0.956301  0.952816  1
  O  O21  1  0.297184  0.293699  0.704165  1
