# generated using pymatgen
data_Er8Ta3Ti8Si16Ag
_symmetry_space_group_name_H-M   'P 1'
_cell_length_a   7.03977773
_cell_length_b   7.03977791
_cell_length_c   12.87611579
_cell_angle_alpha   90.13357321
_cell_angle_beta   89.86642655
_cell_angle_gamma   89.62278291
_symmetry_Int_Tables_number   1
_chemical_formula_structural   Er8Ta3Ti8Si16Ag
_chemical_formula_sum   'Er8 Ta3 Ti8 Si16 Ag1'
_cell_volume   638.10329995
_cell_formula_units_Z   1
loop_
 _symmetry_equiv_pos_site_id
 _symmetry_equiv_pos_as_xyz
  1  'x, y, z'
loop_
 _atom_site_type_symbol
 _atom_site_label
 _atom_site_symmetry_multiplicity
 _atom_site_fract_x
 _atom_site_fract_y
 _atom_site_fract_z
 _atom_site_occupancy
  Er  Er0  1  0.342141  0.001026  0.467285  1
  Er  Er1  1  0.497920  0.841033  0.717094  1
  Er  Er2  1  0.501187  0.157709  0.215431  1
  Er  Er3  1  0.841033  0.497920  0.282906  1
  Er  Er4  1  0.157709  0.501187  0.784569  1
  Er  Er5  1  0.656413  0.001461  0.968135  1
  Er  Er6  1  0.001026  0.342141  0.532715  1
  Er  Er7  1  0.001461  0.656413  0.031865  1
  Ta  Ta8  1  0.173639  0.826138  0.249822  1
  Ta  Ta9  1  0.826138  0.173639  0.750178  1
  Ta  Ta10  1  0.672609  0.672609  0.500000  1
  Ti  Ti11  1  0.147331  0.007696  0.875992  1
  Ti  Ti12  1  0.494973  0.651636  0.123907  1
  Ti  Ti13  1  0.508196  0.350299  0.624909  1
  Ti  Ti14  1  0.651636  0.494973  0.876093  1
  Ti  Ti15  1  0.350299  0.508196  0.375091  1
  Ti  Ti16  1  0.848621  0.991240  0.373739  1
  Ti  Ti17  1  0.007696  0.147331  0.124008  1
  Ti  Ti18  1  0.991240  0.848621  0.626261  1
  Si  Si19  1  0.202678  0.133066  0.683467  1
  Si  Si20  1  0.372967  0.718860  0.928650  1
  Si  Si21  1  0.631577  0.294600  0.432582  1
  Si  Si22  1  0.718860  0.372967  0.071350  1
  Si  Si23  1  0.294600  0.631577  0.567418  1
  Si  Si24  1  0.797577  0.866464  0.182178  1
  Si  Si25  1  0.133066  0.202678  0.316533  1
  Si  Si26  1  0.866464  0.797577  0.817822  1
  Si  Si27  1  0.288091  0.939694  0.064651  1
  Si  Si28  1  0.546695  0.792497  0.313690  1
  Si  Si29  1  0.453993  0.207341  0.809226  1
  Si  Si30  1  0.792497  0.546695  0.686310  1
  Si  Si31  1  0.207341  0.453993  0.190774  1
  Si  Si32  1  0.707744  0.046968  0.563325  1
  Si  Si33  1  0.939694  0.288091  0.935349  1
  Si  Si34  1  0.046968  0.707744  0.436675  1
  Ag  Ag35  1  0.327920  0.327920  0.000000  1
