# generated using pymatgen
data_ErZr2Sc(Al8Pt3)3
_symmetry_space_group_name_H-M   'P 1'
_cell_length_a   7.48907898
_cell_length_b   7.49081995
_cell_length_c   13.01292289
_cell_angle_alpha   84.42042053
_cell_angle_beta   101.01415012
_cell_angle_gamma   119.94003965
_symmetry_Int_Tables_number   1
_chemical_formula_structural   ErZr2Sc(Al8Pt3)3
_chemical_formula_sum   'Er1 Zr2 Sc1 Al24 Pt9'
_cell_volume   620.94051765
_cell_formula_units_Z   1
loop_
 _symmetry_equiv_pos_site_id
 _symmetry_equiv_pos_as_xyz
  1  'x, y, z'
loop_
 _atom_site_type_symbol
 _atom_site_label
 _atom_site_symmetry_multiplicity
 _atom_site_fract_x
 _atom_site_fract_y
 _atom_site_fract_z
 _atom_site_occupancy
  Er  Er0  1  0.938221  0.332481  0.808200  1
  Zr  Zr1  1  0.731825  0.999730  0.189838  1
  Zr  Zr2  1  0.267894  0.999893  0.810491  1
  Sc  Sc3  1  0.062823  0.668189  0.193469  1
  Al  Al4  1  0.812203  0.869095  0.815359  1
  Al  Al5  1  0.186769  0.127204  0.184556  1
  Al  Al6  1  0.984039  0.668444  0.944101  1
  Al  Al7  1  0.016657  0.334303  0.059998  1
  Al  Al8  1  0.399028  0.669425  0.816551  1
  Al  Al9  1  0.604768  0.333277  0.183190  1
  Al  Al10  1  0.885253  0.667210  0.673397  1
  Al  Al11  1  0.113950  0.335041  0.324140  1
  Al  Al12  1  0.597687  0.452980  0.815910  1
  Al  Al13  1  0.400122  0.548126  0.184114  1
  Al  Al14  1  0.230237  0.337511  0.671851  1
  Al  Al15  1  0.771233  0.662419  0.325505  1
  Al  Al16  1  0.852556  0.333209  0.559252  1
  Al  Al17  1  0.186900  0.999539  0.560757  1
  Al  Al18  1  0.812966  0.000369  0.438673  1
  Al  Al19  1  0.351945  0.995017  0.059002  1
  Al  Al20  1  0.645897  0.001575  0.943682  1
  Al  Al21  1  0.554602  0.993596  0.673396  1
  Al  Al22  1  0.442393  0.004284  0.324146  1
  Al  Al23  1  0.521088  0.667109  0.562974  1
  Al  Al24  1  0.478489  0.332854  0.436360  1
  Al  Al25  1  0.687887  0.670323  0.051388  1
  Al  Al26  1  0.316166  0.330097  0.951679  1
  Al  Al27  1  0.147156  0.666936  0.439344  1
  Pt  Pt28  1  0.327679  0.670844  0.000137  1
  Pt  Pt29  1  0.545659  0.323908  0.637518  1
  Pt  Pt30  1  0.454569  0.676302  0.362181  1
  Pt  Pt31  1  0.888186  0.009239  0.638686  1
  Pt  Pt32  1  0.111461  0.990690  0.360917  1
  Pt  Pt33  1  0.671960  0.328296  0.999796  1
  Pt  Pt34  1  0.202818  0.665988  0.639255  1
  Pt  Pt35  1  0.797144  0.333834  0.360202  1
  Pt  Pt36  1  0.999773  0.000664  0.999986  1
