# generated using pymatgen
data_Zr10Al2TlPb5
_symmetry_space_group_name_H-M   'P 1'
_cell_length_a   8.86843500
_cell_length_b   8.86843558
_cell_length_c   5.97104500
_cell_angle_alpha   90.00000000
_cell_angle_beta   90.00000000
_cell_angle_gamma   119.93902646
_symmetry_Int_Tables_number   1
_chemical_formula_structural   Zr10Al2TlPb5
_chemical_formula_sum   'Zr10 Al2 Tl1 Pb5'
_cell_volume   406.95040578
_cell_formula_units_Z   1
loop_
 _symmetry_equiv_pos_site_id
 _symmetry_equiv_pos_as_xyz
  1  'x, y, z'
loop_
 _atom_site_type_symbol
 _atom_site_label
 _atom_site_symmetry_multiplicity
 _atom_site_fract_x
 _atom_site_fract_y
 _atom_site_fract_z
 _atom_site_occupancy
  Zr  Zr0  1  0.666277  0.333445  0.999153  1
  Zr  Zr1  1  0.333445  0.666277  0.999153  1
  Zr  Zr2  1  0.333445  0.666277  0.500847  1
  Zr  Zr3  1  0.666277  0.333445  0.500847  1
  Zr  Zr4  1  0.733940  0.733940  0.750000  1
  Zr  Zr5  1  0.266333  0.000902  0.750000  1
  Zr  Zr6  1  0.000902  0.266333  0.750000  1
  Zr  Zr7  1  0.265626  0.265626  0.250000  1
  Zr  Zr8  1  0.734468  0.000093  0.250000  1
  Zr  Zr9  1  0.000093  0.734468  0.250000  1
  Al  Al10  1  0.000264  0.000264  0.999529  1
  Al  Al11  1  0.000264  0.000264  0.500471  1
  Tl  Tl12  1  0.385380  0.385380  0.750000  1
  Pb  Pb13  1  0.613918  0.000197  0.750000  1
  Pb  Pb14  1  0.000197  0.613918  0.750000  1
  Pb  Pb15  1  0.613370  0.613370  0.250000  1
  Pb  Pb16  1  0.385967  0.999837  0.250000  1
  Pb  Pb17  1  0.999837  0.385967  0.250000  1
