# generated using pymatgen
data_USb(PO5)2
_symmetry_space_group_name_H-M   'P 1'
_cell_length_a   5.75248268
_cell_length_b   5.26434475
_cell_length_c   7.69651066
_cell_angle_alpha   107.02014660
_cell_angle_beta   110.75376950
_cell_angle_gamma   94.36390971
_symmetry_Int_Tables_number   1
_chemical_formula_structural   USb(PO5)2
_chemical_formula_sum   'U1 Sb1 P2 O10'
_cell_volume   204.14685336
_cell_formula_units_Z   1
loop_
 _symmetry_equiv_pos_site_id
 _symmetry_equiv_pos_as_xyz
  1  'x, y, z'
loop_
 _atom_site_type_symbol
 _atom_site_label
 _atom_site_symmetry_multiplicity
 _atom_site_fract_x
 _atom_site_fract_y
 _atom_site_fract_z
 _atom_site_occupancy
  U  U0  1  0.000000  0.500000  0.000000  1
  Sb  Sb1  1  0.000000  0.500000  0.500000  1
  P  P2  1  0.331502  0.123034  0.738588  1
  P  P3  1  0.668498  0.876966  0.261412  1
  O  O4  1  0.181363  0.179807  0.872249  1
  O  O5  1  0.301982  0.811863  0.638363  1
  O  O6  1  0.939196  0.572955  0.744029  1
  O  O7  1  0.235243  0.248481  0.571374  1
  O  O8  1  0.764757  0.751519  0.428626  1
  O  O9  1  0.615981  0.237072  0.859709  1
  O  O10  1  0.384019  0.762928  0.140291  1
  O  O11  1  0.060804  0.427045  0.255971  1
  O  O12  1  0.698018  0.188137  0.361637  1
  O  O13  1  0.818637  0.820193  0.127751  1
