# generated using pymatgen
data_Sr8Yb11LuPt16
_symmetry_space_group_name_H-M   'P 1'
_cell_length_a   7.63840032
_cell_length_b   7.80916520
_cell_length_c   14.81703290
_cell_angle_alpha   90.02492728
_cell_angle_beta   90.06707725
_cell_angle_gamma   89.99240398
_symmetry_Int_Tables_number   1
_chemical_formula_structural   Sr8Yb11LuPt16
_chemical_formula_sum   'Sr8 Yb11 Lu1 Pt16'
_cell_volume   883.82835106
_cell_formula_units_Z   1
loop_
 _symmetry_equiv_pos_site_id
 _symmetry_equiv_pos_as_xyz
  1  'x, y, z'
loop_
 _atom_site_type_symbol
 _atom_site_label
 _atom_site_symmetry_multiplicity
 _atom_site_fract_x
 _atom_site_fract_y
 _atom_site_fract_z
 _atom_site_occupancy
  Sr  Sr0  1  0.502560  0.324729  0.903619  1
  Sr  Sr1  1  0.002207  0.176078  0.595966  1
  Sr  Sr2  1  0.497506  0.675478  0.403652  1
  Sr  Sr3  1  0.997597  0.824172  0.096443  1
  Sr  Sr4  1  0.497533  0.675359  0.096699  1
  Sr  Sr5  1  0.997499  0.824387  0.403573  1
  Sr  Sr6  1  0.502891  0.324265  0.595968  1
  Sr  Sr7  1  0.002448  0.175877  0.903586  1
  Yb  Yb8  1  0.839582  0.667121  0.622655  1
  Yb  Yb9  1  0.660516  0.167537  0.376943  1
  Yb  Yb10  1  0.160271  0.332628  0.123427  1
  Yb  Yb11  1  0.660840  0.167817  0.123304  1
  Yb  Yb12  1  0.160445  0.332568  0.377038  1
  Yb  Yb13  1  0.339442  0.832378  0.622969  1
  Yb  Yb14  1  0.839465  0.667357  0.877019  1
  Yb  Yb15  1  0.178250  0.497686  0.749759  1
  Yb  Yb16  1  0.678661  0.002424  0.749744  1
  Yb  Yb17  1  0.821457  0.502166  0.250104  1
  Yb  Yb18  1  0.321470  0.997701  0.250318  1
  Lu  Lu19  1  0.339916  0.831994  0.876248  1
  Pt  Pt20  1  0.333943  0.036812  0.040893  1
  Pt  Pt21  1  0.834966  0.461184  0.457355  1
  Pt  Pt22  1  0.665020  0.961334  0.542757  1
  Pt  Pt23  1  0.166826  0.543317  0.956382  1
  Pt  Pt24  1  0.661988  0.959790  0.956296  1
  Pt  Pt25  1  0.165000  0.538623  0.542794  1
  Pt  Pt26  1  0.335166  0.038722  0.457304  1
  Pt  Pt27  1  0.835844  0.461136  0.042432  1
  Pt  Pt28  1  0.543797  0.630458  0.752233  1
  Pt  Pt29  1  0.048362  0.870818  0.751417  1
  Pt  Pt30  1  0.453859  0.371329  0.249977  1
  Pt  Pt31  1  0.954020  0.128437  0.250009  1
  Pt  Pt32  1  0.304399  0.123137  0.751426  1
  Pt  Pt33  1  0.802909  0.375126  0.749810  1
  Pt  Pt34  1  0.696615  0.874715  0.249964  1
  Pt  Pt35  1  0.196729  0.625344  0.249916  1
