# generated using pymatgen
data_Ho6CoP12Ru15Rh2
_symmetry_space_group_name_H-M   'P 1'
_cell_length_a   3.93761000
_cell_length_b   11.12195000
_cell_length_c   12.58667800
_cell_angle_alpha   90.00000000
_cell_angle_beta   90.00000000
_cell_angle_gamma   90.00000000
_symmetry_Int_Tables_number   1
_chemical_formula_structural   Ho6CoP12Ru15Rh2
_chemical_formula_sum   'Ho6 Co1 P12 Ru15 Rh2'
_cell_volume   551.21973704
_cell_formula_units_Z   1
loop_
 _symmetry_equiv_pos_site_id
 _symmetry_equiv_pos_as_xyz
  1  'x, y, z'
loop_
 _atom_site_type_symbol
 _atom_site_label
 _atom_site_symmetry_multiplicity
 _atom_site_fract_x
 _atom_site_fract_y
 _atom_site_fract_z
 _atom_site_occupancy
  Ho  Ho0  1  0.000000  0.500000  0.524212  1
  Ho  Ho1  1  0.500000  0.000000  0.475553  1
  Ho  Ho2  1  0.500000  0.818289  0.204013  1
  Ho  Ho3  1  0.500000  0.181711  0.204013  1
  Ho  Ho4  1  0.000000  0.683468  0.796543  1
  Ho  Ho5  1  0.000000  0.316532  0.796543  1
  Co  Co6  1  0.500000  0.000000  0.013666  1
  P  P7  1  0.500000  0.303058  0.616256  1
  P  P8  1  0.500000  0.696942  0.616256  1
  P  P9  1  0.000000  0.196666  0.383977  1
  P  P10  1  0.000000  0.803334  0.383977  1
  P  P11  1  0.500000  0.500000  0.880696  1
  P  P12  1  0.000000  0.000000  0.118344  1
  P  P13  1  0.500000  0.851760  0.897026  1
  P  P14  1  0.500000  0.148240  0.897026  1
  P  P15  1  0.000000  0.655433  0.104400  1
  P  P16  1  0.000000  0.344567  0.104400  1
  P  P17  1  0.500000  0.500000  0.338501  1
  P  P18  1  0.000000  0.000000  0.660189  1
  Ru  Ru19  1  0.000000  0.500000  0.985265  1
  Ru  Ru20  1  0.500000  0.299731  0.429640  1
  Ru  Ru21  1  0.500000  0.700269  0.429640  1
  Ru  Ru22  1  0.000000  0.199930  0.570801  1
  Ru  Ru23  1  0.000000  0.800070  0.570801  1
  Ru  Ru24  1  0.500000  0.878266  0.714702  1
  Ru  Ru25  1  0.500000  0.121734  0.714702  1
  Ru  Ru26  1  0.000000  0.622449  0.285204  1
  Ru  Ru27  1  0.000000  0.377551  0.285204  1
  Ru  Ru28  1  0.500000  0.328850  0.989172  1
  Ru  Ru29  1  0.500000  0.671150  0.989172  1
  Ru  Ru30  1  0.000000  0.163290  0.011054  1
  Ru  Ru31  1  0.000000  0.836710  0.011054  1
  Ru  Ru32  1  0.500000  0.500000  0.154496  1
  Ru  Ru33  1  0.000000  0.000000  0.844865  1
  Rh  Rh34  1  0.500000  0.500000  0.693614  1
  Rh  Rh35  1  0.000000  0.000000  0.305024  1
