# generated using pymatgen
data_Ba6Lu3Sc(TeO9)2
_symmetry_space_group_name_H-M   'P 1'
_cell_length_a   5.98395200
_cell_length_b   5.98395111
_cell_length_c   14.67620200
_cell_angle_alpha   90.00000000
_cell_angle_beta   90.00000000
_cell_angle_gamma   119.99999385
_symmetry_Int_Tables_number   1
_chemical_formula_structural   Ba6Lu3Sc(TeO9)2
_chemical_formula_sum   'Ba6 Lu3 Sc1 Te2 O18'
_cell_volume   455.11429553
_cell_formula_units_Z   1
loop_
 _symmetry_equiv_pos_site_id
 _symmetry_equiv_pos_as_xyz
  1  'x, y, z'
loop_
 _atom_site_type_symbol
 _atom_site_label
 _atom_site_symmetry_multiplicity
 _atom_site_fract_x
 _atom_site_fract_y
 _atom_site_fract_z
 _atom_site_occupancy
  Ba  Ba0  1  0.333333  0.666667  0.086009  1
  Ba  Ba1  1  0.666667  0.333333  0.910129  1
  Ba  Ba2  1  0.333333  0.666667  0.590444  1
  Ba  Ba3  1  0.666667  0.333333  0.409516  1
  Ba  Ba4  1  0.000000  0.000000  0.248785  1
  Ba  Ba5  1  0.000000  0.000000  0.752978  1
  Lu  Lu6  1  0.666667  0.333333  0.167018  1
  Lu  Lu7  1  0.333333  0.666667  0.331624  1
  Lu  Lu8  1  0.666667  0.333333  0.669684  1
  Sc  Sc9  1  0.333333  0.666667  0.827291  1
  Te  Te10  1  0.000000  0.000000  0.997607  1
  Te  Te11  1  0.000000  0.000000  0.501493  1
  O  O12  1  0.855271  0.689688  0.578474  1
  O  O13  1  0.999219  0.519305  0.250096  1
  O  O14  1  0.166448  0.312435  0.921546  1
  O  O15  1  0.856081  0.165983  0.074962  1
  O  O16  1  0.834417  0.144729  0.578474  1
  O  O17  1  0.834017  0.690097  0.074962  1
  O  O18  1  0.689420  0.833395  0.425262  1
  O  O19  1  0.486056  0.994286  0.752134  1
  O  O20  1  0.508230  0.513944  0.752134  1
  O  O21  1  0.310312  0.165583  0.578474  1
  O  O22  1  0.143975  0.310580  0.425262  1
  O  O23  1  0.166605  0.856025  0.425262  1
  O  O24  1  0.309903  0.143919  0.074962  1
  O  O25  1  0.520086  0.000781  0.250096  1
  O  O26  1  0.480695  0.479914  0.250096  1
  O  O27  1  0.005714  0.491770  0.752134  1
  O  O28  1  0.145987  0.833552  0.921546  1
  O  O29  1  0.687565  0.854013  0.921546  1
