# generated using pymatgen
data_Tm4Re5Os3
_symmetry_space_group_name_H-M   'P 1'
_cell_length_a   5.34517511
_cell_length_b   5.23939920
_cell_length_c   8.96066600
_cell_angle_alpha   90.00000000
_cell_angle_beta   90.00000000
_cell_angle_gamma   119.45198424
_symmetry_Int_Tables_number   1
_chemical_formula_structural   Tm4Re5Os3
_chemical_formula_sum   'Tm4 Re5 Os3'
_cell_volume   218.51749116
_cell_formula_units_Z   1
loop_
 _symmetry_equiv_pos_site_id
 _symmetry_equiv_pos_as_xyz
  1  'x, y, z'
loop_
 _atom_site_type_symbol
 _atom_site_label
 _atom_site_symmetry_multiplicity
 _atom_site_fract_x
 _atom_site_fract_y
 _atom_site_fract_z
 _atom_site_occupancy
  Tm  Tm0  1  0.669273  0.334982  0.562336  1
  Tm  Tm1  1  0.328929  0.664288  0.436065  1
  Tm  Tm2  1  0.328929  0.664288  0.063935  1
  Tm  Tm3  1  0.669273  0.334982  0.937664  1
  Re  Re4  1  0.171242  0.341414  0.750000  1
  Re  Re5  1  0.171452  0.831727  0.750000  1
  Re  Re6  1  0.656067  0.827344  0.750000  1
  Re  Re7  1  0.832465  0.662200  0.250000  1
  Re  Re8  1  0.833131  0.170727  0.250000  1
  Os  Os9  1  0.993274  0.995810  0.499422  1
  Os  Os10  1  0.993274  0.995810  0.000578  1
  Os  Os11  1  0.352693  0.176430  0.250000  1
