# generated using pymatgen
data_Ta6CrCo6
_symmetry_space_group_name_H-M   'P 1'
_cell_length_a   4.88531084
_cell_length_b   4.88531023
_cell_length_c   9.15697489
_cell_angle_alpha   74.52883066
_cell_angle_beta   74.52883351
_cell_angle_gamma   59.99999618
_symmetry_Int_Tables_number   1
_chemical_formula_structural   Ta6CrCo6
_chemical_formula_sum   'Ta6 Cr1 Co6'
_cell_volume   180.06151683
_cell_formula_units_Z   1
loop_
 _symmetry_equiv_pos_site_id
 _symmetry_equiv_pos_as_xyz
  1  'x, y, z'
loop_
 _atom_site_type_symbol
 _atom_site_label
 _atom_site_symmetry_multiplicity
 _atom_site_fract_x
 _atom_site_fract_y
 _atom_site_fract_z
 _atom_site_occupancy
  Ta  Ta0  1  0.165750  0.165750  0.502749  1
  Ta  Ta1  1  0.834250  0.834250  0.497251  1
  Ta  Ta2  1  0.345803  0.345803  0.962590  1
  Ta  Ta3  1  0.654197  0.654197  0.037410  1
  Ta  Ta4  1  0.449920  0.449920  0.650239  1
  Ta  Ta5  1  0.550080  0.550080  0.349761  1
  Cr  Cr6  1  0.000000  0.000000  0.000000  1
  Co  Co7  1  0.589986  0.092620  0.224772  1
  Co  Co8  1  0.092620  0.092620  0.224772  1
  Co  Co9  1  0.092620  0.589986  0.224772  1
  Co  Co10  1  0.410014  0.907380  0.775228  1
  Co  Co11  1  0.907380  0.907380  0.775228  1
  Co  Co12  1  0.907380  0.410014  0.775228  1
