# generated using pymatgen
data_K6GaRhF12
_symmetry_space_group_name_H-M   'P 1'
_cell_length_a   6.25511355
_cell_length_b   6.03184471
_cell_length_c   10.50210600
_cell_angle_alpha   55.13396323
_cell_angle_beta   90.15723785
_cell_angle_gamma   89.88157664
_symmetry_Int_Tables_number   1
_chemical_formula_structural   K6GaRhF12
_chemical_formula_sum   'K6 Ga1 Rh1 F12'
_cell_volume   325.10946086
_cell_formula_units_Z   1
loop_
 _symmetry_equiv_pos_site_id
 _symmetry_equiv_pos_as_xyz
  1  'x, y, z'
loop_
 _atom_site_type_symbol
 _atom_site_label
 _atom_site_symmetry_multiplicity
 _atom_site_fract_x
 _atom_site_fract_y
 _atom_site_fract_z
 _atom_site_occupancy
  K  K0  1  0.500000  0.500000  0.000000  1
  K  K1  1  0.000000  0.500000  0.500000  1
  K  K2  1  0.051210  0.731782  0.755107  1
  K  K3  1  0.948790  0.268218  0.244893  1
  K  K4  1  0.551015  0.265088  0.750854  1
  K  K5  1  0.448985  0.734912  0.249146  1
  Ga  Ga6  1  0.000000  0.000000  0.000000  1
  Rh  Rh7  1  0.500000  0.000000  0.500000  1
  F  F8  1  0.765498  0.771095  0.563677  1
  F  F9  1  0.234502  0.228905  0.436323  1
  F  F10  1  0.252790  0.220734  0.943128  1
  F  F11  1  0.747210  0.779266  0.056872  1
  F  F12  1  0.455330  0.880933  0.719488  1
  F  F13  1  0.544670  0.119067  0.280512  1
  F  F14  1  0.960152  0.118313  0.788808  1
  F  F15  1  0.039848  0.881687  0.211192  1
  F  F16  1  0.326031  0.684756  0.544008  1
  F  F17  1  0.673969  0.315244  0.455992  1
  F  F18  1  0.827388  0.297239  0.960648  1
  F  F19  1  0.172612  0.702761  0.039352  1
