# generated using pymatgen
data_Na4LaGa2P10Ir19
_symmetry_space_group_name_H-M   'P 1'
_cell_length_a   12.76603041
_cell_length_b   12.74192799
_cell_length_c   3.98416200
_cell_angle_alpha   90.00000000
_cell_angle_beta   90.00000000
_cell_angle_gamma   120.15355153
_symmetry_Int_Tables_number   1
_chemical_formula_structural   Na4LaGa2P10Ir19
_chemical_formula_sum   'Na4 La1 Ga2 P10 Ir19'
_cell_volume   560.38252258
_cell_formula_units_Z   1
loop_
 _symmetry_equiv_pos_site_id
 _symmetry_equiv_pos_as_xyz
  1  'x, y, z'
loop_
 _atom_site_type_symbol
 _atom_site_label
 _atom_site_symmetry_multiplicity
 _atom_site_fract_x
 _atom_site_fract_y
 _atom_site_fract_z
 _atom_site_occupancy
  Na  Na0  1  0.003489  0.818537  0.500000  1
  Na  Na1  1  0.181171  0.180970  0.500000  1
  Na  Na2  1  0.334426  0.668644  0.000000  1
  Na  Na3  1  0.664322  0.332281  0.000000  1
  La  La4  1  0.824480  0.998768  0.500000  1
  Ga  Ga5  1  0.509120  0.678517  0.500000  1
  Ga  Ga6  1  0.321141  0.830589  0.500000  1
  P  P7  1  0.001608  0.184628  0.000000  1
  P  P8  1  0.824647  0.812523  0.000000  1
  P  P9  1  0.180730  0.999630  0.000000  1
  P  P10  1  0.172832  0.485436  0.500000  1
  P  P11  1  0.482748  0.177707  0.500000  1
  P  P12  1  0.691719  0.512356  0.500000  1
  P  P13  1  0.821654  0.311661  0.500000  1
  P  P14  1  0.003272  0.637702  0.000000  1
  P  P15  1  0.361429  0.365262  0.000000  1
  P  P16  1  0.631885  0.996000  0.000000  1
  Ir  Ir17  1  0.993540  0.290727  0.500000  1
  Ir  Ir18  1  0.719999  0.707107  0.500000  1
  Ir  Ir19  1  0.287911  0.009328  0.500000  1
  Ir  Ir20  1  0.635324  0.807786  0.000000  1
  Ir  Ir21  1  0.188202  0.817607  0.000000  1
  Ir  Ir22  1  0.173546  0.379329  0.000000  1
  Ir  Ir23  1  0.380668  0.188394  0.000000  1
  Ir  Ir24  1  0.805643  0.615648  0.000000  1
  Ir  Ir25  1  0.812785  0.193680  0.000000  1
  Ir  Ir26  1  0.536023  0.888765  0.500000  1
  Ir  Ir27  1  0.121612  0.633017  0.500000  1
  Ir  Ir28  1  0.346010  0.465263  0.500000  1
  Ir  Ir29  1  0.495110  0.364946  0.500000  1
  Ir  Ir30  1  0.869312  0.507655  0.500000  1
  Ir  Ir31  1  0.636295  0.136665  0.500000  1
  Ir  Ir32  1  0.000380  0.003084  0.000000  1
  Ir  Ir33  1  0.989420  0.450573  0.000000  1
  Ir  Ir34  1  0.543398  0.546395  0.000000  1
  Ir  Ir35  1  0.454149  0.002817  0.000000  1
