# generated using pymatgen
data_Lu13Th3Mg2(InRh2)2
_symmetry_space_group_name_H-M   'P 1'
_cell_length_a   9.59688071
_cell_length_b   9.60452330
_cell_length_c   9.60485604
_cell_angle_alpha   59.82376663
_cell_angle_beta   59.94000038
_cell_angle_gamma   59.82538260
_symmetry_Int_Tables_number   1
_chemical_formula_structural   Lu13Th3Mg2(InRh2)2
_chemical_formula_sum   'Lu13 Th3 Mg2 In2 Rh4'
_cell_volume   624.06359413
_cell_formula_units_Z   1
loop_
 _symmetry_equiv_pos_site_id
 _symmetry_equiv_pos_as_xyz
  1  'x, y, z'
loop_
 _atom_site_type_symbol
 _atom_site_label
 _atom_site_symmetry_multiplicity
 _atom_site_fract_x
 _atom_site_fract_y
 _atom_site_fract_z
 _atom_site_occupancy
  Lu  Lu0  1  0.198475  0.600896  0.601525  1
  Lu  Lu1  1  0.062917  0.438635  0.437784  1
  Lu  Lu2  1  0.436109  0.064339  0.064303  1
  Lu  Lu3  1  0.437025  0.063416  0.436184  1
  Lu  Lu4  1  0.063480  0.438065  0.060679  1
  Lu  Lu5  1  0.437081  0.437452  0.062489  1
  Lu  Lu6  1  0.064388  0.061511  0.436921  1
  Lu  Lu7  1  0.184978  0.814922  0.815432  1
  Lu  Lu8  1  0.815448  0.183808  0.184339  1
  Lu  Lu9  1  0.816124  0.183113  0.817063  1
  Lu  Lu10  1  0.184563  0.815596  0.185427  1
  Lu  Lu11  1  0.817195  0.817312  0.183109  1
  Lu  Lu12  1  0.183650  0.186652  0.815610  1
  Th  Th13  1  0.597675  0.599684  0.598736  1
  Th  Th14  1  0.597482  0.601899  0.201427  1
  Th  Th15  1  0.597113  0.201740  0.601104  1
  Mg  Mg16  1  0.833113  0.828890  0.830473  1
  Mg  Mg17  1  0.832581  0.828870  0.507887  1
  In  In18  1  0.837612  0.500894  0.830503  1
  In  In19  1  0.498674  0.834262  0.832777  1
  Rh  Rh20  1  0.394638  0.391855  0.390667  1
  Rh  Rh21  1  0.394135  0.390748  0.822646  1
  Rh  Rh22  1  0.393323  0.823214  0.390593  1
  Rh  Rh23  1  0.822222  0.392224  0.392319  1
