# generated using pymatgen
data_Ce6Al19Co2Si5Os6
_symmetry_space_group_name_H-M   'P 1'
_cell_length_a   8.75877500
_cell_length_b   8.73921501
_cell_length_c   9.47565400
_cell_angle_alpha   90.00000000
_cell_angle_beta   90.00000000
_cell_angle_gamma   120.07407006
_symmetry_Int_Tables_number   1
_chemical_formula_structural   Ce6Al19Co2Si5Os6
_chemical_formula_sum   'Ce6 Al19 Co2 Si5 Os6'
_cell_volume   627.66944521
_cell_formula_units_Z   1
loop_
 _symmetry_equiv_pos_site_id
 _symmetry_equiv_pos_as_xyz
  1  'x, y, z'
loop_
 _atom_site_type_symbol
 _atom_site_label
 _atom_site_symmetry_multiplicity
 _atom_site_fract_x
 _atom_site_fract_y
 _atom_site_fract_z
 _atom_site_occupancy
  Ce  Ce0  1  0.195352  0.390701  0.250000  1
  Ce  Ce1  1  0.805899  0.611799  0.750000  1
  Ce  Ce2  1  0.608613  0.805779  0.250000  1
  Ce  Ce3  1  0.390055  0.195107  0.750000  1
  Ce  Ce4  1  0.197168  0.805779  0.250000  1
  Ce  Ce5  1  0.805050  0.195107  0.750000  1
  Al  Al6  1  0.160603  0.321205  0.577513  1
  Al  Al7  1  0.839066  0.678133  0.421608  1
  Al  Al8  1  0.678585  0.839481  0.576463  1
  Al  Al9  1  0.839066  0.678133  0.078392  1
  Al  Al10  1  0.320561  0.161221  0.422236  1
  Al  Al11  1  0.160603  0.321205  0.922487  1
  Al  Al12  1  0.160897  0.839481  0.576463  1
  Al  Al13  1  0.320561  0.161221  0.077764  1
  Al  Al14  1  0.840659  0.161221  0.422236  1
  Al  Al15  1  0.678585  0.839481  0.923537  1
  Al  Al16  1  0.840659  0.161221  0.077764  1
  Al  Al17  1  0.160897  0.839481  0.923537  1
  Al  Al18  1  0.436181  0.872363  0.750000  1
  Al  Al19  1  0.869525  0.431189  0.250000  1
  Al  Al20  1  0.129215  0.564925  0.750000  1
  Al  Al21  1  0.561666  0.431189  0.250000  1
  Al  Al22  1  0.435708  0.564925  0.750000  1
  Al  Al23  1  0.999929  0.999857  0.250000  1
  Al  Al24  1  0.000576  0.001152  0.750000  1
  Co  Co25  1  0.999928  0.999857  0.999655  1
  Co  Co26  1  0.999928  0.999857  0.500345  1
  Si  Si27  1  0.332875  0.665752  0.030134  1
  Si  Si28  1  0.667363  0.334725  0.967304  1
  Si  Si29  1  0.667363  0.334725  0.532696  1
  Si  Si30  1  0.332875  0.665752  0.469866  1
  Si  Si31  1  0.563953  0.127904  0.250000  1
  Os  Os32  1  0.500855  0.001710  0.005334  1
  Os  Os33  1  0.998999  0.499163  0.000566  1
  Os  Os34  1  0.500855  0.001710  0.494666  1
  Os  Os35  1  0.500164  0.499163  0.000566  1
  Os  Os36  1  0.998999  0.499163  0.499434  1
  Os  Os37  1  0.500164  0.499163  0.499434  1
