# generated using pymatgen
data_Dy5YSi10
_symmetry_space_group_name_H-M   'P 1'
_cell_length_a   6.67166801
_cell_length_b   6.67166665
_cell_length_c   8.28396900
_cell_angle_alpha   90.00260844
_cell_angle_beta   89.99739431
_cell_angle_gamma   120.00473712
_symmetry_Int_Tables_number   1
_chemical_formula_structural   Dy5YSi10
_chemical_formula_sum   'Dy5 Y1 Si10'
_cell_volume   319.31338912
_cell_formula_units_Z   1
loop_
 _symmetry_equiv_pos_site_id
 _symmetry_equiv_pos_as_xyz
  1  'x, y, z'
loop_
 _atom_site_type_symbol
 _atom_site_label
 _atom_site_symmetry_multiplicity
 _atom_site_fract_x
 _atom_site_fract_y
 _atom_site_fract_z
 _atom_site_occupancy
  Dy  Dy0  1  0.330748  0.000001  0.999999  1
  Dy  Dy1  1  0.330748  0.999993  0.500002  1
  Dy  Dy2  1  0.999993  0.330748  0.499998  1
  Dy  Dy3  1  0.000001  0.330748  0.000001  1
  Dy  Dy4  1  0.669249  0.669249  0.000000  1
  Y  Y5  1  0.669248  0.669248  0.500000  1
  Si  Si6  1  0.380246  0.331201  0.249954  1
  Si  Si7  1  0.668745  0.049100  0.249981  1
  Si  Si8  1  0.951026  0.619694  0.249954  1
  Si  Si9  1  0.619694  0.951026  0.750046  1
  Si  Si10  1  0.000053  0.000042  0.249964  1
  Si  Si11  1  0.666649  0.333258  0.750047  1
  Si  Si12  1  0.049100  0.668745  0.750019  1
  Si  Si13  1  0.331201  0.380246  0.750046  1
  Si  Si14  1  0.333258  0.666649  0.249953  1
  Si  Si15  1  0.000042  0.000053  0.750036  1
