# generated using pymatgen
data_La6Nd2TiPd24
_symmetry_space_group_name_H-M   'P 1'
_cell_length_a   8.56110237
_cell_length_b   8.56110237
_cell_length_c   8.56110237
_cell_angle_alpha   90.02368925
_cell_angle_beta   90.02368925
_cell_angle_gamma   90.02368925
_symmetry_Int_Tables_number   1
_chemical_formula_structural   La6Nd2TiPd24
_chemical_formula_sum   'La6 Nd2 Ti1 Pd24'
_cell_volume   627.46420923
_cell_formula_units_Z   1
loop_
 _symmetry_equiv_pos_site_id
 _symmetry_equiv_pos_as_xyz
  1  'x, y, z'
loop_
 _atom_site_type_symbol
 _atom_site_label
 _atom_site_symmetry_multiplicity
 _atom_site_fract_x
 _atom_site_fract_y
 _atom_site_fract_z
 _atom_site_occupancy
  La  La0  1  0.746820  0.746820  0.253219  1
  La  La1  1  0.746820  0.253219  0.746820  1
  La  La2  1  0.253180  0.253180  0.746781  1
  La  La3  1  0.253180  0.746781  0.253180  1
  La  La4  1  0.253219  0.746820  0.746820  1
  La  La5  1  0.746781  0.253180  0.253180  1
  Nd  Nd6  1  0.252468  0.252468  0.252468  1
  Nd  Nd7  1  0.747532  0.747532  0.747532  1
  Ti  Ti8  1  0.000000  0.000000  0.000000  1
  Pd  Pd9  1  0.263173  0.499745  0.000331  1
  Pd  Pd10  1  0.736827  0.500255  0.999669  1
  Pd  Pd11  1  0.000331  0.263173  0.499745  1
  Pd  Pd12  1  0.499745  0.263173  0.000331  1
  Pd  Pd13  1  0.999669  0.736827  0.500255  1
  Pd  Pd14  1  0.500255  0.736827  0.999669  1
  Pd  Pd15  1  0.499745  0.000331  0.263173  1
  Pd  Pd16  1  0.263173  0.000331  0.499745  1
  Pd  Pd17  1  0.500255  0.999669  0.736827  1
  Pd  Pd18  1  0.736827  0.999669  0.500255  1
  Pd  Pd19  1  0.000331  0.499745  0.263173  1
  Pd  Pd20  1  0.999669  0.500255  0.736827  1
  Pd  Pd21  1  0.254459  0.499701  0.499701  1
  Pd  Pd22  1  0.745541  0.500299  0.500299  1
  Pd  Pd23  1  0.499701  0.254459  0.499701  1
  Pd  Pd24  1  0.500299  0.745541  0.500299  1
  Pd  Pd25  1  0.499701  0.499701  0.254459  1
  Pd  Pd26  1  0.500299  0.500299  0.745541  1
  Pd  Pd27  1  0.297564  0.000498  0.000498  1
  Pd  Pd28  1  0.702436  0.999502  0.999502  1
  Pd  Pd29  1  0.000498  0.297564  0.000498  1
  Pd  Pd30  1  0.999502  0.702436  0.999502  1
  Pd  Pd31  1  0.000498  0.000498  0.297564  1
  Pd  Pd32  1  0.999502  0.999502  0.702436  1
