# generated using pymatgen
data_Rb6ErSbSe3
_symmetry_space_group_name_H-M   'P 1'
_cell_length_a   11.20865700
_cell_length_b   11.20865614
_cell_length_c   9.06712200
_cell_angle_alpha   90.00000000
_cell_angle_beta   90.00000000
_cell_angle_gamma   119.99999959
_symmetry_Int_Tables_number   1
_chemical_formula_structural   Rb6ErSbSe3
_chemical_formula_sum   'Rb12 Er2 Sb2 Se6'
_cell_volume   986.52300746
_cell_formula_units_Z   2
loop_
 _symmetry_equiv_pos_site_id
 _symmetry_equiv_pos_as_xyz
  1  'x, y, z'
loop_
 _atom_site_type_symbol
 _atom_site_label
 _atom_site_symmetry_multiplicity
 _atom_site_fract_x
 _atom_site_fract_y
 _atom_site_fract_z
 _atom_site_occupancy
  Rb  Rb0  1  0.145010  0.854990  0.537542  1
  Rb  Rb1  1  0.290018  0.145010  0.037542  1
  Rb  Rb2  1  0.854990  0.709982  0.037542  1
  Rb  Rb3  1  0.145010  0.290018  0.537542  1
  Rb  Rb4  1  0.709982  0.854990  0.537542  1
  Rb  Rb5  1  0.854990  0.145010  0.037542  1
  Rb  Rb6  1  0.529400  0.470600  0.371073  1
  Rb  Rb7  1  0.058803  0.529400  0.871073  1
  Rb  Rb8  1  0.470600  0.941197  0.871073  1
  Rb  Rb9  1  0.529400  0.058803  0.371073  1
  Rb  Rb10  1  0.941197  0.470600  0.371073  1
  Rb  Rb11  1  0.470600  0.529400  0.871073  1
  Er  Er12  1  0.333333  0.666667  0.246805  1
  Er  Er13  1  0.666667  0.333333  0.746805  1
  Sb  Sb14  1  0.333333  0.666667  0.573430  1
  Sb  Sb15  1  0.666667  0.333333  0.073430  1
  Se  Se16  1  0.197264  0.802736  0.154540  1
  Se  Se17  1  0.394528  0.197264  0.654540  1
  Se  Se18  1  0.802736  0.605472  0.654540  1
  Se  Se19  1  0.197264  0.394528  0.154540  1
  Se  Se20  1  0.605472  0.802736  0.154540  1
  Se  Se21  1  0.802736  0.197264  0.654540  1
