# generated using pymatgen
data_Tm3(Th2Pd5)2
_symmetry_space_group_name_H-M   'P 1'
_cell_length_a   8.65238400
_cell_length_b   8.65242375
_cell_length_c   10.22916400
_cell_angle_alpha   90.00023177
_cell_angle_beta   89.99991391
_cell_angle_gamma   107.67301222
_symmetry_Int_Tables_number   1
_chemical_formula_structural   Tm3(Th2Pd5)2
_chemical_formula_sum   'Tm6 Th8 Pd20'
_cell_volume   729.65497018
_cell_formula_units_Z   2
loop_
 _symmetry_equiv_pos_site_id
 _symmetry_equiv_pos_as_xyz
  1  'x, y, z'
loop_
 _atom_site_type_symbol
 _atom_site_label
 _atom_site_symmetry_multiplicity
 _atom_site_fract_x
 _atom_site_fract_y
 _atom_site_fract_z
 _atom_site_occupancy
  Tm  Tm0  1  0.502017  0.002021  0.249998  1
  Tm  Tm1  1  0.997983  0.497979  0.749998  1
  Tm  Tm2  1  0.000000  0.000000  0.000000  1
  Tm  Tm3  1  0.002017  0.502021  0.250002  1
  Tm  Tm4  1  0.497983  0.997979  0.750002  1
  Tm  Tm5  1  0.500000  0.500000  0.500000  1
  Th  Th6  1  0.695256  0.304745  0.000001  1
  Th  Th7  1  0.195255  0.804744  0.499999  1
  Th  Th8  1  0.808445  0.808446  0.307619  1
  Th  Th9  1  0.308445  0.308445  0.192381  1
  Th  Th10  1  0.804745  0.195256  0.500001  1
  Th  Th11  1  0.304744  0.695255  0.999999  1
  Th  Th12  1  0.691555  0.691555  0.807619  1
  Th  Th13  1  0.191555  0.191554  0.692381  1
  Pd  Pd14  1  0.146266  0.435222  0.496573  1
  Pd  Pd15  1  0.897240  0.897241  0.601232  1
  Pd  Pd16  1  0.564778  0.853737  0.503423  1
  Pd  Pd17  1  0.859998  0.149209  0.208932  1
  Pd  Pd18  1  0.359998  0.649209  0.291068  1
  Pd  Pd19  1  0.649201  0.359999  0.291072  1
  Pd  Pd20  1  0.397240  0.397241  0.898768  1
  Pd  Pd21  1  0.935222  0.646263  0.003423  1
  Pd  Pd22  1  0.350799  0.640001  0.708928  1
  Pd  Pd23  1  0.353735  0.064778  0.996573  1
  Pd  Pd24  1  0.602760  0.602759  0.101232  1
  Pd  Pd25  1  0.646265  0.935222  0.003427  1
  Pd  Pd26  1  0.102760  0.102759  0.398768  1
  Pd  Pd27  1  0.640002  0.350791  0.708932  1
  Pd  Pd28  1  0.140002  0.850791  0.791068  1
  Pd  Pd29  1  0.064778  0.353737  0.996577  1
  Pd  Pd30  1  0.853734  0.564778  0.503427  1
  Pd  Pd31  1  0.149200  0.859999  0.208928  1
  Pd  Pd32  1  0.435222  0.146263  0.496577  1
  Pd  Pd33  1  0.850800  0.140001  0.791072  1
