# generated using pymatgen
data_Yb7YSi12Pd3Pt
_symmetry_space_group_name_H-M   'P 1'
_cell_length_a   8.23291800
_cell_length_b   8.23291652
_cell_length_c   8.25769600
_cell_angle_alpha   90.00000000
_cell_angle_beta   90.00000000
_cell_angle_gamma   119.99999792
_symmetry_Int_Tables_number   1
_chemical_formula_structural   Yb7YSi12Pd3Pt
_chemical_formula_sum   'Yb7 Y1 Si12 Pd3 Pt1'
_cell_volume   484.72680096
_cell_formula_units_Z   1
loop_
 _symmetry_equiv_pos_site_id
 _symmetry_equiv_pos_as_xyz
  1  'x, y, z'
loop_
 _atom_site_type_symbol
 _atom_site_label
 _atom_site_symmetry_multiplicity
 _atom_site_fract_x
 _atom_site_fract_y
 _atom_site_fract_z
 _atom_site_occupancy
  Yb  Yb0  1  0.500798  0.001595  0.250024  1
  Yb  Yb1  1  0.498034  0.996068  0.749851  1
  Yb  Yb2  1  0.998405  0.499202  0.250024  1
  Yb  Yb3  1  0.003932  0.501966  0.749851  1
  Yb  Yb4  1  0.500798  0.499202  0.250024  1
  Yb  Yb5  1  0.498034  0.501966  0.749851  1
  Yb  Yb6  1  0.000000  0.000000  0.250392  1
  Y  Y7  1  0.000000  0.000000  0.749350  1
  Si  Si8  1  0.164918  0.329835  0.999130  1
  Si  Si9  1  0.835375  0.670750  0.996861  1
  Si  Si10  1  0.670165  0.835082  0.999130  1
  Si  Si11  1  0.835546  0.671094  0.503159  1
  Si  Si12  1  0.329250  0.164625  0.996861  1
  Si  Si13  1  0.164239  0.328478  0.501673  1
  Si  Si14  1  0.164918  0.835082  0.999130  1
  Si  Si15  1  0.328906  0.164454  0.503159  1
  Si  Si16  1  0.835375  0.164625  0.996861  1
  Si  Si17  1  0.671522  0.835761  0.501673  1
  Si  Si18  1  0.835546  0.164454  0.503159  1
  Si  Si19  1  0.164239  0.835761  0.501673  1
  Pd  Pd20  1  0.666667  0.333333  0.996572  1
  Pd  Pd21  1  0.666667  0.333333  0.503480  1
  Pd  Pd22  1  0.333333  0.666667  0.495648  1
  Pt  Pt23  1  0.333333  0.666667  0.002465  1
