# generated using pymatgen
data_Ti3VTc2P3
_symmetry_space_group_name_H-M   'P 1'
_cell_length_a   6.61386052
_cell_length_b   6.61386162
_cell_length_c   3.26686400
_cell_angle_alpha   90.00000000
_cell_angle_beta   90.00000000
_cell_angle_gamma   120.10315222
_symmetry_Int_Tables_number   1
_chemical_formula_structural   Ti3VTc2P3
_chemical_formula_sum   'Ti3 V1 Tc2 P3'
_cell_volume   123.62874621
_cell_formula_units_Z   1
loop_
 _symmetry_equiv_pos_site_id
 _symmetry_equiv_pos_as_xyz
  1  'x, y, z'
loop_
 _atom_site_type_symbol
 _atom_site_label
 _atom_site_symmetry_multiplicity
 _atom_site_fract_x
 _atom_site_fract_y
 _atom_site_fract_z
 _atom_site_occupancy
  Ti  Ti0  1  0.412203  0.412203  0.500000  1
  Ti  Ti1  1  0.596168  0.995269  0.500000  1
  Ti  Ti2  1  0.995269  0.596168  0.500000  1
  V  V3  1  0.742999  0.742999  0.000000  1
  Tc  Tc4  1  0.000865  0.256344  0.000000  1
  Tc  Tc5  1  0.256344  0.000865  0.000000  1
  P  P6  1  0.668179  0.336660  0.000000  1
  P  P7  1  0.336660  0.668179  0.000000  1
  P  P8  1  0.991314  0.991314  0.500000  1
