# generated using pymatgen
data_Ho6Th2Cd2IrRu
_symmetry_space_group_name_H-M   'P 1'
_cell_length_a   9.69229477
_cell_length_b   9.69229495
_cell_length_c   9.69659500
_cell_angle_alpha   59.98531946
_cell_angle_beta   59.98531884
_cell_angle_gamma   60.02133039
_symmetry_Int_Tables_number   1
_chemical_formula_structural   Ho6Th2Cd2IrRu
_chemical_formula_sum   'Ho12 Th4 Cd4 Ir2 Ru2'
_cell_volume   644.06695654
_cell_formula_units_Z   2
loop_
 _symmetry_equiv_pos_site_id
 _symmetry_equiv_pos_as_xyz
  1  'x, y, z'
loop_
 _atom_site_type_symbol
 _atom_site_label
 _atom_site_symmetry_multiplicity
 _atom_site_fract_x
 _atom_site_fract_y
 _atom_site_fract_z
 _atom_site_occupancy
  Ho  Ho0  1  0.063467  0.437780  0.437928  1
  Ho  Ho1  1  0.437780  0.063467  0.060825  1
  Ho  Ho2  1  0.437780  0.063467  0.437928  1
  Ho  Ho3  1  0.063467  0.437780  0.060825  1
  Ho  Ho4  1  0.437143  0.437143  0.062857  1
  Ho  Ho5  1  0.061515  0.061515  0.438485  1
  Ho  Ho6  1  0.184920  0.813734  0.815883  1
  Ho  Ho7  1  0.813734  0.184920  0.185464  1
  Ho  Ho8  1  0.813734  0.184920  0.815883  1
  Ho  Ho9  1  0.184920  0.813734  0.185464  1
  Ho  Ho10  1  0.814567  0.814567  0.185433  1
  Ho  Ho11  1  0.184783  0.184783  0.815217  1
  Th  Th12  1  0.598445  0.598445  0.601965  1
  Th  Th13  1  0.598445  0.598445  0.201146  1
  Th  Th14  1  0.596295  0.204200  0.599753  1
  Th  Th15  1  0.204200  0.596295  0.599753  1
  Cd  Cd16  1  0.831854  0.831854  0.833090  1
  Cd  Cd17  1  0.831854  0.831854  0.503202  1
  Cd  Cd18  1  0.832654  0.501129  0.833109  1
  Cd  Cd19  1  0.501129  0.832654  0.833109  1
  Ir  Ir20  1  0.393959  0.823208  0.391416  1
  Ir  Ir21  1  0.823208  0.393959  0.391416  1
  Ru  Ru22  1  0.395075  0.395075  0.392403  1
  Ru  Ru23  1  0.395075  0.395075  0.817448  1
