# generated using pymatgen
data_Dy5In2PbBr
_symmetry_space_group_name_H-M   'P 1'
_cell_length_a   9.19861394
_cell_length_b   9.19861432
_cell_length_c   6.77155700
_cell_angle_alpha   90.00000000
_cell_angle_beta   90.00000000
_cell_angle_gamma   120.25592442
_symmetry_Int_Tables_number   1
_chemical_formula_structural   Dy5In2PbBr
_chemical_formula_sum   'Dy10 In4 Pb2 Br2'
_cell_volume   494.92364155
_cell_formula_units_Z   2
loop_
 _symmetry_equiv_pos_site_id
 _symmetry_equiv_pos_as_xyz
  1  'x, y, z'
loop_
 _atom_site_type_symbol
 _atom_site_label
 _atom_site_symmetry_multiplicity
 _atom_site_fract_x
 _atom_site_fract_y
 _atom_site_fract_z
 _atom_site_occupancy
  Dy  Dy0  1  0.266291  0.998012  0.250000  1
  Dy  Dy1  1  0.733709  0.001988  0.750000  1
  Dy  Dy2  1  0.998012  0.266291  0.250000  1
  Dy  Dy3  1  0.001988  0.733709  0.750000  1
  Dy  Dy4  1  0.736248  0.736248  0.250000  1
  Dy  Dy5  1  0.263752  0.263752  0.750000  1
  Dy  Dy6  1  0.331364  0.668636  0.000000  1
  Dy  Dy7  1  0.668636  0.331364  0.000000  1
  Dy  Dy8  1  0.668636  0.331364  0.500000  1
  Dy  Dy9  1  0.331364  0.668636  0.500000  1
  In  In10  1  0.608243  0.999705  0.250000  1
  In  In11  1  0.391757  0.000295  0.750000  1
  In  In12  1  0.999705  0.608243  0.250000  1
  In  In13  1  0.000295  0.391757  0.750000  1
  Pb  Pb14  1  0.389620  0.389620  0.250000  1
  Pb  Pb15  1  0.610380  0.610380  0.750000  1
  Br  Br16  1  0.000000  0.000000  0.000000  1
  Br  Br17  1  0.000000  0.000000  0.500000  1
