# generated using pymatgen
data_Tb8MgAlPd23
_symmetry_space_group_name_H-M   'P 1'
_cell_length_a   8.28217700
_cell_length_b   8.42239800
_cell_length_c   8.45433500
_cell_angle_alpha   90.00000000
_cell_angle_beta   90.00000000
_cell_angle_gamma   90.00000000
_symmetry_Int_Tables_number   1
_chemical_formula_structural   Tb8MgAlPd23
_chemical_formula_sum   'Tb8 Mg1 Al1 Pd23'
_cell_volume   589.73882531
_cell_formula_units_Z   1
loop_
 _symmetry_equiv_pos_site_id
 _symmetry_equiv_pos_as_xyz
  1  'x, y, z'
loop_
 _atom_site_type_symbol
 _atom_site_label
 _atom_site_symmetry_multiplicity
 _atom_site_fract_x
 _atom_site_fract_y
 _atom_site_fract_z
 _atom_site_occupancy
  Tb  Tb0  1  0.251181  0.242163  0.264193  1
  Tb  Tb1  1  0.747641  0.745967  0.749181  1
  Tb  Tb2  1  0.747641  0.745967  0.250819  1
  Tb  Tb3  1  0.747641  0.254033  0.749181  1
  Tb  Tb4  1  0.251181  0.242163  0.735807  1
  Tb  Tb5  1  0.251181  0.757837  0.264193  1
  Tb  Tb6  1  0.251181  0.757837  0.735807  1
  Tb  Tb7  1  0.747641  0.254033  0.250819  1
  Mg  Mg8  1  0.268212  0.500000  0.000000  1
  Al  Al9  1  0.997792  0.000000  0.000000  1
  Pd  Pd10  1  0.741719  0.500000  0.000000  1
  Pd  Pd11  1  0.996691  0.259036  0.500000  1
  Pd  Pd12  1  0.492908  0.261983  0.000000  1
  Pd  Pd13  1  0.996691  0.740964  0.500000  1
  Pd  Pd14  1  0.492908  0.738017  0.000000  1
  Pd  Pd15  1  0.501894  0.000000  0.260392  1
  Pd  Pd16  1  0.258643  0.000000  0.500000  1
  Pd  Pd17  1  0.501894  0.000000  0.739608  1
  Pd  Pd18  1  0.740158  0.000000  0.500000  1
  Pd  Pd19  1  0.005510  0.500000  0.259554  1
  Pd  Pd20  1  0.005510  0.500000  0.740446  1
  Pd  Pd21  1  0.252954  0.500000  0.500000  1
  Pd  Pd22  1  0.747599  0.500000  0.500000  1
  Pd  Pd23  1  0.502704  0.253947  0.500000  1
  Pd  Pd24  1  0.502704  0.746053  0.500000  1
  Pd  Pd25  1  0.494052  0.500000  0.253177  1
  Pd  Pd26  1  0.494052  0.500000  0.746823  1
  Pd  Pd27  1  0.288659  0.000000  0.000000  1
  Pd  Pd28  1  0.707908  0.000000  0.000000  1
  Pd  Pd29  1  0.010648  0.290855  0.000000  1
  Pd  Pd30  1  0.010648  0.709145  0.000000  1
  Pd  Pd31  1  0.996128  0.000000  0.287235  1
  Pd  Pd32  1  0.996128  0.000000  0.712765  1
