# generated using pymatgen
data_Y2GaP6(IrRh3)3
_symmetry_space_group_name_H-M   'P 1'
_cell_length_a   9.67130100
_cell_length_b   9.67129994
_cell_length_c   3.90653600
_cell_angle_alpha   90.00000000
_cell_angle_beta   90.00000000
_cell_angle_gamma   119.99999335
_symmetry_Int_Tables_number   1
_chemical_formula_structural   Y2GaP6(IrRh3)3
_chemical_formula_sum   'Y2 Ga1 P6 Ir3 Rh9'
_cell_volume   316.44063278
_cell_formula_units_Z   1
loop_
 _symmetry_equiv_pos_site_id
 _symmetry_equiv_pos_as_xyz
  1  'x, y, z'
loop_
 _atom_site_type_symbol
 _atom_site_label
 _atom_site_symmetry_multiplicity
 _atom_site_fract_x
 _atom_site_fract_y
 _atom_site_fract_z
 _atom_site_occupancy
  Y  Y0  1  0.333333  0.666667  0.750695  1
  Y  Y1  1  0.666667  0.333333  0.249415  1
  Ga  Ga2  1  0.000000  0.000000  0.499687  1
  P  P3  1  0.403970  0.285053  0.749801  1
  P  P4  1  0.714947  0.118917  0.749801  1
  P  P5  1  0.881083  0.596030  0.749801  1
  P  P6  1  0.597306  0.714575  0.250348  1
  P  P7  1  0.285425  0.882731  0.250348  1
  P  P8  1  0.117269  0.402694  0.250348  1
  Ir  Ir9  1  0.452418  0.066650  0.750046  1
  Ir  Ir10  1  0.933350  0.385768  0.750046  1
  Ir  Ir11  1  0.614232  0.547582  0.750046  1
  Rh  Rh12  1  0.547017  0.931788  0.249808  1
  Rh  Rh13  1  0.068212  0.615229  0.249808  1
  Rh  Rh14  1  0.384771  0.452983  0.249808  1
  Rh  Rh15  1  0.158218  0.280068  0.751930  1
  Rh  Rh16  1  0.719932  0.878151  0.751930  1
  Rh  Rh17  1  0.121849  0.841782  0.751930  1
  Rh  Rh18  1  0.841816  0.720286  0.248134  1
  Rh  Rh19  1  0.279714  0.121530  0.248134  1
  Rh  Rh20  1  0.878470  0.158184  0.248134  1
