# generated using pymatgen
data_BaMnAl10O17
_symmetry_space_group_name_H-M   'P 1'
_cell_length_a   5.70552700
_cell_length_b   5.70552697
_cell_length_c   22.97185800
_cell_angle_alpha   90.00000000
_cell_angle_beta   90.00000000
_cell_angle_gamma   120.00000598
_symmetry_Int_Tables_number   1
_chemical_formula_structural   BaMnAl10O17
_chemical_formula_sum   'Ba2 Mn2 Al20 O34'
_cell_volume   647.61702321
_cell_formula_units_Z   2
loop_
 _symmetry_equiv_pos_site_id
 _symmetry_equiv_pos_as_xyz
  1  'x, y, z'
loop_
 _atom_site_type_symbol
 _atom_site_label
 _atom_site_symmetry_multiplicity
 _atom_site_fract_x
 _atom_site_fract_y
 _atom_site_fract_z
 _atom_site_occupancy
  Ba  Ba0  1  0.000000  0.000000  0.247148  1
  Ba  Ba1  1  0.666667  0.333333  0.747239  1
  Mn  Mn2  1  0.000000  0.000000  0.523874  1
  Mn  Mn3  1  0.666667  0.333333  0.022831  1
  Al  Al4  1  0.000000  0.000000  0.672266  1
  Al  Al5  1  0.666667  0.333333  0.323810  1
  Al  Al6  1  0.666667  0.333333  0.172046  1
  Al  Al7  1  0.000000  0.000000  0.823369  1
  Al  Al8  1  0.333333  0.666667  0.503392  1
  Al  Al9  1  0.333333  0.666667  0.002384  1
  Al  Al10  1  0.165258  0.330516  0.393769  1
  Al  Al11  1  0.165258  0.834742  0.393769  1
  Al  Al12  1  0.669484  0.834742  0.393769  1
  Al  Al13  1  0.496123  0.992246  0.606696  1
  Al  Al14  1  0.496123  0.503877  0.606696  1
  Al  Al15  1  0.007754  0.503877  0.606696  1
  Al  Al16  1  0.501384  0.002767  0.892848  1
  Al  Al17  1  0.501384  0.498616  0.892848  1
  Al  Al18  1  0.997233  0.498616  0.892848  1
  Al  Al19  1  0.170513  0.341025  0.105782  1
  Al  Al20  1  0.170513  0.829487  0.105782  1
  Al  Al21  1  0.658975  0.829487  0.105782  1
  Al  Al22  1  0.666667  0.333333  0.477838  1
  Al  Al23  1  0.000000  0.000000  0.976804  1
  O  O24  1  0.187776  0.375553  0.555566  1
  O  O25  1  0.187776  0.812224  0.555566  1
  O  O26  1  0.624447  0.812224  0.555566  1
  O  O27  1  0.491167  0.982333  0.450559  1
  O  O28  1  0.491167  0.508833  0.450559  1
  O  O29  1  0.017667  0.508833  0.450559  1
  O  O30  1  0.478894  0.957790  0.054499  1
  O  O31  1  0.478894  0.521106  0.054499  1
  O  O32  1  0.042210  0.521106  0.054499  1
  O  O33  1  0.175504  0.351009  0.949487  1
  O  O34  1  0.175504  0.824496  0.949487  1
  O  O35  1  0.648991  0.824496  0.949487  1
  O  O36  1  0.000000  0.000000  0.434838  1
  O  O37  1  0.666667  0.333333  0.556987  1
  O  O38  1  0.666667  0.333333  0.933899  1
  O  O39  1  0.000000  0.000000  0.056025  1
  O  O40  1  0.827863  0.655727  0.647990  1
  O  O41  1  0.827863  0.172137  0.647990  1
  O  O42  1  0.344273  0.172137  0.647990  1
  O  O43  1  0.836153  0.672304  0.350565  1
  O  O44  1  0.836153  0.163847  0.350565  1
  O  O45  1  0.327696  0.163847  0.350565  1
  O  O46  1  0.838687  0.677375  0.147267  1
  O  O47  1  0.838687  0.161313  0.147267  1
  O  O48  1  0.322625  0.161313  0.147267  1
  O  O49  1  0.830435  0.660870  0.849816  1
  O  O50  1  0.830435  0.169565  0.849816  1
  O  O51  1  0.339130  0.169565  0.849816  1
  O  O52  1  0.333333  0.666667  0.649120  1
  O  O53  1  0.333333  0.666667  0.359178  1
  O  O54  1  0.333333  0.666667  0.148040  1
  O  O55  1  0.333333  0.666667  0.858116  1
  O  O56  1  0.000000  0.000000  0.748096  1
  O  O57  1  0.666667  0.333333  0.248167  1
