# generated using pymatgen
data_Er7ScNb12Si15P
_symmetry_space_group_name_H-M   'P 1'
_cell_length_a   6.83281063
_cell_length_b   7.02902417
_cell_length_c   13.32696494
_cell_angle_alpha   90.11575967
_cell_angle_beta   90.03602626
_cell_angle_gamma   90.13539393
_symmetry_Int_Tables_number   1
_chemical_formula_structural   Er7ScNb12Si15P
_chemical_formula_sum   'Er7 Sc1 Nb12 Si15 P1'
_cell_volume   640.06413079
_cell_formula_units_Z   1
loop_
 _symmetry_equiv_pos_site_id
 _symmetry_equiv_pos_as_xyz
  1  'x, y, z'
loop_
 _atom_site_type_symbol
 _atom_site_label
 _atom_site_symmetry_multiplicity
 _atom_site_fract_x
 _atom_site_fract_y
 _atom_site_fract_z
 _atom_site_occupancy
  Er  Er0  1  0.504392  0.676024  0.594177  1
  Er  Er1  1  0.004216  0.827964  0.903577  1
  Er  Er2  1  0.496555  0.328036  0.096041  1
  Er  Er3  1  0.994383  0.170308  0.406014  1
  Er  Er4  1  0.496082  0.324797  0.405529  1
  Er  Er5  1  0.996307  0.172053  0.096156  1
  Er  Er6  1  0.504079  0.672389  0.902900  1
  Sc  Sc7  1  0.003673  0.824528  0.598812  1
  Nb  Nb8  1  0.663673  0.170304  0.622715  1
  Nb  Nb9  1  0.163015  0.324961  0.873242  1
  Nb  Nb10  1  0.337408  0.825571  0.125960  1
  Nb  Nb11  1  0.835749  0.679217  0.376752  1
  Nb  Nb12  1  0.339957  0.827655  0.376325  1
  Nb  Nb13  1  0.836337  0.675096  0.126128  1
  Nb  Nb14  1  0.663995  0.173619  0.873139  1
  Nb  Nb15  1  0.162795  0.325546  0.624732  1
  Nb  Nb16  1  0.839664  0.492633  0.748741  1
  Nb  Nb17  1  0.338373  0.004844  0.748397  1
  Nb  Nb18  1  0.161227  0.507602  0.251170  1
  Nb  Nb19  1  0.662074  0.993897  0.251689  1
  Si  Si20  1  0.163311  0.536412  0.040339  1
  Si  Si21  1  0.337382  0.036657  0.958701  1
  Si  Si22  1  0.838772  0.468409  0.542299  1
  Si  Si23  1  0.323551  0.034333  0.542777  1
  Si  Si24  1  0.836755  0.463392  0.958893  1
  Si  Si25  1  0.663074  0.963508  0.040860  1
  Si  Si26  1  0.162875  0.539666  0.460466  1
  Si  Si27  1  0.460416  0.377106  0.748596  1
  Si  Si28  1  0.960568  0.118687  0.747813  1
  Si  Si29  1  0.539739  0.621306  0.250700  1
  Si  Si30  1  0.041313  0.877786  0.250539  1
  Si  Si31  1  0.708840  0.869425  0.748179  1
  Si  Si32  1  0.204523  0.630490  0.748044  1
  Si  Si33  1  0.293524  0.130203  0.250493  1
  Si  Si34  1  0.795621  0.372419  0.250995  1
  P  P35  1  0.665779  0.963155  0.458109  1
