# generated using pymatgen
data_TbY2Er2Pb3
_symmetry_space_group_name_H-M   'P 1'
_cell_length_a   9.05115320
_cell_length_b   9.05445881
_cell_length_c   6.62259800
_cell_angle_alpha   90.00000000
_cell_angle_beta   90.00000000
_cell_angle_gamma   120.01208875
_symmetry_Int_Tables_number   1
_chemical_formula_structural   TbY2Er2Pb3
_chemical_formula_sum   'Tb2 Y4 Er4 Pb6'
_cell_volume   469.97258225
_cell_formula_units_Z   2
loop_
 _symmetry_equiv_pos_site_id
 _symmetry_equiv_pos_as_xyz
  1  'x, y, z'
loop_
 _atom_site_type_symbol
 _atom_site_label
 _atom_site_symmetry_multiplicity
 _atom_site_fract_x
 _atom_site_fract_y
 _atom_site_fract_z
 _atom_site_occupancy
  Tb  Tb0  1  0.760511  0.760525  0.750000  1
  Tb  Tb1  1  0.239489  0.000014  0.750000  1
  Y  Y2  1  0.000000  0.239497  0.750000  1
  Y  Y3  1  0.239509  0.239483  0.250000  1
  Y  Y4  1  0.760491  0.999974  0.250000  1
  Y  Y5  1  0.000000  0.760456  0.250000  1
  Er  Er6  1  0.666665  0.333326  0.000035  1
  Er  Er7  1  0.333335  0.666662  0.000035  1
  Er  Er8  1  0.333335  0.666662  0.499965  1
  Er  Er9  1  0.666665  0.333326  0.499965  1
  Pb  Pb10  1  0.394492  0.394600  0.750000  1
  Pb  Pb11  1  0.605508  0.000108  0.750000  1
  Pb  Pb12  1  0.000000  0.605270  0.750000  1
  Pb  Pb13  1  0.605543  0.605563  0.250000  1
  Pb  Pb14  1  0.394457  0.000020  0.250000  1
  Pb  Pb15  1  0.000000  0.394515  0.250000  1
