# generated using pymatgen
data_Cs8Tm2Se7
_symmetry_space_group_name_H-M   'P 1'
_cell_length_a   9.29809046
_cell_length_b   23.34428000
_cell_length_c   9.06893442
_cell_angle_alpha   90.00000000
_cell_angle_beta   121.08724115
_cell_angle_gamma   90.00000000
_symmetry_Int_Tables_number   1
_chemical_formula_structural   Cs8Tm2Se7
_chemical_formula_sum   'Cs16 Tm4 Se14'
_cell_volume   1685.76908990
_cell_formula_units_Z   2
loop_
 _symmetry_equiv_pos_site_id
 _symmetry_equiv_pos_as_xyz
  1  'x, y, z'
loop_
 _atom_site_type_symbol
 _atom_site_label
 _atom_site_symmetry_multiplicity
 _atom_site_fract_x
 _atom_site_fract_y
 _atom_site_fract_z
 _atom_site_occupancy
  Cs  Cs0  1  0.636677  0.419733  0.142719  1
  Cs  Cs1  1  0.770615  0.787455  0.215020  1
  Cs  Cs2  1  0.772840  0.995046  0.226271  1
  Cs  Cs3  1  0.785664  0.187693  0.229184  1
  Cs  Cs4  1  0.214333  0.687692  0.270816  1
  Cs  Cs5  1  0.227161  0.495044  0.273730  1
  Cs  Cs6  1  0.229390  0.287453  0.284986  1
  Cs  Cs7  1  0.363321  0.919733  0.357276  1
  Cs  Cs8  1  0.636677  0.080267  0.642719  1
  Cs  Cs9  1  0.770615  0.712544  0.715020  1
  Cs  Cs10  1  0.772840  0.504954  0.726271  1
  Cs  Cs11  1  0.785664  0.312307  0.729184  1
  Cs  Cs12  1  0.214333  0.812308  0.770815  1
  Cs  Cs13  1  0.227161  0.004956  0.773729  1
  Cs  Cs14  1  0.229389  0.212546  0.784986  1
  Cs  Cs15  1  0.363321  0.580267  0.857276  1
  Tm  Tm16  1  0.149031  0.100461  0.147095  1
  Tm  Tm17  1  0.850967  0.600462  0.352903  1
  Tm  Tm18  1  0.149031  0.399539  0.647095  1
  Tm  Tm19  1  0.850966  0.899538  0.852903  1
  Se  Se20  1  0.000000  0.000000  0.000000  1
  Se  Se21  1  0.055332  0.816915  0.061312  1
  Se  Se22  1  0.826712  0.607169  0.045301  1
  Se  Se23  1  0.447090  0.100185  0.167197  1
  Se  Se24  1  0.552910  0.600182  0.332805  1
  Se  Se25  1  0.173288  0.107170  0.454699  1
  Se  Se26  1  0.944667  0.316915  0.438688  1
  Se  Se27  1  0.000000  0.500000  0.500000  1
  Se  Se28  1  0.055333  0.683085  0.561312  1
  Se  Se29  1  0.826712  0.892831  0.545301  1
  Se  Se30  1  0.447090  0.399815  0.667197  1
  Se  Se31  1  0.552910  0.899819  0.832805  1
  Se  Se32  1  0.173289  0.392830  0.954700  1
  Se  Se33  1  0.944667  0.183085  0.938688  1
