# generated using pymatgen
data_Tb2Gd2TcB12Ru
_symmetry_space_group_name_H-M   'P 1'
_cell_length_a   3.70294800
_cell_length_b   9.19913171
_cell_length_c   11.59452816
_cell_angle_alpha   89.86894096
_cell_angle_beta   90.00000000
_cell_angle_gamma   90.00000000
_symmetry_Int_Tables_number   1
_chemical_formula_structural   Tb2Gd2TcB12Ru
_chemical_formula_sum   'Tb4 Gd4 Tc2 B24 Ru2'
_cell_volume   394.95388842
_cell_formula_units_Z   2
loop_
 _symmetry_equiv_pos_site_id
 _symmetry_equiv_pos_as_xyz
  1  'x, y, z'
loop_
 _atom_site_type_symbol
 _atom_site_label
 _atom_site_symmetry_multiplicity
 _atom_site_fract_x
 _atom_site_fract_y
 _atom_site_fract_z
 _atom_site_occupancy
  Tb  Tb0  1  0.000000  0.941999  0.370150  1
  Tb  Tb1  1  0.000000  0.058001  0.629850  1
  Tb  Tb2  1  0.000000  0.442882  0.130432  1
  Tb  Tb3  1  0.000000  0.557118  0.869568  1
  Gd  Gd4  1  0.000000  0.325311  0.415300  1
  Gd  Gd5  1  0.000000  0.674689  0.584700  1
  Gd  Gd6  1  0.000000  0.821777  0.087288  1
  Gd  Gd7  1  0.000000  0.178223  0.912712  1
  Tc  Tc8  1  0.000000  0.638726  0.320155  1
  Tc  Tc9  1  0.000000  0.361274  0.679845  1
  B  B10  1  0.500000  0.553570  0.432535  1
  B  B11  1  0.500000  0.446430  0.567465  1
  B  B12  1  0.500000  0.054241  0.067581  1
  B  B13  1  0.500000  0.945759  0.932419  1
  B  B14  1  0.500000  0.747833  0.418465  1
  B  B15  1  0.500000  0.252167  0.581535  1
  B  B16  1  0.500000  0.247840  0.081663  1
  B  B17  1  0.500000  0.752160  0.918337  1
  B  B18  1  0.500000  0.790626  0.265636  1
  B  B19  1  0.500000  0.209374  0.734364  1
  B  B20  1  0.500000  0.289818  0.233918  1
  B  B21  1  0.500000  0.710182  0.766082  1
  B  B22  1  0.500000  0.631410  0.185780  1
  B  B23  1  0.500000  0.368590  0.814220  1
  B  B24  1  0.500000  0.131077  0.313383  1
  B  B25  1  0.500000  0.868923  0.686617  1
  B  B26  1  0.500000  0.984218  0.211651  1
  B  B27  1  0.500000  0.015782  0.788349  1
  B  B28  1  0.500000  0.483807  0.287908  1
  B  B29  1  0.500000  0.516193  0.712092  1
  B  B30  1  0.500000  0.603801  0.028692  1
  B  B31  1  0.500000  0.396199  0.971308  1
  B  B32  1  0.500000  0.103655  0.471033  1
  B  B33  1  0.500000  0.896345  0.528967  1
  Ru  Ru34  1  0.000000  0.137820  0.178466  1
  Ru  Ru35  1  0.000000  0.862180  0.821534  1
