# generated using pymatgen
data_Ho4GeBi5Rh7
_symmetry_space_group_name_H-M   'P 1'
_cell_length_a   7.71763437
_cell_length_b   7.71763599
_cell_length_c   7.71763521
_cell_angle_alpha   106.88716218
_cell_angle_beta   110.77849776
_cell_angle_gamma   110.77850053
_symmetry_Int_Tables_number   1
_chemical_formula_structural   Ho4GeBi5Rh7
_chemical_formula_sum   'Ho4 Ge1 Bi5 Rh7'
_cell_volume   353.32271016
_cell_formula_units_Z   1
loop_
 _symmetry_equiv_pos_site_id
 _symmetry_equiv_pos_as_xyz
  1  'x, y, z'
loop_
 _atom_site_type_symbol
 _atom_site_label
 _atom_site_symmetry_multiplicity
 _atom_site_fract_x
 _atom_site_fract_y
 _atom_site_fract_z
 _atom_site_occupancy
  Ho  Ho0  1  0.000000  0.984675  0.531356  1
  Ho  Ho1  1  0.000000  0.531356  0.984675  1
  Ho  Ho2  1  0.453318  0.984675  0.984675  1
  Ho  Ho3  1  0.546682  0.531356  0.531356  1
  Ge  Ge4  1  0.000000  0.644917  0.644917  1
  Bi  Bi5  1  0.689159  0.705920  0.016761  1
  Bi  Bi6  1  0.310841  0.016761  0.327602  1
  Bi  Bi7  1  0.000000  0.303636  0.303636  1
  Bi  Bi8  1  0.310841  0.327602  0.016761  1
  Bi  Bi9  1  0.689159  0.016761  0.705920  1
  Rh  Rh10  1  0.754660  0.257351  0.502691  1
  Rh  Rh11  1  0.754660  0.502691  0.257351  1
  Rh  Rh12  1  0.500000  0.262956  0.762956  1
  Rh  Rh13  1  0.245340  0.502691  0.748031  1
  Rh  Rh14  1  0.245340  0.748031  0.502691  1
  Rh  Rh15  1  0.500000  0.762956  0.262956  1
  Rh  Rh16  1  0.000000  0.915665  0.915665  1
