# generated using pymatgen
data_Dy5YAl24Os7Ru
_symmetry_space_group_name_H-M   'P 1'
_cell_length_a   8.83271201
_cell_length_b   8.83242327
_cell_length_c   9.56543600
_cell_angle_alpha   89.99783229
_cell_angle_beta   90.00209911
_cell_angle_gamma   120.00468248
_symmetry_Int_Tables_number   1
_chemical_formula_structural   Dy5YAl24Os7Ru
_chemical_formula_sum   'Dy5 Y1 Al24 Os7 Ru1'
_cell_volume   646.23258350
_cell_formula_units_Z   1
loop_
 _symmetry_equiv_pos_site_id
 _symmetry_equiv_pos_as_xyz
  1  'x, y, z'
loop_
 _atom_site_type_symbol
 _atom_site_label
 _atom_site_symmetry_multiplicity
 _atom_site_fract_x
 _atom_site_fract_y
 _atom_site_fract_z
 _atom_site_occupancy
  Dy  Dy0  1  0.193258  0.386429  0.249287  1
  Dy  Dy1  1  0.613578  0.806738  0.249288  1
  Dy  Dy2  1  0.806696  0.193323  0.750713  1
  Dy  Dy3  1  0.806775  0.613447  0.750719  1
  Dy  Dy4  1  0.386545  0.193229  0.750719  1
  Y  Y5  1  0.193201  0.806789  0.249362  1
  Al  Al6  1  0.560627  0.439376  0.249734  1
  Al  Al7  1  0.560737  0.121266  0.249740  1
  Al  Al8  1  0.878740  0.439268  0.249739  1
  Al  Al9  1  0.439367  0.560631  0.750258  1
  Al  Al10  1  0.439357  0.878743  0.750253  1
  Al  Al11  1  0.121250  0.560638  0.750253  1
  Al  Al12  1  0.324666  0.162399  0.423772  1
  Al  Al13  1  0.837683  0.162315  0.423663  1
  Al  Al14  1  0.837598  0.675329  0.423773  1
  Al  Al15  1  0.675371  0.837715  0.576301  1
  Al  Al16  1  0.162323  0.837678  0.576383  1
  Al  Al17  1  0.162288  0.324634  0.576300  1
  Al  Al18  1  0.675221  0.837642  0.923790  1
  Al  Al19  1  0.162394  0.837606  0.923708  1
  Al  Al20  1  0.162360  0.324783  0.923791  1
  Al  Al21  1  0.324822  0.162471  0.076126  1
  Al  Al22  1  0.837616  0.162383  0.076240  1
  Al  Al23  1  0.837526  0.675174  0.076125  1
  Al  Al24  1  0.666702  0.333315  0.515758  1
  Al  Al25  1  0.333343  0.666639  0.484302  1
  Al  Al26  1  0.333345  0.666636  0.015666  1
  Al  Al27  1  0.666697  0.333321  0.984276  1
  Al  Al28  1  0.999832  0.000174  0.248261  1
  Al  Al29  1  0.999983  0.000012  0.751734  1
  Os  Os30  1  0.000003  0.999996  0.499966  1
  Os  Os31  1  0.500006  0.499994  0.499989  1
  Os  Os32  1  0.500144  0.000108  0.500124  1
  Os  Os33  1  0.999891  0.499855  0.500124  1
  Os  Os34  1  0.500005  0.499994  0.000003  1
  Os  Os35  1  0.500146  0.000103  0.999865  1
  Os  Os36  1  0.999896  0.499853  0.999865  1
  Ru  Ru37  1  0.000006  0.999993  0.000031  1
