# generated using pymatgen
data_La20(Si3Hg)3
_symmetry_space_group_name_H-M   'P 1'
_cell_length_a   7.92496700
_cell_length_b   7.92496700
_cell_length_c   15.09055800
_cell_angle_alpha   90.00000000
_cell_angle_beta   90.00000000
_cell_angle_gamma   90.00000000
_symmetry_Int_Tables_number   1
_chemical_formula_structural   La20(Si3Hg)3
_chemical_formula_sum   'La20 Si9 Hg3'
_cell_volume   947.76403369
_cell_formula_units_Z   1
loop_
 _symmetry_equiv_pos_site_id
 _symmetry_equiv_pos_as_xyz
  1  'x, y, z'
loop_
 _atom_site_type_symbol
 _atom_site_label
 _atom_site_symmetry_multiplicity
 _atom_site_fract_x
 _atom_site_fract_y
 _atom_site_fract_z
 _atom_site_occupancy
  La  La0  1  0.500000  0.000000  0.774793  1
  La  La1  1  0.333958  0.317098  0.112997  1
  La  La2  1  0.835879  0.813646  0.886090  1
  La  La3  1  0.000000  0.500000  0.223012  1
  La  La4  1  0.838843  0.193672  0.391641  1
  La  La5  1  0.164121  0.186354  0.886090  1
  La  La6  1  0.666042  0.682902  0.112997  1
  La  La7  1  0.000000  0.500000  0.722586  1
  La  La8  1  0.821195  0.821989  0.607774  1
  La  La9  1  0.306328  0.338843  0.391641  1
  La  La10  1  0.182902  0.833958  0.112997  1
  La  La11  1  0.178805  0.178011  0.607774  1
  La  La12  1  0.817098  0.166042  0.112997  1
  La  La13  1  0.321989  0.678805  0.607774  1
  La  La14  1  0.500000  0.000000  0.282899  1
  La  La15  1  0.686354  0.335879  0.886090  1
  La  La16  1  0.678011  0.321195  0.607774  1
  La  La17  1  0.313646  0.664121  0.886090  1
  La  La18  1  0.161157  0.806328  0.391641  1
  La  La19  1  0.693672  0.661157  0.391641  1
  Si  Si20  1  0.613824  0.385466  0.252977  1
  Si  Si21  1  0.884591  0.111034  0.746069  1
  Si  Si22  1  0.885466  0.886176  0.252977  1
  Si  Si23  1  0.115409  0.888966  0.746069  1
  Si  Si24  1  0.388966  0.384591  0.746069  1
  Si  Si25  1  0.114534  0.113824  0.252977  1
  Si  Si26  1  0.386176  0.614534  0.252977  1
  Si  Si27  1  0.611034  0.615409  0.746069  1
  Si  Si28  1  0.000000  0.500000  0.507934  1
  Hg  Hg29  1  0.500000  0.000000  0.499842  1
  Hg  Hg30  1  0.000000  0.500000  0.001697  1
  Hg  Hg31  1  0.500000  0.000000  0.997043  1
