# generated using pymatgen
data_Rb2Na6CrFe13(PO4)12
_symmetry_space_group_name_H-M   'P 1'
_cell_length_a   8.54277391
_cell_length_b   8.54277395
_cell_length_c   15.96481000
_cell_angle_alpha   72.24978022
_cell_angle_beta   72.24978015
_cell_angle_gamma   79.60330506
_symmetry_Int_Tables_number   1
_chemical_formula_structural   Rb2Na6CrFe13(PO4)12
_chemical_formula_sum   'Rb2 Na6 Cr1 Fe13 P12 O48'
_cell_volume   1051.87578298
_cell_formula_units_Z   1
loop_
 _symmetry_equiv_pos_site_id
 _symmetry_equiv_pos_as_xyz
  1  'x, y, z'
loop_
 _atom_site_type_symbol
 _atom_site_label
 _atom_site_symmetry_multiplicity
 _atom_site_fract_x
 _atom_site_fract_y
 _atom_site_fract_z
 _atom_site_occupancy
  Rb  Rb0  1  0.257366  0.744107  0.750153  1
  Rb  Rb1  1  0.742634  0.255893  0.249847  1
  Na  Na2  1  0.719459  0.240873  0.521846  1
  Na  Na3  1  0.280541  0.759127  0.478154  1
  Na  Na4  1  0.759029  0.279812  0.979481  1
  Na  Na5  1  0.240971  0.720188  0.020519  1
  Na  Na6  1  0.500000  0.000000  0.000000  1
  Na  Na7  1  0.000000  0.500000  0.500000  1
  Cr  Cr8  1  0.500000  0.000000  0.500000  1
  Fe  Fe9  1  0.615674  0.385103  0.750350  1
  Fe  Fe10  1  0.384326  0.614897  0.249650  1
  Fe  Fe11  1  0.699858  0.685974  0.857842  1
  Fe  Fe12  1  0.300142  0.314026  0.142158  1
  Fe  Fe13  1  0.313888  0.301556  0.642697  1
  Fe  Fe14  1  0.686112  0.698444  0.357303  1
  Fe  Fe15  1  0.913846  0.086874  0.750773  1
  Fe  Fe16  1  0.086154  0.913126  0.249227  1
  Fe  Fe17  1  0.000000  0.500000  0.000000  1
  Fe  Fe18  1  0.779705  0.852834  0.123481  1
  Fe  Fe19  1  0.220295  0.147166  0.876519  1
  Fe  Fe20  1  0.147712  0.220502  0.375073  1
  Fe  Fe21  1  0.852288  0.779498  0.624927  1
  P  P22  1  0.559141  0.021013  0.733583  1
  P  P23  1  0.440859  0.978987  0.266417  1
  P  P24  1  0.979620  0.441121  0.769881  1
  P  P25  1  0.020380  0.558879  0.230119  1
  P  P26  1  0.908403  0.907552  0.927109  1
  P  P27  1  0.091597  0.092448  0.072891  1
  P  P28  1  0.093114  0.092046  0.573103  1
  P  P29  1  0.906886  0.907954  0.426897  1
  P  P30  1  0.588289  0.589088  0.577468  1
  P  P31  1  0.411711  0.410912  0.422532  1
  P  P32  1  0.410944  0.412793  0.922286  1
  P  P33  1  0.589056  0.587207  0.077714  1
  O  O34  1  0.486322  0.094472  0.649041  1
  O  O35  1  0.513678  0.905528  0.350959  1
  O  O36  1  0.908811  0.511563  0.855830  1
  O  O37  1  0.091189  0.488437  0.144170  1
  O  O38  1  0.315383  0.461292  0.511168  1
  O  O39  1  0.684617  0.538708  0.488832  1
  O  O40  1  0.538548  0.682192  0.989107  1
  O  O41  1  0.461452  0.317808  0.010893  1
  O  O42  1  0.947580  0.988666  0.137756  1
  O  O43  1  0.052420  0.011334  0.862244  1
  O  O44  1  0.010777  0.051946  0.362934  1
  O  O45  1  0.989223  0.948054  0.637066  1
  O  O46  1  0.479632  0.452315  0.648492  1
  O  O47  1  0.520368  0.547685  0.351508  1
  O  O48  1  0.546894  0.522864  0.851213  1
  O  O49  1  0.453106  0.477136  0.148787  1
  O  O50  1  0.475823  0.752124  0.558192  1
  O  O51  1  0.524177  0.247876  0.441808  1
  O  O52  1  0.246084  0.523154  0.941523  1
  O  O53  1  0.753916  0.476846  0.058477  1
  O  O54  1  0.659479  0.849824  0.730144  1
  O  O55  1  0.340521  0.150176  0.269856  1
  O  O56  1  0.151219  0.340582  0.771244  1
  O  O57  1  0.848781  0.659418  0.228756  1
  O  O58  1  0.680211  0.146254  0.726722  1
  O  O59  1  0.319789  0.853746  0.273278  1
  O  O60  1  0.853628  0.321585  0.776111  1
  O  O61  1  0.146372  0.678415  0.223889  1
  O  O62  1  0.773872  0.006897  0.986002  1
  O  O63  1  0.226128  0.993103  0.013998  1
  O  O64  1  0.995044  0.225273  0.512941  1
  O  O65  1  0.004956  0.774727  0.487059  1
  O  O66  1  0.421336  0.991530  0.822961  1
  O  O67  1  0.578664  0.008470  0.177039  1
  O  O68  1  0.006569  0.581355  0.681524  1
  O  O69  1  0.993431  0.418645  0.318476  1
  O  O70  1  0.250559  0.031773  0.506145  1
  O  O71  1  0.749441  0.968227  0.493855  1
  O  O72  1  0.967966  0.752534  0.995212  1
  O  O73  1  0.032034  0.247466  0.004788  1
  O  O74  1  0.838961  0.865083  0.857432  1
  O  O75  1  0.161039  0.134917  0.142568  1
  O  O76  1  0.133501  0.162824  0.642840  1
  O  O77  1  0.866499  0.837176  0.357160  1
  O  O78  1  0.407028  0.286507  0.870159  1
  O  O79  1  0.592972  0.713493  0.129841  1
  O  O80  1  0.714054  0.594482  0.629707  1
  O  O81  1  0.285946  0.405518  0.370293  1
