# generated using pymatgen
data_In2Sn12(RuRh)3
_symmetry_space_group_name_H-M   'P 1'
_cell_length_a   8.22093149
_cell_length_b   8.22093053
_cell_length_c   8.22093114
_cell_angle_alpha   109.77750229
_cell_angle_beta   110.09984916
_cell_angle_gamma   108.54047943
_symmetry_Int_Tables_number   1
_chemical_formula_structural   In2Sn12(RuRh)3
_chemical_formula_sum   'In2 Sn12 Ru3 Rh3'
_cell_volume   427.61384667
_cell_formula_units_Z   1
loop_
 _symmetry_equiv_pos_site_id
 _symmetry_equiv_pos_as_xyz
  1  'x, y, z'
loop_
 _atom_site_type_symbol
 _atom_site_label
 _atom_site_symmetry_multiplicity
 _atom_site_fract_x
 _atom_site_fract_y
 _atom_site_fract_z
 _atom_site_occupancy
  In  In0  1  0.251636  0.749691  0.501945  1
  In  In1  1  0.752254  0.250309  0.501946  1
  Sn  Sn2  1  0.750567  0.500000  0.250567  1
  Sn  Sn3  1  0.250022  0.500000  0.750022  1
  Sn  Sn4  1  0.502572  0.751133  0.253704  1
  Sn  Sn5  1  0.502571  0.248867  0.751438  1
  Sn  Sn6  1  0.999335  0.999570  0.324889  1
  Sn  Sn7  1  0.674118  0.999159  0.997772  1
  Sn  Sn8  1  0.999335  0.674447  0.999764  1
  Sn  Sn9  1  0.325318  0.325553  0.324888  1
  Sn  Sn10  1  0.998615  0.323655  0.997772  1
  Sn  Sn11  1  0.674117  0.676345  0.674960  1
  Sn  Sn12  1  0.325318  0.000430  0.999764  1
  Sn  Sn13  1  0.998614  0.000841  0.674959  1
  Ru  Ru14  1  0.344806  0.345021  0.999783  1
  Ru  Ru15  1  0.654762  0.654979  0.999785  1
  Ru  Ru16  1  0.655302  0.000000  0.655302  1
  Rh  Rh17  1  0.341352  0.000000  0.341352  1
  Rh  Rh18  1  0.999691  0.342907  0.342603  1
  Rh  Rh19  1  0.999696  0.657093  0.656785  1
