# generated using pymatgen
data_Ho3Ga4Co9B2
_symmetry_space_group_name_H-M   'P 1'
_cell_length_a   5.17139900
_cell_length_b   5.17139846
_cell_length_c   10.38230600
_cell_angle_alpha   90.00000000
_cell_angle_beta   90.00000000
_cell_angle_gamma   120.00000982
_symmetry_Int_Tables_number   1
_chemical_formula_structural   Ho3Ga4Co9B2
_chemical_formula_sum   'Ho3 Ga4 Co9 B2'
_cell_volume   240.45868223
_cell_formula_units_Z   1
loop_
 _symmetry_equiv_pos_site_id
 _symmetry_equiv_pos_as_xyz
  1  'x, y, z'
loop_
 _atom_site_type_symbol
 _atom_site_label
 _atom_site_symmetry_multiplicity
 _atom_site_fract_x
 _atom_site_fract_y
 _atom_site_fract_z
 _atom_site_occupancy
  Ho  Ho0  1  0.000000  0.000000  0.668076  1
  Ho  Ho1  1  0.000000  0.000000  0.331924  1
  Ho  Ho2  1  0.000000  0.000000  0.000000  1
  Ga  Ga3  1  0.333333  0.666667  0.314514  1
  Ga  Ga4  1  0.666667  0.333333  0.314514  1
  Ga  Ga5  1  0.666667  0.333333  0.685486  1
  Ga  Ga6  1  0.333333  0.666667  0.685486  1
  Co  Co7  1  0.000000  0.500000  0.870532  1
  Co  Co8  1  0.500000  0.000000  0.500000  1
  Co  Co9  1  0.500000  0.500000  0.500000  1
  Co  Co10  1  0.000000  0.500000  0.500000  1
  Co  Co11  1  0.500000  0.000000  0.129468  1
  Co  Co12  1  0.500000  0.500000  0.129468  1
  Co  Co13  1  0.000000  0.500000  0.129468  1
  Co  Co14  1  0.500000  0.000000  0.870532  1
  Co  Co15  1  0.500000  0.500000  0.870532  1
  B  B16  1  0.666667  0.333333  0.000000  1
  B  B17  1  0.333333  0.666667  0.000000  1
