# generated using pymatgen
data_DyHo4(SiBi)2
_symmetry_space_group_name_H-M   'P 1'
_cell_length_a   8.62932646
_cell_length_b   8.62036459
_cell_length_c   7.89535490
_cell_angle_alpha   89.93197915
_cell_angle_beta   89.98205316
_cell_angle_gamma   125.63579863
_symmetry_Int_Tables_number   1
_chemical_formula_structural   DyHo4(SiBi)2
_chemical_formula_sum   'Dy2 Ho8 Si4 Bi4'
_cell_volume   477.33526898
_cell_formula_units_Z   2
loop_
 _symmetry_equiv_pos_site_id
 _symmetry_equiv_pos_as_xyz
  1  'x, y, z'
loop_
 _atom_site_type_symbol
 _atom_site_label
 _atom_site_symmetry_multiplicity
 _atom_site_fract_x
 _atom_site_fract_y
 _atom_site_fract_z
 _atom_site_occupancy
  Dy  Dy0  1  0.043113  0.287839  0.334894  1
  Dy  Dy1  1  0.956887  0.712161  0.665106  1
  Ho  Ho2  1  0.456658  0.213245  0.835145  1
  Ho  Ho3  1  0.786662  0.543348  0.164789  1
  Ho  Ho4  1  0.543342  0.786755  0.164855  1
  Ho  Ho5  1  0.213338  0.456652  0.835211  1
  Ho  Ho6  1  0.713089  0.956677  0.664792  1
  Ho  Ho7  1  0.286911  0.043323  0.335208  1
  Ho  Ho8  1  0.000000  0.000000  0.000000  1
  Ho  Ho9  1  0.500000  0.500000  0.500000  1
  Si  Si10  1  0.366350  0.365758  0.132584  1
  Si  Si11  1  0.633650  0.634242  0.867416  1
  Si  Si12  1  0.134683  0.134728  0.633445  1
  Si  Si13  1  0.865317  0.865272  0.366555  1
  Bi  Bi14  1  0.791795  0.207695  0.999325  1
  Bi  Bi15  1  0.208205  0.792305  0.000675  1
  Bi  Bi16  1  0.706662  0.291398  0.499811  1
  Bi  Bi17  1  0.293338  0.708602  0.500189  1
