# generated using pymatgen
data_Ho3Lu9Os3Rh
_symmetry_space_group_name_H-M   'P 1'
_cell_length_a   7.30977505
_cell_length_b   8.83993400
_cell_length_c   6.23203300
_cell_angle_alpha   90.00000000
_cell_angle_beta   89.92628916
_cell_angle_gamma   90.00000000
_symmetry_Int_Tables_number   1
_chemical_formula_structural   Ho3Lu9Os3Rh
_chemical_formula_sum   'Ho3 Lu9 Os3 Rh1'
_cell_volume   402.70073260
_cell_formula_units_Z   1
loop_
 _symmetry_equiv_pos_site_id
 _symmetry_equiv_pos_as_xyz
  1  'x, y, z'
loop_
 _atom_site_type_symbol
 _atom_site_label
 _atom_site_symmetry_multiplicity
 _atom_site_fract_x
 _atom_site_fract_y
 _atom_site_fract_z
 _atom_site_occupancy
  Ho  Ho0  1  0.537912  0.250000  0.874578  1
  Ho  Ho1  1  0.038011  0.250000  0.626824  1
  Ho  Ho2  1  0.462539  0.750000  0.124525  1
  Lu  Lu3  1  0.673587  0.060438  0.336063  1
  Lu  Lu4  1  0.176369  0.439536  0.167502  1
  Lu  Lu5  1  0.324402  0.562750  0.665909  1
  Lu  Lu6  1  0.824111  0.934148  0.828986  1
  Lu  Lu7  1  0.324402  0.937250  0.665909  1
  Lu  Lu8  1  0.824111  0.565852  0.828986  1
  Lu  Lu9  1  0.673587  0.439562  0.336063  1
  Lu  Lu10  1  0.176369  0.060464  0.167502  1
  Lu  Lu11  1  0.962792  0.750000  0.373394  1
  Os  Os12  1  0.382965  0.250000  0.458117  1
  Os  Os13  1  0.115354  0.750000  0.961864  1
  Os  Os14  1  0.618879  0.750000  0.538922  1
  Rh  Rh15  1  0.884606  0.250000  0.044855  1
