# generated using pymatgen
data_Nd8Zn8Pd3Rh5
_symmetry_space_group_name_H-M   'P 1'
_cell_length_a   7.40958934
_cell_length_b   4.01697300
_cell_length_c   16.75528560
_cell_angle_alpha   90.00000000
_cell_angle_beta   90.10897206
_cell_angle_gamma   90.00000000
_symmetry_Int_Tables_number   1
_chemical_formula_structural   Nd8Zn8Pd3Rh5
_chemical_formula_sum   'Nd8 Zn8 Pd3 Rh5'
_cell_volume   498.70543459
_cell_formula_units_Z   1
loop_
 _symmetry_equiv_pos_site_id
 _symmetry_equiv_pos_as_xyz
  1  'x, y, z'
loop_
 _atom_site_type_symbol
 _atom_site_label
 _atom_site_symmetry_multiplicity
 _atom_site_fract_x
 _atom_site_fract_y
 _atom_site_fract_z
 _atom_site_occupancy
  Nd  Nd0  1  0.046159  0.249999  0.283814  1
  Nd  Nd1  1  0.452902  0.750000  0.782416  1
  Nd  Nd2  1  0.549371  0.249999  0.217745  1
  Nd  Nd3  1  0.949661  0.750000  0.713830  1
  Nd  Nd4  1  0.172408  0.249999  0.064639  1
  Nd  Nd5  1  0.331210  0.750000  0.564662  1
  Nd  Nd6  1  0.673710  0.249999  0.440132  1
  Nd  Nd7  1  0.827809  0.750000  0.934912  1
  Zn  Zn8  1  0.117604  0.249999  0.845158  1
  Zn  Zn9  1  0.381508  0.750000  0.347024  1
  Zn  Zn10  1  0.621352  0.249999  0.650575  1
  Zn  Zn11  1  0.881725  0.750000  0.153644  1
  Zn  Zn12  1  0.995864  0.249999  0.562510  1
  Zn  Zn13  1  0.501888  0.750000  0.062409  1
  Zn  Zn14  1  0.498322  0.249999  0.937571  1
  Zn  Zn15  1  0.998895  0.750000  0.440343  1
  Pd  Pd16  1  0.244338  0.249999  0.434123  1
  Pd  Pd17  1  0.254971  0.750000  0.933810  1
  Pd  Pd18  1  0.745217  0.249999  0.065619  1
  Rh  Rh19  1  0.754675  0.750000  0.564991  1
  Rh  Rh20  1  0.248780  0.249999  0.685576  1
  Rh  Rh21  1  0.253198  0.750000  0.185530  1
  Rh  Rh22  1  0.747688  0.249999  0.814916  1
  Rh  Rh23  1  0.750746  0.750000  0.314046  1
