# generated using pymatgen
data_Na4UPbSe6
_symmetry_space_group_name_H-M   'P 1'
_cell_length_a   7.27900140
_cell_length_b   7.27900058
_cell_length_c   7.31124800
_cell_angle_alpha   80.34631530
_cell_angle_beta   80.34631639
_cell_angle_gamma   120.00356052
_symmetry_Int_Tables_number   1
_chemical_formula_structural   Na4UPbSe6
_chemical_formula_sum   'Na4 U1 Pb1 Se6'
_cell_volume   316.03520880
_cell_formula_units_Z   1
loop_
 _symmetry_equiv_pos_site_id
 _symmetry_equiv_pos_as_xyz
  1  'x, y, z'
loop_
 _atom_site_type_symbol
 _atom_site_label
 _atom_site_symmetry_multiplicity
 _atom_site_fract_x
 _atom_site_fract_y
 _atom_site_fract_z
 _atom_site_occupancy
  Na  Na0  1  0.000226  0.999774  0.000000  1
  Na  Na1  1  0.502831  0.497169  0.500000  1
  Na  Na2  1  0.836065  0.163935  0.500000  1
  Na  Na3  1  0.160215  0.839785  0.500000  1
  U  U4  1  0.333070  0.666930  0.000000  1
  Pb  Pb5  1  0.667278  0.332722  0.000000  1
  Se  Se6  1  0.255838  0.285380  0.233901  1
  Se  Se7  1  0.412027  0.048290  0.765120  1
  Se  Se8  1  0.108472  0.442349  0.770673  1
  Se  Se9  1  0.714620  0.744162  0.766099  1
  Se  Se10  1  0.557651  0.891528  0.229327  1
  Se  Se11  1  0.951710  0.587973  0.234880  1
