# generated using pymatgen
data_Cs5F13
_symmetry_space_group_name_H-M   'P 1'
_cell_length_a   8.80487033
_cell_length_b   8.80487139
_cell_length_c   8.80487009
_cell_angle_alpha   101.35133130
_cell_angle_beta   101.35134344
_cell_angle_gamma   127.32607937
_symmetry_Int_Tables_number   1
_chemical_formula_structural   Cs5F13
_chemical_formula_sum   'Cs5 F13'
_cell_volume   486.46228366
_cell_formula_units_Z   1
loop_
 _symmetry_equiv_pos_site_id
 _symmetry_equiv_pos_as_xyz
  1  'x, y, z'
loop_
 _atom_site_type_symbol
 _atom_site_label
 _atom_site_symmetry_multiplicity
 _atom_site_fract_x
 _atom_site_fract_y
 _atom_site_fract_z
 _atom_site_occupancy
  Cs  Cs0  1  0.000000  0.000000  0.000000  1
  Cs  Cs1  1  0.834528  0.578852  0.408634  1
  Cs  Cs2  1  0.421148  0.829784  0.255677  1
  Cs  Cs3  1  0.574107  0.165472  0.744323  1
  Cs  Cs4  1  0.170216  0.425893  0.591366  1
  F  F5  1  0.027157  0.382199  0.209229  1
  F  F6  1  0.617801  0.827029  0.644959  1
  F  F7  1  0.182071  0.972843  0.355041  1
  F  F8  1  0.172971  0.817929  0.790771  1
  F  F9  1  0.365464  0.819160  0.889978  1
  F  F10  1  0.750000  0.250000  0.500000  1
  F  F11  1  0.556413  0.813244  0.979595  1
  F  F12  1  0.186756  0.166352  0.743169  1
  F  F13  1  0.423182  0.443587  0.256831  1
  F  F14  1  0.833648  0.576818  0.020405  1
  F  F15  1  0.929181  0.475486  0.110022  1
  F  F16  1  0.524514  0.634536  0.453695  1
  F  F17  1  0.180840  0.070819  0.546305  1
