# generated using pymatgen
data_Y5Tm3Tc2B24IrRu
_symmetry_space_group_name_H-M   'P 1'
_cell_length_a   3.65951100
_cell_length_b   9.12616826
_cell_length_c   11.52116319
_cell_angle_alpha   89.82030804
_cell_angle_beta   90.00000000
_cell_angle_gamma   90.00000000
_symmetry_Int_Tables_number   1
_chemical_formula_structural   Y5Tm3Tc2B24IrRu
_chemical_formula_sum   'Y5 Tm3 Tc2 B24 Ir1 Ru1'
_cell_volume   384.77400267
_cell_formula_units_Z   1
loop_
 _symmetry_equiv_pos_site_id
 _symmetry_equiv_pos_as_xyz
  1  'x, y, z'
loop_
 _atom_site_type_symbol
 _atom_site_label
 _atom_site_symmetry_multiplicity
 _atom_site_fract_x
 _atom_site_fract_y
 _atom_site_fract_z
 _atom_site_occupancy
  Y  Y0  1  0.000000  0.326175  0.418187  1
  Y  Y1  1  0.000000  0.675889  0.585504  1
  Y  Y2  1  0.000000  0.817085  0.085620  1
  Y  Y3  1  0.000000  0.180458  0.909734  1
  Y  Y4  1  0.000000  0.940907  0.373838  1
  Tm  Tm5  1  0.000000  0.057378  0.628620  1
  Tm  Tm6  1  0.000000  0.445787  0.128522  1
  Tm  Tm7  1  0.000000  0.555952  0.870887  1
  Tc  Tc8  1  0.000000  0.637087  0.319153  1
  Tc  Tc9  1  0.000000  0.361544  0.680520  1
  B  B10  1  0.500000  0.552863  0.432612  1
  B  B11  1  0.500000  0.446768  0.567871  1
  B  B12  1  0.500000  0.054435  0.065901  1
  B  B13  1  0.500000  0.945750  0.932967  1
  B  B14  1  0.500000  0.747627  0.418771  1
  B  B15  1  0.500000  0.251223  0.581631  1
  B  B16  1  0.500000  0.250379  0.079473  1
  B  B17  1  0.500000  0.750729  0.918998  1
  B  B18  1  0.500000  0.790836  0.265091  1
  B  B19  1  0.500000  0.208142  0.734078  1
  B  B20  1  0.500000  0.291593  0.233796  1
  B  B21  1  0.500000  0.709445  0.766551  1
  B  B22  1  0.500000  0.630306  0.184486  1
  B  B23  1  0.500000  0.369337  0.814806  1
  B  B24  1  0.500000  0.131529  0.315934  1
  B  B25  1  0.500000  0.869900  0.685814  1
  B  B26  1  0.500000  0.982952  0.212212  1
  B  B27  1  0.500000  0.017123  0.787407  1
  B  B28  1  0.500000  0.482255  0.286797  1
  B  B29  1  0.500000  0.517796  0.713319  1
  B  B30  1  0.500000  0.603937  0.028394  1
  B  B31  1  0.500000  0.395138  0.971453  1
  B  B32  1  0.500000  0.105852  0.471439  1
  B  B33  1  0.500000  0.895316  0.530246  1
  Ir  Ir34  1  0.000000  0.138386  0.178027  1
  Ru  Ru35  1  0.000000  0.862119  0.821341  1
