# generated using pymatgen
data_RbU3O9
_symmetry_space_group_name_H-M   'P 1'
_cell_length_a   8.07465000
_cell_length_b   8.07465084
_cell_length_c   8.38198400
_cell_angle_alpha   90.00000000
_cell_angle_beta   90.00000000
_cell_angle_gamma   119.99999655
_symmetry_Int_Tables_number   1
_chemical_formula_structural   RbU3O9
_chemical_formula_sum   'Rb2 U6 O18'
_cell_volume   473.28738944
_cell_formula_units_Z   2
loop_
 _symmetry_equiv_pos_site_id
 _symmetry_equiv_pos_as_xyz
  1  'x, y, z'
loop_
 _atom_site_type_symbol
 _atom_site_label
 _atom_site_symmetry_multiplicity
 _atom_site_fract_x
 _atom_site_fract_y
 _atom_site_fract_z
 _atom_site_occupancy
  Rb  Rb0  1  0.000000  0.000000  0.999211  1
  Rb  Rb1  1  0.000000  0.000000  0.496050  1
  U  U2  1  0.000000  0.501181  0.241973  1
  U  U3  1  0.999999  0.501612  0.742005  1
  U  U4  1  0.501181  0.000000  0.241973  1
  U  U5  1  0.498819  0.498819  0.241973  1
  U  U6  1  0.498388  0.498388  0.742005  1
  U  U7  1  0.501612  0.000001  0.742005  1
  O  O8  1  0.412598  0.205271  0.242387  1
  O  O9  1  0.496148  0.497126  0.492018  1
  O  O10  1  0.205277  0.412592  0.241265  1
  O  O11  1  0.792798  0.587210  0.741260  1
  O  O12  1  0.000978  0.503852  0.492018  1
  O  O13  1  0.502874  0.999022  0.492018  1
  O  O14  1  0.999042  0.502797  0.991937  1
  O  O15  1  0.503756  0.000958  0.991937  1
  O  O16  1  0.794412  0.207202  0.741260  1
  O  O17  1  0.207206  0.794424  0.742381  1
  O  O18  1  0.205576  0.412782  0.742381  1
  O  O19  1  0.587408  0.792685  0.241265  1
  O  O20  1  0.794729  0.207329  0.242387  1
  O  O21  1  0.497203  0.496244  0.991937  1
  O  O22  1  0.587218  0.792794  0.742381  1
  O  O23  1  0.207315  0.794723  0.241265  1
  O  O24  1  0.412790  0.205588  0.741260  1
  O  O25  1  0.792671  0.587402  0.242387  1
