# generated using pymatgen
data_Be7V3ReP
_symmetry_space_group_name_H-M   'P 1'
_cell_length_a   4.32161700
_cell_length_b   4.32161579
_cell_length_c   7.23018500
_cell_angle_alpha   90.00000000
_cell_angle_beta   90.00000000
_cell_angle_gamma   120.00000160
_symmetry_Int_Tables_number   1
_chemical_formula_structural   Be7V3ReP
_chemical_formula_sum   'Be7 V3 Re1 P1'
_cell_volume   116.94252410
_cell_formula_units_Z   1
loop_
 _symmetry_equiv_pos_site_id
 _symmetry_equiv_pos_as_xyz
  1  'x, y, z'
loop_
 _atom_site_type_symbol
 _atom_site_label
 _atom_site_symmetry_multiplicity
 _atom_site_fract_x
 _atom_site_fract_y
 _atom_site_fract_z
 _atom_site_occupancy
  Be  Be0  1  0.000000  0.000000  0.500865  1
  Be  Be1  1  0.828932  0.657865  0.255664  1
  Be  Be2  1  0.171430  0.828570  0.744245  1
  Be  Be3  1  0.657139  0.828570  0.744245  1
  Be  Be4  1  0.342135  0.171068  0.255664  1
  Be  Be5  1  0.828932  0.171068  0.255664  1
  Be  Be6  1  0.171430  0.342861  0.744245  1
  V  V7  1  0.333333  0.666667  0.060671  1
  V  V8  1  0.666667  0.333333  0.562912  1
  V  V9  1  0.666667  0.333333  0.938271  1
  Re  Re10  1  0.333333  0.666667  0.436773  1
  P  P11  1  0.000000  0.000000  0.000783  1
