# generated using pymatgen
data_TbScB6Os
_symmetry_space_group_name_H-M   'P 1'
_cell_length_a   3.57614100
_cell_length_b   8.98874300
_cell_length_c   11.37463300
_cell_angle_alpha   90.00000000
_cell_angle_beta   90.00000000
_cell_angle_gamma   90.00000000
_symmetry_Int_Tables_number   1
_chemical_formula_structural   TbScB6Os
_chemical_formula_sum   'Tb4 Sc4 B24 Os4'
_cell_volume   365.63771861
_cell_formula_units_Z   4
loop_
 _symmetry_equiv_pos_site_id
 _symmetry_equiv_pos_as_xyz
  1  'x, y, z'
loop_
 _atom_site_type_symbol
 _atom_site_label
 _atom_site_symmetry_multiplicity
 _atom_site_fract_x
 _atom_site_fract_y
 _atom_site_fract_z
 _atom_site_occupancy
  Tb  Tb0  1  0.000000  0.820177  0.085246  1
  Tb  Tb1  1  0.000000  0.179823  0.914754  1
  Tb  Tb2  1  0.000000  0.320177  0.414754  1
  Tb  Tb3  1  0.000000  0.679823  0.585246  1
  Sc  Sc4  1  0.000000  0.445377  0.126150  1
  Sc  Sc5  1  0.000000  0.554623  0.873850  1
  Sc  Sc6  1  0.000000  0.945377  0.373850  1
  Sc  Sc7  1  0.000000  0.054623  0.626150  1
  B  B8  1  0.500000  0.055572  0.067500  1
  B  B9  1  0.500000  0.944428  0.932500  1
  B  B10  1  0.500000  0.555572  0.432500  1
  B  B11  1  0.500000  0.444428  0.567500  1
  B  B12  1  0.500000  0.253748  0.081807  1
  B  B13  1  0.500000  0.746252  0.918193  1
  B  B14  1  0.500000  0.753748  0.418193  1
  B  B15  1  0.500000  0.246252  0.581807  1
  B  B16  1  0.500000  0.293888  0.234885  1
  B  B17  1  0.500000  0.706112  0.765115  1
  B  B18  1  0.500000  0.793888  0.265115  1
  B  B19  1  0.500000  0.206112  0.734885  1
  B  B20  1  0.500000  0.129101  0.317518  1
  B  B21  1  0.500000  0.870899  0.682482  1
  B  B22  1  0.500000  0.629101  0.182482  1
  B  B23  1  0.500000  0.370899  0.817518  1
  B  B24  1  0.500000  0.482498  0.285544  1
  B  B25  1  0.500000  0.517502  0.714456  1
  B  B26  1  0.500000  0.982498  0.214456  1
  B  B27  1  0.500000  0.017502  0.785544  1
  B  B28  1  0.500000  0.099168  0.473293  1
  B  B29  1  0.500000  0.900832  0.526707  1
  B  B30  1  0.500000  0.599168  0.026707  1
  B  B31  1  0.500000  0.400832  0.973293  1
  Os  Os32  1  0.000000  0.140380  0.181700  1
  Os  Os33  1  0.000000  0.859620  0.818300  1
  Os  Os34  1  0.000000  0.640380  0.318300  1
  Os  Os35  1  0.000000  0.359620  0.681700  1
