# generated using pymatgen
data_Li2Ho3HfIr3
_symmetry_space_group_name_H-M   'P 1'
_cell_length_a   7.25886080
_cell_length_b   7.25886188
_cell_length_c   3.98660400
_cell_angle_alpha   90.00000000
_cell_angle_beta   90.00000000
_cell_angle_gamma   120.17175615
_symmetry_Int_Tables_number   1
_chemical_formula_structural   Li2Ho3HfIr3
_chemical_formula_sum   'Li2 Ho3 Hf1 Ir3'
_cell_volume   181.60026570
_cell_formula_units_Z   1
loop_
 _symmetry_equiv_pos_site_id
 _symmetry_equiv_pos_as_xyz
  1  'x, y, z'
loop_
 _atom_site_type_symbol
 _atom_site_label
 _atom_site_symmetry_multiplicity
 _atom_site_fract_x
 _atom_site_fract_y
 _atom_site_fract_z
 _atom_site_occupancy
  Li  Li0  1  0.242884  0.996083  0.000000  1
  Li  Li1  1  0.996083  0.242884  0.000000  1
  Ho  Ho2  1  0.390979  0.390979  0.500000  1
  Ho  Ho3  1  0.584249  0.012245  0.500000  1
  Ho  Ho4  1  0.012245  0.584249  0.500000  1
  Hf  Hf5  1  0.755857  0.755857  0.000000  1
  Ir  Ir6  1  0.675458  0.357490  0.000000  1
  Ir  Ir7  1  0.357490  0.675458  0.000000  1
  Ir  Ir8  1  0.984756  0.984756  0.500000  1
