# generated using pymatgen
data_Ho5CdIn4Co
_symmetry_space_group_name_H-M   'P 1'
_cell_length_a   8.21548363
_cell_length_b   18.35794294
_cell_length_c   3.58528200
_cell_angle_alpha   90.00000000
_cell_angle_beta   90.00000000
_cell_angle_gamma   90.43987130
_symmetry_Int_Tables_number   1
_chemical_formula_structural   Ho5CdIn4Co
_chemical_formula_sum   'Ho10 Cd2 In8 Co2'
_cell_volume   540.71407234
_cell_formula_units_Z   2
loop_
 _symmetry_equiv_pos_site_id
 _symmetry_equiv_pos_as_xyz
  1  'x, y, z'
loop_
 _atom_site_type_symbol
 _atom_site_label
 _atom_site_symmetry_multiplicity
 _atom_site_fract_x
 _atom_site_fract_y
 _atom_site_fract_z
 _atom_site_occupancy
  Ho  Ho0  1  0.500000  0.500000  0.000000  1
  Ho  Ho1  1  0.000000  0.000000  0.000000  1
  Ho  Ho2  1  0.774146  0.287268  0.000000  1
  Ho  Ho3  1  0.225854  0.712732  0.000000  1
  Ho  Ho4  1  0.798965  0.771212  0.000000  1
  Ho  Ho5  1  0.201035  0.228788  0.000000  1
  Ho  Ho6  1  0.624943  0.074261  0.000000  1
  Ho  Ho7  1  0.375057  0.925739  0.000000  1
  Ho  Ho8  1  0.886953  0.585332  0.000000  1
  Ho  Ho9  1  0.113047  0.414668  0.000000  1
  Cd  Cd10  1  0.519690  0.201430  0.500000  1
  Cd  Cd11  1  0.480310  0.798570  0.500000  1
  In  In12  1  0.711881  0.926088  0.500000  1
  In  In13  1  0.288119  0.073912  0.500000  1
  In  In14  1  0.796385  0.433891  0.500000  1
  In  In15  1  0.203615  0.566109  0.500000  1
  In  In16  1  0.586557  0.646163  0.500000  1
  In  In17  1  0.413443  0.353837  0.500000  1
  In  In18  1  0.917391  0.150369  0.500000  1
  In  In19  1  0.082609  0.849631  0.500000  1
  Co  Co20  1  0.981723  0.691434  0.500000  1
  Co  Co21  1  0.018277  0.308566  0.500000  1
