# generated using pymatgen
data_Ba12Fe3TcO20
_symmetry_space_group_name_H-M   'P 1'
_cell_length_a   7.46004990
_cell_length_b   8.43608800
_cell_length_c   10.80944280
_cell_angle_alpha   90.00000000
_cell_angle_beta   89.92601147
_cell_angle_gamma   90.00000000
_symmetry_Int_Tables_number   1
_chemical_formula_structural   Ba12Fe3TcO20
_chemical_formula_sum   'Ba12 Fe3 Tc1 O20'
_cell_volume   680.27698715
_cell_formula_units_Z   1
loop_
 _symmetry_equiv_pos_site_id
 _symmetry_equiv_pos_as_xyz
  1  'x, y, z'
loop_
 _atom_site_type_symbol
 _atom_site_label
 _atom_site_symmetry_multiplicity
 _atom_site_fract_x
 _atom_site_fract_y
 _atom_site_fract_z
 _atom_site_occupancy
  Ba  Ba0  1  0.610912  0.250000  0.001556  1
  Ba  Ba1  1  0.092246  0.750000  0.523911  1
  Ba  Ba2  1  0.402047  0.750000  0.029469  1
  Ba  Ba3  1  0.850755  0.250000  0.434971  1
  Ba  Ba4  1  0.400692  0.016008  0.312729  1
  Ba  Ba5  1  0.919146  0.959723  0.181041  1
  Ba  Ba6  1  0.580137  0.545133  0.677508  1
  Ba  Ba7  1  0.095472  0.495950  0.851307  1
  Ba  Ba8  1  0.580137  0.954867  0.677508  1
  Ba  Ba9  1  0.095472  0.004051  0.851307  1
  Ba  Ba10  1  0.400692  0.483993  0.312729  1
  Ba  Ba11  1  0.919146  0.540277  0.181041  1
  Fe  Fe12  1  0.796751  0.750000  0.899593  1
  Fe  Fe13  1  0.684570  0.750000  0.404436  1
  Fe  Fe14  1  0.182766  0.250000  0.099777  1
  Tc  Tc15  1  0.261865  0.250000  0.610228  1
  O  O16  1  0.029414  0.250000  0.677975  1
  O  O17  1  0.346180  0.750000  0.778796  1
  O  O18  1  0.147369  0.750000  0.277422  1
  O  O19  1  0.637361  0.250000  0.241718  1
  O  O20  1  0.494254  0.250000  0.539242  1
  O  O21  1  0.014085  0.750000  0.993728  1
  O  O22  1  0.469756  0.750000  0.496406  1
  O  O23  1  0.976803  0.250000  0.998534  1
  O  O24  1  0.299421  0.055141  0.065203  1
  O  O25  1  0.800662  0.941963  0.442989  1
  O  O26  1  0.695372  0.548303  0.925061  1
  O  O27  1  0.219497  0.442209  0.543144  1
  O  O28  1  0.695372  0.951697  0.925061  1
  O  O29  1  0.219497  0.057791  0.543144  1
  O  O30  1  0.299421  0.444859  0.065203  1
  O  O31  1  0.800662  0.558037  0.442989  1
  O  O32  1  0.125918  0.250000  0.272561  1
  O  O33  1  0.637247  0.750000  0.229535  1
  O  O34  1  0.857657  0.750000  0.727055  1
  O  O35  1  0.361246  0.250000  0.765121  1
