# generated using pymatgen
data_Hf7ZrAgRh3
_symmetry_space_group_name_H-M   'P 1'
_cell_length_a   3.25953300
_cell_length_b   3.25953300
_cell_length_c   22.05430300
_cell_angle_alpha   90.00000000
_cell_angle_beta   90.00000000
_cell_angle_gamma   90.00000000
_symmetry_Int_Tables_number   1
_chemical_formula_structural   Hf7ZrAgRh3
_chemical_formula_sum   'Hf7 Zr1 Ag1 Rh3'
_cell_volume   234.31716355
_cell_formula_units_Z   1
loop_
 _symmetry_equiv_pos_site_id
 _symmetry_equiv_pos_as_xyz
  1  'x, y, z'
loop_
 _atom_site_type_symbol
 _atom_site_label
 _atom_site_symmetry_multiplicity
 _atom_site_fract_x
 _atom_site_fract_y
 _atom_site_fract_z
 _atom_site_occupancy
  Hf  Hf0  1  0.500000  0.500000  0.089559  1
  Hf  Hf1  1  0.000000  0.000000  0.332714  1
  Hf  Hf2  1  0.500000  0.500000  0.575167  1
  Hf  Hf3  1  0.000000  0.000000  0.817095  1
  Hf  Hf4  1  0.000000  0.000000  0.181357  1
  Hf  Hf5  1  0.500000  0.500000  0.424528  1
  Hf  Hf6  1  0.000000  0.000000  0.666725  1
  Zr  Zr7  1  0.500000  0.500000  0.910287  1
  Ag  Ag8  1  0.000000  0.000000  0.002331  1
  Rh  Rh9  1  0.500000  0.500000  0.256695  1
  Rh  Rh10  1  0.000000  0.000000  0.499962  1
  Rh  Rh11  1  0.500000  0.500000  0.743580  1
