# generated using pymatgen
data_TbEr2Th(Ga3Rh)6
_symmetry_space_group_name_H-M   'P 1'
_cell_length_a   7.58044044
_cell_length_b   7.60160525
_cell_length_c   9.53280300
_cell_angle_alpha   90.00000000
_cell_angle_beta   90.00000000
_cell_angle_gamma   119.55543405
_symmetry_Int_Tables_number   1
_chemical_formula_structural   TbEr2Th(Ga3Rh)6
_chemical_formula_sum   'Tb1 Er2 Th1 Ga18 Rh6'
_cell_volume   477.83631294
_cell_formula_units_Z   1
loop_
 _symmetry_equiv_pos_site_id
 _symmetry_equiv_pos_as_xyz
  1  'x, y, z'
loop_
 _atom_site_type_symbol
 _atom_site_label
 _atom_site_symmetry_multiplicity
 _atom_site_fract_x
 _atom_site_fract_y
 _atom_site_fract_z
 _atom_site_occupancy
  Tb  Tb0  1  0.002223  0.329964  0.750000  1
  Er  Er1  1  0.671425  0.996723  0.250000  1
  Er  Er2  1  0.328981  0.002461  0.750000  1
  Th  Th3  1  0.997267  0.669531  0.250000  1
  Ga  Ga4  1  0.130761  0.132049  0.250000  1
  Ga  Ga5  1  0.871663  0.874486  0.750000  1
  Ga  Ga6  1  0.000391  0.329101  0.076923  1
  Ga  Ga7  1  0.999267  0.665392  0.915163  1
  Ga  Ga8  1  0.999267  0.665392  0.584837  1
  Ga  Ga9  1  0.341726  0.005505  0.423594  1
  Ga  Ga10  1  0.000391  0.329101  0.423077  1
  Ga  Ga11  1  0.663845  0.000219  0.578282  1
  Ga  Ga12  1  0.663845  0.000219  0.921718  1
  Ga  Ga13  1  0.341726  0.005505  0.076406  1
  Ga  Ga14  1  0.331945  0.331198  0.567275  1
  Ga  Ga15  1  0.662675  0.667897  0.439505  1
  Ga  Ga16  1  0.662675  0.667897  0.060495  1
  Ga  Ga17  1  0.331945  0.331198  0.932725  1
  Ga  Ga18  1  0.343787  0.548168  0.250000  1
  Ga  Ga19  1  0.658670  0.450174  0.750000  1
  Ga  Ga20  1  0.543211  0.335547  0.250000  1
  Ga  Ga21  1  0.451761  0.662813  0.750000  1
  Rh  Rh22  1  0.673576  0.331371  0.000843  1
  Rh  Rh23  1  0.326251  0.670553  0.000670  1
  Rh  Rh24  1  0.326251  0.670553  0.499330  1
  Rh  Rh25  1  0.673576  0.331371  0.499157  1
  Rh  Rh26  1  0.000448  0.997806  0.000878  1
  Rh  Rh27  1  0.000448  0.997806  0.499122  1
