# generated using pymatgen
data_Dy4TlPb11
_symmetry_space_group_name_H-M   'P 1'
_cell_length_a   9.83347100
_cell_length_b   6.89656788
_cell_length_c   6.89825155
_cell_angle_alpha   89.66282799
_cell_angle_beta   90.00000000
_cell_angle_gamma   90.00000000
_symmetry_Int_Tables_number   1
_chemical_formula_structural   Dy4TlPb11
_chemical_formula_sum   'Dy4 Tl1 Pb11'
_cell_volume   467.81200650
_cell_formula_units_Z   1
loop_
 _symmetry_equiv_pos_site_id
 _symmetry_equiv_pos_as_xyz
  1  'x, y, z'
loop_
 _atom_site_type_symbol
 _atom_site_label
 _atom_site_symmetry_multiplicity
 _atom_site_fract_x
 _atom_site_fract_y
 _atom_site_fract_z
 _atom_site_occupancy
  Dy  Dy0  1  0.250000  0.005461  0.001713  1
  Dy  Dy1  1  0.250000  0.496066  0.503785  1
  Dy  Dy2  1  0.750000  0.995758  0.997321  1
  Dy  Dy3  1  0.750000  0.503740  0.498180  1
  Tl  Tl4  1  0.750000  0.495379  0.997276  1
  Pb  Pb5  1  0.998576  0.247651  0.747971  1
  Pb  Pb6  1  0.501585  0.252192  0.248071  1
  Pb  Pb7  1  0.501353  0.752101  0.251944  1
  Pb  Pb8  1  0.998751  0.747816  0.751974  1
  Pb  Pb9  1  0.998647  0.752101  0.251944  1
  Pb  Pb10  1  0.501249  0.747816  0.751974  1
  Pb  Pb11  1  0.501424  0.247651  0.747971  1
  Pb  Pb12  1  0.998415  0.252192  0.248071  1
  Pb  Pb13  1  0.250000  0.997699  0.500674  1
  Pb  Pb14  1  0.250000  0.503777  0.002856  1
  Pb  Pb15  1  0.750000  0.002598  0.498275  1
