# generated using pymatgen
data_Dy3ThMgRu
_symmetry_space_group_name_H-M   'P 1'
_cell_length_a   9.75736751
_cell_length_b   9.75736735
_cell_length_c   9.75736700
_cell_angle_alpha   59.99999780
_cell_angle_beta   59.99999835
_cell_angle_gamma   60.00000031
_symmetry_Int_Tables_number   1
_chemical_formula_structural   Dy3ThMgRu
_chemical_formula_sum   'Dy12 Th4 Mg4 Ru4'
_cell_volume   656.87532725
_cell_formula_units_Z   4
loop_
 _symmetry_equiv_pos_site_id
 _symmetry_equiv_pos_as_xyz
  1  'x, y, z'
loop_
 _atom_site_type_symbol
 _atom_site_label
 _atom_site_symmetry_multiplicity
 _atom_site_fract_x
 _atom_site_fract_y
 _atom_site_fract_z
 _atom_site_occupancy
  Dy  Dy0  1  0.813208  0.186792  0.186792  1
  Dy  Dy1  1  0.186792  0.813208  0.813208  1
  Dy  Dy2  1  0.186792  0.813208  0.186792  1
  Dy  Dy3  1  0.813208  0.186792  0.813208  1
  Dy  Dy4  1  0.186792  0.186792  0.813208  1
  Dy  Dy5  1  0.813208  0.813208  0.186792  1
  Dy  Dy6  1  0.935631  0.564369  0.564369  1
  Dy  Dy7  1  0.564369  0.935631  0.935631  1
  Dy  Dy8  1  0.564369  0.935631  0.564369  1
  Dy  Dy9  1  0.935631  0.564369  0.935631  1
  Dy  Dy10  1  0.564369  0.564369  0.935631  1
  Dy  Dy11  1  0.935631  0.935631  0.564369  1
  Th  Th12  1  0.345856  0.345856  0.345856  1
  Th  Th13  1  0.345856  0.345856  0.962432  1
  Th  Th14  1  0.345856  0.962432  0.345856  1
  Th  Th15  1  0.962432  0.345856  0.345856  1
  Mg  Mg16  1  0.579819  0.579819  0.579819  1
  Mg  Mg17  1  0.579819  0.579819  0.260543  1
  Mg  Mg18  1  0.579819  0.260543  0.579819  1
  Mg  Mg19  1  0.260543  0.579819  0.579819  1
  Ru  Ru20  1  0.143658  0.143658  0.143658  1
  Ru  Ru21  1  0.143658  0.143658  0.569026  1
  Ru  Ru22  1  0.143658  0.569026  0.143658  1
  Ru  Ru23  1  0.569026  0.143658  0.143658  1
