# generated using pymatgen
data_Cs4ZrSe4
_symmetry_space_group_name_H-M   'P 1'
_cell_length_a   9.30767700
_cell_length_b   11.01756200
_cell_length_c   16.21115300
_cell_angle_alpha   90.00000000
_cell_angle_beta   90.00000000
_cell_angle_gamma   90.00000000
_symmetry_Int_Tables_number   1
_chemical_formula_structural   Cs4ZrSe4
_chemical_formula_sum   'Cs16 Zr4 Se16'
_cell_volume   1662.41983328
_cell_formula_units_Z   4
loop_
 _symmetry_equiv_pos_site_id
 _symmetry_equiv_pos_as_xyz
  1  'x, y, z'
loop_
 _atom_site_type_symbol
 _atom_site_label
 _atom_site_symmetry_multiplicity
 _atom_site_fract_x
 _atom_site_fract_y
 _atom_site_fract_z
 _atom_site_occupancy
  Cs  Cs0  1  0.500000  0.500000  0.500000  1
  Cs  Cs1  1  0.153845  0.446179  0.278755  1
  Cs  Cs2  1  0.153845  0.053821  0.278755  1
  Cs  Cs3  1  0.000568  0.750000  0.430240  1
  Cs  Cs4  1  0.999432  0.250000  0.569760  1
  Cs  Cs5  1  0.653845  0.946179  0.221245  1
  Cs  Cs6  1  0.346155  0.053821  0.778755  1
  Cs  Cs7  1  0.846155  0.946179  0.721245  1
  Cs  Cs8  1  0.346155  0.446179  0.778755  1
  Cs  Cs9  1  0.000000  0.500000  0.000000  1
  Cs  Cs10  1  0.500568  0.250000  0.069760  1
  Cs  Cs11  1  0.653845  0.553821  0.221245  1
  Cs  Cs12  1  0.499432  0.750000  0.930240  1
  Cs  Cs13  1  0.000000  0.000000  0.000000  1
  Cs  Cs14  1  0.846155  0.553821  0.721245  1
  Cs  Cs15  1  0.500000  0.000000  0.500000  1
  Zr  Zr16  1  0.747964  0.250000  0.833240  1
  Zr  Zr17  1  0.752036  0.250000  0.333240  1
  Zr  Zr18  1  0.247964  0.750000  0.666760  1
  Zr  Zr19  1  0.252036  0.750000  0.166760  1
  Se  Se20  1  0.523549  0.750000  0.674178  1
  Se  Se21  1  0.476451  0.250000  0.325822  1
  Se  Se22  1  0.357482  0.750000  0.313238  1
  Se  Se23  1  0.142518  0.750000  0.813238  1
  Se  Se24  1  0.023549  0.250000  0.825822  1
  Se  Se25  1  0.976451  0.750000  0.174178  1
  Se  Se26  1  0.642518  0.250000  0.686762  1
  Se  Se27  1  0.857482  0.250000  0.186762  1
  Se  Se28  1  0.839818  0.439033  0.408001  1
  Se  Se29  1  0.660182  0.060967  0.908001  1
  Se  Se30  1  0.339818  0.939033  0.091999  1
  Se  Se31  1  0.339818  0.560967  0.091999  1
  Se  Se32  1  0.160182  0.560967  0.591999  1
  Se  Se33  1  0.839818  0.060967  0.408001  1
  Se  Se34  1  0.160182  0.939033  0.591999  1
  Se  Se35  1  0.660182  0.439033  0.908001  1
