# generated using pymatgen
data_Tm8Nb11Si16Rh
_symmetry_space_group_name_H-M   'P 1'
_cell_length_a   6.79352193
_cell_length_b   7.05590214
_cell_length_c   13.31149600
_cell_angle_alpha   90.00000000
_cell_angle_beta   90.00000000
_cell_angle_gamma   90.52086338
_symmetry_Int_Tables_number   1
_chemical_formula_structural   Tm8Nb11Si16Rh
_chemical_formula_sum   'Tm8 Nb11 Si16 Rh1'
_cell_volume   638.05255331
_cell_formula_units_Z   1
loop_
 _symmetry_equiv_pos_site_id
 _symmetry_equiv_pos_as_xyz
  1  'x, y, z'
loop_
 _atom_site_type_symbol
 _atom_site_label
 _atom_site_symmetry_multiplicity
 _atom_site_fract_x
 _atom_site_fract_y
 _atom_site_fract_z
 _atom_site_occupancy
  Tm  Tm0  1  0.004100  0.172560  0.095234  1
  Tm  Tm1  1  0.999129  0.827395  0.905311  1
  Tm  Tm2  1  0.496803  0.671905  0.905195  1
  Tm  Tm3  1  0.999129  0.827395  0.594689  1
  Tm  Tm4  1  0.502542  0.328041  0.096558  1
  Tm  Tm5  1  0.004100  0.172560  0.404766  1
  Tm  Tm6  1  0.502542  0.328041  0.403442  1
  Tm  Tm7  1  0.496803  0.671905  0.594805  1
  Nb  Nb8  1  0.160181  0.499035  0.750000  1
  Nb  Nb9  1  0.838916  0.507310  0.250000  1
  Nb  Nb10  1  0.337710  0.991387  0.250000  1
  Nb  Nb11  1  0.336275  0.176036  0.627034  1
  Nb  Nb12  1  0.664701  0.825851  0.376514  1
  Nb  Nb13  1  0.164925  0.674217  0.374607  1
  Nb  Nb14  1  0.664701  0.825851  0.123486  1
  Nb  Nb15  1  0.830168  0.327518  0.627417  1
  Nb  Nb16  1  0.336275  0.176036  0.872966  1
  Nb  Nb17  1  0.830168  0.327518  0.872583  1
  Nb  Nb18  1  0.164925  0.674217  0.125393  1
  Si  Si19  1  0.030650  0.121288  0.750000  1
  Si  Si20  1  0.961475  0.879669  0.250000  1
  Si  Si21  1  0.463055  0.620221  0.250000  1
  Si  Si22  1  0.536826  0.383059  0.750000  1
  Si  Si23  1  0.302551  0.875739  0.750000  1
  Si  Si24  1  0.707217  0.128833  0.250000  1
  Si  Si25  1  0.205478  0.370377  0.250000  1
  Si  Si26  1  0.793493  0.633021  0.750000  1
  Si  Si27  1  0.161749  0.463482  0.542146  1
  Si  Si28  1  0.835862  0.536507  0.459405  1
  Si  Si29  1  0.335996  0.963488  0.460678  1
  Si  Si30  1  0.835862  0.536507  0.040595  1
  Si  Si31  1  0.663164  0.038746  0.541343  1
  Si  Si32  1  0.161749  0.463482  0.957854  1
  Si  Si33  1  0.663164  0.038746  0.958657  1
  Si  Si34  1  0.335996  0.963488  0.039322  1
  Rh  Rh35  1  0.671622  0.978574  0.750000  1
