# generated using pymatgen
data_Y4SiAsS2
_symmetry_space_group_name_H-M   'P 1'
_cell_length_a   7.00356032
_cell_length_b   7.00356057
_cell_length_c   7.00356079
_cell_angle_alpha   132.03816875
_cell_angle_beta   132.03817404
_cell_angle_gamma   70.16874604
_symmetry_Int_Tables_number   1
_chemical_formula_structural   Y4SiAsS2
_chemical_formula_sum   'Y4 Si1 As1 S2'
_cell_volume   185.74157277
_cell_formula_units_Z   1
loop_
 _symmetry_equiv_pos_site_id
 _symmetry_equiv_pos_as_xyz
  1  'x, y, z'
loop_
 _atom_site_type_symbol
 _atom_site_label
 _atom_site_symmetry_multiplicity
 _atom_site_fract_x
 _atom_site_fract_y
 _atom_site_fract_z
 _atom_site_occupancy
  Y  Y0  1  0.752118  0.752118  0.000000  1
  Y  Y1  1  0.247883  0.247883  0.000000  1
  Y  Y2  1  0.999142  0.499142  0.500000  1
  Y  Y3  1  0.500858  0.000858  0.500000  1
  Si  Si4  1  0.000000  0.000000  0.000000  1
  As  As5  1  0.250000  0.750000  0.500000  1
  S  S6  1  0.500000  0.500000  0.000000  1
  S  S7  1  0.750000  0.250000  0.500000  1
