# generated using pymatgen
data_Ta2NbCo2WN
_symmetry_space_group_name_H-M   'P 1'
_cell_length_a   8.15964833
_cell_length_b   8.15964831
_cell_length_c   8.15650800
_cell_angle_alpha   60.01272207
_cell_angle_beta   60.01272217
_cell_angle_gamma   59.97453982
_symmetry_Int_Tables_number   1
_chemical_formula_structural   Ta2NbCo2WN
_chemical_formula_sum   'Ta8 Nb4 Co8 W4 N4'
_cell_volume   384.00065906
_cell_formula_units_Z   4
loop_
 _symmetry_equiv_pos_site_id
 _symmetry_equiv_pos_as_xyz
  1  'x, y, z'
loop_
 _atom_site_type_symbol
 _atom_site_label
 _atom_site_symmetry_multiplicity
 _atom_site_fract_x
 _atom_site_fract_y
 _atom_site_fract_z
 _atom_site_occupancy
  Ta  Ta0  1  0.810646  0.810646  0.189354  1
  Ta  Ta1  1  0.189354  0.189354  0.810646  1
  Ta  Ta2  1  0.809189  0.190811  0.809189  1
  Ta  Ta3  1  0.190811  0.809189  0.190811  1
  Ta  Ta4  1  0.190811  0.809189  0.809189  1
  Ta  Ta5  1  0.809189  0.190811  0.190811  1
  Ta  Ta6  1  0.440469  0.440469  0.059531  1
  Ta  Ta7  1  0.059531  0.059531  0.440469  1
  Nb  Nb8  1  0.439847  0.060153  0.439847  1
  Nb  Nb9  1  0.060153  0.439847  0.060153  1
  Nb  Nb10  1  0.060153  0.439847  0.439847  1
  Nb  Nb11  1  0.439847  0.060153  0.060153  1
  Co  Co12  1  0.731672  0.422064  0.423132  1
  Co  Co13  1  0.422064  0.731672  0.423132  1
  Co  Co14  1  0.423132  0.423132  0.731672  1
  Co  Co15  1  0.423132  0.423132  0.422064  1
  Co  Co16  1  0.516712  0.827038  0.828125  1
  Co  Co17  1  0.827038  0.516712  0.828125  1
  Co  Co18  1  0.828125  0.828125  0.516712  1
  Co  Co19  1  0.828125  0.828125  0.827038  1
  W  W20  1  0.125283  0.624753  0.624982  1
  W  W21  1  0.624753  0.125283  0.624982  1
  W  W22  1  0.624982  0.624982  0.125283  1
  W  W23  1  0.624982  0.624982  0.624753  1
  N  N24  1  0.627893  0.125898  0.123104  1
  N  N25  1  0.125898  0.627893  0.123104  1
  N  N26  1  0.123104  0.123104  0.627893  1
  N  N27  1  0.123104  0.123104  0.125898  1
