# generated using pymatgen
data_Ti4Co16Si7Mo2
_symmetry_space_group_name_H-M   'P 1'
_cell_length_a   7.85820598
_cell_length_b   7.84826682
_cell_length_c   7.84826808
_cell_angle_alpha   60.09371596
_cell_angle_beta   59.95809450
_cell_angle_gamma   59.95809459
_symmetry_Int_Tables_number   1
_chemical_formula_structural   Ti4Co16Si7Mo2
_chemical_formula_sum   'Ti4 Co16 Si7 Mo2'
_cell_volume   342.28422476
_cell_formula_units_Z   1
loop_
 _symmetry_equiv_pos_site_id
 _symmetry_equiv_pos_as_xyz
  1  'x, y, z'
loop_
 _atom_site_type_symbol
 _atom_site_label
 _atom_site_symmetry_multiplicity
 _atom_site_fract_x
 _atom_site_fract_y
 _atom_site_fract_z
 _atom_site_occupancy
  Ti  Ti0  1  0.203401  0.204094  0.795906  1
  Ti  Ti1  1  0.203401  0.795906  0.204094  1
  Ti  Ti2  1  0.200953  0.798549  0.798549  1
  Ti  Ti3  1  0.798049  0.201452  0.201452  1
  Co  Co4  1  0.619774  0.143268  0.619713  1
  Co  Co5  1  0.140439  0.619801  0.619801  1
  Co  Co6  1  0.619774  0.619713  0.143268  1
  Co  Co7  1  0.619630  0.617166  0.617166  1
  Co  Co8  1  0.382756  0.856731  0.380286  1
  Co  Co9  1  0.853964  0.382833  0.382833  1
  Co  Co10  1  0.382756  0.380286  0.856731  1
  Co  Co11  1  0.380043  0.380198  0.380198  1
  Co  Co12  1  0.494612  0.835115  0.835115  1
  Co  Co13  1  0.835064  0.495824  0.834943  1
  Co  Co14  1  0.835064  0.834943  0.495824  1
  Co  Co15  1  0.835301  0.833814  0.833814  1
  Co  Co16  1  0.165831  0.504177  0.165056  1
  Co  Co17  1  0.502930  0.166185  0.166185  1
  Co  Co18  1  0.165831  0.165056  0.504177  1
  Co  Co19  1  0.164843  0.164884  0.164884  1
  Si  Si20  1  0.495700  0.500000  0.500000  1
  Si  Si21  1  0.499824  0.501247  0.999223  1
  Si  Si22  1  0.499824  0.999223  0.501247  1
  Si  Si23  1  0.000295  0.000777  0.498753  1
  Si  Si24  1  0.000295  0.498753  0.000777  1
  Si  Si25  1  0.999434  0.500000  0.500000  1
  Si  Si26  1  0.498756  0.000000  0.000000  1
  Mo  Mo27  1  0.800724  0.801243  0.198757  1
  Mo  Mo28  1  0.800724  0.198757  0.801243  1
