# generated using pymatgen
data_Ho20Sn7BiOs4
_symmetry_space_group_name_H-M   'P 1'
_cell_length_a   7.76213869
_cell_length_b   9.07149464
_cell_length_c   12.21107693
_cell_angle_alpha   90.02782637
_cell_angle_beta   90.18464870
_cell_angle_gamma   89.93365680
_symmetry_Int_Tables_number   1
_chemical_formula_structural   Ho20Sn7BiOs4
_chemical_formula_sum   'Ho20 Sn7 Bi1 Os4'
_cell_volume   859.82806556
_cell_formula_units_Z   1
loop_
 _symmetry_equiv_pos_site_id
 _symmetry_equiv_pos_as_xyz
  1  'x, y, z'
loop_
 _atom_site_type_symbol
 _atom_site_label
 _atom_site_symmetry_multiplicity
 _atom_site_fract_x
 _atom_site_fract_y
 _atom_site_fract_z
 _atom_site_occupancy
  Ho  Ho0  1  0.840764  0.746632  0.786560  1
  Ho  Ho1  1  0.156624  0.250031  0.214796  1
  Ho  Ho2  1  0.348018  0.253032  0.713954  1
  Ho  Ho3  1  0.655839  0.749379  0.284559  1
  Ho  Ho4  1  0.379865  0.746602  0.696248  1
  Ho  Ho5  1  0.625177  0.250454  0.302951  1
  Ho  Ho6  1  0.871673  0.252990  0.805374  1
  Ho  Ho7  1  0.124540  0.749910  0.196712  1
  Ho  Ho8  1  0.952103  0.747162  0.501128  1
  Ho  Ho9  1  0.046292  0.252700  0.495200  1
  Ho  Ho10  1  0.453695  0.250241  0.996884  1
  Ho  Ho11  1  0.545560  0.749850  0.003611  1
  Ho  Ho12  1  0.674103  0.037387  0.569425  1
  Ho  Ho13  1  0.324236  0.964563  0.426956  1
  Ho  Ho14  1  0.178498  0.963470  0.933846  1
  Ho  Ho15  1  0.323860  0.536632  0.429279  1
  Ho  Ho16  1  0.822679  0.036119  0.070813  1
  Ho  Ho17  1  0.678313  0.463557  0.570160  1
  Ho  Ho18  1  0.823089  0.464437  0.070859  1
  Ho  Ho19  1  0.176288  0.535847  0.929308  1
  Sn  Sn20  1  0.572599  0.495140  0.831943  1
  Sn  Sn21  1  0.426249  0.504716  0.168773  1
  Sn  Sn22  1  0.072890  0.504541  0.669605  1
  Sn  Sn23  1  0.426616  0.995612  0.168530  1
  Sn  Sn24  1  0.927725  0.495294  0.330014  1
  Sn  Sn25  1  0.572503  0.004035  0.830366  1
  Sn  Sn26  1  0.926420  0.004698  0.331902  1
  Bi  Bi27  1  0.073705  0.994242  0.671233  1
  Os  Os28  1  0.575782  0.750554  0.507628  1
  Os  Os29  1  0.424651  0.250165  0.491296  1
  Os  Os30  1  0.075048  0.249615  0.992115  1
  Os  Os31  1  0.924594  0.750392  0.007973  1
