# generated using pymatgen
data_Dy4Al24Ag2Pd7
_symmetry_space_group_name_H-M   'P 1'
_cell_length_a   7.53776775
_cell_length_b   7.54946887
_cell_length_c   13.09466400
_cell_angle_alpha   84.61636515
_cell_angle_beta   79.01599666
_cell_angle_gamma   59.95465247
_symmetry_Int_Tables_number   1
_chemical_formula_structural   Dy4Al24Ag2Pd7
_chemical_formula_sum   'Dy4 Al24 Ag2 Pd7'
_cell_volume   633.22039103
_cell_formula_units_Z   1
loop_
 _symmetry_equiv_pos_site_id
 _symmetry_equiv_pos_as_xyz
  1  'x, y, z'
loop_
 _atom_site_type_symbol
 _atom_site_label
 _atom_site_symmetry_multiplicity
 _atom_site_fract_x
 _atom_site_fract_y
 _atom_site_fract_z
 _atom_site_occupancy
  Dy  Dy0  1  0.391343  0.170202  0.809363  1
  Dy  Dy1  1  0.608657  0.829798  0.190637  1
  Dy  Dy2  1  0.734644  0.498458  0.810196  1
  Dy  Dy3  1  0.265356  0.501542  0.189804  1
  Al  Al4  1  0.682600  0.834709  0.944901  1
  Al  Al5  1  0.317400  0.165291  0.055099  1
  Al  Al6  1  0.145108  0.838291  0.562612  1
  Al  Al7  1  0.854892  0.161709  0.437388  1
  Al  Al8  1  0.487575  0.159946  0.560138  1
  Al  Al9  1  0.512425  0.840054  0.439862  1
  Al  Al10  1  0.223105  0.160442  0.325802  1
  Al  Al11  1  0.776895  0.839558  0.674198  1
  Al  Al12  1  0.439879  0.506898  0.674561  1
  Al  Al13  1  0.560121  0.493102  0.325439  1
  Al  Al14  1  0.109087  0.153543  0.672872  1
  Al  Al15  1  0.890913  0.846457  0.327128  1
  Al  Al16  1  0.353618  0.498828  0.944511  1
  Al  Al17  1  0.646382  0.501172  0.055489  1
  Al  Al18  1  0.015103  0.167527  0.954854  1
  Al  Al19  1  0.984897  0.832473  0.045146  1
  Al  Al20  1  0.195060  0.500062  0.436612  1
  Al  Al21  1  0.804940  0.499938  0.563388  1
  Al  Al22  1  0.732077  0.164475  0.183346  1
  Al  Al23  1  0.267923  0.835525  0.816654  1
  Al  Al24  1  0.059985  0.634566  0.818114  1
  Al  Al25  1  0.940015  0.365434  0.181886  1
  Al  Al26  1  0.853870  0.043005  0.816450  1
  Al  Al27  1  0.146130  0.956995  0.183550  1
  Ag  Ag28  1  0.120179  0.490080  0.637833  1
  Ag  Ag29  1  0.879821  0.509920  0.362167  1
  Pd  Pd30  1  0.656998  0.171748  0.999908  1
  Pd  Pd31  1  0.343002  0.828252  0.000092  1
  Pd  Pd32  1  0.537108  0.167507  0.362276  1
  Pd  Pd33  1  0.462892  0.832493  0.637724  1
  Pd  Pd34  1  0.779584  0.175021  0.637271  1
  Pd  Pd35  1  0.220416  0.824979  0.362729  1
  Pd  Pd36  1  0.000000  0.500000  0.000000  1
