# generated using pymatgen
data_Sc10Sb9Te
_symmetry_space_group_name_H-M   'P 1'
_cell_length_a   7.22072511
_cell_length_b   8.34406616
_cell_length_c   9.31396128
_cell_angle_alpha   102.73709005
_cell_angle_beta   97.43537834
_cell_angle_gamma   106.96793779
_symmetry_Int_Tables_number   1
_chemical_formula_structural   Sc10Sb9Te
_chemical_formula_sum   'Sc10 Sb9 Te1'
_cell_volume   512.11671911
_cell_formula_units_Z   1
loop_
 _symmetry_equiv_pos_site_id
 _symmetry_equiv_pos_as_xyz
  1  'x, y, z'
loop_
 _atom_site_type_symbol
 _atom_site_label
 _atom_site_symmetry_multiplicity
 _atom_site_fract_x
 _atom_site_fract_y
 _atom_site_fract_z
 _atom_site_occupancy
  Sc  Sc0  1  0.900656  0.549655  0.800575  1
  Sc  Sc1  1  0.696357  0.152460  0.399287  1
  Sc  Sc2  1  0.499995  0.749627  0.000023  1
  Sc  Sc3  1  0.695449  0.644925  0.398620  1
  Sc  Sc4  1  0.304551  0.355075  0.601380  1
  Sc  Sc5  1  0.101853  0.948331  0.195350  1
  Sc  Sc6  1  0.500005  0.250373  0.999977  1
  Sc  Sc7  1  0.303643  0.847540  0.600713  1
  Sc  Sc8  1  0.099344  0.450345  0.199425  1
  Sc  Sc9  1  0.898147  0.051669  0.804650  1
  Sb  Sb10  1  0.799995  0.600700  0.101065  1
  Sb  Sb11  1  0.599411  0.199425  0.699622  1
  Sb  Sb12  1  0.400589  0.800575  0.300378  1
  Sb  Sb13  1  0.799894  0.099910  0.101881  1
  Sb  Sb14  1  0.200005  0.399300  0.898935  1
  Sb  Sb15  1  0.602708  0.701312  0.700420  1
  Sb  Sb16  1  0.397292  0.298688  0.299580  1
  Sb  Sb17  1  0.200106  0.900090  0.898119  1
  Sb  Sb18  1  0.000000  0.500000  0.500000  1
  Te  Te19  1  0.000000  0.000000  0.500000  1
