# generated using pymatgen
data_Tb8InHgRh2
_symmetry_space_group_name_H-M   'P 1'
_cell_length_a   9.67395524
_cell_length_b   9.67395594
_cell_length_c   9.68122300
_cell_angle_alpha   59.97515087
_cell_angle_beta   59.97514848
_cell_angle_gamma   59.91544325
_symmetry_Int_Tables_number   1
_chemical_formula_structural   Tb8InHgRh2
_chemical_formula_sum   'Tb16 In2 Hg2 Rh4'
_cell_volume   640.00311153
_cell_formula_units_Z   2
loop_
 _symmetry_equiv_pos_site_id
 _symmetry_equiv_pos_as_xyz
  1  'x, y, z'
loop_
 _atom_site_type_symbol
 _atom_site_label
 _atom_site_symmetry_multiplicity
 _atom_site_fract_x
 _atom_site_fract_y
 _atom_site_fract_z
 _atom_site_occupancy
  Tb  Tb0  1  0.809188  0.809188  0.190812  1
  Tb  Tb1  1  0.811545  0.190168  0.808579  1
  Tb  Tb2  1  0.189242  0.189242  0.810758  1
  Tb  Tb3  1  0.648435  0.051612  0.649976  1
  Tb  Tb4  1  0.062953  0.062953  0.437047  1
  Tb  Tb5  1  0.437204  0.437204  0.062796  1
  Tb  Tb6  1  0.649955  0.649955  0.650643  1
  Tb  Tb7  1  0.811545  0.190168  0.189708  1
  Tb  Tb8  1  0.190168  0.811545  0.808579  1
  Tb  Tb9  1  0.051612  0.648435  0.649976  1
  Tb  Tb10  1  0.437493  0.065167  0.060746  1
  Tb  Tb11  1  0.437493  0.065167  0.436594  1
  Tb  Tb12  1  0.065167  0.437493  0.060746  1
  Tb  Tb13  1  0.649955  0.649955  0.049447  1
  Tb  Tb14  1  0.190168  0.811545  0.189708  1
  Tb  Tb15  1  0.065167  0.437493  0.436594  1
  In  In16  1  0.418019  0.744945  0.418518  1
  In  In17  1  0.744945  0.418019  0.418518  1
  Hg  Hg18  1  0.415231  0.415231  0.414744  1
  Hg  Hg19  1  0.415231  0.415231  0.754792  1
  Rh  Rh20  1  0.857630  0.426761  0.857805  1
  Rh  Rh21  1  0.857446  0.857446  0.857317  1
  Rh  Rh22  1  0.857446  0.857446  0.427792  1
  Rh  Rh23  1  0.426761  0.857630  0.857805  1
