# generated using pymatgen
data_TbYb3ReTc3B16
_symmetry_space_group_name_H-M   'P 1'
_cell_length_a   3.57229300
_cell_length_b   5.98397216
_cell_length_c   11.57035235
_cell_angle_alpha   89.97829478
_cell_angle_beta   90.00000000
_cell_angle_gamma   90.00000000
_symmetry_Int_Tables_number   1
_chemical_formula_structural   TbYb3ReTc3B16
_chemical_formula_sum   'Tb1 Yb3 Re1 Tc3 B16'
_cell_volume   247.33364079
_cell_formula_units_Z   1
loop_
 _symmetry_equiv_pos_site_id
 _symmetry_equiv_pos_as_xyz
  1  'x, y, z'
loop_
 _atom_site_type_symbol
 _atom_site_label
 _atom_site_symmetry_multiplicity
 _atom_site_fract_x
 _atom_site_fract_y
 _atom_site_fract_z
 _atom_site_occupancy
  Tb  Tb0  1  0.000000  0.871907  0.849695  1
  Yb  Yb1  1  0.000000  0.627948  0.349675  1
  Yb  Yb2  1  0.000000  0.371680  0.649121  1
  Yb  Yb3  1  0.000000  0.128411  0.151201  1
  Re  Re4  1  0.000000  0.869788  0.583621  1
  Tc  Tc5  1  0.000000  0.631118  0.083387  1
  Tc  Tc6  1  0.000000  0.370443  0.915873  1
  Tc  Tc7  1  0.000000  0.130869  0.416580  1
  B  B8  1  0.500000  0.784321  0.185450  1
  B  B9  1  0.500000  0.215829  0.815197  1
  B  B10  1  0.500000  0.285046  0.315104  1
  B  B11  1  0.500000  0.713296  0.684588  1
  B  B12  1  0.500000  0.864421  0.032655  1
  B  B13  1  0.500000  0.135754  0.968686  1
  B  B14  1  0.500000  0.365114  0.467471  1
  B  B15  1  0.500000  0.633999  0.531610  1
  B  B16  1  0.500000  0.885844  0.452282  1
  B  B17  1  0.500000  0.114715  0.547386  1
  B  B18  1  0.500000  0.385681  0.047939  1
  B  B19  1  0.500000  0.611892  0.952939  1
  B  B20  1  0.500000  0.977495  0.307213  1
  B  B21  1  0.500000  0.024580  0.692224  1
  B  B22  1  0.500000  0.477313  0.192720  1
  B  B23  1  0.500000  0.522533  0.807382  1
