# generated using pymatgen
data_Ho4Tm4Ga3Fe
_symmetry_space_group_name_H-M   'P 1'
_cell_length_a   9.87331400
_cell_length_b   9.87331336
_cell_length_c   6.92643800
_cell_angle_alpha   90.00000000
_cell_angle_beta   90.00000000
_cell_angle_gamma   120.00000216
_symmetry_Int_Tables_number   1
_chemical_formula_structural   Ho4Tm4Ga3Fe
_chemical_formula_sum   'Ho8 Tm8 Ga6 Fe2'
_cell_volume   584.74490063
_cell_formula_units_Z   2
loop_
 _symmetry_equiv_pos_site_id
 _symmetry_equiv_pos_as_xyz
  1  'x, y, z'
loop_
 _atom_site_type_symbol
 _atom_site_label
 _atom_site_symmetry_multiplicity
 _atom_site_fract_x
 _atom_site_fract_y
 _atom_site_fract_z
 _atom_site_occupancy
  Ho  Ho0  1  0.463711  0.536289  0.207645  1
  Ho  Ho1  1  0.072577  0.536289  0.207645  1
  Ho  Ho2  1  0.463711  0.927423  0.207645  1
  Ho  Ho3  1  0.536289  0.463711  0.707645  1
  Ho  Ho4  1  0.927423  0.463711  0.707645  1
  Ho  Ho5  1  0.536289  0.072577  0.707645  1
  Ho  Ho6  1  0.000000  0.000000  0.231777  1
  Ho  Ho7  1  0.000000  0.000000  0.731777  1
  Tm  Tm8  1  0.173646  0.826354  0.511530  1
  Tm  Tm9  1  0.652706  0.826354  0.511530  1
  Tm  Tm10  1  0.173646  0.347294  0.511530  1
  Tm  Tm11  1  0.826354  0.173646  0.011530  1
  Tm  Tm12  1  0.347294  0.173646  0.011530  1
  Tm  Tm13  1  0.826354  0.652706  0.011530  1
  Tm  Tm14  1  0.333333  0.666667  0.828522  1
  Tm  Tm15  1  0.666667  0.333333  0.328522  1
  Ga  Ga16  1  0.163860  0.836140  0.957686  1
  Ga  Ga17  1  0.672279  0.836140  0.957686  1
  Ga  Ga18  1  0.163860  0.327721  0.957686  1
  Ga  Ga19  1  0.836140  0.163860  0.457686  1
  Ga  Ga20  1  0.327721  0.163860  0.457686  1
  Ga  Ga21  1  0.836140  0.672279  0.457686  1
  Fe  Fe22  1  0.333333  0.666667  0.446138  1
  Fe  Fe23  1  0.666667  0.333333  0.946138  1
