# generated using pymatgen
data_Ce4In2Pd3Pt
_symmetry_space_group_name_H-M   'P 1'
_cell_length_a   7.86766463
_cell_length_b   7.86766463
_cell_length_c   3.77780300
_cell_angle_alpha   90.00000000
_cell_angle_beta   90.00000000
_cell_angle_gamma   90.04571915
_symmetry_Int_Tables_number   1
_chemical_formula_structural   Ce4In2Pd3Pt
_chemical_formula_sum   'Ce4 In2 Pd3 Pt1'
_cell_volume   233.84648534
_cell_formula_units_Z   1
loop_
 _symmetry_equiv_pos_site_id
 _symmetry_equiv_pos_as_xyz
  1  'x, y, z'
loop_
 _atom_site_type_symbol
 _atom_site_label
 _atom_site_symmetry_multiplicity
 _atom_site_fract_x
 _atom_site_fract_y
 _atom_site_fract_z
 _atom_site_occupancy
  Ce  Ce0  1  0.324905  0.829659  0.500000  1
  Ce  Ce1  1  0.826465  0.673535  0.500000  1
  Ce  Ce2  1  0.176832  0.323168  0.500000  1
  Ce  Ce3  1  0.670341  0.175095  0.500000  1
  In  In4  1  0.997547  0.999672  0.000000  1
  In  In5  1  0.500328  0.502453  0.000000  1
  Pd  Pd6  1  0.870598  0.370689  0.000000  1
  Pd  Pd7  1  0.129311  0.629402  0.000000  1
  Pd  Pd8  1  0.631415  0.868585  0.000000  1
  Pt  Pt9  1  0.372258  0.127742  0.000000  1
