# generated using pymatgen
data_MgMn3Al2(B2Rh5)2
_symmetry_space_group_name_H-M   'P 1'
_cell_length_a   9.35307652
_cell_length_b   9.35307652
_cell_length_c   2.92732400
_cell_angle_alpha   90.00000000
_cell_angle_beta   90.00000000
_cell_angle_gamma   89.83651259
_symmetry_Int_Tables_number   1
_chemical_formula_structural   MgMn3Al2(B2Rh5)2
_chemical_formula_sum   'Mg1 Mn3 Al2 B4 Rh10'
_cell_volume   256.08137920
_cell_formula_units_Z   1
loop_
 _symmetry_equiv_pos_site_id
 _symmetry_equiv_pos_as_xyz
  1  'x, y, z'
loop_
 _atom_site_type_symbol
 _atom_site_label
 _atom_site_symmetry_multiplicity
 _atom_site_fract_x
 _atom_site_fract_y
 _atom_site_fract_z
 _atom_site_occupancy
  Mg  Mg0  1  0.823671  0.323671  0.000000  1
  Mn  Mn1  1  0.324082  0.177734  0.000000  1
  Mn  Mn2  1  0.677734  0.824082  0.000000  1
  Mn  Mn3  1  0.177337  0.677337  0.000000  1
  Al  Al4  1  0.999305  0.001376  0.000000  1
  Al  Al5  1  0.501376  0.499305  0.000000  1
  B  B6  1  0.625114  0.125114  0.000000  1
  B  B7  1  0.127242  0.373585  0.000000  1
  B  B8  1  0.873585  0.627242  0.000000  1
  B  B9  1  0.371927  0.871927  0.000000  1
  Rh  Rh10  1  0.075039  0.213381  0.500000  1
  Rh  Rh11  1  0.213560  0.929198  0.500000  1
  Rh  Rh12  1  0.783361  0.066051  0.500000  1
  Rh  Rh13  1  0.929981  0.786681  0.500000  1
  Rh  Rh14  1  0.429198  0.713560  0.500000  1
  Rh  Rh15  1  0.566051  0.283361  0.500000  1
  Rh  Rh16  1  0.713381  0.575039  0.500000  1
  Rh  Rh17  1  0.286681  0.429981  0.500000  1
  Rh  Rh18  1  0.498566  0.998566  0.500000  1
  Rh  Rh19  1  0.002809  0.502809  0.500000  1
