# generated using pymatgen
data_YbDyY(BPt2)3
_symmetry_space_group_name_H-M   'P 1'
_cell_length_a   5.42067002
_cell_length_b   5.40858636
_cell_length_c   7.77942100
_cell_angle_alpha   90.00000000
_cell_angle_beta   90.00000000
_cell_angle_gamma   120.19500290
_symmetry_Int_Tables_number   1
_chemical_formula_structural   YbDyY(BPt2)3
_chemical_formula_sum   'Yb1 Dy1 Y1 B3 Pt6'
_cell_volume   197.13235426
_cell_formula_units_Z   1
loop_
 _symmetry_equiv_pos_site_id
 _symmetry_equiv_pos_as_xyz
  1  'x, y, z'
loop_
 _atom_site_type_symbol
 _atom_site_label
 _atom_site_symmetry_multiplicity
 _atom_site_fract_x
 _atom_site_fract_y
 _atom_site_fract_z
 _atom_site_occupancy
  Yb  Yb0  1  0.500000  0.000000  0.499943  1
  Dy  Dy1  1  0.500000  0.500000  0.829800  1
  Y  Y2  1  0.000000  0.500000  0.170199  1
  B  B3  1  0.500000  0.500000  0.336007  1
  B  B4  1  0.500000  0.000000  0.999927  1
  B  B5  1  0.000000  0.500000  0.664040  1
  Pt  Pt6  1  0.148540  0.847598  0.833362  1
  Pt  Pt7  1  0.148237  0.295245  0.500679  1
  Pt  Pt8  1  0.698190  0.846522  0.166001  1
  Pt  Pt9  1  0.851460  0.152402  0.833362  1
  Pt  Pt10  1  0.851763  0.704755  0.500679  1
  Pt  Pt11  1  0.301810  0.153478  0.166001  1
