# generated using pymatgen
data_Dy4Tm(SiBi)2
_symmetry_space_group_name_H-M   'P 1'
_cell_length_a   8.64642171
_cell_length_b   8.64642191
_cell_length_c   7.90380700
_cell_angle_alpha   90.00000000
_cell_angle_beta   90.00000000
_cell_angle_gamma   125.74239797
_symmetry_Int_Tables_number   1
_chemical_formula_structural   Dy4Tm(SiBi)2
_chemical_formula_sum   'Dy8 Tm2 Si4 Bi4'
_cell_volume   479.59953781
_cell_formula_units_Z   2
loop_
 _symmetry_equiv_pos_site_id
 _symmetry_equiv_pos_as_xyz
  1  'x, y, z'
loop_
 _atom_site_type_symbol
 _atom_site_label
 _atom_site_symmetry_multiplicity
 _atom_site_fract_x
 _atom_site_fract_y
 _atom_site_fract_z
 _atom_site_occupancy
  Dy  Dy0  1  0.043637  0.288150  0.334490  1
  Dy  Dy1  1  0.956363  0.711850  0.665510  1
  Dy  Dy2  1  0.456363  0.211850  0.834490  1
  Dy  Dy3  1  0.788150  0.543637  0.165510  1
  Dy  Dy4  1  0.543637  0.788150  0.165510  1
  Dy  Dy5  1  0.211850  0.456363  0.834490  1
  Dy  Dy6  1  0.711850  0.956363  0.665510  1
  Dy  Dy7  1  0.288150  0.043637  0.334490  1
  Tm  Tm8  1  0.000000  0.000000  0.000000  1
  Tm  Tm9  1  0.500000  0.500000  0.500000  1
  Si  Si10  1  0.366582  0.366582  0.132397  1
  Si  Si11  1  0.633418  0.633418  0.867603  1
  Si  Si12  1  0.133418  0.133418  0.632397  1
  Si  Si13  1  0.866582  0.866582  0.367603  1
  Bi  Bi14  1  0.792881  0.207119  0.000000  1
  Bi  Bi15  1  0.207119  0.792881  0.000000  1
  Bi  Bi16  1  0.707119  0.292881  0.500000  1
  Bi  Bi17  1  0.292881  0.707119  0.500000  1
