# generated using pymatgen
data_Pr10Si4IrPb
_symmetry_space_group_name_H-M   'P 1'
_cell_length_a   7.77984438
_cell_length_b   7.77984428
_cell_length_c   9.29845429
_cell_angle_alpha   114.72987801
_cell_angle_beta   114.72987957
_cell_angle_gamma   90.00000266
_symmetry_Int_Tables_number   1
_chemical_formula_structural   Pr10Si4IrPb
_chemical_formula_sum   'Pr10 Si4 Ir1 Pb1'
_cell_volume   453.73598530
_cell_formula_units_Z   1
loop_
 _symmetry_equiv_pos_site_id
 _symmetry_equiv_pos_as_xyz
  1  'x, y, z'
loop_
 _atom_site_type_symbol
 _atom_site_label
 _atom_site_symmetry_multiplicity
 _atom_site_fract_x
 _atom_site_fract_y
 _atom_site_fract_z
 _atom_site_occupancy
  Pr  Pr0  1  0.474567  0.474567  0.949132  1
  Pr  Pr1  1  0.025433  0.025433  0.050868  1
  Pr  Pr2  1  0.943825  0.798519  0.281646  1
  Pr  Pr3  1  0.337822  0.483128  0.281646  1
  Pr  Pr4  1  0.798519  0.337822  0.281646  1
  Pr  Pr5  1  0.483128  0.943825  0.281646  1
  Pr  Pr6  1  0.016872  0.162178  0.718354  1
  Pr  Pr7  1  0.701481  0.556175  0.718354  1
  Pr  Pr8  1  0.162178  0.701481  0.718354  1
  Pr  Pr9  1  0.556175  0.016872  0.718354  1
  Si  Si10  1  0.614558  0.885442  0.000000  1
  Si  Si11  1  0.385442  0.114558  0.000000  1
  Si  Si12  1  0.885442  0.385442  0.000000  1
  Si  Si13  1  0.114558  0.614558  0.000000  1
  Ir  Ir14  1  0.750000  0.750000  0.500000  1
  Pb  Pb15  1  0.250000  0.250000  0.500000  1
