# generated using pymatgen
data_Sm4Dy4Sc12Si15Ag
_symmetry_space_group_name_H-M   'P 1'
_cell_length_a   7.17799551
_cell_length_b   7.41362030
_cell_length_c   14.15541902
_cell_angle_alpha   89.89459372
_cell_angle_beta   89.62652228
_cell_angle_gamma   90.22890965
_symmetry_Int_Tables_number   1
_chemical_formula_structural   Sm4Dy4Sc12Si15Ag
_chemical_formula_sum   'Sm4 Dy4 Sc12 Si15 Ag1'
_cell_volume   753.25635132
_cell_formula_units_Z   1
loop_
 _symmetry_equiv_pos_site_id
 _symmetry_equiv_pos_as_xyz
  1  'x, y, z'
loop_
 _atom_site_type_symbol
 _atom_site_label
 _atom_site_symmetry_multiplicity
 _atom_site_fract_x
 _atom_site_fract_y
 _atom_site_fract_z
 _atom_site_occupancy
  Sm  Sm0  1  0.011856  0.174306  0.098143  1
  Sm  Sm1  1  0.987996  0.827774  0.903849  1
  Sm  Sm2  1  0.487994  0.674698  0.904590  1
  Sm  Sm3  1  0.989432  0.831316  0.596674  1
  Dy  Dy4  1  0.511896  0.323949  0.097894  1
  Dy  Dy5  1  0.008637  0.172324  0.397828  1
  Dy  Dy6  1  0.512287  0.322805  0.399804  1
  Dy  Dy7  1  0.494053  0.678152  0.600022  1
  Sc  Sc8  1  0.163487  0.500202  0.752730  1
  Sc  Sc9  1  0.837289  0.498883  0.251329  1
  Sc  Sc10  1  0.337717  0.999567  0.249100  1
  Sc  Sc11  1  0.665161  0.998186  0.751330  1
  Sc  Sc12  1  0.342980  0.173646  0.626700  1
  Sc  Sc13  1  0.664652  0.822953  0.373753  1
  Sc  Sc14  1  0.167415  0.674588  0.371614  1
  Sc  Sc15  1  0.669568  0.824449  0.125391  1
  Sc  Sc16  1  0.825215  0.325607  0.624596  1
  Sc  Sc17  1  0.329615  0.175482  0.875917  1
  Sc  Sc18  1  0.829602  0.323424  0.875984  1
  Sc  Sc19  1  0.169425  0.675124  0.125660  1
  Si  Si20  1  0.037113  0.125252  0.749669  1
  Si  Si21  1  0.964406  0.880781  0.249841  1
  Si  Si22  1  0.466431  0.615817  0.248423  1
  Si  Si23  1  0.535269  0.383559  0.751521  1
  Si  Si24  1  0.287695  0.876751  0.749816  1
  Si  Si25  1  0.710505  0.125990  0.249528  1
  Si  Si26  1  0.215457  0.373028  0.249585  1
  Si  Si27  1  0.787911  0.624228  0.751127  1
  Si  Si28  1  0.834870  0.535748  0.458257  1
  Si  Si29  1  0.339331  0.962502  0.460442  1
  Si  Si30  1  0.843222  0.535282  0.039841  1
  Si  Si31  1  0.656086  0.037131  0.536998  1
  Si  Si32  1  0.153079  0.463523  0.961966  1
  Si  Si33  1  0.654091  0.038327  0.961491  1
  Si  Si34  1  0.345646  0.965386  0.040571  1
  Ag  Ag35  1  0.162613  0.459260  0.538016  1
