# generated using pymatgen
data_NdYMn(Si3Pd10)2
_symmetry_space_group_name_H-M   'P 1'
_cell_length_a   8.69279722
_cell_length_b   8.69279742
_cell_length_c   8.69279700
_cell_angle_alpha   59.99999778
_cell_angle_beta   59.99999704
_cell_angle_gamma   59.99999437
_symmetry_Int_Tables_number   1
_chemical_formula_structural   NdYMn(Si3Pd10)2
_chemical_formula_sum   'Nd1 Y1 Mn1 Si6 Pd20'
_cell_volume   464.47635672
_cell_formula_units_Z   1
loop_
 _symmetry_equiv_pos_site_id
 _symmetry_equiv_pos_as_xyz
  1  'x, y, z'
loop_
 _atom_site_type_symbol
 _atom_site_label
 _atom_site_symmetry_multiplicity
 _atom_site_fract_x
 _atom_site_fract_y
 _atom_site_fract_z
 _atom_site_occupancy
  Nd  Nd0  1  0.750000  0.750000  0.750000  1
  Y  Y1  1  0.250000  0.250000  0.250000  1
  Mn  Mn2  1  0.000000  0.000000  0.000000  1
  Si  Si3  1  0.734153  0.265847  0.265847  1
  Si  Si4  1  0.265847  0.734153  0.734153  1
  Si  Si5  1  0.265847  0.734153  0.265847  1
  Si  Si6  1  0.734153  0.265847  0.734153  1
  Si  Si7  1  0.265847  0.265847  0.734153  1
  Si  Si8  1  0.734153  0.734153  0.265847  1
  Pd  Pd9  1  0.342648  0.000534  0.000534  1
  Pd  Pd10  1  0.656284  0.000534  0.000534  1
  Pd  Pd11  1  0.000534  0.342648  0.656284  1
  Pd  Pd12  1  0.000534  0.656284  0.342648  1
  Pd  Pd13  1  0.000534  0.342648  0.000534  1
  Pd  Pd14  1  0.656284  0.000534  0.342648  1
  Pd  Pd15  1  0.000534  0.656284  0.000534  1
  Pd  Pd16  1  0.342648  0.000534  0.656284  1
  Pd  Pd17  1  0.000534  0.000534  0.342648  1
  Pd  Pd18  1  0.000534  0.000534  0.656284  1
  Pd  Pd19  1  0.656284  0.342648  0.000534  1
  Pd  Pd20  1  0.342648  0.656284  0.000534  1
  Pd  Pd21  1  0.383745  0.383745  0.383745  1
  Pd  Pd22  1  0.614737  0.614737  0.614737  1
  Pd  Pd23  1  0.383745  0.383745  0.848765  1
  Pd  Pd24  1  0.383745  0.848765  0.383745  1
  Pd  Pd25  1  0.614737  0.614737  0.155789  1
  Pd  Pd26  1  0.614737  0.155789  0.614737  1
  Pd  Pd27  1  0.848765  0.383745  0.383745  1
  Pd  Pd28  1  0.155789  0.614737  0.614737  1
