# generated using pymatgen
data_Pr4Al15(SiRh2)3
_symmetry_space_group_name_H-M   'P 1'
_cell_length_a   7.61075647
_cell_length_b   7.57726273
_cell_length_c   9.60285272
_cell_angle_alpha   89.99878204
_cell_angle_beta   89.94100363
_cell_angle_gamma   119.71816564
_symmetry_Int_Tables_number   1
_chemical_formula_structural   Pr4Al15(SiRh2)3
_chemical_formula_sum   'Pr4 Al15 Si3 Rh6'
_cell_volume   480.94691361
_cell_formula_units_Z   1
loop_
 _symmetry_equiv_pos_site_id
 _symmetry_equiv_pos_as_xyz
  1  'x, y, z'
loop_
 _atom_site_type_symbol
 _atom_site_label
 _atom_site_symmetry_multiplicity
 _atom_site_fract_x
 _atom_site_fract_y
 _atom_site_fract_z
 _atom_site_occupancy
  Pr  Pr0  1  0.994633  0.664474  0.747350  1
  Pr  Pr1  1  0.005878  0.340283  0.253338  1
  Pr  Pr2  1  0.674089  0.000079  0.747813  1
  Pr  Pr3  1  0.322051  0.994227  0.250088  1
  Al  Al4  1  0.131544  0.129206  0.750068  1
  Al  Al5  1  0.869167  0.868586  0.249194  1
  Al  Al6  1  0.338472  0.004988  0.926128  1
  Al  Al7  1  0.003347  0.330329  0.932115  1
  Al  Al8  1  0.665953  0.999837  0.073032  1
  Al  Al9  1  0.662225  0.995573  0.424363  1
  Al  Al10  1  0.338366  0.005478  0.574529  1
  Al  Al11  1  0.334813  0.333313  0.050178  1
  Al  Al12  1  0.663288  0.666430  0.951093  1
  Al  Al13  1  0.662516  0.665648  0.550432  1
  Al  Al14  1  0.336546  0.333605  0.450216  1
  Al  Al15  1  0.338888  0.547422  0.750311  1
  Al  Al16  1  0.660388  0.452440  0.250489  1
  Al  Al17  1  0.546206  0.343632  0.750349  1
  Al  Al18  1  0.456743  0.657474  0.249637  1
  Si  Si19  1  0.004990  0.328654  0.572407  1
  Si  Si20  1  0.994508  0.671465  0.432677  1
  Si  Si21  1  0.996016  0.666018  0.062893  1
  Rh  Rh22  1  0.686900  0.337518  0.500991  1
  Rh  Rh23  1  0.312808  0.662776  0.498223  1
  Rh  Rh24  1  0.320600  0.669777  0.002091  1
  Rh  Rh25  1  0.678827  0.337006  0.000319  1
  Rh  Rh26  1  0.999807  0.000333  0.499317  1
  Rh  Rh27  1  0.000433  0.993429  0.000363  1
