# generated using pymatgen
data_Tb8In2NiIr
_symmetry_space_group_name_H-M   'P 1'
_cell_length_a   9.67177844
_cell_length_b   9.67177824
_cell_length_c   9.63765900
_cell_angle_alpha   60.11663071
_cell_angle_beta   60.11663139
_cell_angle_gamma   60.43021421
_symmetry_Int_Tables_number   1
_chemical_formula_structural   Tb8In2NiIr
_chemical_formula_sum   'Tb16 In4 Ni2 Ir2'
_cell_volume   640.66317349
_cell_formula_units_Z   2
loop_
 _symmetry_equiv_pos_site_id
 _symmetry_equiv_pos_as_xyz
  1  'x, y, z'
loop_
 _atom_site_type_symbol
 _atom_site_label
 _atom_site_symmetry_multiplicity
 _atom_site_fract_x
 _atom_site_fract_y
 _atom_site_fract_z
 _atom_site_occupancy
  Tb  Tb0  1  0.097634  0.702663  0.099851  1
  Tb  Tb1  1  0.939973  0.939973  0.560027  1
  Tb  Tb2  1  0.941134  0.560853  0.938888  1
  Tb  Tb3  1  0.313739  0.689166  0.308397  1
  Tb  Tb4  1  0.941134  0.560853  0.559125  1
  Tb  Tb5  1  0.310331  0.310331  0.689669  1
  Tb  Tb6  1  0.097723  0.097723  0.099198  1
  Tb  Tb7  1  0.559297  0.559297  0.940703  1
  Tb  Tb8  1  0.097723  0.097723  0.705357  1
  Tb  Tb9  1  0.689166  0.313739  0.688698  1
  Tb  Tb10  1  0.687799  0.687799  0.312201  1
  Tb  Tb11  1  0.689166  0.313739  0.308397  1
  Tb  Tb12  1  0.313739  0.689166  0.688698  1
  Tb  Tb13  1  0.560853  0.941134  0.559125  1
  Tb  Tb14  1  0.702663  0.097634  0.099851  1
  Tb  Tb15  1  0.560853  0.941134  0.938888  1
  In  In16  1  0.332371  0.332371  0.332190  1
  In  In17  1  0.003112  0.332152  0.332367  1
  In  In18  1  0.332152  0.003112  0.332367  1
  In  In19  1  0.332371  0.332371  0.003067  1
  Ni  Ni20  1  0.891098  0.891098  0.893381  1
  Ni  Ni21  1  0.891098  0.891098  0.324423  1
  Ir  Ir22  1  0.324237  0.890632  0.892565  1
  Ir  Ir23  1  0.890632  0.324237  0.892565  1
