# generated using pymatgen
data_Ho3Lu17(Ir2Os)4
_symmetry_space_group_name_H-M   'P 1'
_cell_length_a   10.62508201
_cell_length_b   10.63001674
_cell_length_c   6.32831700
_cell_angle_alpha   89.97321170
_cell_angle_beta   89.99820969
_cell_angle_gamma   89.98105871
_symmetry_Int_Tables_number   1
_chemical_formula_structural   Ho3Lu17(Ir2Os)4
_chemical_formula_sum   'Ho3 Lu17 Ir8 Os4'
_cell_volume   714.75037789
_cell_formula_units_Z   1
loop_
 _symmetry_equiv_pos_site_id
 _symmetry_equiv_pos_as_xyz
  1  'x, y, z'
loop_
 _atom_site_type_symbol
 _atom_site_label
 _atom_site_symmetry_multiplicity
 _atom_site_fract_x
 _atom_site_fract_y
 _atom_site_fract_z
 _atom_site_occupancy
  Ho  Ho0  1  0.912865  0.292200  0.624505  1
  Ho  Ho1  1  0.086683  0.707967  0.624516  1
  Ho  Ho2  1  0.087164  0.292205  0.124414  1
  Lu  Lu3  1  0.293755  0.085704  0.377046  1
  Lu  Lu4  1  0.293800  0.914223  0.877106  1
  Lu  Lu5  1  0.706103  0.085640  0.876922  1
  Lu  Lu6  1  0.706640  0.913782  0.376619  1
  Lu  Lu7  1  0.586174  0.793436  0.876690  1
  Lu  Lu8  1  0.586068  0.206499  0.376441  1
  Lu  Lu9  1  0.413896  0.793488  0.376426  1
  Lu  Lu10  1  0.414018  0.206584  0.876408  1
  Lu  Lu11  1  0.207796  0.413851  0.623348  1
  Lu  Lu12  1  0.207306  0.586716  0.123402  1
  Lu  Lu13  1  0.792367  0.414382  0.123457  1
  Lu  Lu14  1  0.792299  0.586731  0.623351  1
  Lu  Lu15  1  0.913134  0.706929  0.123327  1
  Lu  Lu16  1  0.999913  0.999819  0.499214  1
  Lu  Lu17  1  0.999663  0.999314  0.999806  1
  Lu  Lu18  1  0.500029  0.500172  0.999683  1
  Lu  Lu19  1  0.500121  0.500104  0.499935  1
  Ir  Ir20  1  0.846028  0.151160  0.248168  1
  Ir  Ir21  1  0.846616  0.848126  0.750457  1
  Ir  Ir22  1  0.153838  0.151108  0.748105  1
  Ir  Ir23  1  0.152976  0.848173  0.247553  1
  Ir  Ir24  1  0.651063  0.347775  0.750688  1
  Ir  Ir25  1  0.652402  0.652372  0.249994  1
  Ir  Ir26  1  0.349018  0.347718  0.250749  1
  Ir  Ir27  1  0.348914  0.652286  0.750653  1
  Os  Os28  1  0.500062  0.999995  0.124089  1
  Os  Os29  1  0.500022  0.999969  0.623745  1
  Os  Os30  1  0.999644  0.500869  0.877549  1
  Os  Os31  1  0.999624  0.500705  0.375637  1
