# generated using pymatgen
data_Yb3YIr8
_symmetry_space_group_name_H-M   'P 1'
_cell_length_a   5.33421601
_cell_length_b   5.33421752
_cell_length_c   8.70112500
_cell_angle_alpha   90.00037969
_cell_angle_beta   89.99962978
_cell_angle_gamma   119.99985762
_symmetry_Int_Tables_number   1
_chemical_formula_structural   Yb3YIr8
_chemical_formula_sum   'Yb3 Y1 Ir8'
_cell_volume   214.41145432
_cell_formula_units_Z   1
loop_
 _symmetry_equiv_pos_site_id
 _symmetry_equiv_pos_as_xyz
  1  'x, y, z'
loop_
 _atom_site_type_symbol
 _atom_site_label
 _atom_site_symmetry_multiplicity
 _atom_site_fract_x
 _atom_site_fract_y
 _atom_site_fract_z
 _atom_site_occupancy
  Yb  Yb0  1  0.333336  0.666664  0.426379  1
  Yb  Yb1  1  0.333344  0.666656  0.067953  1
  Yb  Yb2  1  0.666667  0.333333  0.938237  1
  Y  Y3  1  0.666661  0.333339  0.570087  1
  Ir  Ir4  1  0.999998  0.000002  0.498814  1
  Ir  Ir5  1  0.000003  0.999997  0.999706  1
  Ir  Ir6  1  0.170822  0.341641  0.749307  1
  Ir  Ir7  1  0.170830  0.829170  0.749305  1
  Ir  Ir8  1  0.658359  0.829178  0.749307  1
  Ir  Ir9  1  0.829425  0.658852  0.250299  1
  Ir  Ir10  1  0.829407  0.170593  0.250305  1
  Ir  Ir11  1  0.341148  0.170575  0.250299  1
