# generated using pymatgen
data_Tb5Y4Ho(CoSb2)2
_symmetry_space_group_name_H-M   'P 1'
_cell_length_a   7.95484400
_cell_length_b   8.75605327
_cell_length_c   12.23373579
_cell_angle_alpha   90.06186268
_cell_angle_beta   90.00000000
_cell_angle_gamma   90.00000000
_symmetry_Int_Tables_number   1
_chemical_formula_structural   Tb5Y4Ho(CoSb2)2
_chemical_formula_sum   'Tb10 Y8 Ho2 Co4 Sb8'
_cell_volume   852.11636503
_cell_formula_units_Z   2
loop_
 _symmetry_equiv_pos_site_id
 _symmetry_equiv_pos_as_xyz
  1  'x, y, z'
loop_
 _atom_site_type_symbol
 _atom_site_label
 _atom_site_symmetry_multiplicity
 _atom_site_fract_x
 _atom_site_fract_y
 _atom_site_fract_z
 _atom_site_occupancy
  Tb  Tb0  1  0.622464  0.750265  0.305293  1
  Tb  Tb1  1  0.122464  0.249735  0.194707  1
  Tb  Tb2  1  0.376863  0.249567  0.694507  1
  Tb  Tb3  1  0.876863  0.750433  0.805493  1
  Tb  Tb4  1  0.178926  0.465559  0.935053  1
  Tb  Tb5  1  0.678926  0.534441  0.564947  1
  Tb  Tb6  1  0.178333  0.034370  0.935165  1
  Tb  Tb7  1  0.678333  0.965630  0.564835  1
  Tb  Tb8  1  0.821096  0.534957  0.065147  1
  Tb  Tb9  1  0.321096  0.465043  0.434853  1
  Y  Y10  1  0.155057  0.750340  0.203689  1
  Y  Y11  1  0.655057  0.249660  0.296311  1
  Y  Y12  1  0.844617  0.249796  0.796478  1
  Y  Y13  1  0.344617  0.750204  0.703522  1
  Y  Y14  1  0.456554  0.750209  0.998379  1
  Y  Y15  1  0.956554  0.249791  0.501621  1
  Y  Y16  1  0.544505  0.249659  0.001709  1
  Y  Y17  1  0.044505  0.750341  0.498291  1
  Ho  Ho18  1  0.822908  0.964980  0.065096  1
  Ho  Ho19  1  0.322908  0.035020  0.434904  1
  Co  Co20  1  0.435439  0.750457  0.489452  1
  Co  Co21  1  0.935439  0.249543  0.010548  1
  Co  Co22  1  0.563024  0.249329  0.510294  1
  Co  Co23  1  0.063024  0.750671  0.989706  1
  Sb  Sb24  1  0.928363  0.991541  0.326978  1
  Sb  Sb25  1  0.428363  0.008459  0.173022  1
  Sb  Sb26  1  0.072110  0.491486  0.672975  1
  Sb  Sb27  1  0.572110  0.508514  0.827025  1
  Sb  Sb28  1  0.071947  0.008505  0.672872  1
  Sb  Sb29  1  0.571947  0.991495  0.827128  1
  Sb  Sb30  1  0.927792  0.508528  0.327136  1
  Sb  Sb31  1  0.427792  0.491472  0.172864  1
