# generated using pymatgen
data_Tb8Dy8MgCo4Au3
_symmetry_space_group_name_H-M   'P 1'
_cell_length_a   9.39735374
_cell_length_b   9.45095251
_cell_length_c   9.45095383
_cell_angle_alpha   60.02378316
_cell_angle_beta   59.85836905
_cell_angle_gamma   59.85835925
_symmetry_Int_Tables_number   1
_chemical_formula_structural   Tb8Dy8MgCo4Au3
_chemical_formula_sum   'Tb8 Dy8 Mg1 Co4 Au3'
_cell_volume   592.36090719
_cell_formula_units_Z   1
loop_
 _symmetry_equiv_pos_site_id
 _symmetry_equiv_pos_as_xyz
  1  'x, y, z'
loop_
 _atom_site_type_symbol
 _atom_site_label
 _atom_site_symmetry_multiplicity
 _atom_site_fract_x
 _atom_site_fract_y
 _atom_site_fract_z
 _atom_site_occupancy
  Tb  Tb0  1  0.563595  0.936313  0.563523  1
  Tb  Tb1  1  0.936320  0.562491  0.938452  1
  Tb  Tb2  1  0.563595  0.563522  0.936314  1
  Tb  Tb3  1  0.936320  0.938451  0.562492  1
  Tb  Tb4  1  0.347684  0.347173  0.347173  1
  Tb  Tb5  1  0.348567  0.346126  0.958120  1
  Tb  Tb6  1  0.348567  0.958120  0.346126  1
  Tb  Tb7  1  0.932917  0.356255  0.356255  1
  Dy  Dy8  1  0.808102  0.190709  0.190709  1
  Dy  Dy9  1  0.187646  0.813532  0.813532  1
  Dy  Dy10  1  0.187263  0.813463  0.185889  1
  Dy  Dy11  1  0.807997  0.191207  0.810008  1
  Dy  Dy12  1  0.187263  0.185889  0.813463  1
  Dy  Dy13  1  0.807997  0.810008  0.191207  1
  Dy  Dy14  1  0.936257  0.562309  0.562310  1
  Dy  Dy15  1  0.562996  0.936906  0.936907  1
  Mg  Mg16  1  0.311781  0.562786  0.562786  1
  Co  Co17  1  0.134350  0.144184  0.144184  1
  Co  Co18  1  0.133334  0.144677  0.577574  1
  Co  Co19  1  0.133334  0.577574  0.144677  1
  Co  Co20  1  0.574276  0.141691  0.141691  1
  Au  Au21  1  0.583803  0.591025  0.591025  1
  Au  Au22  1  0.583018  0.591961  0.233624  1
  Au  Au23  1  0.583018  0.233624  0.591961  1
