# generated using pymatgen
data_DyEr3(GaRu)4
_symmetry_space_group_name_H-M   'P 1'
_cell_length_a   4.50037800
_cell_length_b   7.08165318
_cell_length_c   7.16685631
_cell_angle_alpha   89.95464264
_cell_angle_beta   90.00000000
_cell_angle_gamma   90.00000000
_symmetry_Int_Tables_number   1
_chemical_formula_structural   DyEr3(GaRu)4
_chemical_formula_sum   'Dy1 Er3 Ga4 Ru4'
_cell_volume   228.40847154
_cell_formula_units_Z   1
loop_
 _symmetry_equiv_pos_site_id
 _symmetry_equiv_pos_as_xyz
  1  'x, y, z'
loop_
 _atom_site_type_symbol
 _atom_site_label
 _atom_site_symmetry_multiplicity
 _atom_site_fract_x
 _atom_site_fract_y
 _atom_site_fract_z
 _atom_site_occupancy
  Dy  Dy0  1  0.750000  0.804456  0.480593  1
  Er  Er1  1  0.250000  0.197181  0.520042  1
  Er  Er2  1  0.250000  0.303583  0.019798  1
  Er  Er3  1  0.750000  0.696408  0.980096  1
  Ga  Ga4  1  0.250000  0.894884  0.197048  1
  Ga  Ga5  1  0.750000  0.394459  0.301958  1
  Ga  Ga6  1  0.250000  0.604396  0.698742  1
  Ga  Ga7  1  0.750000  0.105588  0.802540  1
  Ru  Ru8  1  0.250000  0.936517  0.841141  1
  Ru  Ru9  1  0.250000  0.562555  0.341051  1
  Ru  Ru10  1  0.750000  0.063998  0.158049  1
  Ru  Ru11  1  0.750000  0.435976  0.658943  1
