# generated using pymatgen
data_Tb3BePd5
_symmetry_space_group_name_H-M   'P 1'
_cell_length_a   8.08993029
_cell_length_b   8.08993000
_cell_length_c   8.08993082
_cell_angle_alpha   127.16430428
_cell_angle_beta   124.08788481
_cell_angle_gamma   80.52793869
_symmetry_Int_Tables_number   1
_chemical_formula_structural   Tb3BePd5
_chemical_formula_sum   'Tb6 Be2 Pd10'
_cell_volume   337.06995634
_cell_formula_units_Z   2
loop_
 _symmetry_equiv_pos_site_id
 _symmetry_equiv_pos_as_xyz
  1  'x, y, z'
loop_
 _atom_site_type_symbol
 _atom_site_label
 _atom_site_symmetry_multiplicity
 _atom_site_fract_x
 _atom_site_fract_y
 _atom_site_fract_z
 _atom_site_occupancy
  Tb  Tb0  1  0.220602  0.446621  0.773981  1
  Tb  Tb1  1  0.779398  0.553379  0.226019  1
  Tb  Tb2  1  0.827359  0.053379  0.773981  1
  Tb  Tb3  1  0.172641  0.946621  0.226019  1
  Tb  Tb4  1  0.407452  0.250000  0.157452  1
  Tb  Tb5  1  0.592548  0.750000  0.842548  1
  Be  Be6  1  0.794114  0.250000  0.544114  1
  Be  Be7  1  0.205886  0.750000  0.455886  1
  Pd  Pd8  1  0.171951  0.407618  0.356667  1
  Pd  Pd9  1  0.828049  0.184715  0.235666  1
  Pd  Pd10  1  0.449049  0.092382  0.764334  1
  Pd  Pd11  1  0.550951  0.315285  0.643333  1
  Pd  Pd12  1  0.000000  0.500000  0.000000  1
  Pd  Pd13  1  0.000000  0.000000  0.500000  1
  Pd  Pd14  1  0.449049  0.684715  0.356667  1
  Pd  Pd15  1  0.550951  0.907618  0.235666  1
  Pd  Pd16  1  0.171951  0.815285  0.764334  1
  Pd  Pd17  1  0.828049  0.592382  0.643333  1
