# generated using pymatgen
data_Tm2Mn6Co6P7
_symmetry_space_group_name_H-M   'P 1'
_cell_length_a   9.06383000
_cell_length_b   9.06382910
_cell_length_c   3.62417200
_cell_angle_alpha   90.00000000
_cell_angle_beta   90.00000000
_cell_angle_gamma   120.00000327
_symmetry_Int_Tables_number   1
_chemical_formula_structural   Tm2Mn6Co6P7
_chemical_formula_sum   'Tm2 Mn6 Co6 P7'
_cell_volume   257.84747201
_cell_formula_units_Z   1
loop_
 _symmetry_equiv_pos_site_id
 _symmetry_equiv_pos_as_xyz
  1  'x, y, z'
loop_
 _atom_site_type_symbol
 _atom_site_label
 _atom_site_symmetry_multiplicity
 _atom_site_fract_x
 _atom_site_fract_y
 _atom_site_fract_z
 _atom_site_occupancy
  Tm  Tm0  1  0.666667  0.333333  0.000000  1
  Tm  Tm1  1  0.333333  0.666667  0.500000  1
  Mn  Mn2  1  0.879860  0.722293  0.000000  1
  Mn  Mn3  1  0.277707  0.157567  0.000000  1
  Mn  Mn4  1  0.842433  0.120140  0.000000  1
  Mn  Mn5  1  0.120092  0.896215  0.500000  1
  Mn  Mn6  1  0.103785  0.223876  0.500000  1
  Mn  Mn7  1  0.776124  0.879908  0.500000  1
  Co  Co8  1  0.369086  0.938791  0.000000  1
  Co  Co9  1  0.061209  0.430295  0.000000  1
  Co  Co10  1  0.569705  0.630914  0.000000  1
  Co  Co11  1  0.948908  0.560244  0.500000  1
  Co  Co12  1  0.439756  0.388664  0.500000  1
  Co  Co13  1  0.611336  0.051092  0.500000  1
  P  P14  1  0.112550  0.699042  0.000000  1
  P  P15  1  0.300958  0.413509  0.000000  1
  P  P16  1  0.586491  0.887450  0.000000  1
  P  P17  1  0.712341  0.592383  0.500000  1
  P  P18  1  0.407617  0.119959  0.500000  1
  P  P19  1  0.880041  0.287659  0.500000  1
  P  P20  1  0.000000  0.000000  0.000000  1
