# generated using pymatgen
data_Y5Bi2P
_symmetry_space_group_name_H-M   'P 1'
_cell_length_a   8.01649000
_cell_length_b   8.99632800
_cell_length_c   12.23229500
_cell_angle_alpha   90.00000000
_cell_angle_beta   90.00000000
_cell_angle_gamma   90.00000000
_symmetry_Int_Tables_number   1
_chemical_formula_structural   Y5Bi2P
_chemical_formula_sum   'Y20 Bi8 P4'
_cell_volume   882.18055832
_cell_formula_units_Z   4
loop_
 _symmetry_equiv_pos_site_id
 _symmetry_equiv_pos_as_xyz
  1  'x, y, z'
loop_
 _atom_site_type_symbol
 _atom_site_label
 _atom_site_symmetry_multiplicity
 _atom_site_fract_x
 _atom_site_fract_y
 _atom_site_fract_z
 _atom_site_occupancy
  Y  Y0  1  0.852300  0.750000  0.794713  1
  Y  Y1  1  0.147700  0.250000  0.205287  1
  Y  Y2  1  0.352300  0.250000  0.705287  1
  Y  Y3  1  0.647700  0.750000  0.294713  1
  Y  Y4  1  0.376958  0.750000  0.699799  1
  Y  Y5  1  0.623042  0.250000  0.300201  1
  Y  Y6  1  0.876958  0.250000  0.800201  1
  Y  Y7  1  0.123042  0.750000  0.199799  1
  Y  Y8  1  0.958454  0.750000  0.501713  1
  Y  Y9  1  0.041546  0.250000  0.498287  1
  Y  Y10  1  0.458454  0.250000  0.998287  1
  Y  Y11  1  0.541546  0.750000  0.001713  1
  Y  Y12  1  0.682545  0.047856  0.564216  1
  Y  Y13  1  0.317455  0.952144  0.435784  1
  Y  Y14  1  0.182545  0.952144  0.935784  1
  Y  Y15  1  0.317455  0.547856  0.435784  1
  Y  Y16  1  0.817455  0.047856  0.064216  1
  Y  Y17  1  0.682545  0.452144  0.564216  1
  Y  Y18  1  0.817455  0.452144  0.064216  1
  Y  Y19  1  0.182545  0.547856  0.935784  1
  Bi  Bi20  1  0.577885  0.490593  0.827200  1
  Bi  Bi21  1  0.422115  0.509407  0.172800  1
  Bi  Bi22  1  0.077885  0.509407  0.672800  1
  Bi  Bi23  1  0.422115  0.990593  0.172800  1
  Bi  Bi24  1  0.922115  0.490593  0.327200  1
  Bi  Bi25  1  0.577885  0.009407  0.827200  1
  Bi  Bi26  1  0.922115  0.009407  0.327200  1
  Bi  Bi27  1  0.077885  0.990593  0.672800  1
  P  P28  1  0.572572  0.750000  0.512353  1
  P  P29  1  0.427428  0.250000  0.487647  1
  P  P30  1  0.072572  0.250000  0.987647  1
  P  P31  1  0.927428  0.750000  0.012353  1
