# generated using pymatgen
data_Ac(AlAg2)4
_symmetry_space_group_name_H-M   'P 1'
_cell_length_a   7.29157960
_cell_length_b   7.29160325
_cell_length_c   7.29158062
_cell_angle_alpha   97.87266415
_cell_angle_beta   97.87236907
_cell_angle_gamma   136.55696363
_symmetry_Int_Tables_number   1
_chemical_formula_structural   Ac(AlAg2)4
_chemical_formula_sum   'Ac1 Al4 Ag8'
_cell_volume   247.64897513
_cell_formula_units_Z   1
loop_
 _symmetry_equiv_pos_site_id
 _symmetry_equiv_pos_as_xyz
  1  'x, y, z'
loop_
 _atom_site_type_symbol
 _atom_site_label
 _atom_site_symmetry_multiplicity
 _atom_site_fract_x
 _atom_site_fract_y
 _atom_site_fract_z
 _atom_site_occupancy
  Ac  Ac0  1  0.000000  0.000000  0.000000  1
  Al  Al1  1  0.500000  0.500000  0.500000  1
  Al  Al2  1  0.000000  0.000000  0.500000  1
  Al  Al3  1  0.000000  0.500000  0.000000  1
  Al  Al4  1  0.500000  0.000000  0.000000  1
  Ag  Ag5  1  0.277013  0.500000  0.777013  1
  Ag  Ag6  1  0.722987  0.500000  0.222987  1
  Ag  Ag7  1  0.500006  0.277021  0.777016  1
  Ag  Ag8  1  0.499994  0.722979  0.222984  1
  Ag  Ag9  1  0.349221  0.000000  0.349221  1
  Ag  Ag10  1  0.650779  0.000000  0.650779  1
  Ag  Ag11  1  0.999999  0.349216  0.349217  1
  Ag  Ag12  1  0.000001  0.650784  0.650783  1
