# generated using pymatgen
data_Ca4As3Pd4
_symmetry_space_group_name_H-M   'P 1'
_cell_length_a   5.59156187
_cell_length_b   8.03956478
_cell_length_c   11.14372465
_cell_angle_alpha   109.25283332
_cell_angle_beta   104.52982087
_cell_angle_gamma   90.00000049
_symmetry_Int_Tables_number   1
_chemical_formula_structural   Ca4As3Pd4
_chemical_formula_sum   'Ca8 As6 Pd8'
_cell_volume   455.92970945
_cell_formula_units_Z   2
loop_
 _symmetry_equiv_pos_site_id
 _symmetry_equiv_pos_as_xyz
  1  'x, y, z'
loop_
 _atom_site_type_symbol
 _atom_site_label
 _atom_site_symmetry_multiplicity
 _atom_site_fract_x
 _atom_site_fract_y
 _atom_site_fract_z
 _atom_site_occupancy
  Ca  Ca0  1  0.199462  0.672002  0.136812  1
  Ca  Ca1  1  0.937349  0.172003  0.136812  1
  Ca  Ca2  1  0.796073  0.897162  0.341128  1
  Ca  Ca3  1  0.545056  0.397162  0.341128  1
  Ca  Ca4  1  0.454945  0.602838  0.658872  1
  Ca  Ca5  1  0.203927  0.102838  0.658872  1
  Ca  Ca6  1  0.062651  0.827997  0.863188  1
  Ca  Ca7  1  0.800537  0.327997  0.863188  1
  As  As8  1  0.325298  0.250000  0.000000  1
  As  As9  1  0.674703  0.750000  0.000000  1
  As  As10  1  0.042120  0.546427  0.331334  1
  As  As11  1  0.289214  0.046427  0.331334  1
  As  As12  1  0.710784  0.953573  0.668665  1
  As  As13  1  0.957880  0.453573  0.668666  1
  Pd  Pd14  1  0.679680  0.508655  0.124596  1
  Pd  Pd15  1  0.444915  0.008655  0.124596  1
  Pd  Pd16  1  0.371756  0.803061  0.452565  1
  Pd  Pd17  1  0.080809  0.303061  0.452565  1
  Pd  Pd18  1  0.919189  0.696939  0.547435  1
  Pd  Pd19  1  0.628244  0.196939  0.547435  1
  Pd  Pd20  1  0.555085  0.991345  0.875404  1
  Pd  Pd21  1  0.320319  0.491345  0.875404  1
