# generated using pymatgen
data_Zr10Tl5InCuP
_symmetry_space_group_name_H-M   'P 1'
_cell_length_a   8.78154234
_cell_length_b   8.77741674
_cell_length_c   5.88545505
_cell_angle_alpha   90.01528090
_cell_angle_beta   89.99235890
_cell_angle_gamma   119.98446273
_symmetry_Int_Tables_number   1
_chemical_formula_structural   Zr10Tl5InCuP
_chemical_formula_sum   'Zr10 Tl5 In1 Cu1 P1'
_cell_volume   392.93087504
_cell_formula_units_Z   1
loop_
 _symmetry_equiv_pos_site_id
 _symmetry_equiv_pos_as_xyz
  1  'x, y, z'
loop_
 _atom_site_type_symbol
 _atom_site_label
 _atom_site_symmetry_multiplicity
 _atom_site_fract_x
 _atom_site_fract_y
 _atom_site_fract_z
 _atom_site_occupancy
  Zr  Zr0  1  0.749554  0.749642  0.256783  1
  Zr  Zr1  1  0.250446  0.000088  0.256783  1
  Zr  Zr2  1  0.000000  0.250525  0.256448  1
  Zr  Zr3  1  0.250068  0.251990  0.743048  1
  Zr  Zr4  1  0.749932  0.001922  0.743048  1
  Zr  Zr5  1  0.000000  0.747691  0.743222  1
  Zr  Zr6  1  0.667491  0.333348  0.500692  1
  Zr  Zr7  1  0.332509  0.665858  0.500692  1
  Zr  Zr8  1  0.332545  0.665950  0.999426  1
  Zr  Zr9  1  0.667455  0.333405  0.999426  1
  Tl  Tl10  1  0.389765  0.389516  0.245258  1
  Tl  Tl11  1  0.610235  0.999751  0.245258  1
  Tl  Tl12  1  0.000000  0.609597  0.245155  1
  Tl  Tl13  1  0.610796  0.611063  0.754480  1
  Tl  Tl14  1  0.389204  0.000266  0.754480  1
  In  In15  1  0.000000  0.389712  0.754871  1
  Cu  Cu16  1  0.000000  0.000105  0.000305  1
  P  P17  1  0.000000  0.999570  0.500626  1
