# generated using pymatgen
data_Dy7ZnNi2
_symmetry_space_group_name_H-M   'P 1'
_cell_length_a   3.64108700
_cell_length_b   11.79044400
_cell_length_c   11.79044400
_cell_angle_alpha   90.00000000
_cell_angle_beta   90.00000000
_cell_angle_gamma   90.00000000
_symmetry_Int_Tables_number   1
_chemical_formula_structural   Dy7ZnNi2
_chemical_formula_sum   'Dy14 Zn2 Ni4'
_cell_volume   506.16414261
_cell_formula_units_Z   2
loop_
 _symmetry_equiv_pos_site_id
 _symmetry_equiv_pos_as_xyz
  1  'x, y, z'
loop_
 _atom_site_type_symbol
 _atom_site_label
 _atom_site_symmetry_multiplicity
 _atom_site_fract_x
 _atom_site_fract_y
 _atom_site_fract_z
 _atom_site_occupancy
  Dy  Dy0  1  0.500000  0.000000  0.500000  1
  Dy  Dy1  1  0.500000  0.500000  0.000000  1
  Dy  Dy2  1  0.000000  0.316439  0.816439  1
  Dy  Dy3  1  0.000000  0.683561  0.183561  1
  Dy  Dy4  1  0.000000  0.183561  0.316439  1
  Dy  Dy5  1  0.000000  0.816439  0.683561  1
  Dy  Dy6  1  0.500000  0.558548  0.705419  1
  Dy  Dy7  1  0.500000  0.441452  0.294581  1
  Dy  Dy8  1  0.500000  0.941452  0.205419  1
  Dy  Dy9  1  0.500000  0.058548  0.794581  1
  Dy  Dy10  1  0.500000  0.705419  0.441452  1
  Dy  Dy11  1  0.500000  0.294581  0.558548  1
  Dy  Dy12  1  0.500000  0.205419  0.058548  1
  Dy  Dy13  1  0.500000  0.794581  0.941452  1
  Zn  Zn14  1  0.000000  0.500000  0.500000  1
  Zn  Zn15  1  0.000000  0.000000  0.000000  1
  Ni  Ni16  1  0.000000  0.132457  0.632457  1
  Ni  Ni17  1  0.000000  0.867543  0.367543  1
  Ni  Ni18  1  0.000000  0.367543  0.132457  1
  Ni  Ni19  1  0.000000  0.632457  0.867543  1
