# generated using pymatgen
data_Th2Ti(Si3Pd10)2
_symmetry_space_group_name_H-M   'P 1'
_cell_length_a   8.70922690
_cell_length_b   8.70922743
_cell_length_c   8.70922800
_cell_angle_alpha   60.00000544
_cell_angle_beta   60.00000341
_cell_angle_gamma   60.00000649
_symmetry_Int_Tables_number   1
_chemical_formula_structural   Th2Ti(Si3Pd10)2
_chemical_formula_sum   'Th2 Ti1 Si6 Pd20'
_cell_volume   467.11514634
_cell_formula_units_Z   1
loop_
 _symmetry_equiv_pos_site_id
 _symmetry_equiv_pos_as_xyz
  1  'x, y, z'
loop_
 _atom_site_type_symbol
 _atom_site_label
 _atom_site_symmetry_multiplicity
 _atom_site_fract_x
 _atom_site_fract_y
 _atom_site_fract_z
 _atom_site_occupancy
  Th  Th0  1  0.250000  0.250000  0.250000  1
  Th  Th1  1  0.750000  0.750000  0.750000  1
  Ti  Ti2  1  0.000000  0.000000  0.000000  1
  Si  Si3  1  0.735517  0.264483  0.264483  1
  Si  Si4  1  0.264483  0.735517  0.735517  1
  Si  Si5  1  0.264483  0.735517  0.264483  1
  Si  Si6  1  0.735517  0.264483  0.735517  1
  Si  Si7  1  0.264483  0.264483  0.735517  1
  Si  Si8  1  0.735517  0.735517  0.264483  1
  Pd  Pd9  1  0.343750  0.000000  0.000000  1
  Pd  Pd10  1  0.656250  0.000000  0.000000  1
  Pd  Pd11  1  0.000000  0.343750  0.656250  1
  Pd  Pd12  1  0.000000  0.656250  0.343750  1
  Pd  Pd13  1  0.000000  0.343750  0.000000  1
  Pd  Pd14  1  0.656250  0.000000  0.343750  1
  Pd  Pd15  1  0.000000  0.656250  0.000000  1
  Pd  Pd16  1  0.343750  0.000000  0.656250  1
  Pd  Pd17  1  0.000000  0.000000  0.343750  1
  Pd  Pd18  1  0.000000  0.000000  0.656250  1
  Pd  Pd19  1  0.656250  0.343750  0.000000  1
  Pd  Pd20  1  0.343750  0.656250  0.000000  1
  Pd  Pd21  1  0.384261  0.384261  0.384261  1
  Pd  Pd22  1  0.615739  0.615739  0.615739  1
  Pd  Pd23  1  0.384261  0.384261  0.847219  1
  Pd  Pd24  1  0.384261  0.847219  0.384261  1
  Pd  Pd25  1  0.615739  0.615739  0.152781  1
  Pd  Pd26  1  0.615739  0.152781  0.615739  1
  Pd  Pd27  1  0.847219  0.384261  0.384261  1
  Pd  Pd28  1  0.152781  0.615739  0.615739  1
