# generated using pymatgen
data_NaNdSiO4
_symmetry_space_group_name_H-M   'P 1'
_cell_length_a   5.24890900
_cell_length_b   6.68896200
_cell_length_c   11.57567600
_cell_angle_alpha   90.00000000
_cell_angle_beta   90.00000000
_cell_angle_gamma   90.00000000
_symmetry_Int_Tables_number   1
_chemical_formula_structural   NaNdSiO4
_chemical_formula_sum   'Na4 Nd4 Si4 O16'
_cell_volume   406.41912334
_cell_formula_units_Z   4
loop_
 _symmetry_equiv_pos_site_id
 _symmetry_equiv_pos_as_xyz
  1  'x, y, z'
loop_
 _atom_site_type_symbol
 _atom_site_label
 _atom_site_symmetry_multiplicity
 _atom_site_fract_x
 _atom_site_fract_y
 _atom_site_fract_z
 _atom_site_occupancy
  Na  Na0  1  0.500000  0.500000  0.000000  1
  Na  Na1  1  0.500000  0.000000  0.000000  1
  Na  Na2  1  0.000000  0.000000  0.500000  1
  Na  Na3  1  0.000000  0.500000  0.500000  1
  Nd  Nd4  1  0.502105  0.250000  0.282426  1
  Nd  Nd5  1  0.497895  0.750000  0.717574  1
  Nd  Nd6  1  0.997895  0.250000  0.782426  1
  Nd  Nd7  1  0.002105  0.750000  0.217574  1
  Si  Si8  1  0.566196  0.750000  0.401804  1
  Si  Si9  1  0.933804  0.750000  0.901804  1
  Si  Si10  1  0.433804  0.250000  0.598196  1
  Si  Si11  1  0.066196  0.250000  0.098196  1
  O  O12  1  0.756621  0.250000  0.109298  1
  O  O13  1  0.243379  0.750000  0.890702  1
  O  O14  1  0.743379  0.250000  0.609298  1
  O  O15  1  0.256621  0.750000  0.390702  1
  O  O16  1  0.823296  0.750000  0.034350  1
  O  O17  1  0.176704  0.250000  0.965650  1
  O  O18  1  0.676704  0.750000  0.534350  1
  O  O19  1  0.323296  0.250000  0.465650  1
  O  O20  1  0.700076  0.556949  0.331658  1
  O  O21  1  0.299924  0.056949  0.668342  1
  O  O22  1  0.799924  0.556949  0.831658  1
  O  O23  1  0.200076  0.056949  0.168342  1
  O  O24  1  0.200076  0.443051  0.168342  1
  O  O25  1  0.799924  0.943051  0.831658  1
  O  O26  1  0.299924  0.443051  0.668342  1
  O  O27  1  0.700076  0.943051  0.331658  1
