# generated using pymatgen
data_Dy8Ho3Er5In6FeCo
_symmetry_space_group_name_H-M   'P 1'
_cell_length_a   10.34185502
_cell_length_b   10.34185535
_cell_length_c   6.97890500
_cell_angle_alpha   90.00381719
_cell_angle_beta   89.99618281
_cell_angle_gamma   120.00332892
_symmetry_Int_Tables_number   1
_chemical_formula_structural   Dy8Ho3Er5In6FeCo
_chemical_formula_sum   'Dy8 Ho3 Er5 In6 Fe1 Co1'
_cell_volume   646.39836946
_cell_formula_units_Z   1
loop_
 _symmetry_equiv_pos_site_id
 _symmetry_equiv_pos_as_xyz
  1  'x, y, z'
loop_
 _atom_site_type_symbol
 _atom_site_label
 _atom_site_symmetry_multiplicity
 _atom_site_fract_x
 _atom_site_fract_y
 _atom_site_fract_z
 _atom_site_occupancy
  Dy  Dy0  1  0.534945  0.070436  0.504016  1
  Dy  Dy1  1  0.929564  0.465055  0.504016  1
  Dy  Dy2  1  0.535440  0.464560  0.504029  1
  Dy  Dy3  1  0.465144  0.931103  0.005107  1
  Dy  Dy4  1  0.068897  0.534856  0.005107  1
  Dy  Dy5  1  0.465615  0.534385  0.005624  1
  Dy  Dy6  1  0.178124  0.356081  0.712158  1
  Dy  Dy7  1  0.643919  0.821876  0.712158  1
  Ho  Ho8  1  0.333101  0.666899  0.394502  1
  Ho  Ho9  1  0.000174  0.999826  0.493506  1
  Ho  Ho10  1  0.000212  0.999788  0.994326  1
  Er  Er11  1  0.178232  0.821768  0.712102  1
  Er  Er12  1  0.821508  0.643048  0.212139  1
  Er  Er13  1  0.356952  0.178492  0.212139  1
  Er  Er14  1  0.821518  0.178482  0.212314  1
  Er  Er15  1  0.666690  0.333310  0.895897  1
  In  In16  1  0.837958  0.674397  0.753173  1
  In  In17  1  0.325603  0.162042  0.753173  1
  In  In18  1  0.836956  0.163044  0.753149  1
  In  In19  1  0.162468  0.325022  0.251931  1
  In  In20  1  0.674978  0.837532  0.251931  1
  In  In21  1  0.162490  0.837510  0.252920  1
  Fe  Fe22  1  0.666664  0.333336  0.281170  1
  Co  Co23  1  0.332847  0.667153  0.781455  1
