# generated using pymatgen
data_Sm2ErCoSn6
_symmetry_space_group_name_H-M   'P 1'
_cell_length_a   8.48661040
_cell_length_b   8.48660953
_cell_length_c   13.28763100
_cell_angle_alpha   90.00000000
_cell_angle_beta   90.00000000
_cell_angle_gamma   148.62973594
_symmetry_Int_Tables_number   1
_chemical_formula_structural   Sm2ErCoSn6
_chemical_formula_sum   'Sm4 Er2 Co2 Sn12'
_cell_volume   498.18692564
_cell_formula_units_Z   2
loop_
 _symmetry_equiv_pos_site_id
 _symmetry_equiv_pos_as_xyz
  1  'x, y, z'
loop_
 _atom_site_type_symbol
 _atom_site_label
 _atom_site_symmetry_multiplicity
 _atom_site_fract_x
 _atom_site_fract_y
 _atom_site_fract_z
 _atom_site_occupancy
  Sm  Sm0  1  0.900254  0.099746  0.092841  1
  Sm  Sm1  1  0.099746  0.900254  0.592841  1
  Sm  Sm2  1  0.099746  0.900254  0.907159  1
  Sm  Sm3  1  0.900254  0.099746  0.407159  1
  Er  Er4  1  0.899942  0.100058  0.750000  1
  Er  Er5  1  0.100058  0.899942  0.250000  1
  Co  Co6  1  0.297131  0.702869  0.250000  1
  Co  Co7  1  0.702869  0.297131  0.750000  1
  Sn  Sn8  1  0.755676  0.244324  0.571763  1
  Sn  Sn9  1  0.426963  0.573037  0.578388  1
  Sn  Sn10  1  0.573037  0.426963  0.421612  1
  Sn  Sn11  1  0.732249  0.267751  0.250000  1
  Sn  Sn12  1  0.267751  0.732249  0.750000  1
  Sn  Sn13  1  0.244324  0.755676  0.071763  1
  Sn  Sn14  1  0.244324  0.755676  0.428237  1
  Sn  Sn15  1  0.573037  0.426963  0.078388  1
  Sn  Sn16  1  0.453369  0.546631  0.250000  1
  Sn  Sn17  1  0.546631  0.453369  0.750000  1
  Sn  Sn18  1  0.755676  0.244324  0.928237  1
  Sn  Sn19  1  0.426963  0.573037  0.921612  1
