# generated using pymatgen
data_Y4LuRuRh
_symmetry_space_group_name_H-M   'P 1'
_cell_length_a   6.37669336
_cell_length_b   7.28728186
_cell_length_c   8.53493329
_cell_angle_alpha   96.72331047
_cell_angle_beta   112.21241669
_cell_angle_gamma   90.01610344
_symmetry_Int_Tables_number   1
_chemical_formula_structural   Y4LuRuRh
_chemical_formula_sum   'Y8 Lu2 Ru2 Rh2'
_cell_volume   364.22184071
_cell_formula_units_Z   2
loop_
 _symmetry_equiv_pos_site_id
 _symmetry_equiv_pos_as_xyz
  1  'x, y, z'
loop_
 _atom_site_type_symbol
 _atom_site_label
 _atom_site_symmetry_multiplicity
 _atom_site_fract_x
 _atom_site_fract_y
 _atom_site_fract_z
 _atom_site_occupancy
  Y  Y0  1  0.523265  0.081222  0.815456  1
  Y  Y1  1  0.476735  0.918778  0.184544  1
  Y  Y2  1  0.711410  0.414974  0.186968  1
  Y  Y3  1  0.288590  0.585026  0.813032  1
  Y  Y4  1  0.291940  0.311696  0.432539  1
  Y  Y5  1  0.708060  0.688304  0.567461  1
  Y  Y6  1  0.862902  0.184861  0.565298  1
  Y  Y7  1  0.137098  0.815139  0.434702  1
  Lu  Lu8  1  0.076272  0.247887  0.999411  1
  Lu  Lu9  1  0.923728  0.752113  0.000589  1
  Ru  Ru10  1  0.101130  0.924652  0.785980  1
  Ru  Ru11  1  0.898870  0.075348  0.214020  1
  Rh  Rh12  1  0.315370  0.573489  0.215503  1
  Rh  Rh13  1  0.684630  0.426511  0.784497  1
