# generated using pymatgen
data_Lu3FeSi3Pt
_symmetry_space_group_name_H-M   'P 1'
_cell_length_a   5.49030447
_cell_length_b   5.49030514
_cell_length_c   13.63421563
_cell_angle_alpha   89.89080657
_cell_angle_beta   90.10919205
_cell_angle_gamma   135.65496769
_symmetry_Int_Tables_number   1
_chemical_formula_structural   Lu3FeSi3Pt
_chemical_formula_sum   'Lu6 Fe2 Si6 Pt2'
_cell_volume   287.26677191
_cell_formula_units_Z   2
loop_
 _symmetry_equiv_pos_site_id
 _symmetry_equiv_pos_as_xyz
  1  'x, y, z'
loop_
 _atom_site_type_symbol
 _atom_site_label
 _atom_site_symmetry_multiplicity
 _atom_site_fract_x
 _atom_site_fract_y
 _atom_site_fract_z
 _atom_site_occupancy
  Lu  Lu0  1  0.633953  0.366047  0.245210  1
  Lu  Lu1  1  0.366047  0.633953  0.754790  1
  Lu  Lu2  1  0.920494  0.079506  0.107769  1
  Lu  Lu3  1  0.079506  0.920494  0.892231  1
  Lu  Lu4  1  0.089014  0.910986  0.616414  1
  Lu  Lu5  1  0.910986  0.089014  0.383586  1
  Fe  Fe6  1  0.211464  0.788536  0.078595  1
  Fe  Fe7  1  0.788536  0.211464  0.921405  1
  Si  Si8  1  0.331908  0.668092  0.236050  1
  Si  Si9  1  0.668092  0.331908  0.763950  1
  Si  Si10  1  0.621759  0.378241  0.038919  1
  Si  Si11  1  0.378241  0.621759  0.961081  1
  Si  Si12  1  0.388440  0.611560  0.533946  1
  Si  Si13  1  0.611560  0.388440  0.466054  1
  Pt  Pt14  1  0.802251  0.197749  0.605419  1
  Pt  Pt15  1  0.197749  0.802251  0.394581  1
