# generated using pymatgen
data_Er9Th(Sn3Ge)2
_symmetry_space_group_name_H-M   'P 1'
_cell_length_a   9.18903400
_cell_length_b   9.21159064
_cell_length_c   6.48318100
_cell_angle_alpha   90.00000000
_cell_angle_beta   90.00000000
_cell_angle_gamma   119.91902270
_symmetry_Int_Tables_number   1
_chemical_formula_structural   Er9Th(Sn3Ge)2
_chemical_formula_sum   'Er9 Th1 Sn6 Ge2'
_cell_volume   475.63856986
_cell_formula_units_Z   1
loop_
 _symmetry_equiv_pos_site_id
 _symmetry_equiv_pos_as_xyz
  1  'x, y, z'
loop_
 _atom_site_type_symbol
 _atom_site_label
 _atom_site_symmetry_multiplicity
 _atom_site_fract_x
 _atom_site_fract_y
 _atom_site_fract_z
 _atom_site_occupancy
  Er  Er0  1  0.999562  0.743162  0.750000  1
  Er  Er1  1  0.256400  0.256838  0.750000  1
  Er  Er2  1  0.333346  0.665623  0.500386  1
  Er  Er3  1  0.667724  0.334377  0.500386  1
  Er  Er4  1  0.748545  0.746643  0.250000  1
  Er  Er5  1  0.740808  0.000000  0.750000  1
  Er  Er6  1  0.001902  0.253357  0.250000  1
  Er  Er7  1  0.333346  0.665623  0.999614  1
  Er  Er8  1  0.667724  0.334377  0.999614  1
  Th  Th9  1  0.253200  0.000000  0.250000  1
  Sn  Sn10  1  0.608494  0.608923  0.750000  1
  Sn  Sn11  1  0.999572  0.391077  0.750000  1
  Sn  Sn12  1  0.390313  0.000000  0.750000  1
  Sn  Sn13  1  0.614078  0.000000  0.250000  1
  Sn  Sn14  1  0.396369  0.399164  0.250000  1
  Sn  Sn15  1  0.997205  0.600836  0.250000  1
  Ge  Ge16  1  0.995705  0.000000  0.988845  1
  Ge  Ge17  1  0.995705  0.000000  0.511155  1
