# generated using pymatgen
data_La8Ho11TmPb16
_symmetry_space_group_name_H-M   'P 1'
_cell_length_a   8.38488701
_cell_length_b   8.46965335
_cell_length_c   15.94626200
_cell_angle_alpha   89.99767290
_cell_angle_beta   89.99679522
_cell_angle_gamma   89.98375074
_symmetry_Int_Tables_number   1
_chemical_formula_structural   La8Ho11TmPb16
_chemical_formula_sum   'La8 Ho11 Tm1 Pb16'
_cell_volume   1132.45701732
_cell_formula_units_Z   1
loop_
 _symmetry_equiv_pos_site_id
 _symmetry_equiv_pos_as_xyz
  1  'x, y, z'
loop_
 _atom_site_type_symbol
 _atom_site_label
 _atom_site_symmetry_multiplicity
 _atom_site_fract_x
 _atom_site_fract_y
 _atom_site_fract_z
 _atom_site_occupancy
  La  La0  1  0.472573  0.677690  0.597671  1
  La  La1  1  0.972391  0.822360  0.902100  1
  La  La2  1  0.527565  0.322432  0.097856  1
  La  La3  1  0.027766  0.177945  0.402180  1
  La  La4  1  0.527470  0.322010  0.402596  1
  La  La5  1  0.027597  0.177940  0.097931  1
  La  La6  1  0.472681  0.677689  0.902106  1
  La  La7  1  0.972524  0.822506  0.597813  1
  Ho  Ho8  1  0.131952  0.342325  0.877866  1
  Ho  Ho9  1  0.367843  0.842805  0.121906  1
  Ho  Ho10  1  0.867593  0.657500  0.378372  1
  Ho  Ho11  1  0.367922  0.842457  0.378002  1
  Ho  Ho12  1  0.867983  0.657650  0.122018  1
  Ho  Ho13  1  0.632036  0.157563  0.878095  1
  Ho  Ho14  1  0.131860  0.342557  0.621791  1
  Ho  Ho15  1  0.797638  0.493740  0.749829  1
  Ho  Ho16  1  0.298143  0.005941  0.749743  1
  Ho  Ho17  1  0.202030  0.506011  0.249975  1
  Ho  Ho18  1  0.702069  0.994241  0.250138  1
  Tm  Tm19  1  0.632484  0.157031  0.622277  1
  Pb  Pb20  1  0.706386  0.960747  0.455802  1
  Pb  Pb21  1  0.206497  0.539900  0.044682  1
  Pb  Pb22  1  0.293112  0.039701  0.955298  1
  Pb  Pb23  1  0.793010  0.459090  0.544801  1
  Pb  Pb24  1  0.294621  0.040053  0.544619  1
  Pb  Pb25  1  0.793631  0.460144  0.955389  1
  Pb  Pb26  1  0.706660  0.960122  0.044838  1
  Pb  Pb27  1  0.206383  0.539901  0.455235  1
  Pb  Pb28  1  0.436446  0.368073  0.749480  1
  Pb  Pb29  1  0.935917  0.131387  0.749602  1
  Pb  Pb30  1  0.563678  0.631521  0.250079  1
  Pb  Pb31  1  0.063534  0.868356  0.250136  1
  Pb  Pb32  1  0.661285  0.852168  0.749720  1
  Pb  Pb33  1  0.161527  0.648110  0.749904  1
  Pb  Pb34  1  0.338753  0.148499  0.250102  1
  Pb  Pb35  1  0.838442  0.351837  0.250049  1
