# generated using pymatgen
data_Zr2Sc2(Al8Pt3)3
_symmetry_space_group_name_H-M   'P 1'
_cell_length_a   7.47647264
_cell_length_b   7.48219026
_cell_length_c   12.99491263
_cell_angle_alpha   84.57535849
_cell_angle_beta   78.96014025
_cell_angle_gamma   59.96160368
_symmetry_Int_Tables_number   1
_chemical_formula_structural   Zr2Sc2(Al8Pt3)3
_chemical_formula_sum   'Zr2 Sc2 Al24 Pt9'
_cell_volume   617.65867346
_cell_formula_units_Z   1
loop_
 _symmetry_equiv_pos_site_id
 _symmetry_equiv_pos_as_xyz
  1  'x, y, z'
loop_
 _atom_site_type_symbol
 _atom_site_label
 _atom_site_symmetry_multiplicity
 _atom_site_fract_x
 _atom_site_fract_y
 _atom_site_fract_z
 _atom_site_occupancy
  Zr  Zr0  1  0.393158  0.168342  0.810804  1
  Zr  Zr1  1  0.606842  0.831658  0.189196  1
  Sc  Sc2  1  0.733707  0.498763  0.806979  1
  Sc  Sc3  1  0.266293  0.501237  0.193021  1
  Al  Al4  1  0.682224  0.833029  0.941450  1
  Al  Al5  1  0.317776  0.166971  0.058550  1
  Al  Al6  1  0.145785  0.832931  0.563478  1
  Al  Al7  1  0.854215  0.167069  0.436522  1
  Al  Al8  1  0.479857  0.166999  0.561254  1
  Al  Al9  1  0.520143  0.833001  0.438746  1
  Al  Al10  1  0.221501  0.165537  0.324327  1
  Al  Al11  1  0.778499  0.834463  0.675673  1
  Al  Al12  1  0.437706  0.504402  0.675821  1
  Al  Al13  1  0.562294  0.495598  0.324179  1
  Al  Al14  1  0.107843  0.162625  0.674633  1
  Al  Al15  1  0.892157  0.837375  0.325367  1
  Al  Al16  1  0.356638  0.496877  0.941752  1
  Al  Al17  1  0.643362  0.503123  0.058248  1
  Al  Al18  1  0.016441  0.170419  0.949174  1
  Al  Al19  1  0.983559  0.829581  0.050826  1
  Al  Al20  1  0.186911  0.499840  0.439527  1
  Al  Al21  1  0.813089  0.500160  0.560473  1
  Al  Al22  1  0.730652  0.161474  0.183394  1
  Al  Al23  1  0.269348  0.838526  0.816606  1
  Al  Al24  1  0.063759  0.625823  0.815577  1
  Al  Al25  1  0.936241  0.374177  0.184423  1
  Al  Al26  1  0.849896  0.044480  0.816010  1
  Al  Al27  1  0.150104  0.955520  0.183990  1
  Pt  Pt28  1  0.119963  0.490837  0.639331  1
  Pt  Pt29  1  0.880037  0.509163  0.360669  1
  Pt  Pt30  1  0.656959  0.171550  0.999682  1
  Pt  Pt31  1  0.343041  0.828450  0.000318  1
  Pt  Pt32  1  0.537083  0.166469  0.361283  1
  Pt  Pt33  1  0.462917  0.833531  0.638717  1
  Pt  Pt34  1  0.778194  0.176091  0.637831  1
  Pt  Pt35  1  0.221806  0.823909  0.362169  1
  Pt  Pt36  1  0.000000  0.500000  0.000000  1
