# generated using pymatgen
data_Y2U(SnRu)3
_symmetry_space_group_name_H-M   'P 1'
_cell_length_a   7.83413121
_cell_length_b   7.46104190
_cell_length_c   3.81530300
_cell_angle_alpha   90.00000000
_cell_angle_beta   90.00000000
_cell_angle_gamma   121.69613978
_symmetry_Int_Tables_number   1
_chemical_formula_structural   Y2U(SnRu)3
_chemical_formula_sum   'Y2 U1 Sn3 Ru3'
_cell_volume   189.74510271
_cell_formula_units_Z   1
loop_
 _symmetry_equiv_pos_site_id
 _symmetry_equiv_pos_as_xyz
  1  'x, y, z'
loop_
 _atom_site_type_symbol
 _atom_site_label
 _atom_site_symmetry_multiplicity
 _atom_site_fract_x
 _atom_site_fract_y
 _atom_site_fract_z
 _atom_site_occupancy
  Y  Y0  1  0.003191  0.405224  0.500000  1
  Y  Y1  1  0.597782  0.594955  0.500000  1
  U  U2  1  0.414698  0.000083  0.500000  1
  Sn  Sn3  1  0.986041  0.724619  0.000000  1
  Sn  Sn4  1  0.261363  0.275405  0.000000  1
  Sn  Sn5  1  0.757808  0.000030  0.000000  1
  Ru  Ru6  1  0.340913  0.718875  0.000000  1
  Ru  Ru7  1  0.621951  0.280903  0.000000  1
  Ru  Ru8  1  0.016253  0.999906  0.500000  1
