# generated using pymatgen
data_Dy2Ho2GeBr6
_symmetry_space_group_name_H-M   'P 1'
_cell_length_a   4.06804900
_cell_length_b   13.21056300
_cell_length_c   14.01096900
_cell_angle_alpha   90.00000000
_cell_angle_beta   90.00000000
_cell_angle_gamma   90.00000000
_symmetry_Int_Tables_number   1
_chemical_formula_structural   Dy2Ho2GeBr6
_chemical_formula_sum   'Dy4 Ho4 Ge2 Br12'
_cell_volume   752.96653384
_cell_formula_units_Z   2
loop_
 _symmetry_equiv_pos_site_id
 _symmetry_equiv_pos_as_xyz
  1  'x, y, z'
loop_
 _atom_site_type_symbol
 _atom_site_label
 _atom_site_symmetry_multiplicity
 _atom_site_fract_x
 _atom_site_fract_y
 _atom_site_fract_z
 _atom_site_occupancy
  Dy  Dy0  1  0.000000  0.118655  0.578701  1
  Dy  Dy1  1  0.000000  0.881345  0.421299  1
  Dy  Dy2  1  0.000000  0.618655  0.921299  1
  Dy  Dy3  1  0.000000  0.381345  0.078701  1
  Ho  Ho4  1  0.500000  0.118653  0.340323  1
  Ho  Ho5  1  0.500000  0.881347  0.659677  1
  Ho  Ho6  1  0.500000  0.618653  0.159677  1
  Ho  Ho7  1  0.500000  0.381347  0.840323  1
  Ge  Ge8  1  0.500000  0.000000  0.500000  1
  Ge  Ge9  1  0.500000  0.500000  0.000000  1
  Br  Br10  1  0.500000  0.243801  0.162877  1
  Br  Br11  1  0.500000  0.756199  0.837123  1
  Br  Br12  1  0.500000  0.743801  0.337123  1
  Br  Br13  1  0.500000  0.256199  0.662877  1
  Br  Br14  1  0.000000  0.255219  0.411042  1
  Br  Br15  1  0.000000  0.744781  0.588958  1
  Br  Br16  1  0.000000  0.755219  0.088958  1
  Br  Br17  1  0.000000  0.244781  0.911042  1
  Br  Br18  1  0.000000  0.002095  0.243173  1
  Br  Br19  1  0.000000  0.997905  0.756827  1
  Br  Br20  1  0.000000  0.502095  0.256827  1
  Br  Br21  1  0.000000  0.497905  0.743173  1
