# generated using pymatgen
data_Lu12CdInFe3
_symmetry_space_group_name_H-M   'P 1'
_cell_length_a   8.16781838
_cell_length_b   8.16781921
_cell_length_c   8.16781900
_cell_angle_alpha   107.38373670
_cell_angle_beta   108.86201457
_cell_angle_gamma   112.20613128
_symmetry_Int_Tables_number   1
_chemical_formula_structural   Lu12CdInFe3
_chemical_formula_sum   'Lu12 Cd1 In1 Fe3'
_cell_volume   418.67883220
_cell_formula_units_Z   1
loop_
 _symmetry_equiv_pos_site_id
 _symmetry_equiv_pos_as_xyz
  1  'x, y, z'
loop_
 _atom_site_type_symbol
 _atom_site_label
 _atom_site_symmetry_multiplicity
 _atom_site_fract_x
 _atom_site_fract_y
 _atom_site_fract_z
 _atom_site_occupancy
  Lu  Lu0  1  0.307733  0.308927  0.616660  1
  Lu  Lu1  1  0.692267  0.691073  0.383340  1
  Lu  Lu2  1  0.692267  0.308927  0.001194  1
  Lu  Lu3  1  0.307733  0.691073  0.998806  1
  Lu  Lu4  1  0.190114  0.423572  0.233457  1
  Lu  Lu5  1  0.809886  0.576428  0.766543  1
  Lu  Lu6  1  0.190114  0.956656  0.766543  1
  Lu  Lu7  1  0.952560  0.189753  0.762807  1
  Lu  Lu8  1  0.809886  0.043344  0.233457  1
  Lu  Lu9  1  0.047440  0.810247  0.237193  1
  Lu  Lu10  1  0.426946  0.189753  0.237193  1
  Lu  Lu11  1  0.573054  0.810247  0.762807  1
  Cd  Cd12  1  0.500000  0.000000  0.500000  1
  In  In13  1  0.000000  0.500000  0.500000  1
  Fe  Fe14  1  0.382380  0.382380  0.000000  1
  Fe  Fe15  1  0.617620  0.617620  0.000000  1
  Fe  Fe16  1  0.000000  0.000000  0.000000  1
