# generated using pymatgen
data_Pa4Re5(Ge3Ir)2
_symmetry_space_group_name_H-M   'P 1'
_cell_length_a   7.31529096
_cell_length_b   7.31528946
_cell_length_c   7.31529000
_cell_angle_alpha   109.68921536
_cell_angle_beta   109.36233562
_cell_angle_gamma   109.36232168
_symmetry_Int_Tables_number   1
_chemical_formula_structural   Pa4Re5(Ge3Ir)2
_chemical_formula_sum   'Pa4 Re5 Ge6 Ir2'
_cell_volume   301.34785872
_cell_formula_units_Z   1
loop_
 _symmetry_equiv_pos_site_id
 _symmetry_equiv_pos_as_xyz
  1  'x, y, z'
loop_
 _atom_site_type_symbol
 _atom_site_label
 _atom_site_symmetry_multiplicity
 _atom_site_fract_x
 _atom_site_fract_y
 _atom_site_fract_z
 _atom_site_occupancy
  Pa  Pa0  1  0.004609  0.002311  0.502307  1
  Pa  Pa1  1  0.995391  0.497693  0.997689  1
  Pa  Pa2  1  0.500000  0.002295  0.997705  1
  Pa  Pa3  1  0.500000  0.497694  0.502306  1
  Re  Re4  1  0.750315  0.249822  0.499503  1
  Re  Re5  1  0.750301  0.500450  0.250765  1
  Re  Re6  1  0.500000  0.249975  0.750025  1
  Re  Re7  1  0.249685  0.500497  0.750178  1
  Re  Re8  1  0.249699  0.749235  0.499550  1
  Ge  Ge9  1  0.688738  0.689394  0.000583  1
  Ge  Ge10  1  0.311262  0.999417  0.310606  1
  Ge  Ge11  1  0.000014  0.311630  0.311631  1
  Ge  Ge12  1  0.311293  0.311896  0.000701  1
  Ge  Ge13  1  0.688707  0.999299  0.688104  1
  Ge  Ge14  1  0.999986  0.688369  0.688370  1
  Ir  Ir15  1  0.500000  0.750018  0.249982  1
  Ir  Ir16  1  0.000000  0.000005  0.999995  1
