# generated using pymatgen
data_Zr3Nb(SiRh5)2
_symmetry_space_group_name_H-M   'P 1'
_cell_length_a   5.58550923
_cell_length_b   5.58550948
_cell_length_c   7.95798406
_cell_angle_alpha   90.00941406
_cell_angle_beta   90.00941270
_cell_angle_gamma   98.33261985
_symmetry_Int_Tables_number   1
_chemical_formula_structural   Zr3Nb(SiRh5)2
_chemical_formula_sum   'Zr3 Nb1 Si2 Rh10'
_cell_volume   245.65159753
_cell_formula_units_Z   1
loop_
 _symmetry_equiv_pos_site_id
 _symmetry_equiv_pos_as_xyz
  1  'x, y, z'
loop_
 _atom_site_type_symbol
 _atom_site_label
 _atom_site_symmetry_multiplicity
 _atom_site_fract_x
 _atom_site_fract_y
 _atom_site_fract_z
 _atom_site_occupancy
  Zr  Zr0  1  0.217865  0.782135  0.000000  1
  Zr  Zr1  1  0.219153  0.780847  0.500000  1
  Zr  Zr2  1  0.783505  0.216495  0.000000  1
  Nb  Nb3  1  0.786025  0.213975  0.500000  1
  Si  Si4  1  0.510727  0.503700  0.749740  1
  Si  Si5  1  0.496300  0.489273  0.250260  1
  Rh  Rh6  1  0.704735  0.707182  0.003598  1
  Rh  Rh7  1  0.703597  0.704030  0.496219  1
  Rh  Rh8  1  0.292818  0.295265  0.996402  1
  Rh  Rh9  1  0.295970  0.296403  0.503781  1
  Rh  Rh10  1  0.503351  0.002822  0.746316  1
  Rh  Rh11  1  0.502872  0.010001  0.253818  1
  Rh  Rh12  1  0.998090  0.002185  0.255536  1
  Rh  Rh13  1  0.997815  0.001910  0.744464  1
  Rh  Rh14  1  0.989999  0.497128  0.746182  1
  Rh  Rh15  1  0.997178  0.496649  0.253684  1
