# generated using pymatgen
data_BaEr(AsPd)2
_symmetry_space_group_name_H-M   'P 1'
_cell_length_a   4.36241400
_cell_length_b   8.16389093
_cell_length_c   7.79128404
_cell_angle_alpha   88.17404032
_cell_angle_beta   90.00000000
_cell_angle_gamma   90.00000000
_symmetry_Int_Tables_number   1
_chemical_formula_structural   BaEr(AsPd)2
_chemical_formula_sum   'Ba2 Er2 As4 Pd4'
_cell_volume   277.34001204
_cell_formula_units_Z   2
loop_
 _symmetry_equiv_pos_site_id
 _symmetry_equiv_pos_as_xyz
  1  'x, y, z'
loop_
 _atom_site_type_symbol
 _atom_site_label
 _atom_site_symmetry_multiplicity
 _atom_site_fract_x
 _atom_site_fract_y
 _atom_site_fract_z
 _atom_site_occupancy
  Ba  Ba0  1  0.250000  0.506763  0.238670  1
  Ba  Ba1  1  0.750000  0.493237  0.761330  1
  Er  Er2  1  0.250000  0.008857  0.291548  1
  Er  Er3  1  0.750000  0.991143  0.708452  1
  As  As4  1  0.250000  0.793754  0.907332  1
  As  As5  1  0.750000  0.206246  0.092668  1
  As  As6  1  0.250000  0.231053  0.598111  1
  As  As7  1  0.750000  0.768947  0.401889  1
  Pd  Pd8  1  0.750000  0.227182  0.418927  1
  Pd  Pd9  1  0.250000  0.772818  0.581073  1
  Pd  Pd10  1  0.750000  0.869864  0.068124  1
  Pd  Pd11  1  0.250000  0.130136  0.931876  1
