# generated using pymatgen
data_Sb7AsPd5Se2
_symmetry_space_group_name_H-M   'P 1'
_cell_length_a   19.88230930
_cell_length_b   19.88230912
_cell_length_c   6.40576483
_cell_angle_alpha   70.30039229
_cell_angle_beta   70.30039288
_cell_angle_gamma   8.32978006
_symmetry_Int_Tables_number   1
_chemical_formula_structural   Sb7AsPd5Se2
_chemical_formula_sum   'Sb7 As1 Pd5 Se2'
_cell_volume   345.25877898
_cell_formula_units_Z   1
loop_
 _symmetry_equiv_pos_site_id
 _symmetry_equiv_pos_as_xyz
  1  'x, y, z'
loop_
 _atom_site_type_symbol
 _atom_site_label
 _atom_site_symmetry_multiplicity
 _atom_site_fract_x
 _atom_site_fract_y
 _atom_site_fract_z
 _atom_site_occupancy
  Sb  Sb0  1  0.676609  0.676609  0.713195  1
  Sb  Sb1  1  0.278799  0.278799  0.726337  1
  Sb  Sb2  1  0.881577  0.881577  0.726514  1
  Sb  Sb3  1  0.532436  0.532436  0.283172  1
  Sb  Sb4  1  0.132898  0.132898  0.258065  1
  Sb  Sb5  1  0.734968  0.734968  0.265008  1
  Sb  Sb6  1  0.336863  0.336863  0.273102  1
  As  As7  1  0.934251  0.934251  0.279649  1
  Pd  Pd8  1  0.001619  0.001619  0.011994  1
  Pd  Pd9  1  0.602599  0.602599  0.978896  1
  Pd  Pd10  1  0.205600  0.205600  0.989374  1
  Pd  Pd11  1  0.808316  0.808316  0.997874  1
  Pd  Pd12  1  0.408275  0.408275  0.019694  1
  Se  Se13  1  0.074476  0.074476  0.728777  1
  Se  Se14  1  0.476435  0.476435  0.748350  1
