# generated using pymatgen
data_Y3VCoP6Rh7
_symmetry_space_group_name_H-M   'P 1'
_cell_length_a   3.86474000
_cell_length_b   11.12851300
_cell_length_c   12.79293200
_cell_angle_alpha   90.00000000
_cell_angle_beta   90.00000000
_cell_angle_gamma   90.00000000
_symmetry_Int_Tables_number   1
_chemical_formula_structural   Y3VCoP6Rh7
_chemical_formula_sum   'Y6 V2 Co2 P12 Rh14'
_cell_volume   550.20877318
_cell_formula_units_Z   2
loop_
 _symmetry_equiv_pos_site_id
 _symmetry_equiv_pos_as_xyz
  1  'x, y, z'
loop_
 _atom_site_type_symbol
 _atom_site_label
 _atom_site_symmetry_multiplicity
 _atom_site_fract_x
 _atom_site_fract_y
 _atom_site_fract_z
 _atom_site_occupancy
  Y  Y0  1  0.000000  0.500000  0.519315  1
  Y  Y1  1  0.500000  0.000000  0.480685  1
  Y  Y2  1  0.500000  0.817193  0.199555  1
  Y  Y3  1  0.500000  0.182807  0.199555  1
  Y  Y4  1  0.000000  0.682807  0.800445  1
  Y  Y5  1  0.000000  0.317193  0.800445  1
  V  V6  1  0.500000  0.500000  0.155095  1
  V  V7  1  0.000000  0.000000  0.844905  1
  Co  Co8  1  0.000000  0.500000  0.989039  1
  Co  Co9  1  0.500000  0.000000  0.010961  1
  P  P10  1  0.500000  0.500000  0.881641  1
  P  P11  1  0.000000  0.000000  0.118359  1
  P  P12  1  0.500000  0.500000  0.342973  1
  P  P13  1  0.000000  0.000000  0.657027  1
  P  P14  1  0.500000  0.314569  0.618298  1
  P  P15  1  0.500000  0.685431  0.618298  1
  P  P16  1  0.000000  0.185431  0.381702  1
  P  P17  1  0.000000  0.814569  0.381702  1
  P  P18  1  0.500000  0.852492  0.892568  1
  P  P19  1  0.500000  0.147508  0.892568  1
  P  P20  1  0.000000  0.647508  0.107432  1
  P  P21  1  0.000000  0.352492  0.107432  1
  Rh  Rh22  1  0.500000  0.500000  0.701763  1
  Rh  Rh23  1  0.000000  0.000000  0.298237  1
  Rh  Rh24  1  0.500000  0.334873  0.990959  1
  Rh  Rh25  1  0.500000  0.665127  0.990959  1
  Rh  Rh26  1  0.000000  0.165127  0.009041  1
  Rh  Rh27  1  0.000000  0.834873  0.009041  1
  Rh  Rh28  1  0.500000  0.292974  0.430278  1
  Rh  Rh29  1  0.500000  0.707026  0.430278  1
  Rh  Rh30  1  0.000000  0.207026  0.569722  1
  Rh  Rh31  1  0.000000  0.792974  0.569722  1
  Rh  Rh32  1  0.500000  0.875166  0.711594  1
  Rh  Rh33  1  0.500000  0.124834  0.711594  1
  Rh  Rh34  1  0.000000  0.624834  0.288406  1
  Rh  Rh35  1  0.000000  0.375166  0.288406  1
