# generated using pymatgen
data_CeHo3(B4Ir)4
_symmetry_space_group_name_H-M   'P 1'
_cell_length_a   6.93101309
_cell_length_b   6.93101207
_cell_length_c   6.93101300
_cell_angle_alpha   111.81899242
_cell_angle_beta   111.81898906
_cell_angle_gamma   104.87131140
_symmetry_Int_Tables_number   1
_chemical_formula_structural   CeHo3(B4Ir)4
_chemical_formula_sum   'Ce1 Ho3 B16 Ir4'
_cell_volume   255.08565401
_cell_formula_units_Z   1
loop_
 _symmetry_equiv_pos_site_id
 _symmetry_equiv_pos_as_xyz
  1  'x, y, z'
loop_
 _atom_site_type_symbol
 _atom_site_label
 _atom_site_symmetry_multiplicity
 _atom_site_fract_x
 _atom_site_fract_y
 _atom_site_fract_z
 _atom_site_occupancy
  Ce  Ce0  1  0.250000  0.750000  0.500000  1
  Ho  Ho1  1  0.788265  0.788265  0.000000  1
  Ho  Ho2  1  0.211735  0.211735  0.000000  1
  Ho  Ho3  1  0.750000  0.250000  0.500000  1
  B  B4  1  0.261740  0.105196  0.369449  1
  B  B5  1  0.735746  0.892292  0.630551  1
  B  B6  1  0.261740  0.892292  0.156546  1
  B  B7  1  0.735746  0.105196  0.843454  1
  B  B8  1  0.107708  0.738260  0.843454  1
  B  B9  1  0.894804  0.264254  0.156546  1
  B  B10  1  0.107708  0.264254  0.369449  1
  B  B11  1  0.894804  0.738260  0.630551  1
  B  B12  1  0.111197  0.111757  0.526777  1
  B  B13  1  0.584979  0.584418  0.473223  1
  B  B14  1  0.111197  0.584418  0.999440  1
  B  B15  1  0.584979  0.111757  0.000560  1
  B  B16  1  0.888243  0.888803  0.473223  1
  B  B17  1  0.415582  0.415021  0.526777  1
  B  B18  1  0.888243  0.415021  0.999440  1
  B  B19  1  0.415582  0.888803  0.000560  1
  Ir  Ir20  1  0.258018  0.498359  0.759659  1
  Ir  Ir21  1  0.738701  0.498359  0.240341  1
  Ir  Ir22  1  0.501641  0.741982  0.240341  1
  Ir  Ir23  1  0.501641  0.261299  0.759659  1
