# generated using pymatgen
data_Dy2Y5BI12
_symmetry_space_group_name_H-M   'P 1'
_cell_length_a   9.64263431
_cell_length_b   9.64296068
_cell_length_c   9.64292115
_cell_angle_alpha   107.78030779
_cell_angle_beta   107.77896804
_cell_angle_gamma   107.78519512
_symmetry_Int_Tables_number   1
_chemical_formula_structural   Dy2Y5BI12
_chemical_formula_sum   'Dy2 Y5 B1 I12'
_cell_volume   730.22107808
_cell_formula_units_Z   1
loop_
 _symmetry_equiv_pos_site_id
 _symmetry_equiv_pos_as_xyz
  1  'x, y, z'
loop_
 _atom_site_type_symbol
 _atom_site_label
 _atom_site_symmetry_multiplicity
 _atom_site_fract_x
 _atom_site_fract_y
 _atom_site_fract_z
 _atom_site_occupancy
  Dy  Dy0  1  0.707730  0.967267  0.900603  1
  Dy  Dy1  1  0.967316  0.900569  0.707719  1
  Y  Y2  1  0.500020  0.499989  0.500023  1
  Y  Y3  1  0.099566  0.292507  0.032857  1
  Y  Y4  1  0.292516  0.032813  0.099551  1
  Y  Y5  1  0.900514  0.707542  0.967267  1
  Y  Y6  1  0.032834  0.099506  0.292518  1
  B  B7  1  0.999278  0.999743  0.999126  1
  I  I8  1  0.074857  0.225570  0.686012  1
  I  I9  1  0.389191  0.152812  0.469463  1
  I  I10  1  0.611133  0.847326  0.530900  1
  I  I11  1  0.225842  0.685991  0.074952  1
  I  I12  1  0.774092  0.313701  0.925057  1
  I  I13  1  0.686014  0.074853  0.225574  1
  I  I14  1  0.530662  0.611102  0.847265  1
  I  I15  1  0.847298  0.530778  0.610881  1
  I  I16  1  0.925109  0.774239  0.314066  1
  I  I17  1  0.313742  0.925061  0.774143  1
  I  I18  1  0.469459  0.389183  0.152833  1
  I  I19  1  0.152826  0.469447  0.389191  1
