# generated using pymatgen
data_Gd2YTm3Ta2O14
_symmetry_space_group_name_H-M   'P 1'
_cell_length_a   6.42804156
_cell_length_b   6.44393967
_cell_length_c   7.50578100
_cell_angle_alpha   90.00000000
_cell_angle_beta   90.00000000
_cell_angle_gamma   109.20315992
_symmetry_Int_Tables_number   1
_chemical_formula_structural   Gd2YTm3Ta2O14
_chemical_formula_sum   'Gd2 Y1 Tm3 Ta2 O14'
_cell_volume   293.60456253
_cell_formula_units_Z   1
loop_
 _symmetry_equiv_pos_site_id
 _symmetry_equiv_pos_as_xyz
  1  'x, y, z'
loop_
 _atom_site_type_symbol
 _atom_site_label
 _atom_site_symmetry_multiplicity
 _atom_site_fract_x
 _atom_site_fract_y
 _atom_site_fract_z
 _atom_site_occupancy
  Gd  Gd0  1  0.502717  0.502011  0.499062  1
  Gd  Gd1  1  0.502717  0.502011  0.000938  1
  Y  Y2  1  0.999869  0.466455  0.750000  1
  Tm  Tm3  1  0.533324  0.001667  0.750000  1
  Tm  Tm4  1  0.001378  0.534369  0.250000  1
  Tm  Tm5  1  0.466235  0.998737  0.250000  1
  Ta  Ta6  1  0.000154  0.000398  0.498858  1
  Ta  Ta7  1  0.000154  0.000398  0.001142  1
  O  O8  1  0.677461  0.932301  0.465703  1
  O  O9  1  0.925708  0.676213  0.528844  1
  O  O10  1  0.677461  0.932301  0.034297  1
  O  O11  1  0.925708  0.676213  0.971156  1
  O  O12  1  0.321404  0.067475  0.534836  1
  O  O13  1  0.070631  0.321161  0.463386  1
  O  O14  1  0.321404  0.067475  0.965164  1
  O  O15  1  0.070631  0.321161  0.036614  1
  O  O16  1  0.931354  0.065112  0.750000  1
  O  O17  1  0.070889  0.932414  0.250000  1
  O  O18  1  0.371120  0.636885  0.750000  1
  O  O19  1  0.633479  0.364860  0.250000  1
  O  O20  1  0.637760  0.357384  0.750000  1
  O  O21  1  0.358441  0.643000  0.250000  1
