# generated using pymatgen
data_HoErLu2(B6Rh)2
_symmetry_space_group_name_H-M   'P 1'
_cell_length_a   3.61275100
_cell_length_b   9.09895501
_cell_length_c   11.43551601
_cell_angle_alpha   90.00556399
_cell_angle_beta   90.00000000
_cell_angle_gamma   90.00000000
_symmetry_Int_Tables_number   1
_chemical_formula_structural   HoErLu2(B6Rh)2
_chemical_formula_sum   'Ho2 Er2 Lu4 B24 Rh4'
_cell_volume   375.91124029
_cell_formula_units_Z   2
loop_
 _symmetry_equiv_pos_site_id
 _symmetry_equiv_pos_as_xyz
  1  'x, y, z'
loop_
 _atom_site_type_symbol
 _atom_site_label
 _atom_site_symmetry_multiplicity
 _atom_site_fract_x
 _atom_site_fract_y
 _atom_site_fract_z
 _atom_site_occupancy
  Ho  Ho0  1  0.500000  0.321546  0.413755  1
  Ho  Ho1  1  0.500000  0.678454  0.586245  1
  Er  Er2  1  0.500000  0.178499  0.913761  1
  Er  Er3  1  0.500000  0.821501  0.086239  1
  Lu  Lu4  1  0.500000  0.444453  0.126722  1
  Lu  Lu5  1  0.500000  0.555547  0.873278  1
  Lu  Lu6  1  0.500000  0.055587  0.626871  1
  Lu  Lu7  1  0.500000  0.944413  0.373129  1
  B  B8  1  0.000000  0.106352  0.471233  1
  B  B9  1  0.000000  0.893648  0.528767  1
  B  B10  1  0.000000  0.393224  0.971119  1
  B  B11  1  0.000000  0.606776  0.028881  1
  B  B12  1  0.000000  0.132276  0.316712  1
  B  B13  1  0.000000  0.867724  0.683288  1
  B  B14  1  0.000000  0.367519  0.816909  1
  B  B15  1  0.000000  0.632481  0.183091  1
  B  B16  1  0.000000  0.054195  0.065158  1
  B  B17  1  0.000000  0.945805  0.934842  1
  B  B18  1  0.000000  0.445705  0.565420  1
  B  B19  1  0.000000  0.554295  0.434580  1
  B  B20  1  0.000000  0.482587  0.286065  1
  B  B21  1  0.000000  0.517413  0.713935  1
  B  B22  1  0.000000  0.017626  0.786307  1
  B  B23  1  0.000000  0.982374  0.213693  1
  B  B24  1  0.000000  0.250781  0.079458  1
  B  B25  1  0.000000  0.749219  0.920542  1
  B  B26  1  0.000000  0.249084  0.579738  1
  B  B27  1  0.000000  0.750916  0.420262  1
  B  B28  1  0.000000  0.295003  0.235829  1
  B  B29  1  0.000000  0.704997  0.764171  1
  B  B30  1  0.000000  0.204871  0.736171  1
  B  B31  1  0.000000  0.795129  0.263829  1
  Rh  Rh32  1  0.500000  0.140056  0.179374  1
  Rh  Rh33  1  0.500000  0.859944  0.820626  1
  Rh  Rh34  1  0.500000  0.359598  0.679806  1
  Rh  Rh35  1  0.500000  0.640402  0.320194  1
