# generated using pymatgen
data_Ta7Nb5Al8IrRu3C4
_symmetry_space_group_name_H-M   'P 1'
_cell_length_a   8.30294382
_cell_length_b   8.30766924
_cell_length_c   8.30766900
_cell_angle_alpha   60.00000493
_cell_angle_beta   59.98117661
_cell_angle_gamma   59.98117512
_symmetry_Int_Tables_number   1
_chemical_formula_structural   Ta7Nb5Al8IrRu3C4
_chemical_formula_sum   'Ta7 Nb5 Al8 Ir1 Ru3 C4'
_cell_volume   405.09032652
_cell_formula_units_Z   1
loop_
 _symmetry_equiv_pos_site_id
 _symmetry_equiv_pos_as_xyz
  1  'x, y, z'
loop_
 _atom_site_type_symbol
 _atom_site_label
 _atom_site_symmetry_multiplicity
 _atom_site_fract_x
 _atom_site_fract_y
 _atom_site_fract_z
 _atom_site_occupancy
  Ta  Ta0  1  0.309992  0.309685  0.690452  1
  Ta  Ta1  1  0.558864  0.562587  0.939541  1
  Ta  Ta2  1  0.940590  0.559140  0.560055  1
  Ta  Ta3  1  0.558521  0.939057  0.939831  1
  Ta  Ta4  1  0.940067  0.939633  0.560372  1
  Ta  Ta5  1  0.691876  0.310175  0.687546  1
  Ta  Ta6  1  0.939614  0.560068  0.939744  1
  Nb  Nb7  1  0.558924  0.938898  0.563094  1
  Nb  Nb8  1  0.310037  0.689794  0.690117  1
  Nb  Nb9  1  0.691407  0.310458  0.311168  1
  Nb  Nb10  1  0.309267  0.690565  0.309695  1
  Nb  Nb11  1  0.691733  0.687503  0.310656  1
  Al  Al12  1  0.918412  0.915208  0.916315  1
  Al  Al13  1  0.000875  0.333367  0.331912  1
  Al  Al14  1  0.332799  0.999463  0.334617  1
  Al  Al15  1  0.331487  0.335113  0.999589  1
  Al  Al16  1  0.917487  0.250093  0.917015  1
  Al  Al17  1  0.916360  0.916957  0.250258  1
  Al  Al18  1  0.248983  0.916982  0.916105  1
  Al  Al19  1  0.333567  0.333280  0.333628  1
  Ir  Ir20  1  0.624916  0.127325  0.120295  1
  Ru  Ru21  1  0.126343  0.126022  0.122780  1
  Ru  Ru22  1  0.125247  0.624697  0.125249  1
  Ru  Ru23  1  0.121384  0.128513  0.625120  1
  C  C24  1  0.626914  0.621994  0.627333  1
  C  C25  1  0.123193  0.623676  0.626907  1
  C  C26  1  0.625201  0.124304  0.627705  1
  C  C27  1  0.625942  0.625441  0.122899  1
