# generated using pymatgen
data_LiTb13Dy3In3Ir4
_symmetry_space_group_name_H-M   'P 1'
_cell_length_a   9.69593045
_cell_length_b   9.69708855
_cell_length_c   9.69479605
_cell_angle_alpha   59.97735167
_cell_angle_beta   59.95517902
_cell_angle_gamma   59.96777368
_symmetry_Int_Tables_number   1
_chemical_formula_structural   LiTb13Dy3In3Ir4
_chemical_formula_sum   'Li1 Tb13 Dy3 In3 Ir4'
_cell_volume   644.06112884
_cell_formula_units_Z   1
loop_
 _symmetry_equiv_pos_site_id
 _symmetry_equiv_pos_as_xyz
  1  'x, y, z'
loop_
 _atom_site_type_symbol
 _atom_site_label
 _atom_site_symmetry_multiplicity
 _atom_site_fract_x
 _atom_site_fract_y
 _atom_site_fract_z
 _atom_site_occupancy
  Li  Li0  1  0.321566  0.321730  0.321578  1
  Tb  Tb1  1  0.311199  0.689419  0.311493  1
  Tb  Tb2  1  0.937351  0.561846  0.561677  1
  Tb  Tb3  1  0.311318  0.311655  0.689297  1
  Tb  Tb4  1  0.099244  0.099465  0.099521  1
  Tb  Tb5  1  0.561671  0.561673  0.937392  1
  Tb  Tb6  1  0.098570  0.098511  0.704721  1
  Tb  Tb7  1  0.689994  0.309707  0.689744  1
  Tb  Tb8  1  0.690166  0.689773  0.309474  1
  Tb  Tb9  1  0.689437  0.311490  0.311451  1
  Tb  Tb10  1  0.309227  0.689986  0.690159  1
  Tb  Tb11  1  0.561867  0.937303  0.561711  1
  Tb  Tb12  1  0.704896  0.098519  0.098558  1
  Tb  Tb13  1  0.559081  0.941615  0.941538  1
  Dy  Dy14  1  0.098421  0.705273  0.098399  1
  Dy  Dy15  1  0.941674  0.941543  0.558933  1
  Dy  Dy16  1  0.941817  0.558794  0.941612  1
  In  In17  1  0.004575  0.332738  0.332508  1
  In  In18  1  0.332478  0.004670  0.332684  1
  In  In19  1  0.332423  0.332836  0.004651  1
  Ir  Ir20  1  0.892684  0.891484  0.892195  1
  Ir  Ir21  1  0.892414  0.891758  0.326244  1
  Ir  Ir22  1  0.325907  0.891645  0.892381  1
  Ir  Ir23  1  0.892022  0.326566  0.892081  1
