# generated using pymatgen
data_Rb8Nd3PuI20
_symmetry_space_group_name_H-M   'P 1'
_cell_length_a   9.53139055
_cell_length_b   10.01175800
_cell_length_c   15.10822903
_cell_angle_alpha   90.00000000
_cell_angle_beta   90.44921176
_cell_angle_gamma   90.00000000
_symmetry_Int_Tables_number   1
_chemical_formula_structural   Rb8Nd3PuI20
_chemical_formula_sum   'Rb8 Nd3 Pu1 I20'
_cell_volume   1441.67318346
_cell_formula_units_Z   1
loop_
 _symmetry_equiv_pos_site_id
 _symmetry_equiv_pos_as_xyz
  1  'x, y, z'
loop_
 _atom_site_type_symbol
 _atom_site_label
 _atom_site_symmetry_multiplicity
 _atom_site_fract_x
 _atom_site_fract_y
 _atom_site_fract_z
 _atom_site_occupancy
  Rb  Rb0  1  0.943272  0.003273  0.826493  1
  Rb  Rb1  1  0.056315  0.996808  0.173379  1
  Rb  Rb2  1  0.444040  0.996590  0.672892  1
  Rb  Rb3  1  0.056315  0.503192  0.173379  1
  Rb  Rb4  1  0.557095  0.003136  0.326994  1
  Rb  Rb5  1  0.943272  0.496727  0.826493  1
  Rb  Rb6  1  0.557095  0.496864  0.326994  1
  Rb  Rb7  1  0.444040  0.503410  0.672892  1
  Nd  Nd8  1  0.074849  0.250000  0.496622  1
  Nd  Nd9  1  0.422504  0.250000  0.995036  1
  Nd  Nd10  1  0.577512  0.750000  0.004592  1
  Pu  Pu11  1  0.929306  0.750000  0.503041  1
  I  I12  1  0.119085  0.750000  0.675394  1
  I  I13  1  0.878030  0.250000  0.324453  1
  I  I14  1  0.620347  0.250000  0.825606  1
  I  I15  1  0.379552  0.750000  0.174298  1
  I  I16  1  0.837474  0.043658  0.572653  1
  I  I17  1  0.160936  0.955394  0.427294  1
  I  I18  1  0.337093  0.954705  0.926174  1
  I  I19  1  0.160936  0.544606  0.427294  1
  I  I20  1  0.662938  0.045229  0.073496  1
  I  I21  1  0.837474  0.456342  0.572653  1
  I  I22  1  0.662938  0.454771  0.073496  1
  I  I23  1  0.337093  0.545295  0.926174  1
  I  I24  1  0.586218  0.750000  0.510151  1
  I  I25  1  0.414336  0.250000  0.489846  1
  I  I26  1  0.084305  0.250000  0.989183  1
  I  I27  1  0.915865  0.750000  0.010966  1
  I  I28  1  0.657027  0.750000  0.800947  1
  I  I29  1  0.343179  0.250000  0.199040  1
  I  I30  1  0.158471  0.250000  0.700433  1
  I  I31  1  0.841090  0.750000  0.301644  1
