# generated using pymatgen
data_Yb10CuNi3Hg2
_symmetry_space_group_name_H-M   'P 1'
_cell_length_a   8.92304154
_cell_length_b   8.92304186
_cell_length_c   8.88114283
_cell_angle_alpha   129.74008386
_cell_angle_beta   129.74008812
_cell_angle_gamma   74.18048834
_symmetry_Int_Tables_number   1
_chemical_formula_structural   Yb10CuNi3Hg2
_chemical_formula_sum   'Yb10 Cu1 Ni3 Hg2'
_cell_volume   406.88561308
_cell_formula_units_Z   1
loop_
 _symmetry_equiv_pos_site_id
 _symmetry_equiv_pos_as_xyz
  1  'x, y, z'
loop_
 _atom_site_type_symbol
 _atom_site_label
 _atom_site_symmetry_multiplicity
 _atom_site_fract_x
 _atom_site_fract_y
 _atom_site_fract_z
 _atom_site_occupancy
  Yb  Yb0  1  0.501357  0.502952  0.004309  1
  Yb  Yb1  1  0.997048  0.998643  0.995691  1
  Yb  Yb2  1  0.543257  0.037456  0.846130  1
  Yb  Yb3  1  0.197130  0.691327  0.153870  1
  Yb  Yb4  1  0.029506  0.203302  0.500000  1
  Yb  Yb5  1  0.698266  0.537212  0.500000  1
  Yb  Yb6  1  0.462544  0.956743  0.153870  1
  Yb  Yb7  1  0.808673  0.302870  0.846130  1
  Yb  Yb8  1  0.962788  0.801734  0.500000  1
  Yb  Yb9  1  0.296698  0.470494  0.500000  1
  Cu  Cu10  1  0.384496  0.115504  0.500000  1
  Ni  Ni11  1  0.115684  0.616312  0.731997  1
  Ni  Ni12  1  0.883688  0.384316  0.268003  1
  Ni  Ni13  1  0.616840  0.883160  0.500000  1
  Hg  Hg14  1  0.251015  0.248985  0.000000  1
  Hg  Hg15  1  0.751015  0.748985  0.000000  1
