# generated using pymatgen
data_Li6Sc12PtRh5
_symmetry_space_group_name_H-M   'P 1'
_cell_length_a   4.70666300
_cell_length_b   6.58086500
_cell_length_c   13.84550100
_cell_angle_alpha   89.99980905
_cell_angle_beta   89.99943651
_cell_angle_gamma   89.99978596
_symmetry_Int_Tables_number   1
_chemical_formula_structural   Li6Sc12PtRh5
_chemical_formula_sum   'Li6 Sc12 Pt1 Rh5'
_cell_volume   428.84935456
_cell_formula_units_Z   1
loop_
 _symmetry_equiv_pos_site_id
 _symmetry_equiv_pos_as_xyz
  1  'x, y, z'
loop_
 _atom_site_type_symbol
 _atom_site_label
 _atom_site_symmetry_multiplicity
 _atom_site_fract_x
 _atom_site_fract_y
 _atom_site_fract_z
 _atom_site_occupancy
  Li  Li0  1  0.999999  0.499999  0.999574  1
  Li  Li1  1  0.499782  0.000000  0.166836  1
  Li  Li2  1  0.999774  0.500000  0.333333  1
  Li  Li3  1  0.499996  0.000006  0.499822  1
  Li  Li4  1  0.000196  0.499998  0.667114  1
  Li  Li5  1  0.500218  0.000000  0.833345  1
  Sc  Sc6  1  0.499997  0.249326  0.001318  1
  Sc  Sc7  1  0.499996  0.750671  0.001316  1
  Sc  Sc8  1  0.999821  0.248824  0.166786  1
  Sc  Sc9  1  0.999817  0.751176  0.166786  1
  Sc  Sc10  1  0.499811  0.250901  0.333321  1
  Sc  Sc11  1  0.499813  0.749097  0.333323  1
  Sc  Sc12  1  0.999995  0.248829  0.499866  1
  Sc  Sc13  1  0.999995  0.751167  0.499867  1
  Sc  Sc14  1  0.500188  0.249344  0.665358  1
  Sc  Sc15  1  0.500190  0.750653  0.665358  1
  Sc  Sc16  1  0.000205  0.245825  0.833348  1
  Sc  Sc17  1  0.000205  0.754173  0.833349  1
  Pt  Pt18  1  0.500279  0.500001  0.833345  1
  Rh  Rh19  1  0.999995  0.000000  0.999678  1
  Rh  Rh20  1  0.499737  0.499999  0.166661  1
  Rh  Rh21  1  0.999722  0.000006  0.333308  1
  Rh  Rh22  1  0.499989  0.499999  0.499989  1
  Rh  Rh23  1  0.000269  0.999999  0.666997  1
