# generated using pymatgen
data_Ho3Mg2InGa2Ag
_symmetry_space_group_name_H-M   'P 1'
_cell_length_a   7.29583700
_cell_length_b   7.28559441
_cell_length_c   4.40666600
_cell_angle_alpha   90.00000000
_cell_angle_beta   90.00000000
_cell_angle_gamma   120.04652121
_symmetry_Int_Tables_number   1
_chemical_formula_structural   Ho3Mg2InGa2Ag
_chemical_formula_sum   'Ho3 Mg2 In1 Ga2 Ag1'
_cell_volume   202.75758073
_cell_formula_units_Z   1
loop_
 _symmetry_equiv_pos_site_id
 _symmetry_equiv_pos_as_xyz
  1  'x, y, z'
loop_
 _atom_site_type_symbol
 _atom_site_label
 _atom_site_symmetry_multiplicity
 _atom_site_fract_x
 _atom_site_fract_y
 _atom_site_fract_z
 _atom_site_occupancy
  Ho  Ho0  1  0.575424  0.000000  0.000000  1
  Ho  Ho1  1  0.999415  0.576460  0.000000  1
  Ho  Ho2  1  0.422955  0.423540  0.000000  1
  Mg  Mg3  1  0.999595  0.245346  0.500000  1
  Mg  Mg4  1  0.754248  0.754654  0.500000  1
  In  In5  1  0.249055  0.000000  0.500000  1
  Ga  Ga6  1  0.334059  0.664473  0.500000  1
  Ga  Ga7  1  0.669587  0.335527  0.500000  1
  Ag  Ag8  1  0.995662  0.000000  0.000000  1
