# generated using pymatgen
data_LiEu3Tl3Pd2
_symmetry_space_group_name_H-M   'P 1'
_cell_length_a   7.89064400
_cell_length_b   7.89064386
_cell_length_c   4.16718100
_cell_angle_alpha   90.00000000
_cell_angle_beta   90.00000000
_cell_angle_gamma   120.00000057
_symmetry_Int_Tables_number   1
_chemical_formula_structural   LiEu3Tl3Pd2
_chemical_formula_sum   'Li1 Eu3 Tl3 Pd2'
_cell_volume   224.69731652
_cell_formula_units_Z   1
loop_
 _symmetry_equiv_pos_site_id
 _symmetry_equiv_pos_as_xyz
  1  'x, y, z'
loop_
 _atom_site_type_symbol
 _atom_site_label
 _atom_site_symmetry_multiplicity
 _atom_site_fract_x
 _atom_site_fract_y
 _atom_site_fract_z
 _atom_site_occupancy
  Li  Li0  1  0.000000  0.000000  0.500000  1
  Eu  Eu1  1  0.417765  0.417765  0.500000  1
  Eu  Eu2  1  0.000000  0.582235  0.500000  1
  Eu  Eu3  1  0.582235  0.000000  0.500000  1
  Tl  Tl4  1  0.747505  0.747505  0.000000  1
  Tl  Tl5  1  0.252495  0.000000  0.000000  1
  Tl  Tl6  1  0.000000  0.252495  0.000000  1
  Pd  Pd7  1  0.666667  0.333333  0.000000  1
  Pd  Pd8  1  0.333333  0.666667  0.000000  1
