# generated using pymatgen
data_Pr7NdYRh6
_symmetry_space_group_name_H-M   'P 1'
_cell_length_a   7.65786320
_cell_length_b   7.65786287
_cell_length_c   7.65786300
_cell_angle_alpha   71.21898739
_cell_angle_beta   71.21898822
_cell_angle_gamma   71.21897891
_symmetry_Int_Tables_number   1
_chemical_formula_structural   Pr7NdYRh6
_chemical_formula_sum   'Pr7 Nd1 Y1 Rh6'
_cell_volume   390.41045923
_cell_formula_units_Z   1
loop_
 _symmetry_equiv_pos_site_id
 _symmetry_equiv_pos_as_xyz
  1  'x, y, z'
loop_
 _atom_site_type_symbol
 _atom_site_label
 _atom_site_symmetry_multiplicity
 _atom_site_fract_x
 _atom_site_fract_y
 _atom_site_fract_z
 _atom_site_occupancy
  Pr  Pr0  1  0.201355  0.201355  0.201355  1
  Pr  Pr1  1  0.163377  0.389595  0.666853  1
  Pr  Pr2  1  0.666853  0.163377  0.389595  1
  Pr  Pr3  1  0.389595  0.666853  0.163377  1
  Pr  Pr4  1  0.836209  0.610834  0.333358  1
  Pr  Pr5  1  0.333358  0.836209  0.610834  1
  Pr  Pr6  1  0.610834  0.333358  0.836209  1
  Nd  Nd7  1  0.798894  0.798894  0.798894  1
  Y  Y8  1  0.999931  0.999931  0.999931  1
  Rh  Rh9  1  0.959218  0.157226  0.596686  1
  Rh  Rh10  1  0.596686  0.959218  0.157226  1
  Rh  Rh11  1  0.157226  0.596686  0.959218  1
  Rh  Rh12  1  0.040035  0.841795  0.404635  1
  Rh  Rh13  1  0.404635  0.040035  0.841795  1
  Rh  Rh14  1  0.841795  0.404635  0.040035  1
