# generated using pymatgen
data_Hf4Ta2Al6Zn
_symmetry_space_group_name_H-M   'P 1'
_cell_length_a   10.00984657
_cell_length_b   10.00984599
_cell_length_c   10.00984602
_cell_angle_alpha   30.46717128
_cell_angle_beta   30.46718735
_cell_angle_gamma   30.46717908
_symmetry_Int_Tables_number   1
_chemical_formula_structural   Hf4Ta2Al6Zn
_chemical_formula_sum   'Hf4 Ta2 Al6 Zn1'
_cell_volume   228.56226305
_cell_formula_units_Z   1
loop_
 _symmetry_equiv_pos_site_id
 _symmetry_equiv_pos_as_xyz
  1  'x, y, z'
loop_
 _atom_site_type_symbol
 _atom_site_label
 _atom_site_symmetry_multiplicity
 _atom_site_fract_x
 _atom_site_fract_y
 _atom_site_fract_z
 _atom_site_occupancy
  Hf  Hf0  1  0.834698  0.834698  0.834698  1
  Hf  Hf1  1  0.165302  0.165302  0.165302  1
  Hf  Hf2  1  0.647943  0.647943  0.647943  1
  Hf  Hf3  1  0.352057  0.352057  0.352057  1
  Ta  Ta4  1  0.544845  0.544845  0.544845  1
  Ta  Ta5  1  0.455155  0.455155  0.455155  1
  Al  Al6  1  0.907152  0.413598  0.907152  1
  Al  Al7  1  0.907152  0.907152  0.413598  1
  Al  Al8  1  0.413598  0.907152  0.907152  1
  Al  Al9  1  0.092848  0.586402  0.092848  1
  Al  Al10  1  0.092848  0.092848  0.586402  1
  Al  Al11  1  0.586402  0.092848  0.092848  1
  Zn  Zn12  1  0.000000  0.000000  0.000000  1
