# generated using pymatgen
data_Er7TmTc3B24Ru
_symmetry_space_group_name_H-M   'P 1'
_cell_length_a   3.65061000
_cell_length_b   9.11181552
_cell_length_c   11.48805400
_cell_angle_alpha   89.92152848
_cell_angle_beta   90.00000000
_cell_angle_gamma   90.00000000
_symmetry_Int_Tables_number   1
_chemical_formula_structural   Er7TmTc3B24Ru
_chemical_formula_sum   'Er7 Tm1 Tc3 B24 Ru1'
_cell_volume   382.13464932
_cell_formula_units_Z   1
loop_
 _symmetry_equiv_pos_site_id
 _symmetry_equiv_pos_as_xyz
  1  'x, y, z'
loop_
 _atom_site_type_symbol
 _atom_site_label
 _atom_site_symmetry_multiplicity
 _atom_site_fract_x
 _atom_site_fract_y
 _atom_site_fract_z
 _atom_site_occupancy
  Er  Er0  1  0.000000  0.323481  0.413970  1
  Er  Er1  1  0.000000  0.675165  0.584056  1
  Er  Er2  1  0.000000  0.822775  0.087382  1
  Er  Er3  1  0.000000  0.178228  0.914397  1
  Er  Er4  1  0.000000  0.942670  0.370399  1
  Er  Er5  1  0.000000  0.057688  0.630529  1
  Er  Er6  1  0.000000  0.443172  0.129779  1
  Tm  Tm7  1  0.000000  0.557761  0.869307  1
  Tc  Tc8  1  0.000000  0.638425  0.320464  1
  Tc  Tc9  1  0.000000  0.361799  0.680200  1
  Tc  Tc10  1  0.000000  0.138088  0.178382  1
  B  B11  1  0.500000  0.552933  0.433097  1
  B  B12  1  0.500000  0.446744  0.566589  1
  B  B13  1  0.500000  0.052981  0.066513  1
  B  B14  1  0.500000  0.946093  0.933034  1
  B  B15  1  0.500000  0.748936  0.419106  1
  B  B16  1  0.500000  0.250456  0.581058  1
  B  B17  1  0.500000  0.249628  0.080824  1
  B  B18  1  0.500000  0.750902  0.918765  1
  B  B19  1  0.500000  0.792095  0.265286  1
  B  B20  1  0.500000  0.208140  0.735522  1
  B  B21  1  0.500000  0.292077  0.234879  1
  B  B22  1  0.500000  0.708716  0.765034  1
  B  B23  1  0.500000  0.631033  0.185117  1
  B  B24  1  0.500000  0.369350  0.815489  1
  B  B25  1  0.500000  0.130453  0.314539  1
  B  B26  1  0.500000  0.868827  0.685353  1
  B  B27  1  0.500000  0.981344  0.211782  1
  B  B28  1  0.500000  0.017132  0.788403  1
  B  B29  1  0.500000  0.481638  0.287958  1
  B  B30  1  0.500000  0.518418  0.711852  1
  B  B31  1  0.500000  0.601963  0.027693  1
  B  B32  1  0.500000  0.400007  0.971532  1
  B  B33  1  0.500000  0.101236  0.472153  1
  B  B34  1  0.500000  0.898376  0.528671  1
  Ru  Ru35  1  0.000000  0.861272  0.820893  1
