# generated using pymatgen
data_Y11HoCo5Sn
_symmetry_space_group_name_H-M   'P 1'
_cell_length_a   8.32440134
_cell_length_b   8.31878227
_cell_length_c   8.31875881
_cell_angle_alpha   110.76702805
_cell_angle_beta   110.70968734
_cell_angle_gamma   106.93941936
_symmetry_Int_Tables_number   1
_chemical_formula_structural   Y11HoCo5Sn
_chemical_formula_sum   'Y11 Ho1 Co5 Sn1'
_cell_volume   442.95892077
_cell_formula_units_Z   1
loop_
 _symmetry_equiv_pos_site_id
 _symmetry_equiv_pos_as_xyz
  1  'x, y, z'
loop_
 _atom_site_type_symbol
 _atom_site_label
 _atom_site_symmetry_multiplicity
 _atom_site_fract_x
 _atom_site_fract_y
 _atom_site_fract_z
 _atom_site_occupancy
  Y  Y0  1  0.814228  0.709201  0.522945  1
  Y  Y1  1  0.186152  0.291732  0.478489  1
  Y  Y2  1  0.186150  0.707664  0.894418  1
  Y  Y3  1  0.814227  0.291283  0.105024  1
  Y  Y4  1  0.686826  0.380903  0.694652  1
  Y  Y5  1  0.312998  0.618467  0.304756  1
  Y  Y6  1  0.686823  0.992171  0.305923  1
  Y  Y7  1  0.312998  0.008245  0.694535  1
  Y  Y8  1  0.597786  0.791295  0.806490  1
  Y  Y9  1  0.401339  0.208487  0.192849  1
  Y  Y10  1  0.984860  0.791731  0.193127  1
  Ho  Ho11  1  0.013431  0.207126  0.806303  1
  Co  Co12  1  0.622477  0.000691  0.621786  1
  Co  Co13  1  0.379917  0.999879  0.380038  1
  Co  Co14  1  0.110748  0.610927  0.499823  1
  Co  Co15  1  0.889438  0.389143  0.500294  1
  Co  Co16  1  0.999604  0.000985  0.998619  1
  Sn  Sn17  1  0.499999  0.500069  0.999930  1
