# generated using pymatgen
data_La12Pr8Si15Ir
_symmetry_space_group_name_H-M   'P 1'
_cell_length_a   7.99132204
_cell_length_b   8.00063007
_cell_length_c   15.41423100
_cell_angle_alpha   89.97069552
_cell_angle_beta   89.70622539
_cell_angle_gamma   89.99517341
_symmetry_Int_Tables_number   1
_chemical_formula_structural   La12Pr8Si15Ir
_chemical_formula_sum   'La12 Pr8 Si15 Ir1'
_cell_volume   985.50519773
_cell_formula_units_Z   1
loop_
 _symmetry_equiv_pos_site_id
 _symmetry_equiv_pos_as_xyz
  1  'x, y, z'
loop_
 _atom_site_type_symbol
 _atom_site_label
 _atom_site_symmetry_multiplicity
 _atom_site_fract_x
 _atom_site_fract_y
 _atom_site_fract_z
 _atom_site_occupancy
  La  La0  1  0.305897  0.306254  0.998733  1
  La  La1  1  0.191834  0.808485  0.249699  1
  La  La2  1  0.821794  0.186818  0.750306  1
  La  La3  1  0.693594  0.687848  0.499755  1
  La  La4  1  0.373543  0.011318  0.448647  1
  La  La5  1  0.487641  0.875647  0.698595  1
  La  La6  1  0.510724  0.123692  0.197786  1
  La  La7  1  0.876176  0.488669  0.300228  1
  La  La8  1  0.125461  0.508197  0.799709  1
  La  La9  1  0.626513  0.987782  0.948748  1
  La  La10  1  0.007536  0.374371  0.552730  1
  La  La11  1  0.988479  0.625718  0.051498  1
  Pr  Pr12  1  0.133631  0.987710  0.874550  1
  Pr  Pr13  1  0.515083  0.630314  0.125899  1
  Pr  Pr14  1  0.476128  0.362256  0.628067  1
  Pr  Pr15  1  0.628014  0.514950  0.874026  1
  Pr  Pr16  1  0.372897  0.484706  0.373195  1
  Pr  Pr17  1  0.872193  0.018366  0.375823  1
  Pr  Pr18  1  0.983980  0.127391  0.124593  1
  Pr  Pr19  1  0.022501  0.878190  0.624654  1
  Si  Si20  1  0.334352  0.697203  0.949961  1
  Si  Si21  1  0.663577  0.301168  0.451245  1
  Si  Si22  1  0.699073  0.335702  0.050464  1
  Si  Si23  1  0.303250  0.667847  0.548509  1
  Si  Si24  1  0.803259  0.833162  0.201746  1
  Si  Si25  1  0.166832  0.198751  0.298730  1
  Si  Si26  1  0.834653  0.800734  0.799940  1
  Si  Si27  1  0.288542  0.920772  0.057915  1
  Si  Si28  1  0.580431  0.787355  0.309202  1
  Si  Si29  1  0.424805  0.209400  0.810792  1
  Si  Si30  1  0.783405  0.583065  0.691409  1
  Si  Si31  1  0.212352  0.420806  0.191098  1
  Si  Si32  1  0.703444  0.075032  0.557751  1
  Si  Si33  1  0.918572  0.288998  0.942721  1
  Si  Si34  1  0.081007  0.715121  0.441843  1
  Ir  Ir35  1  0.188833  0.176202  0.699431  1
