# generated using pymatgen
data_TiNbCo4(Si2Mo)2
_symmetry_space_group_name_H-M   'P 1'
_cell_length_a   3.61200900
_cell_length_b   6.16419918
_cell_length_c   7.00620235
_cell_angle_alpha   90.07103945
_cell_angle_beta   90.00000000
_cell_angle_gamma   90.00000000
_symmetry_Int_Tables_number   1
_chemical_formula_structural   TiNbCo4(Si2Mo)2
_chemical_formula_sum   'Ti1 Nb1 Co4 Si4 Mo2'
_cell_volume   155.99397675
_cell_formula_units_Z   1
loop_
 _symmetry_equiv_pos_site_id
 _symmetry_equiv_pos_as_xyz
  1  'x, y, z'
loop_
 _atom_site_type_symbol
 _atom_site_label
 _atom_site_symmetry_multiplicity
 _atom_site_fract_x
 _atom_site_fract_y
 _atom_site_fract_z
 _atom_site_occupancy
  Ti  Ti0  1  0.750000  0.980020  0.180962  1
  Nb  Nb1  1  0.250000  0.522720  0.678239  1
  Co  Co2  1  0.250000  0.646227  0.062107  1
  Co  Co3  1  0.750000  0.361945  0.938511  1
  Co  Co4  1  0.250000  0.137459  0.434818  1
  Co  Co5  1  0.750000  0.852132  0.559839  1
  Si  Si6  1  0.750000  0.733983  0.882024  1
  Si  Si7  1  0.250000  0.770701  0.374570  1
  Si  Si8  1  0.750000  0.218471  0.619217  1
  Si  Si9  1  0.250000  0.275975  0.119594  1
  Mo  Mo10  1  0.250000  0.026794  0.824860  1
  Mo  Mo11  1  0.750000  0.473572  0.325258  1
