# generated using pymatgen
data_YbHo2Ag3SnGe2
_symmetry_space_group_name_H-M   'P 1'
_cell_length_a   7.32136100
_cell_length_b   7.31771592
_cell_length_c   4.25121300
_cell_angle_alpha   90.00000000
_cell_angle_beta   90.00000000
_cell_angle_gamma   120.01648348
_symmetry_Int_Tables_number   1
_chemical_formula_structural   YbHo2Ag3SnGe2
_chemical_formula_sum   'Yb1 Ho2 Ag3 Sn1 Ge2'
_cell_volume   197.21443711
_cell_formula_units_Z   1
loop_
 _symmetry_equiv_pos_site_id
 _symmetry_equiv_pos_as_xyz
  1  'x, y, z'
loop_
 _atom_site_type_symbol
 _atom_site_label
 _atom_site_symmetry_multiplicity
 _atom_site_fract_x
 _atom_site_fract_y
 _atom_site_fract_z
 _atom_site_occupancy
  Yb  Yb0  1  0.569132  0.000000  0.000000  1
  Ho  Ho1  1  0.000579  0.568722  0.000000  1
  Ho  Ho2  1  0.431857  0.431278  0.000000  1
  Ag  Ag3  1  0.266289  0.000000  0.500000  1
  Ag  Ag4  1  0.739136  0.744951  0.500000  1
  Ag  Ag5  1  0.994185  0.255049  0.500000  1
  Sn  Sn6  1  0.002189  0.000000  0.000000  1
  Ge  Ge7  1  0.669701  0.342771  0.500000  1
  Ge  Ge8  1  0.326930  0.657229  0.500000  1
