# generated using pymatgen
data_Ba5Si2BiH
_symmetry_space_group_name_H-M   'P 1'
_cell_length_a   10.33684704
_cell_length_b   10.33684631
_cell_length_c   10.33684666
_cell_angle_alpha   129.23301053
_cell_angle_beta   129.23301525
_cell_angle_gamma   74.63593266
_symmetry_Int_Tables_number   1
_chemical_formula_structural   Ba5Si2BiH
_chemical_formula_sum   'Ba10 Si4 Bi2 H2'
_cell_volume   645.65749608
_cell_formula_units_Z   2
loop_
 _symmetry_equiv_pos_site_id
 _symmetry_equiv_pos_as_xyz
  1  'x, y, z'
loop_
 _atom_site_type_symbol
 _atom_site_label
 _atom_site_symmetry_multiplicity
 _atom_site_fract_x
 _atom_site_fract_y
 _atom_site_fract_z
 _atom_site_occupancy
  Ba  Ba0  1  0.500000  0.500000  0.000000  1
  Ba  Ba1  1  0.000000  0.000000  0.000000  1
  Ba  Ba2  1  0.523690  0.023690  0.831662  1
  Ba  Ba3  1  0.192029  0.692029  0.168338  1
  Ba  Ba4  1  0.023690  0.192029  0.500000  1
  Ba  Ba5  1  0.692029  0.523690  0.500000  1
  Ba  Ba6  1  0.476310  0.976310  0.168338  1
  Ba  Ba7  1  0.807971  0.307971  0.831662  1
  Ba  Ba8  1  0.976310  0.807971  0.500000  1
  Ba  Ba9  1  0.307971  0.476310  0.500000  1
  Si  Si10  1  0.896977  0.396977  0.293955  1
  Si  Si11  1  0.103023  0.603023  0.706045  1
  Si  Si12  1  0.396977  0.103023  0.500000  1
  Si  Si13  1  0.603023  0.896977  0.500000  1
  Bi  Bi14  1  0.250000  0.250000  0.000000  1
  Bi  Bi15  1  0.750000  0.750000  0.000000  1
  H  H16  1  0.250000  0.750000  0.500000  1
  H  H17  1  0.750000  0.250000  0.500000  1
