# generated using pymatgen
data_Hf6MnCr(Si3Ru2)2
_symmetry_space_group_name_H-M   'P 1'
_cell_length_a   7.61648441
_cell_length_b   7.62442676
_cell_length_c   7.62442606
_cell_angle_alpha   127.63614603
_cell_angle_beta   124.66800392
_cell_angle_gamma   79.68503244
_symmetry_Int_Tables_number   1
_chemical_formula_structural   Hf6MnCr(Si3Ru2)2
_chemical_formula_sum   'Hf6 Mn1 Cr1 Si6 Ru4'
_cell_volume   278.58243080
_cell_formula_units_Z   1
loop_
 _symmetry_equiv_pos_site_id
 _symmetry_equiv_pos_as_xyz
  1  'x, y, z'
loop_
 _atom_site_type_symbol
 _atom_site_label
 _atom_site_symmetry_multiplicity
 _atom_site_fract_x
 _atom_site_fract_y
 _atom_site_fract_z
 _atom_site_occupancy
  Hf  Hf0  1  0.458919  0.673942  0.714754  1
  Hf  Hf1  1  0.541081  0.255834  0.215022  1
  Hf  Hf2  1  0.747901  0.834892  0.588128  1
  Hf  Hf3  1  0.252099  0.840225  0.086989  1
  Hf  Hf4  1  0.053048  0.256423  0.703891  1
  Hf  Hf5  1  0.946952  0.650843  0.203374  1
  Mn  Mn6  1  0.500000  0.503367  0.003367  1
  Cr  Cr7  1  0.000000  0.503878  0.503878  1
  Si  Si8  1  0.263745  0.268359  0.505384  1
  Si  Si9  1  0.736255  0.241638  0.004614  1
  Si  Si10  1  0.329675  0.586509  0.248620  1
  Si  Si11  1  0.670325  0.918945  0.256833  1
  Si  Si12  1  0.162366  0.918537  0.748677  1
  Si  Si13  1  0.837634  0.586311  0.756170  1
  Ru  Ru14  1  0.105363  0.253260  0.110024  1
  Ru  Ru15  1  0.894637  0.004660  0.147898  1
  Ru  Ru16  1  0.357912  0.007247  0.612642  1
  Ru  Ru17  1  0.642088  0.254730  0.649336  1
