# generated using pymatgen
data_Er3TmLu4(B6Ru)4
_symmetry_space_group_name_H-M   'P 1'
_cell_length_a   3.60843900
_cell_length_b   9.04585100
_cell_length_c   11.41876700
_cell_angle_alpha   90.00287788
_cell_angle_beta   90.00000000
_cell_angle_gamma   90.00000000
_symmetry_Int_Tables_number   1
_chemical_formula_structural   Er3TmLu4(B6Ru)4
_chemical_formula_sum   'Er3 Tm1 Lu4 B24 Ru4'
_cell_volume   372.72455846
_cell_formula_units_Z   1
loop_
 _symmetry_equiv_pos_site_id
 _symmetry_equiv_pos_as_xyz
  1  'x, y, z'
loop_
 _atom_site_type_symbol
 _atom_site_label
 _atom_site_symmetry_multiplicity
 _atom_site_fract_x
 _atom_site_fract_y
 _atom_site_fract_z
 _atom_site_occupancy
  Er  Er0  1  0.000000  0.321463  0.414062  1
  Er  Er1  1  0.000000  0.678527  0.585926  1
  Er  Er2  1  0.000000  0.821554  0.085908  1
  Tm  Tm3  1  0.000000  0.178626  0.914134  1
  Lu  Lu4  1  0.000000  0.943871  0.372663  1
  Lu  Lu5  1  0.000000  0.056123  0.627366  1
  Lu  Lu6  1  0.000000  0.443833  0.127272  1
  Lu  Lu7  1  0.000000  0.556053  0.872682  1
  B  B8  1  0.500000  0.554067  0.433311  1
  B  B9  1  0.500000  0.445925  0.566701  1
  B  B10  1  0.500000  0.054126  0.066568  1
  B  B11  1  0.500000  0.946077  0.933327  1
  B  B12  1  0.500000  0.749491  0.419960  1
  B  B13  1  0.500000  0.250507  0.580061  1
  B  B14  1  0.500000  0.249436  0.079877  1
  B  B15  1  0.500000  0.750522  0.919949  1
  B  B16  1  0.500000  0.791805  0.265706  1
  B  B17  1  0.500000  0.208136  0.734433  1
  B  B18  1  0.500000  0.291796  0.234266  1
  B  B19  1  0.500000  0.708202  0.765715  1
  B  B20  1  0.500000  0.630848  0.184232  1
  B  B21  1  0.500000  0.369002  0.815856  1
  B  B22  1  0.500000  0.130856  0.315755  1
  B  B23  1  0.500000  0.869158  0.684253  1
  B  B24  1  0.500000  0.982384  0.213185  1
  B  B25  1  0.500000  0.017791  0.786891  1
  B  B26  1  0.500000  0.482373  0.286803  1
  B  B27  1  0.500000  0.517607  0.713213  1
  B  B28  1  0.500000  0.605155  0.028932  1
  B  B29  1  0.500000  0.394619  0.971010  1
  B  B30  1  0.500000  0.105141  0.471076  1
  B  B31  1  0.500000  0.894858  0.528935  1
  Ru  Ru32  1  0.000000  0.638199  0.320523  1
  Ru  Ru33  1  0.000000  0.361785  0.679465  1
  Ru  Ru34  1  0.000000  0.138204  0.179407  1
  Ru  Ru35  1  0.000000  0.861883  0.820578  1
