# generated using pymatgen
data_Lu5Mg3Ni16
_symmetry_space_group_name_H-M   'P 1'
_cell_length_a   4.94608300
_cell_length_b   4.94608366
_cell_length_c   16.09807600
_cell_angle_alpha   90.00000000
_cell_angle_beta   90.00000000
_cell_angle_gamma   120.00000228
_symmetry_Int_Tables_number   1
_chemical_formula_structural   Lu5Mg3Ni16
_chemical_formula_sum   'Lu5 Mg3 Ni16'
_cell_volume   341.05738115
_cell_formula_units_Z   1
loop_
 _symmetry_equiv_pos_site_id
 _symmetry_equiv_pos_as_xyz
  1  'x, y, z'
loop_
 _atom_site_type_symbol
 _atom_site_label
 _atom_site_symmetry_multiplicity
 _atom_site_fract_x
 _atom_site_fract_y
 _atom_site_fract_z
 _atom_site_occupancy
  Lu  Lu0  1  0.000000  0.000000  0.400026  1
  Lu  Lu1  1  0.000000  0.000000  0.590939  1
  Lu  Lu2  1  0.000000  0.000000  0.903782  1
  Lu  Lu3  1  0.000000  0.000000  0.097233  1
  Lu  Lu4  1  0.333333  0.666667  0.664143  1
  Mg  Mg5  1  0.666667  0.333333  0.336764  1
  Mg  Mg6  1  0.666667  0.333333  0.161189  1
  Mg  Mg7  1  0.333333  0.666667  0.848127  1
  Ni  Ni8  1  0.333333  0.666667  0.374352  1
  Ni  Ni9  1  0.666667  0.333333  0.624311  1
  Ni  Ni10  1  0.666667  0.333333  0.875943  1
  Ni  Ni11  1  0.333333  0.666667  0.124665  1
  Ni  Ni12  1  0.500991  0.499009  0.498576  1
  Ni  Ni13  1  0.500991  0.001982  0.498576  1
  Ni  Ni14  1  0.998018  0.499009  0.498576  1
  Ni  Ni15  1  0.500042  0.499958  0.000801  1
  Ni  Ni16  1  0.500042  0.000083  0.000801  1
  Ni  Ni17  1  0.999917  0.499958  0.000801  1
  Ni  Ni18  1  0.166480  0.833520  0.249105  1
  Ni  Ni19  1  0.166480  0.332959  0.249105  1
  Ni  Ni20  1  0.667041  0.833520  0.249105  1
  Ni  Ni21  1  0.833490  0.166510  0.751026  1
  Ni  Ni22  1  0.833490  0.666981  0.751026  1
  Ni  Ni23  1  0.333019  0.166510  0.751026  1
