# generated using pymatgen
data_Yb8MnSbPd23
_symmetry_space_group_name_H-M   'P 1'
_cell_length_a   8.24642300
_cell_length_b   8.45712800
_cell_length_c   8.40461900
_cell_angle_alpha   90.00000000
_cell_angle_beta   90.00000000
_cell_angle_gamma   90.00000000
_symmetry_Int_Tables_number   1
_chemical_formula_structural   Yb8MnSbPd23
_chemical_formula_sum   'Yb8 Mn1 Sb1 Pd23'
_cell_volume   586.14699470
_cell_formula_units_Z   1
loop_
 _symmetry_equiv_pos_site_id
 _symmetry_equiv_pos_as_xyz
  1  'x, y, z'
loop_
 _atom_site_type_symbol
 _atom_site_label
 _atom_site_symmetry_multiplicity
 _atom_site_fract_x
 _atom_site_fract_y
 _atom_site_fract_z
 _atom_site_occupancy
  Yb  Yb0  1  0.747970  0.737412  0.242796  1
  Yb  Yb1  1  0.747970  0.262588  0.757204  1
  Yb  Yb2  1  0.253111  0.749802  0.745457  1
  Yb  Yb3  1  0.747970  0.737412  0.757204  1
  Yb  Yb4  1  0.747970  0.262588  0.242796  1
  Yb  Yb5  1  0.253111  0.250198  0.745457  1
  Yb  Yb6  1  0.253111  0.749802  0.254543  1
  Yb  Yb7  1  0.253111  0.250198  0.254543  1
  Mn  Mn8  1  0.721374  0.000000  0.500000  1
  Sb  Sb9  1  0.003761  0.000000  0.000000  1
  Pd  Pd10  1  0.984709  0.000000  0.312885  1
  Pd  Pd11  1  0.735022  0.500000  0.000000  1
  Pd  Pd12  1  0.509400  0.000000  0.728596  1
  Pd  Pd13  1  0.993415  0.734742  0.500000  1
  Pd  Pd14  1  0.509400  0.000000  0.271404  1
  Pd  Pd15  1  0.993415  0.265258  0.500000  1
  Pd  Pd16  1  0.498081  0.732595  0.000000  1
  Pd  Pd17  1  0.256123  0.500000  0.500000  1
  Pd  Pd18  1  0.497476  0.500000  0.742670  1
  Pd  Pd19  1  0.497476  0.500000  0.257330  1
  Pd  Pd20  1  0.508824  0.252396  0.500000  1
  Pd  Pd21  1  0.508824  0.747604  0.500000  1
  Pd  Pd22  1  0.744014  0.500000  0.500000  1
  Pd  Pd23  1  0.316986  0.000000  0.000000  1
  Pd  Pd24  1  0.984709  0.000000  0.687115  1
  Pd  Pd25  1  0.003959  0.500000  0.266045  1
  Pd  Pd26  1  0.003169  0.308098  0.000000  1
  Pd  Pd27  1  0.003169  0.691902  0.000000  1
  Pd  Pd28  1  0.690279  0.000000  0.000000  1
  Pd  Pd29  1  0.267402  0.500000  0.000000  1
  Pd  Pd30  1  0.262649  0.000000  0.500000  1
  Pd  Pd31  1  0.003959  0.500000  0.733955  1
  Pd  Pd32  1  0.498081  0.267405  0.000000  1
