# generated using pymatgen
data_Cs3CuGe4
_symmetry_space_group_name_H-M   'P 1'
_cell_length_a   5.99162400
_cell_length_b   7.27508700
_cell_length_c   13.18972600
_cell_angle_alpha   90.00000000
_cell_angle_beta   90.00000000
_cell_angle_gamma   90.00000000
_symmetry_Int_Tables_number   1
_chemical_formula_structural   Cs3CuGe4
_chemical_formula_sum   'Cs6 Cu2 Ge8'
_cell_volume   574.93469410
_cell_formula_units_Z   2
loop_
 _symmetry_equiv_pos_site_id
 _symmetry_equiv_pos_as_xyz
  1  'x, y, z'
loop_
 _atom_site_type_symbol
 _atom_site_label
 _atom_site_symmetry_multiplicity
 _atom_site_fract_x
 _atom_site_fract_y
 _atom_site_fract_z
 _atom_site_occupancy
  Cs  Cs0  1  0.842722  0.500000  0.265475  1
  Cs  Cs1  1  0.842722  0.500000  0.734525  1
  Cs  Cs2  1  0.427811  0.500000  0.500000  1
  Cs  Cs3  1  0.157278  0.000000  0.234525  1
  Cs  Cs4  1  0.157278  0.000000  0.765475  1
  Cs  Cs5  1  0.572189  0.000000  0.000000  1
  Cu  Cu6  1  0.700433  0.500000  0.000000  1
  Cu  Cu7  1  0.299567  0.000000  0.500000  1
  Ge  Ge8  1  0.056344  0.315717  0.000000  1
  Ge  Ge9  1  0.347072  0.500000  0.102127  1
  Ge  Ge10  1  0.652928  0.000000  0.602127  1
  Ge  Ge11  1  0.056344  0.684283  0.000000  1
  Ge  Ge12  1  0.943656  0.815717  0.500000  1
  Ge  Ge13  1  0.652928  0.000000  0.397873  1
  Ge  Ge14  1  0.347072  0.500000  0.897873  1
  Ge  Ge15  1  0.943656  0.184283  0.500000  1
