# generated using pymatgen
data_Ho3LuFe(CoSi2)5
_symmetry_space_group_name_H-M   'P 1'
_cell_length_a   7.81274503
_cell_length_b   7.81128485
_cell_length_c   5.45823070
_cell_angle_alpha   71.03990264
_cell_angle_beta   70.99745479
_cell_angle_gamma   93.73954900
_symmetry_Int_Tables_number   1
_chemical_formula_structural   Ho3LuFe(CoSi2)5
_chemical_formula_sum   'Ho3 Lu1 Fe1 Co5 Si10'
_cell_volume   292.36428227
_cell_formula_units_Z   1
loop_
 _symmetry_equiv_pos_site_id
 _symmetry_equiv_pos_as_xyz
  1  'x, y, z'
loop_
 _atom_site_type_symbol
 _atom_site_label
 _atom_site_symmetry_multiplicity
 _atom_site_fract_x
 _atom_site_fract_y
 _atom_site_fract_z
 _atom_site_occupancy
  Ho  Ho0  1  0.130223  0.404383  0.736773  1
  Ho  Ho1  1  0.595572  0.869563  0.763223  1
  Ho  Ho2  1  0.869489  0.596360  0.262314  1
  Lu  Lu3  1  0.404247  0.129919  0.237064  1
  Fe  Fe4  1  0.997479  0.003073  0.749912  1
  Co  Co5  1  0.541993  0.263030  0.628467  1
  Co  Co6  1  0.263377  0.542103  0.125134  1
  Co  Co7  1  0.457908  0.737591  0.374626  1
  Co  Co8  1  0.004310  0.996689  0.249746  1
  Co  Co9  1  0.735508  0.456551  0.873385  1
  Si  Si10  1  0.771534  0.227318  0.250417  1
  Si  Si11  1  0.225646  0.775251  0.749237  1
  Si  Si12  1  0.511114  0.487040  0.250859  1
  Si  Si13  1  0.488021  0.511431  0.749954  1
  Si  Si14  1  0.212912  0.788308  0.250147  1
  Si  Si15  1  0.788782  0.211239  0.749405  1
  Si  Si16  1  0.737944  0.932944  0.165271  1
  Si  Si17  1  0.931782  0.737210  0.666813  1
  Si  Si18  1  0.263304  0.068552  0.832726  1
  Si  Si19  1  0.068856  0.261442  0.334525  1
