# generated using pymatgen
data_Ca10(AgRh)3
_symmetry_space_group_name_H-M   'P 1'
_cell_length_a   9.06060725
_cell_length_b   9.06060705
_cell_length_c   9.11949610
_cell_angle_alpha   128.81463444
_cell_angle_beta   128.81463313
_cell_angle_gamma   74.82586843
_symmetry_Int_Tables_number   1
_chemical_formula_structural   Ca10(AgRh)3
_chemical_formula_sum   'Ca10 Ag3 Rh3'
_cell_volume   443.79765541
_cell_formula_units_Z   1
loop_
 _symmetry_equiv_pos_site_id
 _symmetry_equiv_pos_as_xyz
  1  'x, y, z'
loop_
 _atom_site_type_symbol
 _atom_site_label
 _atom_site_symmetry_multiplicity
 _atom_site_fract_x
 _atom_site_fract_y
 _atom_site_fract_z
 _atom_site_occupancy
  Ca  Ca0  1  0.466934  0.966934  0.165081  1
  Ca  Ca1  1  0.198148  0.698148  0.165081  1
  Ca  Ca2  1  0.518903  0.018903  0.812029  1
  Ca  Ca3  1  0.042384  0.197828  0.511692  1
  Ca  Ca4  1  0.697828  0.542384  0.511692  1
  Ca  Ca5  1  0.969308  0.813864  0.511692  1
  Ca  Ca6  1  0.003287  0.991740  0.995027  1
  Ca  Ca7  1  0.491740  0.503287  0.995027  1
  Ca  Ca8  1  0.793124  0.293124  0.812029  1
  Ca  Ca9  1  0.313864  0.469308  0.511692  1
  Ag  Ag10  1  0.874310  0.374310  0.248621  1
  Ag  Ag11  1  0.752124  0.752124  0.004248  1
  Ag  Ag12  1  0.252124  0.252124  0.004248  1
  Rh  Rh13  1  0.127079  0.627079  0.754157  1
  Rh  Rh14  1  0.626288  0.872555  0.498843  1
  Rh  Rh15  1  0.372555  0.126288  0.498843  1
