# generated using pymatgen
data_Pr3Y5Np4O24
_symmetry_space_group_name_H-M   'P 1'
_cell_length_a   5.65814500
_cell_length_b   7.97304138
_cell_length_c   11.93187585
_cell_angle_alpha   74.43756995
_cell_angle_beta   90.00000000
_cell_angle_gamma   90.00000000
_symmetry_Int_Tables_number   1
_chemical_formula_structural   Pr3Y5Np4O24
_chemical_formula_sum   'Pr3 Y5 Np4 O24'
_cell_volume   518.54424941
_cell_formula_units_Z   1
loop_
 _symmetry_equiv_pos_site_id
 _symmetry_equiv_pos_as_xyz
  1  'x, y, z'
loop_
 _atom_site_type_symbol
 _atom_site_label
 _atom_site_symmetry_multiplicity
 _atom_site_fract_x
 _atom_site_fract_y
 _atom_site_fract_z
 _atom_site_occupancy
  Pr  Pr0  1  0.252491  0.000000  0.750000  1
  Pr  Pr1  1  0.308703  0.500000  0.750000  1
  Pr  Pr2  1  0.693422  0.500000  0.250000  1
  Y  Y3  1  0.183942  0.791619  0.080744  1
  Y  Y4  1  0.746265  0.000000  0.250000  1
  Y  Y5  1  0.183942  0.208381  0.419256  1
  Y  Y6  1  0.813099  0.206329  0.922105  1
  Y  Y7  1  0.813099  0.793671  0.577895  1
  Np  Np8  1  0.744998  0.722799  0.887369  1
  Np  Np9  1  0.255965  0.730209  0.384011  1
  Np  Np10  1  0.744998  0.277201  0.612631  1
  Np  Np11  1  0.255965  0.269791  0.115989  1
  O  O12  1  0.874861  0.368805  0.447751  1
  O  O13  1  0.446529  0.837439  0.936224  1
  O  O14  1  0.874861  0.631195  0.052249  1
  O  O15  1  0.028246  0.285363  0.730296  1
  O  O16  1  0.969968  0.279961  0.232391  1
  O  O17  1  0.129457  0.359861  0.949805  1
  O  O18  1  0.627273  0.483408  0.887061  1
  O  O19  1  0.556460  0.152743  0.069209  1
  O  O20  1  0.129457  0.640139  0.550195  1
  O  O21  1  0.028246  0.714637  0.769704  1
  O  O22  1  0.448892  0.196468  0.274638  1
  O  O23  1  0.047010  0.948986  0.394521  1
  O  O24  1  0.446529  0.162561  0.563776  1
  O  O25  1  0.969968  0.720039  0.267609  1
  O  O26  1  0.944726  0.055864  0.599861  1
  O  O27  1  0.557694  0.203544  0.772883  1
  O  O28  1  0.557694  0.796456  0.727117  1
  O  O29  1  0.047010  0.051014  0.105479  1
  O  O30  1  0.627273  0.516592  0.612939  1
  O  O31  1  0.370439  0.510036  0.116381  1
  O  O32  1  0.448892  0.803532  0.225362  1
  O  O33  1  0.370439  0.489964  0.383619  1
  O  O34  1  0.556460  0.847257  0.430791  1
  O  O35  1  0.944726  0.944136  0.900139  1
