# generated using pymatgen
data_Sm2Mg3Pa2ZnRh4
_symmetry_space_group_name_H-M   'P 1'
_cell_length_a   3.88487000
_cell_length_b   7.30911901
_cell_length_c   8.84328923
_cell_angle_alpha   93.41780256
_cell_angle_beta   90.00000000
_cell_angle_gamma   90.00000000
_symmetry_Int_Tables_number   1
_chemical_formula_structural   Sm2Mg3Pa2ZnRh4
_chemical_formula_sum   'Sm2 Mg3 Pa2 Zn1 Rh4'
_cell_volume   250.65836856
_cell_formula_units_Z   1
loop_
 _symmetry_equiv_pos_site_id
 _symmetry_equiv_pos_as_xyz
  1  'x, y, z'
loop_
 _atom_site_type_symbol
 _atom_site_label
 _atom_site_symmetry_multiplicity
 _atom_site_fract_x
 _atom_site_fract_y
 _atom_site_fract_z
 _atom_site_occupancy
  Sm  Sm0  1  0.250000  0.054908  0.326516  1
  Sm  Sm1  1  0.750000  0.957338  0.676486  1
  Mg  Mg2  1  0.250000  0.132310  0.941021  1
  Mg  Mg3  1  0.750000  0.866414  0.059597  1
  Mg  Mg4  1  0.250000  0.627861  0.551473  1
  Pa  Pa5  1  0.250000  0.535801  0.192138  1
  Pa  Pa6  1  0.750000  0.459732  0.810298  1
  Zn  Zn7  1  0.750000  0.366308  0.444426  1
  Rh  Rh8  1  0.750000  0.735052  0.346138  1
  Rh  Rh9  1  0.250000  0.266770  0.651144  1
  Rh  Rh10  1  0.750000  0.287911  0.127041  1
  Rh  Rh11  1  0.250000  0.709594  0.873720  1
