# generated using pymatgen
data_CaSmMg(Si3Pd10)2
_symmetry_space_group_name_H-M   'P 1'
_cell_length_a   8.70248381
_cell_length_b   8.70248372
_cell_length_c   8.70248400
_cell_angle_alpha   59.99999895
_cell_angle_beta   59.99999928
_cell_angle_gamma   59.99999699
_symmetry_Int_Tables_number   1
_chemical_formula_structural   CaSmMg(Si3Pd10)2
_chemical_formula_sum   'Ca1 Sm1 Mg1 Si6 Pd20'
_cell_volume   466.03084654
_cell_formula_units_Z   1
loop_
 _symmetry_equiv_pos_site_id
 _symmetry_equiv_pos_as_xyz
  1  'x, y, z'
loop_
 _atom_site_type_symbol
 _atom_site_label
 _atom_site_symmetry_multiplicity
 _atom_site_fract_x
 _atom_site_fract_y
 _atom_site_fract_z
 _atom_site_occupancy
  Ca  Ca0  1  0.250000  0.250000  0.250000  1
  Sm  Sm1  1  0.750000  0.750000  0.750000  1
  Mg  Mg2  1  0.000000  0.000000  0.000000  1
  Si  Si3  1  0.733314  0.266686  0.266686  1
  Si  Si4  1  0.266686  0.733314  0.733314  1
  Si  Si5  1  0.266686  0.733314  0.266686  1
  Si  Si6  1  0.733314  0.266686  0.733314  1
  Si  Si7  1  0.266686  0.266686  0.733314  1
  Si  Si8  1  0.733314  0.733314  0.266686  1
  Pd  Pd9  1  0.384681  0.384681  0.384681  1
  Pd  Pd10  1  0.615483  0.615483  0.615483  1
  Pd  Pd11  1  0.384681  0.384681  0.845957  1
  Pd  Pd12  1  0.384681  0.845957  0.384681  1
  Pd  Pd13  1  0.615483  0.615483  0.153551  1
  Pd  Pd14  1  0.615483  0.153551  0.615483  1
  Pd  Pd15  1  0.845957  0.384681  0.384681  1
  Pd  Pd16  1  0.153551  0.615483  0.615483  1
  Pd  Pd17  1  0.343823  0.999529  0.999529  1
  Pd  Pd18  1  0.657118  0.999529  0.999529  1
  Pd  Pd19  1  0.999529  0.343823  0.657118  1
  Pd  Pd20  1  0.999529  0.657118  0.343823  1
  Pd  Pd21  1  0.999529  0.343823  0.999529  1
  Pd  Pd22  1  0.657118  0.999529  0.343823  1
  Pd  Pd23  1  0.999529  0.657118  0.999529  1
  Pd  Pd24  1  0.343823  0.999529  0.657118  1
  Pd  Pd25  1  0.999529  0.999529  0.343823  1
  Pd  Pd26  1  0.999529  0.999529  0.657118  1
  Pd  Pd27  1  0.657118  0.343823  0.999529  1
  Pd  Pd28  1  0.343823  0.657118  0.999529  1
