# generated using pymatgen
data_Sr2TiMo(PO4)4
_symmetry_space_group_name_H-M   'P 1'
_cell_length_a   5.27253814
_cell_length_b   8.30618851
_cell_length_c   8.82448845
_cell_angle_alpha   115.60826281
_cell_angle_beta   107.25004702
_cell_angle_gamma   89.69349504
_symmetry_Int_Tables_number   1
_chemical_formula_structural   Sr2TiMo(PO4)4
_chemical_formula_sum   'Sr2 Ti1 Mo1 P4 O16'
_cell_volume   329.42548697
_cell_formula_units_Z   1
loop_
 _symmetry_equiv_pos_site_id
 _symmetry_equiv_pos_as_xyz
  1  'x, y, z'
loop_
 _atom_site_type_symbol
 _atom_site_label
 _atom_site_symmetry_multiplicity
 _atom_site_fract_x
 _atom_site_fract_y
 _atom_site_fract_z
 _atom_site_occupancy
  Sr  Sr0  1  0.822453  0.250635  0.002136  1
  Sr  Sr1  1  0.177547  0.749365  0.997865  1
  Ti  Ti2  1  0.999999  0.500000  0.500000  1
  Mo  Mo3  1  0.500000  0.000000  0.500000  1
  P  P4  1  0.876920  0.748006  0.278945  1
  P  P5  1  0.405375  0.257891  0.284056  1
  P  P6  1  0.123079  0.251994  0.721055  1
  P  P7  1  0.594625  0.742109  0.715944  1
  O  O8  1  0.827177  0.594540  0.094064  1
  O  O9  1  0.268910  0.106154  0.098552  1
  O  O10  1  0.615773  0.841079  0.283239  1
  O  O11  1  0.666809  0.354271  0.292032  1
  O  O12  1  0.108843  0.890985  0.318440  1
  O  O13  1  0.203501  0.396752  0.330799  1
  O  O14  1  0.945167  0.687674  0.428453  1
  O  O15  1  0.493019  0.199411  0.433807  1
  O  O16  1  0.506981  0.800589  0.566193  1
  O  O17  1  0.054833  0.312326  0.571548  1
  O  O18  1  0.796498  0.603247  0.669201  1
  O  O19  1  0.891157  0.109015  0.681560  1
  O  O20  1  0.333190  0.645729  0.707968  1
  O  O21  1  0.384226  0.158922  0.716762  1
  O  O22  1  0.731090  0.893846  0.901449  1
  O  O23  1  0.172821  0.405459  0.905935  1
