# generated using pymatgen
data_Ca20In3(AgHg2)3
_symmetry_space_group_name_H-M   'P 1'
_cell_length_a   8.27804401
_cell_length_b   8.27809849
_cell_length_c   14.64747000
_cell_angle_alpha   89.99665698
_cell_angle_beta   89.99721759
_cell_angle_gamma   90.40565086
_symmetry_Int_Tables_number   1
_chemical_formula_structural   Ca20In3(AgHg2)3
_chemical_formula_sum   'Ca20 In3 Ag3 Hg6'
_cell_volume   1003.71416020
_cell_formula_units_Z   1
loop_
 _symmetry_equiv_pos_site_id
 _symmetry_equiv_pos_as_xyz
  1  'x, y, z'
loop_
 _atom_site_type_symbol
 _atom_site_label
 _atom_site_symmetry_multiplicity
 _atom_site_fract_x
 _atom_site_fract_y
 _atom_site_fract_z
 _atom_site_occupancy
  Ca  Ca0  1  0.668926  0.164412  0.103992  1
  Ca  Ca1  1  0.165002  0.663515  0.602843  1
  Ca  Ca2  1  0.332222  0.836699  0.103731  1
  Ca  Ca3  1  0.832677  0.334212  0.604395  1
  Ca  Ca4  1  0.839770  0.664461  0.103768  1
  Ca  Ca5  1  0.338379  0.165153  0.602834  1
  Ca  Ca6  1  0.159733  0.335157  0.103771  1
  Ca  Ca7  1  0.663691  0.836976  0.602831  1
  Ca  Ca8  1  0.836134  0.331801  0.896934  1
  Ca  Ca9  1  0.334876  0.833331  0.394886  1
  Ca  Ca10  1  0.161465  0.666034  0.898438  1
  Ca  Ca11  1  0.666336  0.167835  0.394631  1
  Ca  Ca12  1  0.666453  0.840668  0.898474  1
  Ca  Ca13  1  0.163431  0.337528  0.394850  1
  Ca  Ca14  1  0.335698  0.161661  0.898620  1
  Ca  Ca15  1  0.836149  0.662001  0.394806  1
  Ca  Ca16  1  0.501299  0.498224  0.753186  1
  Ca  Ca17  1  0.000462  0.000331  0.251525  1
  Ca  Ca18  1  0.998297  0.001040  0.748443  1
  Ca  Ca19  1  0.500456  0.500455  0.246913  1
  In  In20  1  0.499556  0.499392  0.499386  1
  In  In21  1  0.499618  0.499275  0.000611  1
  In  In22  1  0.999045  0.999537  0.499179  1
  Ag  Ag23  1  0.630985  0.130815  0.751161  1
  Ag  Ag24  1  0.128391  0.628278  0.248822  1
  Ag  Ag25  1  0.872265  0.372335  0.248824  1
  Hg  Hg26  1  0.368089  0.867962  0.751427  1
  Hg  Hg27  1  0.865318  0.634985  0.751289  1
  Hg  Hg28  1  0.365782  0.134752  0.248714  1
  Hg  Hg29  1  0.135595  0.366079  0.751229  1
  Hg  Hg30  1  0.634412  0.865551  0.248684  1
  Hg  Hg31  1  0.999490  0.999546  0.000807  1
