# generated using pymatgen
data_SmU(Al3Ir)3
_symmetry_space_group_name_H-M   'P 1'
_cell_length_a   7.59944800
_cell_length_b   7.58719050
_cell_length_c   9.43680000
_cell_angle_alpha   90.00000000
_cell_angle_beta   90.00000000
_cell_angle_gamma   119.58095508
_symmetry_Int_Tables_number   1
_chemical_formula_structural   SmU(Al3Ir)3
_chemical_formula_sum   'Sm2 U2 Al18 Ir6'
_cell_volume   473.19137010
_cell_formula_units_Z   2
loop_
 _symmetry_equiv_pos_site_id
 _symmetry_equiv_pos_as_xyz
  1  'x, y, z'
loop_
 _atom_site_type_symbol
 _atom_site_label
 _atom_site_symmetry_multiplicity
 _atom_site_fract_x
 _atom_site_fract_y
 _atom_site_fract_z
 _atom_site_occupancy
  Sm  Sm0  1  0.670607  0.995470  0.250000  1
  Sm  Sm1  1  0.329393  0.004530  0.750000  1
  U  U2  1  0.995204  0.669131  0.250000  1
  U  U3  1  0.004796  0.330869  0.750000  1
  Al  Al4  1  0.129325  0.128298  0.250000  1
  Al  Al5  1  0.870675  0.871702  0.750000  1
  Al  Al6  1  0.001608  0.334566  0.073953  1
  Al  Al7  1  0.998392  0.665434  0.926047  1
  Al  Al8  1  0.998392  0.665434  0.573953  1
  Al  Al9  1  0.335956  0.002298  0.424405  1
  Al  Al10  1  0.001608  0.334566  0.426047  1
  Al  Al11  1  0.664044  0.997702  0.575595  1
  Al  Al12  1  0.664044  0.997702  0.924405  1
  Al  Al13  1  0.335956  0.002298  0.075595  1
  Al  Al14  1  0.334656  0.334158  0.553440  1
  Al  Al15  1  0.665344  0.665842  0.446560  1
  Al  Al16  1  0.665344  0.665842  0.053440  1
  Al  Al17  1  0.334656  0.334158  0.946560  1
  Al  Al18  1  0.338508  0.547120  0.250000  1
  Al  Al19  1  0.661492  0.452880  0.750000  1
  Al  Al20  1  0.547331  0.340871  0.250000  1
  Al  Al21  1  0.452669  0.659129  0.750000  1
  Ir  Ir22  1  0.673080  0.329047  0.999794  1
  Ir  Ir23  1  0.326920  0.670953  0.000206  1
  Ir  Ir24  1  0.326920  0.670953  0.499794  1
  Ir  Ir25  1  0.673080  0.329047  0.500206  1
  Ir  Ir26  1  0.000000  0.000000  0.000000  1
  Ir  Ir27  1  0.000000  0.000000  0.500000  1
