# generated using pymatgen
data_CaLaAl3O7
_symmetry_space_group_name_H-M   'P 1'
_cell_length_a   7.86708700
_cell_length_b   5.20555728
_cell_length_c   7.86791043
_cell_angle_alpha   90.58088928
_cell_angle_beta   90.00000000
_cell_angle_gamma   90.00000000
_symmetry_Int_Tables_number   1
_chemical_formula_structural   CaLaAl3O7
_chemical_formula_sum   'Ca2 La2 Al6 O14'
_cell_volume   322.19460919
_cell_formula_units_Z   2
loop_
 _symmetry_equiv_pos_site_id
 _symmetry_equiv_pos_as_xyz
  1  'x, y, z'
loop_
 _atom_site_type_symbol
 _atom_site_label
 _atom_site_symmetry_multiplicity
 _atom_site_fract_x
 _atom_site_fract_y
 _atom_site_fract_z
 _atom_site_occupancy
  Ca  Ca0  1  0.163565  0.516460  0.422162  1
  Ca  Ca1  1  0.663565  0.483540  0.577838  1
  La  La2  1  0.841271  0.510890  0.094257  1
  La  La3  1  0.341271  0.489110  0.905743  1
  Al  Al4  1  0.357039  0.960374  0.602624  1
  Al  Al5  1  0.857039  0.039626  0.397376  1
  Al  Al6  1  0.644048  0.959731  0.889733  1
  Al  Al7  1  0.144048  0.040269  0.110267  1
  Al  Al8  1  0.500004  0.999023  0.247365  1
  Al  Al9  1  0.000004  0.000977  0.752635  1
  O  O10  1  0.356241  0.296679  0.615790  1
  O  O11  1  0.856241  0.703321  0.384210  1
  O  O12  1  0.637615  0.295574  0.898688  1
  O  O13  1  0.137615  0.704426  0.101312  1
  O  O14  1  0.007447  0.183887  0.260260  1
  O  O15  1  0.507447  0.816113  0.739740  1
  O  O16  1  0.401268  0.812203  0.404715  1
  O  O17  1  0.901268  0.187797  0.595285  1
  O  O18  1  0.583942  0.799941  0.081857  1
  O  O19  1  0.083942  0.200059  0.918143  1
  O  O20  1  0.342508  0.189956  0.149065  1
  O  O21  1  0.842508  0.810044  0.850935  1
  O  O22  1  0.665052  0.193808  0.332142  1
  O  O23  1  0.165052  0.806192  0.667858  1
