# generated using pymatgen
data_Tb3YGa4Ir3Rh
_symmetry_space_group_name_H-M   'P 1'
_cell_length_a   4.36000800
_cell_length_b   6.86664927
_cell_length_c   7.76730960
_cell_angle_alpha   90.18978243
_cell_angle_beta   90.00000000
_cell_angle_gamma   90.00000000
_symmetry_Int_Tables_number   1
_chemical_formula_structural   Tb3YGa4Ir3Rh
_chemical_formula_sum   'Tb3 Y1 Ga4 Ir3 Rh1'
_cell_volume   232.54145489
_cell_formula_units_Z   1
loop_
 _symmetry_equiv_pos_site_id
 _symmetry_equiv_pos_as_xyz
  1  'x, y, z'
loop_
 _atom_site_type_symbol
 _atom_site_label
 _atom_site_symmetry_multiplicity
 _atom_site_fract_x
 _atom_site_fract_y
 _atom_site_fract_z
 _atom_site_occupancy
  Tb  Tb0  1  0.250000  0.974866  0.309230  1
  Tb  Tb1  1  0.250000  0.478790  0.189138  1
  Tb  Tb2  1  0.750000  0.021144  0.692080  1
  Y  Y3  1  0.750000  0.522742  0.809044  1
  Ga  Ga4  1  0.250000  0.340906  0.571076  1
  Ga  Ga5  1  0.250000  0.840884  0.927371  1
  Ga  Ga6  1  0.750000  0.658944  0.428564  1
  Ga  Ga7  1  0.750000  0.160034  0.071143  1
  Ir  Ir8  1  0.250000  0.229140  0.892906  1
  Ir  Ir9  1  0.250000  0.727976  0.605665  1
  Ir  Ir10  1  0.750000  0.772842  0.108111  1
  Rh  Rh11  1  0.750000  0.271733  0.395671  1
