# generated using pymatgen
data_Tb5CeAl18
_symmetry_space_group_name_H-M   'P 1'
_cell_length_a   14.52950659
_cell_length_b   14.52950627
_cell_length_c   14.52950686
_cell_angle_alpha   24.65466933
_cell_angle_beta   24.65467227
_cell_angle_gamma   24.65466998
_symmetry_Int_Tables_number   1
_chemical_formula_structural   Tb5CeAl18
_chemical_formula_sum   'Tb5 Ce1 Al18'
_cell_volume   469.36393715
_cell_formula_units_Z   1
loop_
 _symmetry_equiv_pos_site_id
 _symmetry_equiv_pos_as_xyz
  1  'x, y, z'
loop_
 _atom_site_type_symbol
 _atom_site_label
 _atom_site_symmetry_multiplicity
 _atom_site_fract_x
 _atom_site_fract_y
 _atom_site_fract_z
 _atom_site_occupancy
  Tb  Tb0  1  0.999938  0.999938  0.999938  1
  Tb  Tb1  1  0.499758  0.499758  0.499758  1
  Tb  Tb2  1  0.108904  0.108904  0.108904  1
  Tb  Tb3  1  0.891187  0.891187  0.891187  1
  Tb  Tb4  1  0.391303  0.391303  0.391303  1
  Ce  Ce5  1  0.608697  0.608697  0.608697  1
  Al  Al6  1  0.925039  0.369343  0.369343  1
  Al  Al7  1  0.427203  0.869299  0.869299  1
  Al  Al8  1  0.369343  0.369343  0.925039  1
  Al  Al9  1  0.869299  0.869299  0.427203  1
  Al  Al10  1  0.369343  0.925039  0.369343  1
  Al  Al11  1  0.869299  0.427203  0.869299  1
  Al  Al12  1  0.574649  0.130361  0.130361  1
  Al  Al13  1  0.073555  0.630765  0.630765  1
  Al  Al14  1  0.130361  0.130361  0.574649  1
  Al  Al15  1  0.630765  0.630765  0.073555  1
  Al  Al16  1  0.130361  0.574649  0.130361  1
  Al  Al17  1  0.630765  0.073555  0.630765  1
  Al  Al18  1  0.501409  0.501409  0.997951  1
  Al  Al19  1  0.999370  0.999370  0.500725  1
  Al  Al20  1  0.501409  0.997951  0.501409  1
  Al  Al21  1  0.999370  0.500725  0.999370  1
  Al  Al22  1  0.997951  0.501409  0.501409  1
  Al  Al23  1  0.500725  0.999370  0.999370  1
