# generated using pymatgen
data_Dy16MgCo4Ag3
_symmetry_space_group_name_H-M   'P 1'
_cell_length_a   9.43821835
_cell_length_b   9.44381729
_cell_length_c   9.44381700
_cell_angle_alpha   60.00000451
_cell_angle_beta   59.98037903
_cell_angle_gamma   59.98038019
_symmetry_Int_Tables_number   1
_chemical_formula_structural   Dy16MgCo4Ag3
_chemical_formula_sum   'Dy16 Mg1 Co4 Ag3'
_cell_volume   595.03336366
_cell_formula_units_Z   1
loop_
 _symmetry_equiv_pos_site_id
 _symmetry_equiv_pos_as_xyz
  1  'x, y, z'
loop_
 _atom_site_type_symbol
 _atom_site_label
 _atom_site_symmetry_multiplicity
 _atom_site_fract_x
 _atom_site_fract_y
 _atom_site_fract_z
 _atom_site_occupancy
  Dy  Dy0  1  0.811037  0.188023  0.188023  1
  Dy  Dy1  1  0.185421  0.814127  0.814127  1
  Dy  Dy2  1  0.185421  0.814127  0.186326  1
  Dy  Dy3  1  0.811037  0.188023  0.812917  1
  Dy  Dy4  1  0.185421  0.186326  0.814127  1
  Dy  Dy5  1  0.811037  0.812917  0.188023  1
  Dy  Dy6  1  0.935238  0.563326  0.563326  1
  Dy  Dy7  1  0.561584  0.937043  0.937043  1
  Dy  Dy8  1  0.561584  0.937043  0.564330  1
  Dy  Dy9  1  0.935238  0.563326  0.938110  1
  Dy  Dy10  1  0.561584  0.564330  0.937043  1
  Dy  Dy11  1  0.935238  0.938110  0.563326  1
  Dy  Dy12  1  0.346960  0.346606  0.346606  1
  Dy  Dy13  1  0.346960  0.346606  0.959827  1
  Dy  Dy14  1  0.346960  0.959827  0.346606  1
  Dy  Dy15  1  0.947783  0.350739  0.350739  1
  Mg  Mg16  1  0.288122  0.570626  0.570626  1
  Co  Co17  1  0.139522  0.141974  0.141974  1
  Co  Co18  1  0.139522  0.141974  0.576529  1
  Co  Co19  1  0.139522  0.576529  0.141974  1
  Co  Co20  1  0.574545  0.141818  0.141818  1
  Ag  Ag21  1  0.583420  0.583516  0.583516  1
  Ag  Ag22  1  0.583420  0.583516  0.249547  1
  Ag  Ag23  1  0.583420  0.249547  0.583516  1
