# generated using pymatgen
data_TbTm11(ThSn2)8
_symmetry_space_group_name_H-M   'P 1'
_cell_length_a   8.09323141
_cell_length_b   8.18392140
_cell_length_c   15.43882211
_cell_angle_alpha   89.99185752
_cell_angle_beta   89.98926076
_cell_angle_gamma   89.96498271
_symmetry_Int_Tables_number   1
_chemical_formula_structural   TbTm11(ThSn2)8
_chemical_formula_sum   'Tb1 Tm11 Th8 Sn16'
_cell_volume   1022.58043316
_cell_formula_units_Z   1
loop_
 _symmetry_equiv_pos_site_id
 _symmetry_equiv_pos_as_xyz
  1  'x, y, z'
loop_
 _atom_site_type_symbol
 _atom_site_label
 _atom_site_symmetry_multiplicity
 _atom_site_fract_x
 _atom_site_fract_y
 _atom_site_fract_z
 _atom_site_occupancy
  Tb  Tb0  1  0.359609  0.836915  0.876306  1
  Tm  Tm1  1  0.859286  0.662066  0.623979  1
  Tm  Tm2  1  0.640800  0.162245  0.375510  1
  Tm  Tm3  1  0.140604  0.337694  0.125327  1
  Tm  Tm4  1  0.641013  0.162177  0.124483  1
  Tm  Tm5  1  0.140898  0.337726  0.375468  1
  Tm  Tm6  1  0.358812  0.837940  0.624167  1
  Tm  Tm7  1  0.858706  0.662658  0.875300  1
  Tm  Tm8  1  0.188427  0.498694  0.749617  1
  Tm  Tm9  1  0.689075  0.001593  0.749601  1
  Tm  Tm10  1  0.810993  0.501318  0.250058  1
  Tm  Tm11  1  0.311179  0.998784  0.250401  1
  Th  Th12  1  0.517983  0.321757  0.904447  1
  Th  Th13  1  0.017464  0.178768  0.595312  1
  Th  Th14  1  0.481998  0.678251  0.404369  1
  Th  Th15  1  0.982572  0.821618  0.095688  1
  Th  Th16  1  0.482043  0.677836  0.096244  1
  Th  Th17  1  0.982101  0.821730  0.404344  1
  Th  Th18  1  0.518373  0.321793  0.595132  1
  Th  Th19  1  0.018060  0.178698  0.904371  1
  Sn  Sn20  1  0.300852  0.042076  0.043760  1
  Sn  Sn21  1  0.801074  0.458996  0.457331  1
  Sn  Sn22  1  0.698872  0.958727  0.542177  1
  Sn  Sn23  1  0.197208  0.538356  0.958169  1
  Sn  Sn24  1  0.701450  0.959783  0.958041  1
  Sn  Sn25  1  0.199201  0.540938  0.542239  1
  Sn  Sn26  1  0.300781  0.041080  0.457565  1
  Sn  Sn27  1  0.801285  0.459105  0.042537  1
  Sn  Sn28  1  0.555447  0.622728  0.748861  1
  Sn  Sn29  1  0.054056  0.876638  0.749141  1
  Sn  Sn30  1  0.445196  0.376032  0.250207  1
  Sn  Sn31  1  0.944983  0.123749  0.250338  1
  Sn  Sn32  1  0.324664  0.144733  0.749328  1
  Sn  Sn33  1  0.824636  0.356481  0.749911  1
  Sn  Sn34  1  0.675151  0.856509  0.250134  1
  Sn  Sn35  1  0.175148  0.643807  0.250137  1
