# generated using pymatgen
data_DyZr(NiP)2
_symmetry_space_group_name_H-M   'P 1'
_cell_length_a   3.85731300
_cell_length_b   3.85731271
_cell_length_c   14.71908400
_cell_angle_alpha   90.00000000
_cell_angle_beta   90.00000000
_cell_angle_gamma   119.99999393
_symmetry_Int_Tables_number   1
_chemical_formula_structural   DyZr(NiP)2
_chemical_formula_sum   'Dy2 Zr2 Ni4 P4'
_cell_volume   189.66236908
_cell_formula_units_Z   2
loop_
 _symmetry_equiv_pos_site_id
 _symmetry_equiv_pos_as_xyz
  1  'x, y, z'
loop_
 _atom_site_type_symbol
 _atom_site_label
 _atom_site_symmetry_multiplicity
 _atom_site_fract_x
 _atom_site_fract_y
 _atom_site_fract_z
 _atom_site_occupancy
  Dy  Dy0  1  0.000000  0.000000  0.500000  1
  Dy  Dy1  1  0.000000  0.000000  0.000000  1
  Zr  Zr2  1  0.000000  0.000000  0.250000  1
  Zr  Zr3  1  0.000000  0.000000  0.750000  1
  Ni  Ni4  1  0.333333  0.666667  0.354765  1
  Ni  Ni5  1  0.666667  0.333333  0.645235  1
  Ni  Ni6  1  0.666667  0.333333  0.854765  1
  Ni  Ni7  1  0.333333  0.666667  0.145235  1
  P  P8  1  0.333333  0.666667  0.874510  1
  P  P9  1  0.666667  0.333333  0.125490  1
  P  P10  1  0.666667  0.333333  0.374510  1
  P  P11  1  0.333333  0.666667  0.625490  1
