# generated using pymatgen
data_Hf6MnGa6IrPd4
_symmetry_space_group_name_H-M   'P 1'
_cell_length_a   7.31900300
_cell_length_b   7.31899013
_cell_length_c   6.59930500
_cell_angle_alpha   89.99999884
_cell_angle_beta   90.00003302
_cell_angle_gamma   119.99991991
_symmetry_Int_Tables_number   1
_chemical_formula_structural   Hf6MnGa6IrPd4
_chemical_formula_sum   'Hf6 Mn1 Ga6 Ir1 Pd4'
_cell_volume   306.14859424
_cell_formula_units_Z   1
loop_
 _symmetry_equiv_pos_site_id
 _symmetry_equiv_pos_as_xyz
  1  'x, y, z'
loop_
 _atom_site_type_symbol
 _atom_site_label
 _atom_site_symmetry_multiplicity
 _atom_site_fract_x
 _atom_site_fract_y
 _atom_site_fract_z
 _atom_site_occupancy
  Hf  Hf0  1  0.737717  0.053761  0.996060  1
  Hf  Hf1  1  0.316044  0.262282  0.996060  1
  Hf  Hf2  1  0.946237  0.683955  0.996060  1
  Hf  Hf3  1  0.318196  0.262768  0.503964  1
  Hf  Hf4  1  0.737232  0.055428  0.503964  1
  Hf  Hf5  1  0.944574  0.681805  0.503963  1
  Mn  Mn6  1  0.000002  0.000001  0.749192  1
  Ga  Ga7  1  0.612136  0.669701  0.749915  1
  Ga  Ga8  1  0.057567  0.387866  0.749915  1
  Ga  Ga9  1  0.330299  0.942434  0.749916  1
  Ga  Ga10  1  0.600644  0.658279  0.250074  1
  Ga  Ga11  1  0.057634  0.399355  0.250075  1
  Ga  Ga12  1  0.341720  0.942365  0.250074  1
  Ir  Ir13  1  0.000000  0.000000  0.250910  1
  Pd  Pd14  1  0.333333  0.666666  0.997131  1
  Pd  Pd15  1  0.333333  0.666667  0.502864  1
  Pd  Pd16  1  0.666667  0.333333  0.752608  1
  Pd  Pd17  1  0.666666  0.333333  0.247255  1
