# generated using pymatgen
data_ErTh4ZrRh10
_symmetry_space_group_name_H-M   'P 1'
_cell_length_a   5.93881015
_cell_length_b   5.93881086
_cell_length_c   9.02698200
_cell_angle_alpha   90.00000000
_cell_angle_beta   90.00000000
_cell_angle_gamma   103.42973963
_symmetry_Int_Tables_number   1
_chemical_formula_structural   ErTh4ZrRh10
_chemical_formula_sum   'Er1 Th4 Zr1 Rh10'
_cell_volume   309.67100265
_cell_formula_units_Z   1
loop_
 _symmetry_equiv_pos_site_id
 _symmetry_equiv_pos_as_xyz
  1  'x, y, z'
loop_
 _atom_site_type_symbol
 _atom_site_label
 _atom_site_symmetry_multiplicity
 _atom_site_fract_x
 _atom_site_fract_y
 _atom_site_fract_z
 _atom_site_occupancy
  Er  Er0  1  0.595747  0.595747  0.750000  1
  Th  Th1  1  0.790386  0.205085  0.500561  1
  Th  Th2  1  0.205085  0.790386  0.999439  1
  Th  Th3  1  0.205085  0.790386  0.500561  1
  Th  Th4  1  0.790386  0.205085  0.999439  1
  Zr  Zr5  1  0.406335  0.406335  0.250000  1
  Rh  Rh6  1  0.693694  0.693694  0.054981  1
  Rh  Rh7  1  0.693694  0.693694  0.445019  1
  Rh  Rh8  1  0.294470  0.294470  0.967482  1
  Rh  Rh9  1  0.294470  0.294470  0.532518  1
  Rh  Rh10  1  0.494448  0.043429  0.750000  1
  Rh  Rh11  1  0.503655  0.979052  0.250000  1
  Rh  Rh12  1  0.011218  0.011218  0.250000  1
  Rh  Rh13  1  0.998846  0.998846  0.750000  1
  Rh  Rh14  1  0.043429  0.494448  0.750000  1
  Rh  Rh15  1  0.979052  0.503655  0.250000  1
