# generated using pymatgen
data_Na2ThBr6
_symmetry_space_group_name_H-M   'P 1'
_cell_length_a   12.97625300
_cell_length_b   12.97625161
_cell_length_c   6.74442800
_cell_angle_alpha   90.00000000
_cell_angle_beta   90.00000000
_cell_angle_gamma   119.99999591
_symmetry_Int_Tables_number   1
_chemical_formula_structural   Na2ThBr6
_chemical_formula_sum   'Na6 Th3 Br18'
_cell_volume   983.49993281
_cell_formula_units_Z   3
loop_
 _symmetry_equiv_pos_site_id
 _symmetry_equiv_pos_as_xyz
  1  'x, y, z'
loop_
 _atom_site_type_symbol
 _atom_site_label
 _atom_site_symmetry_multiplicity
 _atom_site_fract_x
 _atom_site_fract_y
 _atom_site_fract_z
 _atom_site_occupancy
  Na  Na0  1  0.660897  0.000000  0.000000  1
  Na  Na1  1  0.339103  0.000000  0.000000  1
  Na  Na2  1  0.000000  0.660897  0.000000  1
  Na  Na3  1  0.660897  0.660897  0.000000  1
  Na  Na4  1  0.339103  0.339103  0.000000  1
  Na  Na5  1  0.000000  0.339103  0.000000  1
  Th  Th6  1  0.666667  0.333333  0.504628  1
  Th  Th7  1  0.333333  0.666667  0.495372  1
  Th  Th8  1  0.000000  0.000000  0.000000  1
  Br  Br9  1  0.562591  0.125183  0.751905  1
  Br  Br10  1  0.771101  0.228899  0.265437  1
  Br  Br11  1  0.786090  0.893045  0.230406  1
  Br  Br12  1  0.437409  0.562591  0.248095  1
  Br  Br13  1  0.771101  0.542202  0.265437  1
  Br  Br14  1  0.106955  0.213910  0.230406  1
  Br  Br15  1  0.228899  0.771101  0.734563  1
  Br  Br16  1  0.562591  0.437409  0.751905  1
  Br  Br17  1  0.228899  0.457798  0.734563  1
  Br  Br18  1  0.125183  0.562591  0.248095  1
  Br  Br19  1  0.213910  0.106955  0.769594  1
  Br  Br20  1  0.106955  0.893045  0.230406  1
  Br  Br21  1  0.542202  0.771101  0.734563  1
  Br  Br22  1  0.437409  0.874817  0.248095  1
  Br  Br23  1  0.893045  0.106955  0.769594  1
  Br  Br24  1  0.874817  0.437409  0.751905  1
  Br  Br25  1  0.457798  0.228899  0.265437  1
  Br  Br26  1  0.893045  0.786090  0.769594  1
