# generated using pymatgen
data_Nd10Ga4SnBi
_symmetry_space_group_name_H-M   'P 1'
_cell_length_a   9.06942128
_cell_length_b   9.06942189
_cell_length_c   9.06942072
_cell_angle_alpha   125.66469948
_cell_angle_beta   125.66470979
_cell_angle_gamma   80.43992711
_symmetry_Int_Tables_number   1
_chemical_formula_structural   Nd10Ga4SnBi
_chemical_formula_sum   'Nd10 Ga4 Sn1 Bi1'
_cell_volume   475.01980527
_cell_formula_units_Z   1
loop_
 _symmetry_equiv_pos_site_id
 _symmetry_equiv_pos_as_xyz
  1  'x, y, z'
loop_
 _atom_site_type_symbol
 _atom_site_label
 _atom_site_symmetry_multiplicity
 _atom_site_fract_x
 _atom_site_fract_y
 _atom_site_fract_z
 _atom_site_occupancy
  Nd  Nd0  1  0.514198  0.514198  0.000000  1
  Nd  Nd1  1  0.985802  0.985802  0.000000  1
  Nd  Nd2  1  0.521572  0.019867  0.827023  1
  Nd  Nd3  1  0.192842  0.694547  0.172977  1
  Nd  Nd4  1  0.019867  0.192842  0.498294  1
  Nd  Nd5  1  0.694547  0.521572  0.501706  1
  Nd  Nd6  1  0.480133  0.978428  0.172977  1
  Nd  Nd7  1  0.805453  0.307158  0.827023  1
  Nd  Nd8  1  0.978428  0.805453  0.498294  1
  Nd  Nd9  1  0.307158  0.480133  0.501706  1
  Ga  Ga10  1  0.867763  0.367763  0.235524  1
  Ga  Ga11  1  0.132237  0.632237  0.764476  1
  Ga  Ga12  1  0.367763  0.132237  0.500000  1
  Ga  Ga13  1  0.632237  0.867763  0.500000  1
  Sn  Sn14  1  0.750000  0.750000  0.000000  1
  Bi  Bi15  1  0.250000  0.250000  0.000000  1
