# generated using pymatgen
data_Ba2Li2NpSe5
_symmetry_space_group_name_H-M   'P 1'
_cell_length_a   4.28128561
_cell_length_b   7.38250601
_cell_length_c   9.41993500
_cell_angle_alpha   99.64287525
_cell_angle_beta   103.13498586
_cell_angle_gamma   106.85565079
_symmetry_Int_Tables_number   1
_chemical_formula_structural   Ba2Li2NpSe5
_chemical_formula_sum   'Ba2 Li2 Np1 Se5'
_cell_volume   268.64432423
_cell_formula_units_Z   1
loop_
 _symmetry_equiv_pos_site_id
 _symmetry_equiv_pos_as_xyz
  1  'x, y, z'
loop_
 _atom_site_type_symbol
 _atom_site_label
 _atom_site_symmetry_multiplicity
 _atom_site_fract_x
 _atom_site_fract_y
 _atom_site_fract_z
 _atom_site_occupancy
  Ba  Ba0  1  0.452155  0.623132  0.281179  1
  Ba  Ba1  1  0.547845  0.376868  0.718821  1
  Li  Li2  1  0.750839  0.177969  0.323709  1
  Li  Li3  1  0.249161  0.822031  0.676291  1
  Np  Np4  1  0.000000  0.000000  0.000000  1
  Se  Se5  1  0.671722  0.279556  0.063890  1
  Se  Se6  1  0.140556  0.982127  0.298985  1
  Se  Se7  1  0.000001  0.500001  0.500000  1
  Se  Se8  1  0.859444  0.017873  0.701016  1
  Se  Se9  1  0.328279  0.720446  0.936110  1
