# generated using pymatgen
data_NdSm3V4(WO6)4
_symmetry_space_group_name_H-M   'P 1'
_cell_length_a   5.34680952
_cell_length_b   7.52281961
_cell_length_c   11.20426358
_cell_angle_alpha   90.04044619
_cell_angle_beta   90.04518615
_cell_angle_gamma   89.97721477
_symmetry_Int_Tables_number   1
_chemical_formula_structural   NdSm3V4(WO6)4
_chemical_formula_sum   'Nd1 Sm3 V4 W4 O24'
_cell_volume   450.66974172
_cell_formula_units_Z   1
loop_
 _symmetry_equiv_pos_site_id
 _symmetry_equiv_pos_as_xyz
  1  'x, y, z'
loop_
 _atom_site_type_symbol
 _atom_site_label
 _atom_site_symmetry_multiplicity
 _atom_site_fract_x
 _atom_site_fract_y
 _atom_site_fract_z
 _atom_site_occupancy
  Nd  Nd0  1  0.543050  0.253573  0.045727  1
  Sm  Sm1  1  0.045034  0.753475  0.454446  1
  Sm  Sm2  1  0.954921  0.253558  0.545878  1
  Sm  Sm3  1  0.454318  0.753458  0.953664  1
  V  V4  1  0.050469  0.506304  0.134236  1
  V  V5  1  0.550320  0.005413  0.365999  1
  V  V6  1  0.449418  0.506038  0.634365  1
  V  V7  1  0.949479  0.005250  0.865352  1
  W  W8  1  0.055480  0.997270  0.143790  1
  W  W9  1  0.556209  0.499008  0.357200  1
  W  W10  1  0.443755  0.999138  0.643465  1
  W  W11  1  0.944008  0.499519  0.855769  1
  O  O12  1  0.762632  0.543702  0.019093  1
  O  O13  1  0.769110  0.959709  0.029366  1
  O  O14  1  0.169302  0.754855  0.118802  1
  O  O15  1  0.948925  0.245675  0.142531  1
  O  O16  1  0.368073  0.063794  0.209427  1
  O  O17  1  0.384485  0.441841  0.216445  1
  O  O18  1  0.885832  0.940022  0.284903  1
  O  O19  1  0.868192  0.566416  0.291810  1
  O  O20  1  0.443420  0.746204  0.358207  1
  O  O21  1  0.667895  0.255586  0.381537  1
  O  O22  1  0.268257  0.461612  0.471213  1
  O  O23  1  0.260550  0.041956  0.480853  1
  O  O24  1  0.739331  0.541941  0.519616  1
  O  O25  1  0.731630  0.961710  0.529370  1
  O  O26  1  0.332183  0.755933  0.618393  1
  O  O27  1  0.556565  0.246350  0.642736  1
  O  O28  1  0.131174  0.066943  0.708210  1
  O  O29  1  0.112804  0.441467  0.714362  1
  O  O30  1  0.612779  0.941062  0.784917  1
  O  O31  1  0.629827  0.566412  0.791883  1
  O  O32  1  0.056347  0.746508  0.855729  1
  O  O33  1  0.835885  0.255937  0.880424  1
  O  O34  1  0.230738  0.464002  0.969992  1
  O  O35  1  0.237593  0.038751  0.980292  1
