# generated using pymatgen
data_Sc6Ta3NbGa12Os7
_symmetry_space_group_name_H-M   'P 1'
_cell_length_a   8.88262570
_cell_length_b   8.88262510
_cell_length_c   8.88481613
_cell_angle_alpha   60.00815676
_cell_angle_beta   60.00815770
_cell_angle_gamma   59.99999767
_symmetry_Int_Tables_number   1
_chemical_formula_structural   Sc6Ta3NbGa12Os7
_chemical_formula_sum   'Sc6 Ta3 Nb1 Ga12 Os7'
_cell_volume   495.75792998
_cell_formula_units_Z   1
loop_
 _symmetry_equiv_pos_site_id
 _symmetry_equiv_pos_as_xyz
  1  'x, y, z'
loop_
 _atom_site_type_symbol
 _atom_site_label
 _atom_site_symmetry_multiplicity
 _atom_site_fract_x
 _atom_site_fract_y
 _atom_site_fract_z
 _atom_site_occupancy
  Sc  Sc0  1  0.713872  0.713872  0.286338  1
  Sc  Sc1  1  0.285919  0.713872  0.286338  1
  Sc  Sc2  1  0.713872  0.285919  0.286338  1
  Sc  Sc3  1  0.286401  0.286401  0.713489  1
  Sc  Sc4  1  0.713709  0.286401  0.713489  1
  Sc  Sc5  1  0.286401  0.713709  0.713489  1
  Ta  Ta6  1  0.878029  0.366181  0.877761  1
  Ta  Ta7  1  0.366181  0.878029  0.877761  1
  Ta  Ta8  1  0.878029  0.878029  0.877761  1
  Nb  Nb9  1  0.878031  0.878031  0.365907  1
  Ga  Ga10  1  0.120648  0.120648  0.638056  1
  Ga  Ga11  1  0.120656  0.637999  0.120688  1
  Ga  Ga12  1  0.637999  0.120656  0.120688  1
  Ga  Ga13  1  0.120656  0.120656  0.120688  1
  Ga  Ga14  1  0.657756  0.657756  0.026732  1
  Ga  Ga15  1  0.657844  0.026586  0.657727  1
  Ga  Ga16  1  0.026586  0.657844  0.657727  1
  Ga  Ga17  1  0.657844  0.657844  0.657727  1
  Ga  Ga18  1  0.340252  0.340252  0.979244  1
  Ga  Ga19  1  0.340283  0.979248  0.340184  1
  Ga  Ga20  1  0.979248  0.340283  0.340184  1
  Ga  Ga21  1  0.340283  0.340283  0.340184  1
  Os  Os22  1  0.000468  0.000468  0.998595  1
  Os  Os23  1  0.997131  0.997131  0.504232  1
  Os  Os24  1  0.501506  0.997131  0.504232  1
  Os  Os25  1  0.997131  0.501506  0.504232  1
  Os  Os26  1  0.503239  0.503239  0.996736  1
  Os  Os27  1  0.996785  0.503239  0.996736  1
  Os  Os28  1  0.503239  0.996785  0.996736  1
