# generated using pymatgen
data_Pr4DyEr5Pb6
_symmetry_space_group_name_H-M   'P 1'
_cell_length_a   9.17912961
_cell_length_b   9.17913055
_cell_length_c   6.72578400
_cell_angle_alpha   90.00000000
_cell_angle_beta   90.00000000
_cell_angle_gamma   119.47772162
_symmetry_Int_Tables_number   1
_chemical_formula_structural   Pr4DyEr5Pb6
_chemical_formula_sum   'Pr4 Dy1 Er5 Pb6'
_cell_volume   493.33080808
_cell_formula_units_Z   1
loop_
 _symmetry_equiv_pos_site_id
 _symmetry_equiv_pos_as_xyz
  1  'x, y, z'
loop_
 _atom_site_type_symbol
 _atom_site_label
 _atom_site_symmetry_multiplicity
 _atom_site_fract_x
 _atom_site_fract_y
 _atom_site_fract_z
 _atom_site_occupancy
  Pr  Pr0  1  0.238508  0.000745  0.750000  1
  Pr  Pr1  1  0.000745  0.238508  0.750000  1
  Pr  Pr2  1  0.761783  0.998911  0.250000  1
  Pr  Pr3  1  0.998911  0.761783  0.250000  1
  Dy  Dy4  1  0.243230  0.243230  0.250000  1
  Er  Er5  1  0.666338  0.333483  0.999862  1
  Er  Er6  1  0.333483  0.666338  0.999862  1
  Er  Er7  1  0.333483  0.666338  0.500138  1
  Er  Er8  1  0.666338  0.333483  0.500138  1
  Er  Er9  1  0.757610  0.757610  0.750000  1
  Pb  Pb10  1  0.403362  0.403362  0.750000  1
  Pb  Pb11  1  0.602872  0.996036  0.750000  1
  Pb  Pb12  1  0.996036  0.602872  0.750000  1
  Pb  Pb13  1  0.597459  0.597459  0.250000  1
  Pb  Pb14  1  0.397510  0.002334  0.250000  1
  Pb  Pb15  1  0.002334  0.397510  0.250000  1
