# generated using pymatgen
data_Y3VCo7NiP6
_symmetry_space_group_name_H-M   'P 1'
_cell_length_a   3.71124000
_cell_length_b   10.51963300
_cell_length_c   12.21959900
_cell_angle_alpha   90.00000000
_cell_angle_beta   90.00000000
_cell_angle_gamma   90.00000000
_symmetry_Int_Tables_number   1
_chemical_formula_structural   Y3VCo7NiP6
_chemical_formula_sum   'Y6 V2 Co14 Ni2 P12'
_cell_volume   477.06393212
_cell_formula_units_Z   2
loop_
 _symmetry_equiv_pos_site_id
 _symmetry_equiv_pos_as_xyz
  1  'x, y, z'
loop_
 _atom_site_type_symbol
 _atom_site_label
 _atom_site_symmetry_multiplicity
 _atom_site_fract_x
 _atom_site_fract_y
 _atom_site_fract_z
 _atom_site_occupancy
  Y  Y0  1  0.000000  0.500000  0.520537  1
  Y  Y1  1  0.500000  0.000000  0.479463  1
  Y  Y2  1  0.500000  0.817345  0.203891  1
  Y  Y3  1  0.500000  0.182655  0.203891  1
  Y  Y4  1  0.000000  0.682655  0.796109  1
  Y  Y5  1  0.000000  0.317345  0.796109  1
  V  V6  1  0.500000  0.500000  0.154383  1
  V  V7  1  0.000000  0.000000  0.845617  1
  Co  Co8  1  0.000000  0.500000  0.987035  1
  Co  Co9  1  0.500000  0.000000  0.012965  1
  Co  Co10  1  0.500000  0.332763  0.992623  1
  Co  Co11  1  0.500000  0.667237  0.992623  1
  Co  Co12  1  0.000000  0.167237  0.007377  1
  Co  Co13  1  0.000000  0.832763  0.007377  1
  Co  Co14  1  0.500000  0.296626  0.431590  1
  Co  Co15  1  0.500000  0.703374  0.431590  1
  Co  Co16  1  0.000000  0.203374  0.568410  1
  Co  Co17  1  0.000000  0.796626  0.568410  1
  Co  Co18  1  0.500000  0.878737  0.708396  1
  Co  Co19  1  0.500000  0.121263  0.708396  1
  Co  Co20  1  0.000000  0.621263  0.291604  1
  Co  Co21  1  0.000000  0.378737  0.291604  1
  Ni  Ni22  1  0.500000  0.500000  0.701304  1
  Ni  Ni23  1  0.000000  0.000000  0.298696  1
  P  P24  1  0.500000  0.500000  0.882638  1
  P  P25  1  0.000000  0.000000  0.117362  1
  P  P26  1  0.500000  0.500000  0.344903  1
  P  P27  1  0.000000  0.000000  0.655097  1
  P  P28  1  0.500000  0.310104  0.615521  1
  P  P29  1  0.500000  0.689896  0.615521  1
  P  P30  1  0.000000  0.189896  0.384479  1
  P  P31  1  0.000000  0.810104  0.384479  1
  P  P32  1  0.500000  0.846387  0.892169  1
  P  P33  1  0.500000  0.153613  0.892169  1
  P  P34  1  0.000000  0.653613  0.107831  1
  P  P35  1  0.000000  0.346387  0.107831  1
