# generated using pymatgen
data_Np11O20
_symmetry_space_group_name_H-M   'P 1'
_cell_length_a   6.66394154
_cell_length_b   6.68081811
_cell_length_c   10.12850382
_cell_angle_alpha   96.10745463
_cell_angle_beta   90.13224178
_cell_angle_gamma   99.67223349
_symmetry_Int_Tables_number   1
_chemical_formula_structural   Np11O20
_chemical_formula_sum   'Np11 O20'
_cell_volume   441.90021240
_cell_formula_units_Z   1
loop_
 _symmetry_equiv_pos_site_id
 _symmetry_equiv_pos_as_xyz
  1  'x, y, z'
loop_
 _atom_site_type_symbol
 _atom_site_label
 _atom_site_symmetry_multiplicity
 _atom_site_fract_x
 _atom_site_fract_y
 _atom_site_fract_z
 _atom_site_occupancy
  Np  Np0  1  0.000000  0.000000  0.000000  1
  Np  Np1  1  0.179899  0.100782  0.363800  1
  Np  Np2  1  0.820101  0.899218  0.636200  1
  Np  Np3  1  0.116102  0.553901  0.172789  1
  Np  Np4  1  0.883898  0.446099  0.827211  1
  Np  Np5  1  0.271521  0.639088  0.527969  1
  Np  Np6  1  0.728479  0.360912  0.472031  1
  Np  Np7  1  0.359207  0.149061  0.724386  1
  Np  Np8  1  0.640793  0.850939  0.275614  1
  Np  Np9  1  0.470767  0.734783  0.917601  1
  Np  Np10  1  0.529233  0.265217  0.082399  1
  O  O11  1  0.134630  0.656800  0.961859  1
  O  O12  1  0.865370  0.343200  0.038141  1
  O  O13  1  0.032033  0.156829  0.798772  1
  O  O14  1  0.967967  0.843171  0.201228  1
  O  O15  1  0.046940  0.429151  0.371887  1
  O  O16  1  0.953060  0.570849  0.628113  1
  O  O17  1  0.153811  0.943278  0.563946  1
  O  O18  1  0.846189  0.056722  0.436054  1
  O  O19  1  0.337481  0.032147  0.930508  1
  O  O20  1  0.662519  0.967853  0.069492  1
  O  O21  1  0.198962  0.225698  0.154753  1
  O  O22  1  0.801038  0.774302  0.845247  1
  O  O23  1  0.307088  0.795189  0.335209  1
  O  O24  1  0.692912  0.204811  0.664791  1
  O  O25  1  0.365771  0.328614  0.539072  1
  O  O26  1  0.634229  0.671386  0.460928  1
  O  O27  1  0.464960  0.821623  0.701301  1
  O  O28  1  0.535040  0.178377  0.298699  1
  O  O29  1  0.467643  0.592280  0.125468  1
  O  O30  1  0.532357  0.407720  0.874532  1
