# generated using pymatgen
data_Li4ZrNi9AsP6
_symmetry_space_group_name_H-M   'P 1'
_cell_length_a   9.10192900
_cell_length_b   9.10192861
_cell_length_c   3.63613300
_cell_angle_alpha   90.00000000
_cell_angle_beta   90.00000000
_cell_angle_gamma   120.00000505
_symmetry_Int_Tables_number   1
_chemical_formula_structural   Li4ZrNi9AsP6
_chemical_formula_sum   'Li4 Zr1 Ni9 As1 P6'
_cell_volume   260.87786893
_cell_formula_units_Z   1
loop_
 _symmetry_equiv_pos_site_id
 _symmetry_equiv_pos_as_xyz
  1  'x, y, z'
loop_
 _atom_site_type_symbol
 _atom_site_label
 _atom_site_symmetry_multiplicity
 _atom_site_fract_x
 _atom_site_fract_y
 _atom_site_fract_z
 _atom_site_occupancy
  Li  Li0  1  0.881325  0.773833  0.500000  1
  Li  Li1  1  0.892507  0.118675  0.500000  1
  Li  Li2  1  0.226167  0.107493  0.500000  1
  Li  Li3  1  0.666667  0.333333  0.500000  1
  Zr  Zr4  1  0.333333  0.666667  0.000000  1
  Ni  Ni5  1  0.702697  0.877309  0.000000  1
  Ni  Ni6  1  0.174613  0.297303  0.000000  1
  Ni  Ni7  1  0.122691  0.825387  0.000000  1
  Ni  Ni8  1  0.628730  0.570147  0.000000  1
  Ni  Ni9  1  0.941417  0.371270  0.000000  1
  Ni  Ni10  1  0.429853  0.058583  0.000000  1
  Ni  Ni11  1  0.561333  0.955839  0.500000  1
  Ni  Ni12  1  0.394506  0.438667  0.500000  1
  Ni  Ni13  1  0.044161  0.605494  0.500000  1
  As  As14  1  0.000000  0.000000  0.000000  1
  P  P15  1  0.584975  0.712903  0.500000  1
  P  P16  1  0.127927  0.415025  0.500000  1
  P  P17  1  0.287097  0.872073  0.500000  1
  P  P18  1  0.878010  0.575781  0.000000  1
  P  P19  1  0.697772  0.121990  0.000000  1
  P  P20  1  0.424219  0.302228  0.000000  1
