# generated using pymatgen
data_Cs2Hf7Zr5(MnI14)2
_symmetry_space_group_name_H-M   'P 1'
_cell_length_a   11.09365047
_cell_length_b   11.09528161
_cell_length_c   13.34009802
_cell_angle_alpha   89.96316431
_cell_angle_beta   90.02831933
_cell_angle_gamma   94.89485677
_symmetry_Int_Tables_number   1
_chemical_formula_structural   Cs2Hf7Zr5(MnI14)2
_chemical_formula_sum   'Cs2 Hf7 Zr5 Mn2 I28'
_cell_volume   1636.00607335
_cell_formula_units_Z   1
loop_
 _symmetry_equiv_pos_site_id
 _symmetry_equiv_pos_as_xyz
  1  'x, y, z'
loop_
 _atom_site_type_symbol
 _atom_site_label
 _atom_site_symmetry_multiplicity
 _atom_site_fract_x
 _atom_site_fract_y
 _atom_site_fract_z
 _atom_site_occupancy
  Cs  Cs0  1  0.000294  0.000179  0.999808  1
  Cs  Cs1  1  0.499841  0.499946  0.499571  1
  Hf  Hf2  1  0.865370  0.865736  0.599561  1
  Hf  Hf3  1  0.456888  0.670938  0.891118  1
  Hf  Hf4  1  0.828450  0.043347  0.390618  1
  Hf  Hf5  1  0.670934  0.456983  0.891076  1
  Hf  Hf6  1  0.365952  0.365915  0.900008  1
  Hf  Hf7  1  0.634251  0.634432  0.099363  1
  Hf  Hf8  1  0.134539  0.134886  0.399690  1
  Zr  Zr9  1  0.174575  0.955975  0.611015  1
  Zr  Zr10  1  0.543993  0.326000  0.110729  1
  Zr  Zr11  1  0.325746  0.543906  0.110728  1
  Zr  Zr12  1  0.956338  0.173216  0.610051  1
  Zr  Zr13  1  0.043522  0.826823  0.389463  1
  Mn  Mn14  1  0.499116  0.499008  0.001524  1
  Mn  Mn15  1  0.001315  0.999934  0.500633  1
  I  I16  1  0.385636  0.138818  0.004003  1
  I  I17  1  0.361214  0.114690  0.504198  1
  I  I18  1  0.963944  0.210794  0.252598  1
  I  I19  1  0.251550  0.750514  0.998150  1
  I  I20  1  0.156600  0.156881  0.757735  1
  I  I21  1  0.860370  0.612766  0.994022  1
  I  I22  1  0.466771  0.712118  0.247755  1
  I  I23  1  0.787937  0.033404  0.747745  1
  I  I24  1  0.102855  0.604337  0.249464  1
  I  I25  1  0.885037  0.638955  0.495792  1
  I  I26  1  0.749668  0.248505  0.498362  1
  I  I27  1  0.639437  0.887581  0.494191  1
  I  I28  1  0.655213  0.655458  0.743825  1
  I  I29  1  0.211770  0.966780  0.251778  1
  I  I30  1  0.842450  0.845759  0.242897  1
  I  I31  1  0.343321  0.343079  0.257856  1
  I  I32  1  0.398260  0.893547  0.751549  1
  I  I33  1  0.138839  0.385306  0.003817  1
  I  I34  1  0.712129  0.466990  0.247781  1
  I  I35  1  0.606928  0.101980  0.251467  1
  I  I36  1  0.750445  0.251508  0.998218  1
  I  I37  1  0.250123  0.749765  0.499759  1
  I  I38  1  0.612658  0.860480  0.993923  1
  I  I39  1  0.289580  0.535878  0.752460  1
  I  I40  1  0.893074  0.397929  0.751102  1
  I  I41  1  0.032985  0.788036  0.747892  1
  I  I42  1  0.535865  0.289572  0.752435  1
  I  I43  1  0.114215  0.361347  0.504268  1
