# generated using pymatgen
data_Tm4Al18(OsAu)3
_symmetry_space_group_name_H-M   'P 1'
_cell_length_a   7.65625178
_cell_length_b   7.65624934
_cell_length_c   9.47384389
_cell_angle_alpha   90.10549830
_cell_angle_beta   90.10548492
_cell_angle_gamma   119.78776204
_symmetry_Int_Tables_number   1
_chemical_formula_structural   Tm4Al18(OsAu)3
_chemical_formula_sum   'Tm4 Al18 Os3 Au3'
_cell_volume   481.96005261
_cell_formula_units_Z   1
loop_
 _symmetry_equiv_pos_site_id
 _symmetry_equiv_pos_as_xyz
  1  'x, y, z'
loop_
 _atom_site_type_symbol
 _atom_site_label
 _atom_site_symmetry_multiplicity
 _atom_site_fract_x
 _atom_site_fract_y
 _atom_site_fract_z
 _atom_site_occupancy
  Tm  Tm0  1  0.997785  0.669232  0.246376  1
  Tm  Tm1  1  0.006351  0.333691  0.752045  1
  Tm  Tm2  1  0.666309  0.993649  0.247956  1
  Tm  Tm3  1  0.330769  0.002216  0.753625  1
  Al  Al4  1  0.117790  0.120451  0.248589  1
  Al  Al5  1  0.879549  0.882208  0.751411  1
  Al  Al6  1  0.988004  0.322093  0.075579  1
  Al  Al7  1  0.990358  0.664337  0.923130  1
  Al  Al8  1  0.997026  0.676646  0.581710  1
  Al  Al9  1  0.323355  0.002975  0.418290  1
  Al  Al10  1  0.000586  0.324981  0.420020  1
  Al  Al11  1  0.675020  0.999414  0.579981  1
  Al  Al12  1  0.677907  0.011994  0.924421  1
  Al  Al13  1  0.335663  0.009642  0.076870  1
  Al  Al14  1  0.323669  0.324331  0.565612  1
  Al  Al15  1  0.675670  0.676333  0.434388  1
  Al  Al16  1  0.678905  0.668482  0.050018  1
  Al  Al17  1  0.331518  0.321094  0.949983  1
  Al  Al18  1  0.341429  0.539180  0.248545  1
  Al  Al19  1  0.655864  0.450864  0.757692  1
  Al  Al20  1  0.549137  0.344137  0.242308  1
  Al  Al21  1  0.460821  0.658570  0.751454  1
  Os  Os22  1  0.672076  0.327924  0.000000  1
  Os  Os23  1  0.001138  0.998861  0.000000  1
  Os  Os24  1  0.999106  0.000894  0.500000  1
  Au  Au25  1  0.326109  0.673889  0.999999  1
  Au  Au26  1  0.324999  0.675001  0.500000  1
  Au  Au27  1  0.673086  0.326915  0.500000  1
