# generated using pymatgen
data_Tb4As6Ru2Rh5
_symmetry_space_group_name_H-M   'P 1'
_cell_length_a   7.29116038
_cell_length_b   7.29116071
_cell_length_c   7.29115952
_cell_angle_alpha   109.46749086
_cell_angle_beta   109.47308158
_cell_angle_gamma   109.47308365
_symmetry_Int_Tables_number   1
_chemical_formula_structural   Tb4As6Ru2Rh5
_chemical_formula_sum   'Tb4 As6 Ru2 Rh5'
_cell_volume   298.37886810
_cell_formula_units_Z   1
loop_
 _symmetry_equiv_pos_site_id
 _symmetry_equiv_pos_as_xyz
  1  'x, y, z'
loop_
 _atom_site_type_symbol
 _atom_site_label
 _atom_site_symmetry_multiplicity
 _atom_site_fract_x
 _atom_site_fract_y
 _atom_site_fract_z
 _atom_site_occupancy
  Tb  Tb0  1  0.500000  0.999376  0.000624  1
  Tb  Tb1  1  0.001246  0.500624  0.000624  1
  Tb  Tb2  1  0.998754  0.999376  0.499376  1
  Tb  Tb3  1  0.500000  0.500624  0.499376  1
  As  As4  1  0.000000  0.316180  0.316180  1
  As  As5  1  0.682189  0.998025  0.680214  1
  As  As6  1  0.682189  0.684164  0.001975  1
  As  As7  1  0.000000  0.683820  0.683820  1
  As  As8  1  0.317811  0.998025  0.315836  1
  As  As9  1  0.317811  0.319786  0.001975  1
  Ru  Ru10  1  0.000000  0.000000  0.000000  1
  Ru  Ru11  1  0.500000  0.750000  0.250000  1
  Rh  Rh12  1  0.750901  0.500230  0.251131  1
  Rh  Rh13  1  0.249099  0.748869  0.499770  1
  Rh  Rh14  1  0.249099  0.500230  0.749329  1
  Rh  Rh15  1  0.500000  0.250000  0.750000  1
  Rh  Rh16  1  0.750901  0.250671  0.499770  1
