# generated using pymatgen
data_Nd4Er5TmPb8
_symmetry_space_group_name_H-M   'P 1'
_cell_length_a   8.26078100
_cell_length_b   8.36062800
_cell_length_c   15.74962800
_cell_angle_alpha   90.00000000
_cell_angle_beta   90.00000000
_cell_angle_gamma   90.00000000
_symmetry_Int_Tables_number   1
_chemical_formula_structural   Nd4Er5TmPb8
_chemical_formula_sum   'Nd8 Er10 Tm2 Pb16'
_cell_volume   1087.75304936
_cell_formula_units_Z   2
loop_
 _symmetry_equiv_pos_site_id
 _symmetry_equiv_pos_as_xyz
  1  'x, y, z'
loop_
 _atom_site_type_symbol
 _atom_site_label
 _atom_site_symmetry_multiplicity
 _atom_site_fract_x
 _atom_site_fract_y
 _atom_site_fract_z
 _atom_site_occupancy
  Nd  Nd0  1  0.470458  0.677840  0.598864  1
  Nd  Nd1  1  0.970458  0.822160  0.901136  1
  Nd  Nd2  1  0.529523  0.322145  0.098742  1
  Nd  Nd3  1  0.029523  0.177855  0.401258  1
  Nd  Nd4  1  0.529523  0.322145  0.401258  1
  Nd  Nd5  1  0.029523  0.177855  0.098742  1
  Nd  Nd6  1  0.470458  0.677840  0.901136  1
  Nd  Nd7  1  0.970458  0.822160  0.598864  1
  Er  Er8  1  0.628093  0.159488  0.621653  1
  Er  Er9  1  0.128093  0.340512  0.878347  1
  Er  Er10  1  0.371847  0.840452  0.121421  1
  Er  Er11  1  0.871847  0.659548  0.378579  1
  Er  Er12  1  0.371847  0.840452  0.378579  1
  Er  Er13  1  0.871847  0.659548  0.121421  1
  Er  Er14  1  0.628093  0.159488  0.878347  1
  Er  Er15  1  0.128093  0.340512  0.621653  1
  Er  Er16  1  0.205207  0.505685  0.250000  1
  Er  Er17  1  0.705207  0.994315  0.250000  1
  Tm  Tm18  1  0.794960  0.494216  0.750000  1
  Tm  Tm19  1  0.294960  0.005784  0.750000  1
  Pb  Pb20  1  0.711492  0.963104  0.456600  1
  Pb  Pb21  1  0.211492  0.536896  0.043400  1
  Pb  Pb22  1  0.288437  0.036881  0.956406  1
  Pb  Pb23  1  0.788437  0.463119  0.543594  1
  Pb  Pb24  1  0.288437  0.036881  0.543594  1
  Pb  Pb25  1  0.788437  0.463119  0.956406  1
  Pb  Pb26  1  0.711492  0.963104  0.043400  1
  Pb  Pb27  1  0.211492  0.536896  0.456600  1
  Pb  Pb28  1  0.431873  0.370837  0.750000  1
  Pb  Pb29  1  0.931873  0.129163  0.750000  1
  Pb  Pb30  1  0.568438  0.629268  0.250000  1
  Pb  Pb31  1  0.068438  0.870732  0.250000  1
  Pb  Pb32  1  0.659692  0.851359  0.750000  1
  Pb  Pb33  1  0.159692  0.648641  0.750000  1
  Pb  Pb34  1  0.340129  0.148305  0.250000  1
  Pb  Pb35  1  0.840129  0.351695  0.250000  1
