# generated using pymatgen
data_Dy2Th(GaNi)3
_symmetry_space_group_name_H-M   'P 1'
_cell_length_a   7.16586900
_cell_length_b   7.05663618
_cell_length_c   3.79190500
_cell_angle_alpha   90.00000000
_cell_angle_beta   90.00000000
_cell_angle_gamma   120.51339549
_symmetry_Int_Tables_number   1
_chemical_formula_structural   Dy2Th(GaNi)3
_chemical_formula_sum   'Dy2 Th1 Ga3 Ni3'
_cell_volume   165.19032327
_cell_formula_units_Z   1
loop_
 _symmetry_equiv_pos_site_id
 _symmetry_equiv_pos_as_xyz
  1  'x, y, z'
loop_
 _atom_site_type_symbol
 _atom_site_label
 _atom_site_symmetry_multiplicity
 _atom_site_fract_x
 _atom_site_fract_y
 _atom_site_fract_z
 _atom_site_occupancy
  Dy  Dy0  1  0.998132  0.412272  0.500000  1
  Dy  Dy1  1  0.585861  0.587728  0.500000  1
  Th  Th2  1  0.419435  0.000000  0.500000  1
  Ga  Ga3  1  0.989101  0.746971  0.000000  1
  Ga  Ga4  1  0.242130  0.253029  0.000000  1
  Ga  Ga5  1  0.768980  0.000000  0.000000  1
  Ni  Ni6  1  0.333046  0.676852  0.000000  1
  Ni  Ni7  1  0.656195  0.323148  0.000000  1
  Ni  Ni8  1  0.007119  0.000000  0.500000  1
