# generated using pymatgen
data_Zr10Tl3Zn2Bi2Pb
_symmetry_space_group_name_H-M   'P 1'
_cell_length_a   8.82866813
_cell_length_b   8.81678056
_cell_length_c   5.95857400
_cell_angle_alpha   90.00000000
_cell_angle_beta   90.00000000
_cell_angle_gamma   119.90047148
_symmetry_Int_Tables_number   1
_chemical_formula_structural   Zr10Tl3Zn2Bi2Pb
_chemical_formula_sum   'Zr10 Tl3 Zn2 Bi2 Pb1'
_cell_volume   402.08037829
_cell_formula_units_Z   1
loop_
 _symmetry_equiv_pos_site_id
 _symmetry_equiv_pos_as_xyz
  1  'x, y, z'
loop_
 _atom_site_type_symbol
 _atom_site_label
 _atom_site_symmetry_multiplicity
 _atom_site_fract_x
 _atom_site_fract_y
 _atom_site_fract_z
 _atom_site_occupancy
  Zr  Zr0  1  0.332468  0.666776  0.999390  1
  Zr  Zr1  1  0.666011  0.332771  0.500504  1
  Zr  Zr2  1  0.666011  0.332771  0.999496  1
  Zr  Zr3  1  0.332468  0.666776  0.500610  1
  Zr  Zr4  1  0.263014  0.999434  0.250000  1
  Zr  Zr5  1  0.263707  0.263202  0.750000  1
  Zr  Zr6  1  0.002399  0.736275  0.750000  1
  Zr  Zr7  1  0.001291  0.265175  0.250000  1
  Zr  Zr8  1  0.737219  0.736144  0.250000  1
  Zr  Zr9  1  0.736440  0.001230  0.750000  1
  Tl  Tl10  1  0.999894  0.385217  0.750000  1
  Tl  Tl11  1  0.999841  0.614505  0.250000  1
  Tl  Tl12  1  0.383143  0.999660  0.750000  1
  Zn  Zn13  1  0.001508  0.000536  0.999092  1
  Zn  Zn14  1  0.001508  0.000536  0.500908  1
  Bi  Bi15  1  0.614520  0.000690  0.250000  1
  Bi  Bi16  1  0.615260  0.614548  0.750000  1
  Pb  Pb17  1  0.383297  0.383756  0.250000  1
