# generated using pymatgen
data_Li2AcDySi4
_symmetry_space_group_name_H-M   'P 1'
_cell_length_a   3.90511000
_cell_length_b   7.81945341
_cell_length_c   10.60213038
_cell_angle_alpha   89.55351641
_cell_angle_beta   90.00000000
_cell_angle_gamma   90.00000000
_symmetry_Int_Tables_number   1
_chemical_formula_structural   Li2AcDySi4
_chemical_formula_sum   'Li4 Ac2 Dy2 Si8'
_cell_volume   323.73497576
_cell_formula_units_Z   2
loop_
 _symmetry_equiv_pos_site_id
 _symmetry_equiv_pos_as_xyz
  1  'x, y, z'
loop_
 _atom_site_type_symbol
 _atom_site_label
 _atom_site_symmetry_multiplicity
 _atom_site_fract_x
 _atom_site_fract_y
 _atom_site_fract_z
 _atom_site_occupancy
  Li  Li0  1  0.250000  0.998556  0.385740  1
  Li  Li1  1  0.750000  0.001444  0.614260  1
  Li  Li2  1  0.250000  0.490622  0.103579  1
  Li  Li3  1  0.750000  0.509378  0.896421  1
  Ac  Ac4  1  0.250000  0.643098  0.636688  1
  Ac  Ac5  1  0.750000  0.356902  0.363312  1
  Dy  Dy6  1  0.250000  0.130407  0.867762  1
  Dy  Dy7  1  0.750000  0.869593  0.132238  1
  Si  Si8  1  0.750000  0.260863  0.060937  1
  Si  Si9  1  0.250000  0.739137  0.939063  1
  Si  Si10  1  0.750000  0.788237  0.415439  1
  Si  Si11  1  0.250000  0.211763  0.584561  1
  Si  Si12  1  0.750000  0.846059  0.832279  1
  Si  Si13  1  0.250000  0.153941  0.167721  1
  Si  Si14  1  0.750000  0.323869  0.688906  1
  Si  Si15  1  0.250000  0.676131  0.311094  1
