# generated using pymatgen
data_Tb2NdSbO7
_symmetry_space_group_name_H-M   'P 1'
_cell_length_a   6.51613600
_cell_length_b   6.51613653
_cell_length_c   7.62782300
_cell_angle_alpha   90.00000000
_cell_angle_beta   90.00000000
_cell_angle_gamma   109.20973966
_symmetry_Int_Tables_number   1
_chemical_formula_structural   Tb2NdSbO7
_chemical_formula_sum   'Tb4 Nd2 Sb2 O14'
_cell_volume   305.84424888
_cell_formula_units_Z   2
loop_
 _symmetry_equiv_pos_site_id
 _symmetry_equiv_pos_as_xyz
  1  'x, y, z'
loop_
 _atom_site_type_symbol
 _atom_site_label
 _atom_site_symmetry_multiplicity
 _atom_site_fract_x
 _atom_site_fract_y
 _atom_site_fract_z
 _atom_site_occupancy
  Tb  Tb0  1  0.531922  0.000437  0.750000  1
  Tb  Tb1  1  0.000437  0.531922  0.250000  1
  Tb  Tb2  1  0.468078  0.999563  0.250000  1
  Tb  Tb3  1  0.999563  0.468078  0.750000  1
  Nd  Nd4  1  0.500000  0.500000  0.500000  1
  Nd  Nd5  1  0.500000  0.500000  0.000000  1
  Sb  Sb6  1  0.000000  0.000000  0.500000  1
  Sb  Sb7  1  0.000000  0.000000  0.000000  1
  O  O8  1  0.680079  0.930658  0.470464  1
  O  O9  1  0.930658  0.680079  0.529536  1
  O  O10  1  0.680079  0.930658  0.029536  1
  O  O11  1  0.930658  0.680079  0.970464  1
  O  O12  1  0.319921  0.069342  0.529536  1
  O  O13  1  0.069342  0.319921  0.470464  1
  O  O14  1  0.319921  0.069342  0.970464  1
  O  O15  1  0.069342  0.319921  0.029536  1
  O  O16  1  0.931673  0.068327  0.750000  1
  O  O17  1  0.068327  0.931673  0.250000  1
  O  O18  1  0.364262  0.635738  0.750000  1
  O  O19  1  0.635738  0.364262  0.250000  1
  O  O20  1  0.640532  0.359468  0.750000  1
  O  O21  1  0.359468  0.640532  0.250000  1
