# generated using pymatgen
data_RbPuAuSe3
_symmetry_space_group_name_H-M   'P 1'
_cell_length_a   8.06371242
_cell_length_b   8.06371284
_cell_length_c   10.74955400
_cell_angle_alpha   90.00000000
_cell_angle_beta   90.00000000
_cell_angle_gamma   149.09622484
_symmetry_Int_Tables_number   1
_chemical_formula_structural   RbPuAuSe3
_chemical_formula_sum   'Rb2 Pu2 Au2 Se6'
_cell_volume   358.99109442
_cell_formula_units_Z   2
loop_
 _symmetry_equiv_pos_site_id
 _symmetry_equiv_pos_as_xyz
  1  'x, y, z'
loop_
 _atom_site_type_symbol
 _atom_site_label
 _atom_site_symmetry_multiplicity
 _atom_site_fract_x
 _atom_site_fract_y
 _atom_site_fract_z
 _atom_site_occupancy
  Rb  Rb0  1  0.251444  0.748555  0.250000  1
  Rb  Rb1  1  0.748555  0.251444  0.750000  1
  Pu  Pu2  1  0.500000  0.500000  0.000000  1
  Pu  Pu3  1  0.500000  0.500000  0.500000  1
  Au  Au4  1  0.961586  0.038413  0.250000  1
  Au  Au5  1  0.038413  0.961586  0.750000  1
  Se  Se6  1  0.880423  0.119577  0.041797  1
  Se  Se7  1  0.566897  0.433102  0.250000  1
  Se  Se8  1  0.880423  0.119577  0.458202  1
  Se  Se9  1  0.119577  0.880423  0.541798  1
  Se  Se10  1  0.433102  0.566897  0.750000  1
  Se  Se11  1  0.119577  0.880423  0.958202  1
