# generated using pymatgen
data_Sc6ZnIn5Au6
_symmetry_space_group_name_H-M   'P 1'
_cell_length_a   7.69321071
_cell_length_b   7.68351270
_cell_length_c   7.22072000
_cell_angle_alpha   90.00000000
_cell_angle_beta   89.97535597
_cell_angle_gamma   119.95831887
_symmetry_Int_Tables_number   1
_chemical_formula_structural   Sc6ZnIn5Au6
_chemical_formula_sum   'Sc6 Zn1 In5 Au6'
_cell_volume   369.79478088
_cell_formula_units_Z   1
loop_
 _symmetry_equiv_pos_site_id
 _symmetry_equiv_pos_as_xyz
  1  'x, y, z'
loop_
 _atom_site_type_symbol
 _atom_site_label
 _atom_site_symmetry_multiplicity
 _atom_site_fract_x
 _atom_site_fract_y
 _atom_site_fract_z
 _atom_site_occupancy
  Sc  Sc0  1  0.600760  0.987102  0.749401  1
  Sc  Sc1  1  0.015808  0.606419  0.744888  1
  Sc  Sc2  1  0.383334  0.401407  0.745999  1
  Sc  Sc3  1  0.984192  0.590612  0.255112  1
  Sc  Sc4  1  0.616666  0.018072  0.254001  1
  Sc  Sc5  1  0.399240  0.386343  0.250599  1
  Zn  Zn6  1  0.000000  0.284646  0.500000  1
  In  In7  1  0.732342  0.729258  0.999544  1
  In  In8  1  0.267658  0.996916  0.000456  1
  In  In9  1  0.000000  0.274339  0.000000  1
  In  In10  1  0.719116  0.718035  0.500024  1
  In  In11  1  0.280884  0.998920  0.499976  1
  Au  Au12  1  0.000212  0.011214  0.735178  1
  Au  Au13  1  0.999788  0.011002  0.264822  1
  Au  Au14  1  0.663786  0.331810  0.967427  1
  Au  Au15  1  0.674584  0.330231  0.529583  1
  Au  Au16  1  0.325416  0.655649  0.470417  1
  Au  Au17  1  0.336214  0.668026  0.032573  1
