# generated using pymatgen
data_Li3Si3Pd5Ru
_symmetry_space_group_name_H-M   'P 1'
_cell_length_a   4.12405200
_cell_length_b   6.08110800
_cell_length_c   12.44341700
_cell_angle_alpha   90.00000000
_cell_angle_beta   90.00310322
_cell_angle_gamma   90.00000000
_symmetry_Int_Tables_number   1
_chemical_formula_structural   Li3Si3Pd5Ru
_chemical_formula_sum   'Li6 Si6 Pd10 Ru2'
_cell_volume   312.06603583
_cell_formula_units_Z   2
loop_
 _symmetry_equiv_pos_site_id
 _symmetry_equiv_pos_as_xyz
  1  'x, y, z'
loop_
 _atom_site_type_symbol
 _atom_site_label
 _atom_site_symmetry_multiplicity
 _atom_site_fract_x
 _atom_site_fract_y
 _atom_site_fract_z
 _atom_site_occupancy
  Li  Li0  1  0.000002  0.500000  0.999966  1
  Li  Li1  1  0.500027  0.000000  0.167336  1
  Li  Li2  1  0.000010  0.500000  0.333290  1
  Li  Li3  1  0.500001  0.000000  0.500060  1
  Li  Li4  1  0.999988  0.500000  0.666739  1
  Li  Li5  1  0.499973  0.000000  0.832623  1
  Si  Si6  1  0.000001  0.000000  0.000013  1
  Si  Si7  1  0.500015  0.500000  0.151415  1
  Si  Si8  1  0.000011  0.000000  0.334289  1
  Si  Si9  1  0.500000  0.500000  0.499988  1
  Si  Si10  1  0.999989  0.000000  0.665690  1
  Si  Si11  1  0.499984  0.500000  0.848600  1
  Pd  Pd12  1  0.000017  0.249892  0.167772  1
  Pd  Pd13  1  0.000017  0.750108  0.167772  1
  Pd  Pd14  1  0.500020  0.253323  0.330492  1
  Pd  Pd15  1  0.500020  0.746677  0.330492  1
  Pd  Pd16  1  0.000001  0.249204  0.499959  1
  Pd  Pd17  1  0.000001  0.750796  0.499959  1
  Pd  Pd18  1  0.499980  0.253341  0.669499  1
  Pd  Pd19  1  0.499980  0.746659  0.669499  1
  Pd  Pd20  1  0.999983  0.249889  0.832257  1
  Pd  Pd21  1  0.999983  0.750111  0.832257  1
  Ru  Ru22  1  0.500000  0.244999  0.000015  1
  Ru  Ru23  1  0.500000  0.755001  0.000015  1
