# generated using pymatgen
data_Lu12InFe2ReSb
_symmetry_space_group_name_H-M   'P 1'
_cell_length_a   8.23680962
_cell_length_b   8.23680290
_cell_length_c   8.23680870
_cell_angle_alpha   109.18239542
_cell_angle_beta   108.52322521
_cell_angle_gamma   110.71593856
_symmetry_Int_Tables_number   1
_chemical_formula_structural   Lu12InFe2ReSb
_chemical_formula_sum   'Lu12 In1 Fe2 Re1 Sb1'
_cell_volume   430.01780072
_cell_formula_units_Z   1
loop_
 _symmetry_equiv_pos_site_id
 _symmetry_equiv_pos_as_xyz
  1  'x, y, z'
loop_
 _atom_site_type_symbol
 _atom_site_label
 _atom_site_symmetry_multiplicity
 _atom_site_fract_x
 _atom_site_fract_y
 _atom_site_fract_z
 _atom_site_occupancy
  Lu  Lu0  1  0.311433  0.306417  0.617856  1
  Lu  Lu1  1  0.688567  0.693583  0.382144  1
  Lu  Lu2  1  0.688561  0.306417  0.994984  1
  Lu  Lu3  1  0.311439  0.693583  0.005016  1
  Lu  Lu4  1  0.195417  0.431705  0.236287  1
  Lu  Lu5  1  0.804583  0.568295  0.763713  1
  Lu  Lu6  1  0.195410  0.959116  0.763707  1
  Lu  Lu7  1  0.954519  0.191018  0.763508  1
  Lu  Lu8  1  0.804590  0.040884  0.236293  1
  Lu  Lu9  1  0.045481  0.808982  0.236492  1
  Lu  Lu10  1  0.427510  0.191018  0.236499  1
  Lu  Lu11  1  0.572490  0.808982  0.763501  1
  In  In12  1  0.500000  0.000000  0.500000  1
  Fe  Fe13  1  0.384465  0.384461  0.999996  1
  Fe  Fe14  1  0.615535  0.615539  0.000004  1
  Re  Re15  1  0.000000  0.000000  0.000000  1
  Sb  Sb16  1  0.000000  0.500000  0.500000  1
