# generated using pymatgen
data_Sr2Tb2MgAl17Pd6
_symmetry_space_group_name_H-M   'P 1'
_cell_length_a   7.72883277
_cell_length_b   7.74648125
_cell_length_c   9.58932828
_cell_angle_alpha   90.17488128
_cell_angle_beta   89.87828042
_cell_angle_gamma   119.47792159
_symmetry_Int_Tables_number   1
_chemical_formula_structural   Sr2Tb2MgAl17Pd6
_chemical_formula_sum   'Sr2 Tb2 Mg1 Al17 Pd6'
_cell_volume   499.79954130
_cell_formula_units_Z   1
loop_
 _symmetry_equiv_pos_site_id
 _symmetry_equiv_pos_as_xyz
  1  'x, y, z'
loop_
 _atom_site_type_symbol
 _atom_site_label
 _atom_site_symmetry_multiplicity
 _atom_site_fract_x
 _atom_site_fract_y
 _atom_site_fract_z
 _atom_site_occupancy
  Sr  Sr0  1  0.996025  0.672289  0.251163  1
  Sr  Sr1  1  0.004585  0.330724  0.749075  1
  Tb  Tb2  1  0.667563  0.990535  0.252481  1
  Tb  Tb3  1  0.328669  0.003390  0.749414  1
  Mg  Mg4  1  0.997108  0.334187  0.077173  1
  Al  Al5  1  0.131006  0.133290  0.250266  1
  Al  Al6  1  0.869761  0.866300  0.751444  1
  Al  Al7  1  0.998934  0.666167  0.923208  1
  Al  Al8  1  0.998331  0.667320  0.577707  1
  Al  Al9  1  0.337864  0.003902  0.424837  1
  Al  Al10  1  0.001585  0.331065  0.420860  1
  Al  Al11  1  0.663771  0.997516  0.574819  1
  Al  Al12  1  0.664615  0.999371  0.927433  1
  Al  Al13  1  0.337886  0.003665  0.074018  1
  Al  Al14  1  0.335099  0.333386  0.552215  1
  Al  Al15  1  0.664145  0.665859  0.447435  1
  Al  Al16  1  0.665133  0.666764  0.050476  1
  Al  Al17  1  0.332979  0.332949  0.947414  1
  Al  Al18  1  0.348899  0.548143  0.250273  1
  Al  Al19  1  0.652674  0.452131  0.749361  1
  Al  Al20  1  0.543039  0.332612  0.249251  1
  Al  Al21  1  0.460361  0.668285  0.750985  1
  Pd  Pd22  1  0.659544  0.326317  0.995964  1
  Pd  Pd23  1  0.337151  0.680721  0.999478  1
  Pd  Pd24  1  0.330201  0.673337  0.501674  1
  Pd  Pd25  1  0.670635  0.327496  0.500163  1
  Pd  Pd26  1  0.001607  0.993532  0.999674  1
  Pd  Pd27  1  0.000827  0.998746  0.501741  1
