# generated using pymatgen
data_Li7Pu2N6
_symmetry_space_group_name_H-M   'P 1'
_cell_length_a   5.84641500
_cell_length_b   5.84641646
_cell_length_c   5.39181400
_cell_angle_alpha   90.00000000
_cell_angle_beta   90.00000000
_cell_angle_gamma   120.00001326
_symmetry_Int_Tables_number   1
_chemical_formula_structural   Li7Pu2N6
_chemical_formula_sum   'Li7 Pu2 N6'
_cell_volume   159.60440156
_cell_formula_units_Z   1
loop_
 _symmetry_equiv_pos_site_id
 _symmetry_equiv_pos_as_xyz
  1  'x, y, z'
loop_
 _atom_site_type_symbol
 _atom_site_label
 _atom_site_symmetry_multiplicity
 _atom_site_fract_x
 _atom_site_fract_y
 _atom_site_fract_z
 _atom_site_occupancy
  Li  Li0  1  0.993958  0.676489  0.621299  1
  Li  Li1  1  0.323511  0.317469  0.621299  1
  Li  Li2  1  0.682531  0.006042  0.621299  1
  Li  Li3  1  0.006042  0.323511  0.378701  1
  Li  Li4  1  0.676489  0.682531  0.378701  1
  Li  Li5  1  0.317469  0.993958  0.378701  1
  Li  Li6  1  0.000000  0.000000  0.000000  1
  Pu  Pu7  1  0.333333  0.666667  0.997488  1
  Pu  Pu8  1  0.666667  0.333333  0.002512  1
  N  N9  1  0.000237  0.638420  0.223528  1
  N  N10  1  0.361580  0.361817  0.223528  1
  N  N11  1  0.638183  0.999763  0.223528  1
  N  N12  1  0.999763  0.361580  0.776472  1
  N  N13  1  0.638420  0.638183  0.776472  1
  N  N14  1  0.361817  0.000237  0.776472  1
