# generated using pymatgen
data_La3Pr7(Bi3C)2
_symmetry_space_group_name_H-M   'P 1'
_cell_length_a   9.56269700
_cell_length_b   9.56269716
_cell_length_c   6.79863000
_cell_angle_alpha   90.00000000
_cell_angle_beta   90.00000000
_cell_angle_gamma   119.99999600
_symmetry_Int_Tables_number   1
_chemical_formula_structural   La3Pr7(Bi3C)2
_chemical_formula_sum   'La3 Pr7 Bi6 C2'
_cell_volume   538.40967185
_cell_formula_units_Z   1
loop_
 _symmetry_equiv_pos_site_id
 _symmetry_equiv_pos_as_xyz
  1  'x, y, z'
loop_
 _atom_site_type_symbol
 _atom_site_label
 _atom_site_symmetry_multiplicity
 _atom_site_fract_x
 _atom_site_fract_y
 _atom_site_fract_z
 _atom_site_occupancy
  La  La0  1  0.787351  0.787351  0.750000  1
  La  La1  1  0.212649  0.000000  0.750000  1
  La  La2  1  0.000000  0.212649  0.750000  1
  Pr  Pr3  1  0.666667  0.333333  0.000114  1
  Pr  Pr4  1  0.333333  0.666667  0.000114  1
  Pr  Pr5  1  0.333333  0.666667  0.499886  1
  Pr  Pr6  1  0.666667  0.333333  0.499886  1
  Pr  Pr7  1  0.212445  0.212445  0.250000  1
  Pr  Pr8  1  0.787555  0.000000  0.250000  1
  Pr  Pr9  1  0.000000  0.787555  0.250000  1
  Bi  Bi10  1  0.403119  0.403119  0.750000  1
  Bi  Bi11  1  0.596881  0.000000  0.750000  1
  Bi  Bi12  1  0.000000  0.596881  0.750000  1
  Bi  Bi13  1  0.598132  0.598132  0.250000  1
  Bi  Bi14  1  0.401868  0.000000  0.250000  1
  Bi  Bi15  1  0.000000  0.401868  0.250000  1
  C  C16  1  0.000000  0.000000  0.999918  1
  C  C17  1  0.000000  0.000000  0.500082  1
