# generated using pymatgen
data_Pr3Ga24TcPd8
_symmetry_space_group_name_H-M   'P 1'
_cell_length_a   8.53201075
_cell_length_b   8.53201008
_cell_length_c   8.53201006
_cell_angle_alpha   89.59402364
_cell_angle_beta   89.59402320
_cell_angle_gamma   89.59403239
_symmetry_Int_Tables_number   1
_chemical_formula_structural   Pr3Ga24TcPd8
_chemical_formula_sum   'Pr3 Ga24 Tc1 Pd8'
_cell_volume   621.04284040
_cell_formula_units_Z   1
loop_
 _symmetry_equiv_pos_site_id
 _symmetry_equiv_pos_as_xyz
  1  'x, y, z'
loop_
 _atom_site_type_symbol
 _atom_site_label
 _atom_site_symmetry_multiplicity
 _atom_site_fract_x
 _atom_site_fract_y
 _atom_site_fract_z
 _atom_site_occupancy
  Pr  Pr0  1  0.000000  0.500000  0.000000  1
  Pr  Pr1  1  0.500000  0.000000  0.000000  1
  Pr  Pr2  1  0.000000  0.000000  0.500000  1
  Ga  Ga3  1  0.989395  0.642894  0.642894  1
  Ga  Ga4  1  0.642894  0.642894  0.989395  1
  Ga  Ga5  1  0.642894  0.989395  0.642894  1
  Ga  Ga6  1  0.010605  0.357106  0.357106  1
  Ga  Ga7  1  0.357106  0.357106  0.010605  1
  Ga  Ga8  1  0.357106  0.010605  0.357106  1
  Ga  Ga9  1  0.734853  0.500000  0.265147  1
  Ga  Ga10  1  0.265147  0.500000  0.734853  1
  Ga  Ga11  1  0.500000  0.265147  0.734853  1
  Ga  Ga12  1  0.500000  0.734853  0.265147  1
  Ga  Ga13  1  0.265147  0.734853  0.500000  1
  Ga  Ga14  1  0.734853  0.265147  0.500000  1
  Ga  Ga15  1  0.839319  0.142624  0.839319  1
  Ga  Ga16  1  0.142624  0.839319  0.839319  1
  Ga  Ga17  1  0.839319  0.839319  0.142624  1
  Ga  Ga18  1  0.160681  0.857376  0.160681  1
  Ga  Ga19  1  0.857376  0.160681  0.160681  1
  Ga  Ga20  1  0.160681  0.160681  0.857376  1
  Ga  Ga21  1  0.727611  0.489933  0.727611  1
  Ga  Ga22  1  0.489933  0.727611  0.727611  1
  Ga  Ga23  1  0.727611  0.727611  0.489933  1
  Ga  Ga24  1  0.272389  0.510067  0.272389  1
  Ga  Ga25  1  0.510067  0.272389  0.272389  1
  Ga  Ga26  1  0.272389  0.272389  0.510067  1
  Tc  Tc27  1  0.500000  0.500000  0.500000  1
  Pd  Pd28  1  0.835825  0.835825  0.835825  1
  Pd  Pd29  1  0.164175  0.164175  0.164175  1
  Pd  Pd30  1  0.663910  0.336090  0.000000  1
  Pd  Pd31  1  0.000000  0.336090  0.663910  1
  Pd  Pd32  1  0.336090  0.000000  0.663910  1
  Pd  Pd33  1  0.336090  0.663910  0.000000  1
  Pd  Pd34  1  0.000000  0.663910  0.336090  1
  Pd  Pd35  1  0.663910  0.000000  0.336090  1
