# generated using pymatgen
data_Rb4Ti3VH20
_symmetry_space_group_name_H-M   'P 1'
_cell_length_a   11.12149344
_cell_length_b   7.17538371
_cell_length_c   4.99166300
_cell_angle_alpha   89.92185032
_cell_angle_beta   89.98392636
_cell_angle_gamma   89.39044397
_symmetry_Int_Tables_number   1
_chemical_formula_structural   Rb4Ti3VH20
_chemical_formula_sum   'Rb4 Ti3 V1 H20'
_cell_volume   398.31668626
_cell_formula_units_Z   1
loop_
 _symmetry_equiv_pos_site_id
 _symmetry_equiv_pos_as_xyz
  1  'x, y, z'
loop_
 _atom_site_type_symbol
 _atom_site_label
 _atom_site_symmetry_multiplicity
 _atom_site_fract_x
 _atom_site_fract_y
 _atom_site_fract_z
 _atom_site_occupancy
  Rb  Rb0  1  0.667712  0.064588  0.335631  1
  Rb  Rb1  1  0.173078  0.427695  0.325778  1
  Rb  Rb2  1  0.824741  0.572282  0.830531  1
  Rb  Rb3  1  0.332848  0.924629  0.837649  1
  Ti  Ti4  1  0.021313  0.918201  0.314684  1
  Ti  Ti5  1  0.978726  0.081931  0.814226  1
  Ti  Ti6  1  0.480895  0.425739  0.806198  1
  V  V7  1  0.517793  0.564665  0.299439  1
  H  H8  1  0.332385  0.334844  0.784984  1
  H  H9  1  0.827725  0.168306  0.781967  1
  H  H10  1  0.959188  0.687596  0.292956  1
  H  H11  1  0.478400  0.793803  0.300589  1
  H  H12  1  0.589333  0.396556  0.092990  1
  H  H13  1  0.080499  0.106613  0.103252  1
  H  H14  1  0.391290  0.523153  0.092059  1
  H  H15  1  0.893392  0.996836  0.105856  1
  H  H16  1  0.963891  0.141287  0.454738  1
  H  H17  1  0.464622  0.355153  0.444851  1
  H  H18  1  0.172584  0.832857  0.283274  1
  H  H19  1  0.653032  0.668755  0.283804  1
  H  H20  1  0.531222  0.186978  0.799933  1
  H  H21  1  0.038207  0.314286  0.793060  1
  H  H22  1  0.919044  0.893514  0.603118  1
  H  H23  1  0.421488  0.609132  0.572740  1
  H  H24  1  0.106800  0.002497  0.605977  1
  H  H25  1  0.605096  0.503374  0.580623  1
  H  H26  1  0.538244  0.646291  0.971227  1
  H  H27  1  0.036455  0.858436  0.955859  1
