# generated using pymatgen
data_Sm3Y3ZnGa17Pd4
_symmetry_space_group_name_H-M   'P 1'
_cell_length_a   8.21550985
_cell_length_b   8.21549795
_cell_length_c   15.86861003
_cell_angle_alpha   74.29313951
_cell_angle_beta   74.29305728
_cell_angle_gamma   30.58072297
_symmetry_Int_Tables_number   1
_chemical_formula_structural   Sm3Y3ZnGa17Pd4
_chemical_formula_sum   'Sm3 Y3 Zn1 Ga17 Pd4'
_cell_volume   522.99613346
_cell_formula_units_Z   1
loop_
 _symmetry_equiv_pos_site_id
 _symmetry_equiv_pos_as_xyz
  1  'x, y, z'
loop_
 _atom_site_type_symbol
 _atom_site_label
 _atom_site_symmetry_multiplicity
 _atom_site_fract_x
 _atom_site_fract_y
 _atom_site_fract_z
 _atom_site_occupancy
  Sm  Sm0  1  0.749430  0.749430  0.750393  1
  Sm  Sm1  1  0.250890  0.250891  0.249956  1
  Sm  Sm2  1  0.598428  0.598427  0.599570  1
  Y  Y3  1  0.100091  0.100092  0.100639  1
  Y  Y4  1  0.899833  0.899834  0.899575  1
  Y  Y5  1  0.402062  0.402062  0.400581  1
  Zn  Zn6  1  0.999697  0.999694  0.499803  1
  Ga  Ga7  1  0.824641  0.824642  0.539720  1
  Ga  Ga8  1  0.321593  0.321599  0.038662  1
  Ga  Ga9  1  0.678419  0.678414  0.961336  1
  Ga  Ga10  1  0.175434  0.175436  0.459684  1
  Ga  Ga11  1  0.538820  0.538823  0.821793  1
  Ga  Ga12  1  0.040579  0.040580  0.324710  1
  Ga  Ga13  1  0.958866  0.958861  0.675224  1
  Ga  Ga14  1  0.461204  0.461211  0.178529  1
  Ga  Ga15  1  0.260779  0.260777  0.895090  1
  Ga  Ga16  1  0.762791  0.762794  0.396596  1
  Ga  Ga17  1  0.237674  0.237670  0.603674  1
  Ga  Ga18  1  0.739267  0.739268  0.104778  1
  Ga  Ga19  1  0.395173  0.395173  0.761887  1
  Ga  Ga20  1  0.896491  0.896495  0.261979  1
  Ga  Ga21  1  0.103712  0.103707  0.738871  1
  Ga  Ga22  1  0.604942  0.604944  0.237761  1
  Ga  Ga23  1  0.499936  0.499933  0.000026  1
  Pd  Pd24  1  0.091477  0.091475  0.908116  1
  Pd  Pd25  1  0.595467  0.595466  0.403881  1
  Pd  Pd26  1  0.403815  0.403817  0.595040  1
  Pd  Pd27  1  0.908488  0.908487  0.092128  1
