# generated using pymatgen
data_Pr9Nd3(Si2Rh3)4
_symmetry_space_group_name_H-M   'P 1'
_cell_length_a   5.77064932
_cell_length_b   7.80167844
_cell_length_c   15.02955700
_cell_angle_alpha   90.00000000
_cell_angle_beta   90.00000000
_cell_angle_gamma   90.03825372
_symmetry_Int_Tables_number   1
_chemical_formula_structural   Pr9Nd3(Si2Rh3)4
_chemical_formula_sum   'Pr9 Nd3 Si8 Rh12'
_cell_volume   676.64178300
_cell_formula_units_Z   1
loop_
 _symmetry_equiv_pos_site_id
 _symmetry_equiv_pos_as_xyz
  1  'x, y, z'
loop_
 _atom_site_type_symbol
 _atom_site_label
 _atom_site_symmetry_multiplicity
 _atom_site_fract_x
 _atom_site_fract_y
 _atom_site_fract_z
 _atom_site_occupancy
  Pr  Pr0  1  0.139627  0.473379  0.890923  1
  Pr  Pr1  1  0.359819  0.972507  0.890729  1
  Pr  Pr2  1  0.616540  0.333259  0.750000  1
  Pr  Pr3  1  0.640125  0.027161  0.390586  1
  Pr  Pr4  1  0.859854  0.526988  0.109565  1
  Pr  Pr5  1  0.859854  0.526988  0.390435  1
  Pr  Pr6  1  0.359819  0.972507  0.609271  1
  Pr  Pr7  1  0.139627  0.473379  0.609077  1
  Pr  Pr8  1  0.640125  0.027161  0.109414  1
  Nd  Nd9  1  0.381423  0.666117  0.250000  1
  Nd  Nd10  1  0.882119  0.833515  0.750000  1
  Nd  Nd11  1  0.118397  0.166054  0.250000  1
  Si  Si12  1  0.366249  0.373883  0.097991  1
  Si  Si13  1  0.633837  0.626530  0.902375  1
  Si  Si14  1  0.866737  0.125856  0.902550  1
  Si  Si15  1  0.366249  0.373883  0.402009  1
  Si  Si16  1  0.866737  0.125856  0.597450  1
  Si  Si17  1  0.633837  0.626530  0.597625  1
  Si  Si18  1  0.133841  0.873826  0.402044  1
  Si  Si19  1  0.133841  0.873826  0.097956  1
  Rh  Rh20  1  0.603335  0.337750  0.962654  1
  Rh  Rh21  1  0.397072  0.662263  0.037882  1
  Rh  Rh22  1  0.570737  0.320488  0.250000  1
  Rh  Rh23  1  0.397072  0.662263  0.462118  1
  Rh  Rh24  1  0.072146  0.178845  0.750000  1
  Rh  Rh25  1  0.103123  0.162252  0.462091  1
  Rh  Rh26  1  0.427679  0.681130  0.750000  1
  Rh  Rh27  1  0.928865  0.820464  0.250000  1
  Rh  Rh28  1  0.103123  0.162252  0.037909  1
  Rh  Rh29  1  0.603335  0.337750  0.537346  1
  Rh  Rh30  1  0.897430  0.837669  0.537508  1
  Rh  Rh31  1  0.897430  0.837669  0.962492  1
