# generated using pymatgen
data_YbDy2Ho(B4Ru)4
_symmetry_space_group_name_H-M   'P 1'
_cell_length_a   3.54480500
_cell_length_b   5.95742043
_cell_length_c   11.51429403
_cell_angle_alpha   89.97391761
_cell_angle_beta   90.00000000
_cell_angle_gamma   90.00000000
_symmetry_Int_Tables_number   1
_chemical_formula_structural   YbDy2Ho(B4Ru)4
_chemical_formula_sum   'Yb1 Dy2 Ho1 B16 Ru4'
_cell_volume   243.15761258
_cell_formula_units_Z   1
loop_
 _symmetry_equiv_pos_site_id
 _symmetry_equiv_pos_as_xyz
  1  'x, y, z'
loop_
 _atom_site_type_symbol
 _atom_site_label
 _atom_site_symmetry_multiplicity
 _atom_site_fract_x
 _atom_site_fract_y
 _atom_site_fract_z
 _atom_site_occupancy
  Yb  Yb0  1  0.000000  0.129887  0.850313  1
  Dy  Dy1  1  0.000000  0.629038  0.651192  1
  Dy  Dy2  1  0.000000  0.371619  0.349985  1
  Ho  Ho3  1  0.000000  0.871426  0.149058  1
  B  B4  1  0.500000  0.975457  0.691835  1
  B  B5  1  0.500000  0.023821  0.308046  1
  B  B6  1  0.500000  0.475777  0.808832  1
  B  B7  1  0.500000  0.524805  0.191498  1
  B  B8  1  0.500000  0.788569  0.814963  1
  B  B9  1  0.500000  0.210622  0.184905  1
  B  B10  1  0.500000  0.287577  0.685855  1
  B  B11  1  0.500000  0.711402  0.314215  1
  B  B12  1  0.500000  0.864321  0.969592  1
  B  B13  1  0.500000  0.135920  0.030224  1
  B  B14  1  0.500000  0.364019  0.530260  1
  B  B15  1  0.500000  0.636221  0.469551  1
  B  B16  1  0.500000  0.888356  0.546912  1
  B  B17  1  0.500000  0.112306  0.452999  1
  B  B18  1  0.500000  0.386498  0.953025  1
  B  B19  1  0.500000  0.612021  0.046312  1
  Ru  Ru20  1  0.000000  0.639559  0.909204  1
  Ru  Ru21  1  0.000000  0.360277  0.092350  1
  Ru  Ru22  1  0.000000  0.140594  0.591312  1
  Ru  Ru23  1  0.000000  0.859908  0.407563  1
