# generated using pymatgen
data_YbEuCuH6
_symmetry_space_group_name_H-M   'P 1'
_cell_length_a   6.87741945
_cell_length_b   6.87741851
_cell_length_c   5.17747800
_cell_angle_alpha   90.00000000
_cell_angle_beta   90.00000000
_cell_angle_gamma   135.73952529
_symmetry_Int_Tables_number   1
_chemical_formula_structural   YbEuCuH6
_chemical_formula_sum   'Yb2 Eu2 Cu2 H12'
_cell_volume   170.91325436
_cell_formula_units_Z   2
loop_
 _symmetry_equiv_pos_site_id
 _symmetry_equiv_pos_as_xyz
  1  'x, y, z'
loop_
 _atom_site_type_symbol
 _atom_site_label
 _atom_site_symmetry_multiplicity
 _atom_site_fract_x
 _atom_site_fract_y
 _atom_site_fract_z
 _atom_site_occupancy
  Yb  Yb0  1  0.858051  0.141949  0.500000  1
  Yb  Yb1  1  0.358051  0.641949  0.000000  1
  Eu  Eu2  1  0.149057  0.850943  0.500000  1
  Eu  Eu3  1  0.649057  0.350943  0.000000  1
  Cu  Cu4  1  0.494792  0.505208  0.500000  1
  Cu  Cu5  1  0.994792  0.005208  0.000000  1
  H  H6  1  0.003979  0.496011  0.749998  1
  H  H7  1  0.503989  0.996021  0.250002  1
  H  H8  1  0.003989  0.496021  0.249998  1
  H  H9  1  0.503979  0.996011  0.750002  1
  H  H10  1  0.367600  0.632400  0.500000  1
  H  H11  1  0.867600  0.132400  0.000000  1
  H  H12  1  0.625380  0.374620  0.500000  1
  H  H13  1  0.125380  0.874620  0.000000  1
  H  H14  1  0.248435  0.251279  0.750181  1
  H  H15  1  0.748721  0.751565  0.249819  1
  H  H16  1  0.248721  0.251565  0.250181  1
  H  H17  1  0.748435  0.751279  0.749819  1
