# generated using pymatgen
data_Ho2TiNb3(B2Ru5)2
_symmetry_space_group_name_H-M   'P 1'
_cell_length_a   9.51812382
_cell_length_b   9.50181987
_cell_length_c   3.08897400
_cell_angle_alpha   90.00000000
_cell_angle_beta   90.00000000
_cell_angle_gamma   90.50095588
_symmetry_Int_Tables_number   1
_chemical_formula_structural   Ho2TiNb3(B2Ru5)2
_chemical_formula_sum   'Ho2 Ti1 Nb3 B4 Ru10'
_cell_volume   279.35457989
_cell_formula_units_Z   1
loop_
 _symmetry_equiv_pos_site_id
 _symmetry_equiv_pos_as_xyz
  1  'x, y, z'
loop_
 _atom_site_type_symbol
 _atom_site_label
 _atom_site_symmetry_multiplicity
 _atom_site_fract_x
 _atom_site_fract_y
 _atom_site_fract_z
 _atom_site_occupancy
  Ho  Ho0  1  0.822717  0.674570  0.000000  1
  Ho  Ho1  1  0.177283  0.325430  0.000000  1
  Ti  Ti2  1  0.500000  0.500000  0.000000  1
  Nb  Nb3  1  0.326639  0.822010  0.000000  1
  Nb  Nb4  1  0.673361  0.177990  0.000000  1
  Nb  Nb5  1  0.000000  0.000000  0.000000  1
  B  B6  1  0.618611  0.875412  0.000000  1
  B  B7  1  0.381389  0.124588  0.000000  1
  B  B8  1  0.125034  0.619990  0.000000  1
  B  B9  1  0.874966  0.380010  0.000000  1
  Ru  Ru10  1  0.559320  0.720512  0.500000  1
  Ru  Ru11  1  0.440680  0.279488  0.500000  1
  Ru  Ru12  1  0.082175  0.784913  0.500000  1
  Ru  Ru13  1  0.917825  0.215087  0.500000  1
  Ru  Ru14  1  0.287225  0.580614  0.500000  1
  Ru  Ru15  1  0.712775  0.419386  0.500000  1
  Ru  Ru16  1  0.223376  0.060457  0.500000  1
  Ru  Ru17  1  0.776624  0.939543  0.500000  1
  Ru  Ru18  1  0.500000  0.000000  0.500000  1
  Ru  Ru19  1  0.000000  0.500000  0.500000  1
