# generated using pymatgen
data_Cs2BiF7
_symmetry_space_group_name_H-M   'P 1'
_cell_length_a   8.02209982
_cell_length_b   8.02210082
_cell_length_c   9.34554805
_cell_angle_alpha   59.41467328
_cell_angle_beta   59.41466735
_cell_angle_gamma   53.99347736
_symmetry_Int_Tables_number   1
_chemical_formula_structural   Cs2BiF7
_chemical_formula_sum   'Cs4 Bi2 F14'
_cell_volume   399.39466467
_cell_formula_units_Z   2
loop_
 _symmetry_equiv_pos_site_id
 _symmetry_equiv_pos_as_xyz
  1  'x, y, z'
loop_
 _atom_site_type_symbol
 _atom_site_label
 _atom_site_symmetry_multiplicity
 _atom_site_fract_x
 _atom_site_fract_y
 _atom_site_fract_z
 _atom_site_occupancy
  Cs  Cs0  1  0.833823  0.822866  0.620087  1
  Cs  Cs1  1  0.177134  0.166177  0.879913  1
  Cs  Cs2  1  0.166177  0.177134  0.379913  1
  Cs  Cs3  1  0.822866  0.833823  0.120087  1
  Bi  Bi4  1  0.439926  0.560074  0.750000  1
  Bi  Bi5  1  0.560074  0.439926  0.250000  1
  F  F6  1  0.556878  0.295106  0.118587  1
  F  F7  1  0.704894  0.443122  0.381413  1
  F  F8  1  0.443122  0.704894  0.881413  1
  F  F9  1  0.295106  0.556878  0.618587  1
  F  F10  1  0.570598  0.223988  0.795309  1
  F  F11  1  0.776012  0.429402  0.704691  1
  F  F12  1  0.429402  0.776012  0.204691  1
  F  F13  1  0.223988  0.570598  0.295309  1
  F  F14  1  0.535307  0.779822  0.516369  1
  F  F15  1  0.220178  0.464693  0.983631  1
  F  F16  1  0.464693  0.220178  0.483631  1
  F  F17  1  0.779822  0.535307  0.016369  1
  F  F18  1  0.143837  0.856163  0.750000  1
  F  F19  1  0.856163  0.143837  0.250000  1
