# generated using pymatgen
data_Tb3Er7(In2Ni)4
_symmetry_space_group_name_H-M   'P 1'
_cell_length_a   3.57898200
_cell_length_b   7.97013335
_cell_length_c   17.88117508
_cell_angle_alpha   89.93483971
_cell_angle_beta   90.00000000
_cell_angle_gamma   90.00000000
_symmetry_Int_Tables_number   1
_chemical_formula_structural   Tb3Er7(In2Ni)4
_chemical_formula_sum   'Tb3 Er7 In8 Ni4'
_cell_volume   510.05954180
_cell_formula_units_Z   1
loop_
 _symmetry_equiv_pos_site_id
 _symmetry_equiv_pos_as_xyz
  1  'x, y, z'
loop_
 _atom_site_type_symbol
 _atom_site_label
 _atom_site_symmetry_multiplicity
 _atom_site_fract_x
 _atom_site_fract_y
 _atom_site_fract_z
 _atom_site_occupancy
  Tb  Tb0  1  0.000000  0.500821  0.500104  1
  Tb  Tb1  1  0.000000  0.999237  0.999297  1
  Tb  Tb2  1  0.000000  0.747223  0.278975  1
  Er  Er3  1  0.000000  0.253058  0.721275  1
  Er  Er4  1  0.000000  0.752931  0.778665  1
  Er  Er5  1  0.000000  0.247198  0.221161  1
  Er  Er6  1  0.000000  0.617871  0.088497  1
  Er  Er7  1  0.000000  0.381336  0.910826  1
  Er  Er8  1  0.000000  0.881909  0.589414  1
  Er  Er9  1  0.000000  0.119083  0.411860  1
  In  In10  1  0.500000  0.701776  0.930590  1
  In  In11  1  0.500000  0.296202  0.068357  1
  In  In12  1  0.500000  0.799149  0.432531  1
  In  In13  1  0.500000  0.202646  0.569260  1
  In  In14  1  0.500000  0.572515  0.653127  1
  In  In15  1  0.500000  0.425180  0.347575  1
  In  In16  1  0.500000  0.929342  0.151957  1
  In  In17  1  0.500000  0.072176  0.847132  1
  Ni  Ni18  1  0.500000  0.522177  0.194686  1
  Ni  Ni19  1  0.500000  0.473885  0.804180  1
  Ni  Ni20  1  0.500000  0.974788  0.695872  1
  Ni  Ni21  1  0.500000  0.029496  0.304660  1
