# generated using pymatgen
data_Zr4Fe8P12(Ir3W)3
_symmetry_space_group_name_H-M   'P 1'
_cell_length_a   3.85712500
_cell_length_b   10.51799098
_cell_length_c   12.33790200
_cell_angle_alpha   90.49654827
_cell_angle_beta   90.00000000
_cell_angle_gamma   90.00000000
_symmetry_Int_Tables_number   1
_chemical_formula_structural   Zr4Fe8P12(Ir3W)3
_chemical_formula_sum   'Zr4 Fe8 P12 Ir9 W3'
_cell_volume   500.52009070
_cell_formula_units_Z   1
loop_
 _symmetry_equiv_pos_site_id
 _symmetry_equiv_pos_as_xyz
  1  'x, y, z'
loop_
 _atom_site_type_symbol
 _atom_site_label
 _atom_site_symmetry_multiplicity
 _atom_site_fract_x
 _atom_site_fract_y
 _atom_site_fract_z
 _atom_site_occupancy
  Zr  Zr0  1  0.250000  0.582057  0.715446  1
  Zr  Zr1  1  0.250000  0.917514  0.213062  1
  Zr  Zr2  1  0.750000  0.423080  0.280545  1
  Zr  Zr3  1  0.750000  0.077200  0.790787  1
  Fe  Fe4  1  0.250000  0.878987  0.697891  1
  Fe  Fe5  1  0.250000  0.615776  0.197471  1
  Fe  Fe6  1  0.750000  0.117087  0.304467  1
  Fe  Fe7  1  0.750000  0.382366  0.798647  1
  Fe  Fe8  1  0.250000  0.461172  0.932596  1
  Fe  Fe9  1  0.250000  0.043150  0.439289  1
  Fe  Fe10  1  0.750000  0.536259  0.064111  1
  Fe  Fe11  1  0.750000  0.966167  0.566274  1
  P  P12  1  0.250000  0.434468  0.108553  1
  P  P13  1  0.250000  0.060246  0.617094  1
  P  P14  1  0.750000  0.564071  0.888602  1
  P  P15  1  0.750000  0.936630  0.390371  1
  P  P16  1  0.250000  0.270967  0.865745  1
  P  P17  1  0.250000  0.228593  0.362136  1
  P  P18  1  0.750000  0.726040  0.134053  1
  P  P19  1  0.750000  0.774669  0.634506  1
  P  P20  1  0.250000  0.599502  0.377530  1
  P  P21  1  0.250000  0.897863  0.880727  1
  P  P22  1  0.750000  0.404238  0.621344  1
  P  P23  1  0.750000  0.100284  0.121187  1
  Ir  Ir24  1  0.750000  0.214958  0.512719  1
  Ir  Ir25  1  0.250000  0.407881  0.471372  1
  Ir  Ir26  1  0.250000  0.092429  0.973239  1
  Ir  Ir27  1  0.750000  0.594314  0.526343  1
  Ir  Ir28  1  0.750000  0.906199  0.028744  1
  Ir  Ir29  1  0.250000  0.231379  0.176469  1
  Ir  Ir30  1  0.250000  0.266126  0.678390  1
  Ir  Ir31  1  0.750000  0.767168  0.822118  1
  Ir  Ir32  1  0.750000  0.733478  0.321828  1
  W  W33  1  0.250000  0.708171  0.988636  1
  W  W34  1  0.250000  0.790256  0.487045  1
  W  W35  1  0.750000  0.289257  0.010665  1
