# generated using pymatgen
data_Eu2ZnCuP3
_symmetry_space_group_name_H-M   'P 1'
_cell_length_a   7.91905003
_cell_length_b   7.91904922
_cell_length_c   11.38516648
_cell_angle_alpha   54.51772847
_cell_angle_beta   54.51773316
_cell_angle_gamma   29.55826471
_symmetry_Int_Tables_number   1
_chemical_formula_structural   Eu2ZnCuP3
_chemical_formula_sum   'Eu4 Zn2 Cu2 P6'
_cell_volume   281.68719444
_cell_formula_units_Z   2
loop_
 _symmetry_equiv_pos_site_id
 _symmetry_equiv_pos_as_xyz
  1  'x, y, z'
loop_
 _atom_site_type_symbol
 _atom_site_label
 _atom_site_symmetry_multiplicity
 _atom_site_fract_x
 _atom_site_fract_y
 _atom_site_fract_z
 _atom_site_occupancy
  Eu  Eu0  1  0.267198  0.267198  0.337508  1
  Eu  Eu1  1  0.732802  0.732802  0.662492  1
  Eu  Eu2  1  0.394255  0.394255  0.945181  1
  Eu  Eu3  1  0.605745  0.605745  0.054819  1
  Zn  Zn4  1  0.411589  0.411589  0.650342  1
  Zn  Zn5  1  0.588411  0.588411  0.349658  1
  Cu  Cu6  1  0.043528  0.043528  0.682449  1
  Cu  Cu7  1  0.956472  0.956472  0.317551  1
  P  P8  1  0.069603  0.069603  0.879412  1
  P  P9  1  0.930397  0.930397  0.120588  1
  P  P10  1  0.155263  0.155263  0.197978  1
  P  P11  1  0.844737  0.844737  0.802022  1
  P  P12  1  0.388463  0.388463  0.456658  1
  P  P13  1  0.611537  0.611537  0.543342  1
