# generated using pymatgen
data_Nd5Tm2LuAu4
_symmetry_space_group_name_H-M   'P 1'
_cell_length_a   4.97464600
_cell_length_b   7.32907157
_cell_length_c   9.05166704
_cell_angle_alpha   90.10468779
_cell_angle_beta   90.00000000
_cell_angle_gamma   90.00000000
_symmetry_Int_Tables_number   1
_chemical_formula_structural   Nd5Tm2LuAu4
_chemical_formula_sum   'Nd5 Tm2 Lu1 Au4'
_cell_volume   330.01903463
_cell_formula_units_Z   1
loop_
 _symmetry_equiv_pos_site_id
 _symmetry_equiv_pos_as_xyz
  1  'x, y, z'
loop_
 _atom_site_type_symbol
 _atom_site_label
 _atom_site_symmetry_multiplicity
 _atom_site_fract_x
 _atom_site_fract_y
 _atom_site_fract_z
 _atom_site_occupancy
  Nd  Nd0  1  0.750000  0.653375  0.414244  1
  Nd  Nd1  1  0.250000  0.484533  0.177357  1
  Nd  Nd2  1  0.250000  0.994503  0.325302  1
  Nd  Nd3  1  0.750000  0.511630  0.821132  1
  Nd  Nd4  1  0.750000  0.012911  0.679764  1
  Tm  Tm5  1  0.250000  0.852177  0.924521  1
  Tm  Tm6  1  0.250000  0.348827  0.582650  1
  Lu  Lu7  1  0.750000  0.150000  0.076855  1
  Au  Au8  1  0.250000  0.241279  0.900835  1
  Au  Au9  1  0.250000  0.741254  0.612321  1
  Au  Au10  1  0.750000  0.761835  0.086948  1
  Au  Au11  1  0.750000  0.247677  0.398070  1
