# generated using pymatgen
data_La16YbHg3Ru4
_symmetry_space_group_name_H-M   'P 1'
_cell_length_a   10.14064966
_cell_length_b   10.14064982
_cell_length_c   10.14065006
_cell_angle_alpha   59.71486772
_cell_angle_beta   59.71486685
_cell_angle_gamma   59.71486571
_symmetry_Int_Tables_number   1
_chemical_formula_structural   La16YbHg3Ru4
_chemical_formula_sum   'La16 Yb1 Hg3 Ru4'
_cell_volume   732.58942875
_cell_formula_units_Z   1
loop_
 _symmetry_equiv_pos_site_id
 _symmetry_equiv_pos_as_xyz
  1  'x, y, z'
loop_
 _atom_site_type_symbol
 _atom_site_label
 _atom_site_symmetry_multiplicity
 _atom_site_fract_x
 _atom_site_fract_y
 _atom_site_fract_z
 _atom_site_occupancy
  La  La0  1  0.596988  0.596988  0.596988  1
  La  La1  1  0.593302  0.593302  0.218767  1
  La  La2  1  0.593302  0.218767  0.593302  1
  La  La3  1  0.218767  0.593302  0.593302  1
  La  La4  1  0.059392  0.442601  0.442601  1
  La  La5  1  0.433335  0.067196  0.067196  1
  La  La6  1  0.442601  0.059392  0.442601  1
  La  La7  1  0.067196  0.433335  0.067196  1
  La  La8  1  0.442601  0.442601  0.059392  1
  La  La9  1  0.067196  0.067196  0.433335  1
  La  La10  1  0.187590  0.813359  0.813359  1
  La  La11  1  0.809103  0.192434  0.192434  1
  La  La12  1  0.813359  0.187590  0.813359  1
  La  La13  1  0.192434  0.809103  0.192434  1
  La  La14  1  0.813359  0.813359  0.187590  1
  La  La15  1  0.192434  0.192434  0.809103  1
  Yb  Yb16  1  0.813852  0.813852  0.813852  1
  Hg  Hg17  1  0.836773  0.836773  0.490114  1
  Hg  Hg18  1  0.836773  0.490114  0.836773  1
  Hg  Hg19  1  0.490114  0.836773  0.836773  1
  Ru  Ru20  1  0.388072  0.388072  0.388072  1
  Ru  Ru21  1  0.385444  0.385444  0.840565  1
  Ru  Ru22  1  0.385444  0.840565  0.385444  1
  Ru  Ru23  1  0.840565  0.385444  0.385444  1
