# generated using pymatgen
data_Y2Ga9Pd2Ru
_symmetry_space_group_name_H-M   'P 1'
_cell_length_a   7.61862430
_cell_length_b   7.61863038
_cell_length_c   9.54253800
_cell_angle_alpha   90.00000000
_cell_angle_beta   90.00000000
_cell_angle_gamma   119.64931799
_symmetry_Int_Tables_number   1
_chemical_formula_structural   Y2Ga9Pd2Ru
_chemical_formula_sum   'Y4 Ga18 Pd4 Ru2'
_cell_volume   481.36204047
_cell_formula_units_Z   2
loop_
 _symmetry_equiv_pos_site_id
 _symmetry_equiv_pos_as_xyz
  1  'x, y, z'
loop_
 _atom_site_type_symbol
 _atom_site_label
 _atom_site_symmetry_multiplicity
 _atom_site_fract_x
 _atom_site_fract_y
 _atom_site_fract_z
 _atom_site_occupancy
  Y  Y0  1  0.997394  0.668613  0.250000  1
  Y  Y1  1  0.002606  0.331387  0.750000  1
  Y  Y2  1  0.668614  0.997394  0.250000  1
  Y  Y3  1  0.331387  0.002606  0.750000  1
  Ga  Ga4  1  0.122891  0.122891  0.250000  1
  Ga  Ga5  1  0.877109  0.877109  0.750000  1
  Ga  Ga6  1  0.999786  0.330785  0.081358  1
  Ga  Ga7  1  0.000213  0.669214  0.918644  1
  Ga  Ga8  1  0.000213  0.669214  0.581356  1
  Ga  Ga9  1  0.330785  0.999786  0.418642  1
  Ga  Ga10  1  0.999786  0.330785  0.418642  1
  Ga  Ga11  1  0.669215  0.000212  0.581356  1
  Ga  Ga12  1  0.669215  0.000212  0.918644  1
  Ga  Ga13  1  0.330785  0.999786  0.081358  1
  Ga  Ga14  1  0.326962  0.326964  0.564209  1
  Ga  Ga15  1  0.673038  0.673038  0.435789  1
  Ga  Ga16  1  0.673038  0.673038  0.064211  1
  Ga  Ga17  1  0.326962  0.326964  0.935791  1
  Ga  Ga18  1  0.343353  0.546421  0.250000  1
  Ga  Ga19  1  0.656647  0.453580  0.750000  1
  Ga  Ga20  1  0.546421  0.343353  0.250000  1
  Ga  Ga21  1  0.453580  0.656646  0.750000  1
  Pd  Pd22  1  0.670903  0.329099  0.000000  1
  Pd  Pd23  1  0.329097  0.670903  0.000004  1
  Pd  Pd24  1  0.329097  0.670903  0.499996  1
  Pd  Pd25  1  0.670903  0.329099  0.500000  1
  Ru  Ru26  1  0.000001  0.999999  0.999999  1
  Ru  Ru27  1  0.000001  0.999999  0.500001  1
