# generated using pymatgen
data_TbCoH4
_symmetry_space_group_name_H-M   'P 1'
_cell_length_a   6.06153335
_cell_length_b   6.06153287
_cell_length_c   4.74158400
_cell_angle_alpha   90.00000000
_cell_angle_beta   90.00000000
_cell_angle_gamma   145.49416267
_symmetry_Int_Tables_number   1
_chemical_formula_structural   TbCoH4
_chemical_formula_sum   'Tb2 Co2 H8'
_cell_volume   98.69174098
_cell_formula_units_Z   2
loop_
 _symmetry_equiv_pos_site_id
 _symmetry_equiv_pos_as_xyz
  1  'x, y, z'
loop_
 _atom_site_type_symbol
 _atom_site_label
 _atom_site_symmetry_multiplicity
 _atom_site_fract_x
 _atom_site_fract_y
 _atom_site_fract_z
 _atom_site_occupancy
  Tb  Tb0  1  0.867759  0.132241  0.750000  1
  Tb  Tb1  1  0.132241  0.867759  0.250000  1
  Co  Co2  1  0.596567  0.403433  0.750000  1
  Co  Co3  1  0.403433  0.596567  0.250000  1
  H  H4  1  0.089874  0.910126  0.750000  1
  H  H5  1  0.910126  0.089874  0.250000  1
  H  H6  1  0.692150  0.307850  0.504101  1
  H  H7  1  0.307850  0.692150  0.495899  1
  H  H8  1  0.692150  0.307850  0.995899  1
  H  H9  1  0.307850  0.692150  0.004101  1
  H  H10  1  0.500000  0.500000  0.000000  1
  H  H11  1  0.500000  0.500000  0.500000  1
