# generated using pymatgen
data_Sm7Er12ThSi16
_symmetry_space_group_name_H-M   'P 1'
_cell_length_a   7.68718727
_cell_length_b   7.68596709
_cell_length_c   14.22299200
_cell_angle_alpha   90.00376457
_cell_angle_beta   89.93957517
_cell_angle_gamma   89.94100087
_symmetry_Int_Tables_number   1
_chemical_formula_structural   Sm7Er12ThSi16
_chemical_formula_sum   'Sm7 Er12 Th1 Si16'
_cell_volume   840.34278402
_cell_formula_units_Z   1
loop_
 _symmetry_equiv_pos_site_id
 _symmetry_equiv_pos_as_xyz
  1  'x, y, z'
loop_
 _atom_site_type_symbol
 _atom_site_label
 _atom_site_symmetry_multiplicity
 _atom_site_fract_x
 _atom_site_fract_y
 _atom_site_fract_z
 _atom_site_occupancy
  Sm  Sm0  1  0.991698  0.639960  0.041992  1
  Sm  Sm1  1  0.008143  0.360571  0.542878  1
  Sm  Sm2  1  0.639984  0.991430  0.957598  1
  Sm  Sm3  1  0.139713  0.507025  0.792774  1
  Sm  Sm4  1  0.859787  0.491620  0.291900  1
  Sm  Sm5  1  0.507504  0.139521  0.207001  1
  Sm  Sm6  1  0.493196  0.859746  0.708409  1
  Er  Er7  1  0.361406  0.492207  0.375709  1
  Er  Er8  1  0.860943  0.009658  0.373996  1
  Er  Er9  1  0.990052  0.138532  0.125388  1
  Er  Er10  1  0.008437  0.859999  0.626348  1
  Er  Er11  1  0.638989  0.508993  0.876173  1
  Er  Er12  1  0.492636  0.361654  0.624599  1
  Er  Er13  1  0.509325  0.637891  0.123916  1
  Er  Er14  1  0.138607  0.991845  0.874118  1
  Er  Er15  1  0.683181  0.683052  0.500298  1
  Er  Er16  1  0.817670  0.182995  0.750415  1
  Er  Er17  1  0.181989  0.816400  0.249743  1
  Er  Er18  1  0.316697  0.316730  0.999877  1
  Th  Th19  1  0.358662  0.009052  0.458423  1
  Si  Si20  1  0.062515  0.710169  0.438440  1
  Si  Si21  1  0.937347  0.290660  0.938317  1
  Si  Si22  1  0.708864  0.062714  0.562516  1
  Si  Si23  1  0.209037  0.438056  0.187564  1
  Si  Si24  1  0.791665  0.562753  0.688629  1
  Si  Si25  1  0.437251  0.209361  0.811688  1
  Si  Si26  1  0.561538  0.792378  0.312084  1
  Si  Si27  1  0.289689  0.936182  0.061277  1
  Si  Si28  1  0.846083  0.797408  0.811870  1
  Si  Si29  1  0.155109  0.202131  0.310164  1
  Si  Si30  1  0.796910  0.845458  0.188479  1
  Si  Si31  1  0.299378  0.655360  0.561984  1
  Si  Si32  1  0.701957  0.345308  0.060922  1
  Si  Si33  1  0.654690  0.298029  0.438485  1
  Si  Si34  1  0.345604  0.702442  0.938644  1
  Si  Si35  1  0.203745  0.152711  0.687382  1
