# generated using pymatgen
data_CeHo4Th5(Ge5Rh2)4
_symmetry_space_group_name_H-M   'P 1'
_cell_length_a   13.13177600
_cell_length_b   13.13177600
_cell_length_c   4.37177200
_cell_angle_alpha   90.00000000
_cell_angle_beta   90.00000000
_cell_angle_gamma   90.00000000
_symmetry_Int_Tables_number   1
_chemical_formula_structural   CeHo4Th5(Ge5Rh2)4
_chemical_formula_sum   'Ce1 Ho4 Th5 Ge20 Rh8'
_cell_volume   753.88384375
_cell_formula_units_Z   1
loop_
 _symmetry_equiv_pos_site_id
 _symmetry_equiv_pos_as_xyz
  1  'x, y, z'
loop_
 _atom_site_type_symbol
 _atom_site_label
 _atom_site_symmetry_multiplicity
 _atom_site_fract_x
 _atom_site_fract_y
 _atom_site_fract_z
 _atom_site_occupancy
  Ce  Ce0  1  0.500000  0.500000  0.000000  1
  Ho  Ho1  1  0.325031  0.824666  0.500000  1
  Ho  Ho2  1  0.824666  0.674969  0.500000  1
  Ho  Ho3  1  0.175334  0.325031  0.500000  1
  Ho  Ho4  1  0.674969  0.175334  0.500000  1
  Th  Th5  1  0.000000  0.000000  0.000000  1
  Th  Th6  1  0.887582  0.387855  0.500000  1
  Th  Th7  1  0.387855  0.112418  0.500000  1
  Th  Th8  1  0.612145  0.887582  0.500000  1
  Th  Th9  1  0.112418  0.612145  0.500000  1
  Ge  Ge10  1  0.432944  0.932974  0.000000  1
  Ge  Ge11  1  0.932974  0.567056  0.000000  1
  Ge  Ge12  1  0.067026  0.432944  0.000000  1
  Ge  Ge13  1  0.567056  0.067026  0.000000  1
  Ge  Ge14  1  0.338030  0.301048  0.000000  1
  Ge  Ge15  1  0.661970  0.698952  0.000000  1
  Ge  Ge16  1  0.698952  0.338030  0.000000  1
  Ge  Ge17  1  0.301048  0.661970  0.000000  1
  Ge  Ge18  1  0.800529  0.837572  0.000000  1
  Ge  Ge19  1  0.837572  0.199471  0.000000  1
  Ge  Ge20  1  0.162428  0.800529  0.000000  1
  Ge  Ge21  1  0.199471  0.162428  0.000000  1
  Ge  Ge22  1  0.339414  0.497136  0.500000  1
  Ge  Ge23  1  0.660586  0.502864  0.500000  1
  Ge  Ge24  1  0.502864  0.339414  0.500000  1
  Ge  Ge25  1  0.497136  0.660586  0.500000  1
  Ge  Ge26  1  0.997092  0.837614  0.500000  1
  Ge  Ge27  1  0.837614  0.002908  0.500000  1
  Ge  Ge28  1  0.002908  0.162386  0.500000  1
  Ge  Ge29  1  0.162386  0.997092  0.500000  1
  Rh  Rh30  1  0.255551  0.477441  0.000000  1
  Rh  Rh31  1  0.744449  0.522559  0.000000  1
  Rh  Rh32  1  0.522559  0.255551  0.000000  1
  Rh  Rh33  1  0.477441  0.744449  0.000000  1
  Rh  Rh34  1  0.977306  0.755711  0.000000  1
  Rh  Rh35  1  0.755711  0.022694  0.000000  1
  Rh  Rh36  1  0.244289  0.977306  0.000000  1
  Rh  Rh37  1  0.022694  0.244289  0.000000  1
