# generated using pymatgen
data_Gd8DyEr11Pb16
_symmetry_space_group_name_H-M   'P 1'
_cell_length_a   8.26494400
_cell_length_b   8.36219233
_cell_length_c   15.74799300
_cell_angle_alpha   89.99488173
_cell_angle_beta   90.00015251
_cell_angle_gamma   89.96807764
_symmetry_Int_Tables_number   1
_chemical_formula_structural   Gd8DyEr11Pb16
_chemical_formula_sum   'Gd8 Dy1 Er11 Pb16'
_cell_volume   1088.39167536
_cell_formula_units_Z   1
loop_
 _symmetry_equiv_pos_site_id
 _symmetry_equiv_pos_as_xyz
  1  'x, y, z'
loop_
 _atom_site_type_symbol
 _atom_site_label
 _atom_site_symmetry_multiplicity
 _atom_site_fract_x
 _atom_site_fract_y
 _atom_site_fract_z
 _atom_site_occupancy
  Gd  Gd0  1  0.469650  0.677622  0.598068  1
  Gd  Gd1  1  0.969417  0.822304  0.902031  1
  Gd  Gd2  1  0.530778  0.321939  0.098134  1
  Gd  Gd3  1  0.029693  0.178371  0.402216  1
  Gd  Gd4  1  0.530386  0.322111  0.401720  1
  Gd  Gd5  1  0.030550  0.178042  0.097970  1
  Gd  Gd6  1  0.469183  0.677824  0.902169  1
  Gd  Gd7  1  0.969671  0.821813  0.597788  1
  Dy  Dy8  1  0.629205  0.157023  0.621271  1
  Er  Er9  1  0.129319  0.343231  0.878707  1
  Er  Er10  1  0.370691  0.842670  0.121837  1
  Er  Er11  1  0.870633  0.656855  0.377730  1
  Er  Er12  1  0.370568  0.843310  0.378192  1
  Er  Er13  1  0.870668  0.656937  0.121831  1
  Er  Er14  1  0.629274  0.156843  0.878428  1
  Er  Er15  1  0.129722  0.343176  0.621735  1
  Er  Er16  1  0.795539  0.496039  0.750248  1
  Er  Er17  1  0.295059  0.003986  0.750263  1
  Er  Er18  1  0.204989  0.503947  0.250034  1
  Er  Er19  1  0.704973  0.995809  0.249846  1
  Pb  Pb20  1  0.712550  0.961852  0.455818  1
  Pb  Pb21  1  0.212484  0.537565  0.043707  1
  Pb  Pb22  1  0.287723  0.037511  0.956511  1
  Pb  Pb23  1  0.788271  0.463842  0.543390  1
  Pb  Pb24  1  0.285911  0.036918  0.543466  1
  Pb  Pb25  1  0.787581  0.462333  0.956516  1
  Pb  Pb26  1  0.712256  0.962313  0.043528  1
  Pb  Pb27  1  0.212531  0.537776  0.456446  1
  Pb  Pb28  1  0.434040  0.372078  0.750351  1
  Pb  Pb29  1  0.934815  0.128563  0.750253  1
  Pb  Pb30  1  0.565533  0.628567  0.249961  1
  Pb  Pb31  1  0.065603  0.871549  0.249882  1
  Pb  Pb32  1  0.657694  0.846823  0.750193  1
  Pb  Pb33  1  0.157699  0.652715  0.750046  1
  Pb  Pb34  1  0.342590  0.152682  0.249879  1
  Pb  Pb35  1  0.842754  0.347057  0.249834  1
