# generated using pymatgen
data_Y(PaI4)3
_symmetry_space_group_name_H-M   'P 1'
_cell_length_a   7.44775878
_cell_length_b   8.27972454
_cell_length_c   14.46762500
_cell_angle_alpha   90.00000000
_cell_angle_beta   90.00000000
_cell_angle_gamma   89.85089018
_symmetry_Int_Tables_number   1
_chemical_formula_structural   Y(PaI4)3
_chemical_formula_sum   'Y1 Pa3 I12'
_cell_volume   892.14873370
_cell_formula_units_Z   1
loop_
 _symmetry_equiv_pos_site_id
 _symmetry_equiv_pos_as_xyz
  1  'x, y, z'
loop_
 _atom_site_type_symbol
 _atom_site_label
 _atom_site_symmetry_multiplicity
 _atom_site_fract_x
 _atom_site_fract_y
 _atom_site_fract_z
 _atom_site_occupancy
  Y  Y0  1  0.750013  0.247895  0.000000  1
  Pa  Pa1  1  0.250128  0.752260  0.500000  1
  Pa  Pa2  1  0.749965  0.751846  0.500000  1
  Pa  Pa3  1  0.249913  0.247939  0.000000  1
  I  I4  1  0.000013  0.601246  0.650790  1
  I  I5  1  0.000649  0.056059  0.500000  1
  I  I6  1  0.997707  0.100042  0.852406  1
  I  I7  1  0.997707  0.100042  0.147594  1
  I  I8  1  0.500034  0.902535  0.349792  1
  I  I9  1  0.502257  0.395802  0.147611  1
  I  I10  1  0.499395  0.448801  0.500000  1
  I  I11  1  0.500034  0.902535  0.650208  1
  I  I12  1  0.502257  0.395802  0.852389  1
  I  I13  1  0.502623  0.950227  0.000000  1
  I  I14  1  0.997291  0.545720  0.000000  1
  I  I15  1  0.000013  0.601246  0.349210  1
