# generated using pymatgen
data_Tb2ThAlIn2Pt3
_symmetry_space_group_name_H-M   'P 1'
_cell_length_a   7.65902252
_cell_length_b   7.58731558
_cell_length_c   3.97652800
_cell_angle_alpha   90.00000000
_cell_angle_beta   90.00000000
_cell_angle_gamma   120.89875053
_symmetry_Int_Tables_number   1
_chemical_formula_structural   Tb2ThAlIn2Pt3
_chemical_formula_sum   'Tb2 Th1 Al1 In2 Pt3'
_cell_volume   198.28567849
_cell_formula_units_Z   1
loop_
 _symmetry_equiv_pos_site_id
 _symmetry_equiv_pos_as_xyz
  1  'x, y, z'
loop_
 _atom_site_type_symbol
 _atom_site_label
 _atom_site_symmetry_multiplicity
 _atom_site_fract_x
 _atom_site_fract_y
 _atom_site_fract_z
 _atom_site_occupancy
  Tb  Tb0  1  0.003525  0.406752  0.000000  1
  Tb  Tb1  1  0.582388  0.584778  0.000000  1
  Th  Th2  1  0.410765  0.001422  0.000000  1
  Al  Al3  1  0.249200  0.257683  0.500000  1
  In  In4  1  0.987996  0.737697  0.500000  1
  In  In5  1  0.757236  0.999799  0.500000  1
  Pt  Pt6  1  0.036794  0.031637  0.000000  1
  Pt  Pt7  1  0.642396  0.321850  0.500000  1
  Pt  Pt8  1  0.329700  0.658381  0.500000  1
