# generated using pymatgen
data_La4Ga10Pt5Rh
_symmetry_space_group_name_H-M   'P 1'
_cell_length_a   8.77089971
_cell_length_b   8.77022922
_cell_length_c   8.76932000
_cell_angle_alpha   140.52110626
_cell_angle_beta   107.09652666
_cell_angle_gamma   86.22967159
_symmetry_Int_Tables_number   1
_chemical_formula_structural   La4Ga10Pt5Rh
_chemical_formula_sum   'La4 Ga10 Pt5 Rh1'
_cell_volume   395.25258341
_cell_formula_units_Z   1
loop_
 _symmetry_equiv_pos_site_id
 _symmetry_equiv_pos_as_xyz
  1  'x, y, z'
loop_
 _atom_site_type_symbol
 _atom_site_label
 _atom_site_symmetry_multiplicity
 _atom_site_fract_x
 _atom_site_fract_y
 _atom_site_fract_z
 _atom_site_occupancy
  La  La0  1  0.087844  0.862551  0.223750  1
  La  La1  1  0.638790  0.364035  0.276213  1
  La  La2  1  0.912093  0.135979  0.774820  1
  La  La3  1  0.361199  0.637316  0.725193  1
  Ga  Ga4  1  0.289288  0.039205  0.749946  1
  Ga  Ga5  1  0.287255  0.537322  0.250073  1
  Ga  Ga6  1  0.000145  0.250104  0.250108  1
  Ga  Ga7  1  0.243741  0.398810  0.835713  1
  Ga  Ga8  1  0.756224  0.592013  0.155107  1
  Ga  Ga9  1  0.710793  0.460750  0.749974  1
  Ga  Ga10  1  0.563159  0.908019  0.664295  1
  Ga  Ga11  1  0.712697  0.962756  0.250027  1
  Ga  Ga12  1  0.436916  0.101199  0.344885  1
  Ga  Ga13  1  0.999869  0.749924  0.749927  1
  Pt  Pt14  1  0.040847  0.645731  0.398059  1
  Pt  Pt15  1  0.752392  0.854477  0.895405  1
  Pt  Pt16  1  0.959148  0.357018  0.604703  1
  Pt  Pt17  1  0.247630  0.142772  0.101837  1
  Pt  Pt18  1  0.500004  0.750026  0.249998  1
  Rh  Rh19  1  0.499965  0.249992  0.749968  1
