# generated using pymatgen
data_Ho2ErTm13(Ga3Co)2
_symmetry_space_group_name_H-M   'P 1'
_cell_length_a   9.88890600
_cell_length_b   9.88965699
_cell_length_c   6.83600400
_cell_angle_alpha   89.99919577
_cell_angle_beta   89.99961603
_cell_angle_gamma   119.99773104
_symmetry_Int_Tables_number   1
_chemical_formula_structural   Ho2ErTm13(Ga3Co)2
_chemical_formula_sum   'Ho2 Er1 Tm13 Ga6 Co2'
_cell_volume   578.99171119
_cell_formula_units_Z   1
loop_
 _symmetry_equiv_pos_site_id
 _symmetry_equiv_pos_as_xyz
  1  'x, y, z'
loop_
 _atom_site_type_symbol
 _atom_site_label
 _atom_site_symmetry_multiplicity
 _atom_site_fract_x
 _atom_site_fract_y
 _atom_site_fract_z
 _atom_site_occupancy
  Ho  Ho0  1  0.000019  0.000041  0.269920  1
  Ho  Ho1  1  0.000003  0.000004  0.769913  1
  Er  Er2  1  0.535775  0.071543  0.793091  1
  Tm  Tm3  1  0.173351  0.826449  0.991211  1
  Tm  Tm4  1  0.826657  0.173494  0.490995  1
  Tm  Tm5  1  0.173482  0.346961  0.991118  1
  Tm  Tm6  1  0.653096  0.826446  0.991218  1
  Tm  Tm7  1  0.346838  0.173497  0.490997  1
  Tm  Tm8  1  0.826526  0.653056  0.491117  1
  Tm  Tm9  1  0.333284  0.666564  0.672292  1
  Tm  Tm10  1  0.666731  0.333467  0.172387  1
  Tm  Tm11  1  0.464059  0.535957  0.292985  1
  Tm  Tm12  1  0.535944  0.464132  0.793027  1
  Tm  Tm13  1  0.464014  0.928034  0.292970  1
  Tm  Tm14  1  0.071900  0.535957  0.292990  1
  Tm  Tm15  1  0.928189  0.464132  0.793029  1
  Ga  Ga16  1  0.163622  0.836383  0.540116  1
  Ga  Ga17  1  0.836496  0.163650  0.040236  1
  Ga  Ga18  1  0.163619  0.327240  0.540163  1
  Ga  Ga19  1  0.672761  0.836386  0.540116  1
  Ga  Ga20  1  0.327153  0.163650  0.040240  1
  Ga  Ga21  1  0.836382  0.672760  0.040127  1
  Co  Co22  1  0.333335  0.666668  0.057976  1
  Co  Co23  1  0.666766  0.333528  0.557889  1
