# generated using pymatgen
data_Hf6Ga5SnRh6
_symmetry_space_group_name_H-M   'P 1'
_cell_length_a   7.21972633
_cell_length_b   7.21972659
_cell_length_c   6.90442316
_cell_angle_alpha   90.02071507
_cell_angle_beta   89.97928650
_cell_angle_gamma   119.87607049
_symmetry_Int_Tables_number   1
_chemical_formula_structural   Hf6Ga5SnRh6
_chemical_formula_sum   'Hf6 Ga5 Sn1 Rh6'
_cell_volume   312.06170226
_cell_formula_units_Z   1
loop_
 _symmetry_equiv_pos_site_id
 _symmetry_equiv_pos_as_xyz
  1  'x, y, z'
loop_
 _atom_site_type_symbol
 _atom_site_label
 _atom_site_symmetry_multiplicity
 _atom_site_fract_x
 _atom_site_fract_y
 _atom_site_fract_z
 _atom_site_occupancy
  Hf  Hf0  1  0.999445  0.401739  0.748103  1
  Hf  Hf1  1  0.606980  0.612557  0.746683  1
  Hf  Hf2  1  0.395848  0.987125  0.748839  1
  Hf  Hf3  1  0.987125  0.395848  0.251161  1
  Hf  Hf4  1  0.612557  0.606980  0.253317  1
  Hf  Hf5  1  0.401739  0.999445  0.251897  1
  Ga  Ga6  1  0.276005  0.276005  0.500000  1
  Ga  Ga7  1  0.003586  0.721894  0.499836  1
  Ga  Ga8  1  0.000139  0.741306  0.999849  1
  Ga  Ga9  1  0.721894  0.003586  0.500164  1
  Ga  Ga10  1  0.741306  0.000139  0.000151  1
  Sn  Sn11  1  0.256268  0.256268  0.000000  1
  Rh  Rh12  1  0.335499  0.666324  0.491323  1
  Rh  Rh13  1  0.666324  0.335499  0.508677  1
  Rh  Rh14  1  0.335713  0.672079  0.008737  1
  Rh  Rh15  1  0.993869  0.993625  0.723315  1
  Rh  Rh16  1  0.993625  0.993869  0.276685  1
  Rh  Rh17  1  0.672079  0.335713  0.991263  1
