# generated using pymatgen
data_TbY3Ga17SiIr6
_symmetry_space_group_name_H-M   'P 1'
_cell_length_a   7.58607049
_cell_length_b   7.56702030
_cell_length_c   9.49430303
_cell_angle_alpha   90.06258950
_cell_angle_beta   89.80756858
_cell_angle_gamma   119.89474417
_symmetry_Int_Tables_number   1
_chemical_formula_structural   TbY3Ga17SiIr6
_chemical_formula_sum   'Tb1 Y3 Ga17 Si1 Ir6'
_cell_volume   472.48997123
_cell_formula_units_Z   1
loop_
 _symmetry_equiv_pos_site_id
 _symmetry_equiv_pos_as_xyz
  1  'x, y, z'
loop_
 _atom_site_type_symbol
 _atom_site_label
 _atom_site_symmetry_multiplicity
 _atom_site_fract_x
 _atom_site_fract_y
 _atom_site_fract_z
 _atom_site_occupancy
  Tb  Tb0  1  0.997000  0.664829  0.248147  1
  Y  Y1  1  0.002772  0.331132  0.751106  1
  Y  Y2  1  0.673862  0.002148  0.248169  1
  Y  Y3  1  0.330606  0.002647  0.749856  1
  Ga  Ga4  1  0.129900  0.129187  0.250908  1
  Ga  Ga5  1  0.872855  0.874159  0.750753  1
  Ga  Ga6  1  0.998923  0.671099  0.917765  1
  Ga  Ga7  1  0.000470  0.665912  0.579887  1
  Ga  Ga8  1  0.333899  0.998139  0.419785  1
  Ga  Ga9  1  0.999614  0.334566  0.420861  1
  Ga  Ga10  1  0.665254  0.000225  0.579966  1
  Ga  Ga11  1  0.658362  0.994274  0.917874  1
  Ga  Ga12  1  0.333628  0.997958  0.081240  1
  Ga  Ga13  1  0.332351  0.331655  0.564189  1
  Ga  Ga14  1  0.668538  0.669002  0.435309  1
  Ga  Ga15  1  0.667987  0.669155  0.066937  1
  Ga  Ga16  1  0.338572  0.332594  0.934103  1
  Ga  Ga17  1  0.341131  0.546169  0.251616  1
  Ga  Ga18  1  0.661270  0.452279  0.751168  1
  Ga  Ga19  1  0.547395  0.339642  0.250600  1
  Ga  Ga20  1  0.451803  0.659251  0.750448  1
  Si  Si21  1  0.999802  0.334346  0.072285  1
  Ir  Ir22  1  0.683984  0.329475  0.003461  1
  Ir  Ir23  1  0.313047  0.656052  0.001666  1
  Ir  Ir24  1  0.328151  0.671024  0.500477  1
  Ir  Ir25  1  0.671313  0.328595  0.500217  1
  Ir  Ir26  1  0.998137  0.014499  0.001437  1
  Ir  Ir27  1  0.999372  0.999987  0.499771  1
