# generated using pymatgen
data_Hg4Ir3RhO14
_symmetry_space_group_name_H-M   'P 1'
_cell_length_a   7.34171499
_cell_length_b   7.34171470
_cell_length_c   7.31393869
_cell_angle_alpha   59.87428789
_cell_angle_beta   59.87430261
_cell_angle_gamma   59.99999678
_symmetry_Int_Tables_number   1
_chemical_formula_structural   Hg4Ir3RhO14
_chemical_formula_sum   'Hg4 Ir3 Rh1 O14'
_cell_volume   278.22973512
_cell_formula_units_Z   1
loop_
 _symmetry_equiv_pos_site_id
 _symmetry_equiv_pos_as_xyz
  1  'x, y, z'
loop_
 _atom_site_type_symbol
 _atom_site_label
 _atom_site_symmetry_multiplicity
 _atom_site_fract_x
 _atom_site_fract_y
 _atom_site_fract_z
 _atom_site_occupancy
  Hg  Hg0  1  0.625000  0.125000  0.125000  1
  Hg  Hg1  1  0.125000  0.625000  0.125000  1
  Hg  Hg2  1  0.125000  0.125000  0.625000  1
  Hg  Hg3  1  0.125000  0.125000  0.125000  1
  Ir  Ir4  1  0.125000  0.625000  0.625000  1
  Ir  Ir5  1  0.625000  0.125000  0.625000  1
  Ir  Ir6  1  0.625000  0.625000  0.625000  1
  Rh  Rh7  1  0.625000  0.625000  0.125000  1
  O  O8  1  0.696466  0.696466  0.307707  1
  O  O9  1  0.305882  0.305882  0.691422  1
  O  O10  1  0.696812  0.305882  0.691422  1
  O  O11  1  0.299361  0.696466  0.307707  1
  O  O12  1  0.305882  0.696812  0.691422  1
  O  O13  1  0.696466  0.299361  0.307707  1
  O  O14  1  0.553534  0.553534  0.942293  1
  O  O15  1  0.944118  0.944118  0.558578  1
  O  O16  1  0.553188  0.944118  0.558578  1
  O  O17  1  0.950639  0.553534  0.942293  1
  O  O18  1  0.944118  0.553188  0.558578  1
  O  O19  1  0.553534  0.950639  0.942293  1
  O  O20  1  0.249811  0.249811  0.250566  1
  O  O21  1  0.000189  0.000189  0.999434  1
