# generated using pymatgen
data_Pr6Al24Ru3PtRh4
_symmetry_space_group_name_H-M   'P 1'
_cell_length_a   8.92935600
_cell_length_b   8.94949081
_cell_length_c   9.67420323
_cell_angle_alpha   89.95140893
_cell_angle_beta   90.00000000
_cell_angle_gamma   119.92560417
_symmetry_Int_Tables_number   1
_chemical_formula_structural   Pr6Al24Ru3PtRh4
_chemical_formula_sum   'Pr6 Al24 Ru3 Pt1 Rh4'
_cell_volume   670.02218192
_cell_formula_units_Z   1
loop_
 _symmetry_equiv_pos_site_id
 _symmetry_equiv_pos_as_xyz
  1  'x, y, z'
loop_
 _atom_site_type_symbol
 _atom_site_label
 _atom_site_symmetry_multiplicity
 _atom_site_fract_x
 _atom_site_fract_y
 _atom_site_fract_z
 _atom_site_occupancy
  Pr  Pr0  1  0.190313  0.380626  0.251419  1
  Pr  Pr1  1  0.809687  0.619374  0.748581  1
  Pr  Pr2  1  0.619371  0.810505  0.249321  1
  Pr  Pr3  1  0.380629  0.189495  0.750679  1
  Pr  Pr4  1  0.191135  0.810505  0.249321  1
  Pr  Pr5  1  0.808865  0.189495  0.750679  1
  Al  Al6  1  0.331587  0.663176  0.021264  1
  Al  Al7  1  0.668413  0.336824  0.978736  1
  Al  Al8  1  0.665560  0.331119  0.520264  1
  Al  Al9  1  0.334440  0.668881  0.479736  1
  Al  Al10  1  0.163540  0.327079  0.574777  1
  Al  Al11  1  0.836460  0.672921  0.425223  1
  Al  Al12  1  0.672936  0.837972  0.574102  1
  Al  Al13  1  0.836921  0.673842  0.074624  1
  Al  Al14  1  0.327064  0.162028  0.425898  1
  Al  Al15  1  0.163079  0.326158  0.925376  1
  Al  Al16  1  0.165038  0.837972  0.574102  1
  Al  Al17  1  0.326064  0.166666  0.076385  1
  Al  Al18  1  0.834962  0.162028  0.425898  1
  Al  Al19  1  0.673936  0.833334  0.923615  1
  Al  Al20  1  0.840601  0.166666  0.076385  1
  Al  Al21  1  0.159399  0.833334  0.923615  1
  Al  Al22  1  0.563795  0.127588  0.253620  1
  Al  Al23  1  0.436205  0.872412  0.746380  1
  Al  Al24  1  0.873931  0.437176  0.249378  1
  Al  Al25  1  0.126069  0.562824  0.750622  1
  Al  Al26  1  0.563245  0.437176  0.249378  1
  Al  Al27  1  0.436755  0.562824  0.750622  1
  Al  Al28  1  0.000648  0.001297  0.250129  1
  Al  Al29  1  0.999352  0.998703  0.749871  1
  Ru  Ru30  1  0.500000  0.000000  0.500000  1
  Ru  Ru31  1  0.000000  0.000000  0.000000  1
  Ru  Ru32  1  0.000000  0.000000  0.500000  1
  Pt  Pt33  1  0.500000  0.000000  0.000000  1
  Rh  Rh34  1  0.000000  0.500000  0.000000  1
  Rh  Rh35  1  0.500000  0.500000  0.000000  1
  Rh  Rh36  1  0.000000  0.500000  0.500000  1
  Rh  Rh37  1  0.500000  0.500000  0.500000  1
