# generated using pymatgen
data_HoLu3B12MoRh
_symmetry_space_group_name_H-M   'P 1'
_cell_length_a   3.61525400
_cell_length_b   9.09852428
_cell_length_c   11.50043102
_cell_angle_alpha   90.38920499
_cell_angle_beta   90.00000000
_cell_angle_gamma   90.00000000
_symmetry_Int_Tables_number   1
_chemical_formula_structural   HoLu3B12MoRh
_chemical_formula_sum   'Ho2 Lu6 B24 Mo2 Rh2'
_cell_volume   378.28042739
_cell_formula_units_Z   2
loop_
 _symmetry_equiv_pos_site_id
 _symmetry_equiv_pos_as_xyz
  1  'x, y, z'
loop_
 _atom_site_type_symbol
 _atom_site_label
 _atom_site_symmetry_multiplicity
 _atom_site_fract_x
 _atom_site_fract_y
 _atom_site_fract_z
 _atom_site_occupancy
  Ho  Ho0  1  0.500000  0.318291  0.411953  1
  Ho  Ho1  1  0.500000  0.681709  0.588047  1
  Lu  Lu2  1  0.500000  0.175441  0.917251  1
  Lu  Lu3  1  0.500000  0.824559  0.082749  1
  Lu  Lu4  1  0.500000  0.443202  0.126470  1
  Lu  Lu5  1  0.500000  0.556798  0.873530  1
  Lu  Lu6  1  0.500000  0.055097  0.628239  1
  Lu  Lu7  1  0.500000  0.944903  0.371761  1
  B  B8  1  0.000000  0.103907  0.472617  1
  B  B9  1  0.000000  0.896093  0.527383  1
  B  B10  1  0.000000  0.396089  0.970531  1
  B  B11  1  0.000000  0.603911  0.029469  1
  B  B12  1  0.000000  0.131168  0.317725  1
  B  B13  1  0.000000  0.868832  0.682275  1
  B  B14  1  0.000000  0.368867  0.816769  1
  B  B15  1  0.000000  0.631133  0.183231  1
  B  B16  1  0.000000  0.051462  0.065450  1
  B  B17  1  0.000000  0.948538  0.934550  1
  B  B18  1  0.000000  0.445739  0.565756  1
  B  B19  1  0.000000  0.554261  0.434244  1
  B  B20  1  0.000000  0.482993  0.287660  1
  B  B21  1  0.000000  0.517007  0.712340  1
  B  B22  1  0.000000  0.022041  0.786541  1
  B  B23  1  0.000000  0.977959  0.213459  1
  B  B24  1  0.000000  0.250977  0.078686  1
  B  B25  1  0.000000  0.749023  0.921314  1
  B  B26  1  0.000000  0.249423  0.579628  1
  B  B27  1  0.000000  0.750577  0.420372  1
  B  B28  1  0.000000  0.295855  0.236224  1
  B  B29  1  0.000000  0.704145  0.763776  1
  B  B30  1  0.000000  0.208494  0.735053  1
  B  B31  1  0.000000  0.791506  0.264947  1
  Mo  Mo32  1  0.500000  0.138726  0.180957  1
  Mo  Mo33  1  0.500000  0.861274  0.819043  1
  Rh  Rh34  1  0.500000  0.361151  0.679231  1
  Rh  Rh35  1  0.500000  0.638849  0.320769  1
