# generated using pymatgen
data_Nb3Al2GaFe6
_symmetry_space_group_name_H-M   'P 1'
_cell_length_a   4.19113200
_cell_length_b   5.92389600
_cell_length_c   12.56394600
_cell_angle_alpha   90.00000000
_cell_angle_beta   89.99865521
_cell_angle_gamma   90.00000000
_symmetry_Int_Tables_number   1
_chemical_formula_structural   Nb3Al2GaFe6
_chemical_formula_sum   'Nb6 Al4 Ga2 Fe12'
_cell_volume   311.93551651
_cell_formula_units_Z   2
loop_
 _symmetry_equiv_pos_site_id
 _symmetry_equiv_pos_as_xyz
  1  'x, y, z'
loop_
 _atom_site_type_symbol
 _atom_site_label
 _atom_site_symmetry_multiplicity
 _atom_site_fract_x
 _atom_site_fract_y
 _atom_site_fract_z
 _atom_site_occupancy
  Nb  Nb0  1  0.999994  0.000000  0.000371  1
  Nb  Nb1  1  0.500136  0.500001  0.166283  1
  Nb  Nb2  1  0.000121  0.000000  0.332857  1
  Nb  Nb3  1  0.500000  0.500001  0.499901  1
  Nb  Nb4  1  0.999874  0.000000  0.666764  1
  Nb  Nb5  1  0.499857  0.500001  0.833825  1
  Al  Al6  1  0.000177  0.500001  0.333317  1
  Al  Al7  1  0.499999  0.000000  0.499975  1
  Al  Al8  1  0.999821  0.500001  0.666687  1
  Al  Al9  1  0.499823  0.000000  0.833353  1
  Ga  Ga10  1  0.999999  0.500001  0.000009  1
  Ga  Ga11  1  0.500201  0.000000  0.166657  1
  Fe  Fe12  1  0.499997  0.248723  0.999384  1
  Fe  Fe13  1  0.499997  0.751277  0.999384  1
  Fe  Fe14  1  0.000203  0.251238  0.167298  1
  Fe  Fe15  1  0.000203  0.748761  0.167298  1
  Fe  Fe16  1  0.500188  0.250619  0.333863  1
  Fe  Fe17  1  0.500188  0.749380  0.333863  1
  Fe  Fe18  1  0.999998  0.250151  0.499934  1
  Fe  Fe19  1  0.999998  0.749850  0.499934  1
  Fe  Fe20  1  0.499812  0.249892  0.666726  1
  Fe  Fe21  1  0.499812  0.750107  0.666726  1
  Fe  Fe22  1  0.999800  0.249372  0.832797  1
  Fe  Fe23  1  0.999800  0.750627  0.832797  1
