# generated using pymatgen
data_Tb7Dy4ThCo4
_symmetry_space_group_name_H-M   'P 1'
_cell_length_a   6.28451140
_cell_length_b   6.92603519
_cell_length_c   9.55937033
_cell_angle_alpha   89.99380638
_cell_angle_beta   90.12093417
_cell_angle_gamma   91.10803866
_symmetry_Int_Tables_number   1
_chemical_formula_structural   Tb7Dy4ThCo4
_chemical_formula_sum   'Tb7 Dy4 Th1 Co4'
_cell_volume   416.00956240
_cell_formula_units_Z   1
loop_
 _symmetry_equiv_pos_site_id
 _symmetry_equiv_pos_as_xyz
  1  'x, y, z'
loop_
 _atom_site_type_symbol
 _atom_site_label
 _atom_site_symmetry_multiplicity
 _atom_site_fract_x
 _atom_site_fract_y
 _atom_site_fract_z
 _atom_site_occupancy
  Tb  Tb0  1  0.673744  0.325747  0.932599  1
  Tb  Tb1  1  0.358369  0.953792  0.750158  1
  Tb  Tb2  1  0.855591  0.545907  0.249959  1
  Tb  Tb3  1  0.642190  0.044274  0.250004  1
  Tb  Tb4  1  0.175967  0.173375  0.430275  1
  Tb  Tb5  1  0.827050  0.823807  0.569578  1
  Tb  Tb6  1  0.176003  0.173417  0.069725  1
  Dy  Dy7  1  0.827447  0.824027  0.930594  1
  Dy  Dy8  1  0.673298  0.325743  0.567384  1
  Dy  Dy9  1  0.322873  0.674902  0.069184  1
  Dy  Dy10  1  0.322891  0.674922  0.430893  1
  Th  Th11  1  0.153631  0.445314  0.749929  1
  Co  Co12  1  0.532677  0.608694  0.749735  1
  Co  Co13  1  0.956255  0.129444  0.749975  1
  Co  Co14  1  0.049266  0.887194  0.249318  1
  Co  Co15  1  0.452751  0.389439  0.250691  1
