# generated using pymatgen
data_Li8TbDy7(Sn3Bi)2
_symmetry_space_group_name_H-M   'P 1'
_cell_length_a   9.45123595
_cell_length_b   9.45068413
_cell_length_c   7.29505917
_cell_angle_alpha   89.99930447
_cell_angle_beta   90.08385675
_cell_angle_gamma   120.00167781
_symmetry_Int_Tables_number   1
_chemical_formula_structural   Li8TbDy7(Sn3Bi)2
_chemical_formula_sum   'Li8 Tb1 Dy7 Sn6 Bi2'
_cell_volume   564.29128876
_cell_formula_units_Z   1
loop_
 _symmetry_equiv_pos_site_id
 _symmetry_equiv_pos_as_xyz
  1  'x, y, z'
loop_
 _atom_site_type_symbol
 _atom_site_label
 _atom_site_symmetry_multiplicity
 _atom_site_fract_x
 _atom_site_fract_y
 _atom_site_fract_z
 _atom_site_occupancy
  Li  Li0  1  0.167498  0.333927  0.281848  1
  Li  Li1  1  0.167371  0.833553  0.281315  1
  Li  Li2  1  0.665190  0.832452  0.284499  1
  Li  Li3  1  0.829238  0.664372  0.787272  1
  Li  Li4  1  0.829532  0.164745  0.787075  1
  Li  Li5  1  0.337651  0.168976  0.791469  1
  Li  Li6  1  0.337604  0.668856  0.670209  1
  Li  Li7  1  0.665816  0.332894  0.174704  1
  Tb  Tb8  1  0.516544  0.026392  0.491143  1
  Dy  Dy9  1  0.516498  0.490279  0.491469  1
  Dy  Dy10  1  0.972055  0.486394  0.488888  1
  Dy  Dy11  1  0.492833  0.978093  0.997059  1
  Dy  Dy12  1  0.492523  0.514481  0.997425  1
  Dy  Dy13  1  0.018408  0.509075  0.999963  1
  Dy  Dy14  1  0.995203  0.997545  0.494256  1
  Dy  Dy15  1  0.995606  0.997650  0.005156  1
  Sn  Sn16  1  0.667306  0.833471  0.732373  1
  Sn  Sn17  1  0.833567  0.666689  0.231981  1
  Sn  Sn18  1  0.834055  0.167167  0.231539  1
  Sn  Sn19  1  0.333148  0.166746  0.230595  1
  Sn  Sn20  1  0.332354  0.666054  0.261631  1
  Sn  Sn21  1  0.667815  0.333922  0.763162  1
  Bi  Bi22  1  0.166189  0.333502  0.733181  1
  Bi  Bi23  1  0.165995  0.832764  0.733782  1
