# generated using pymatgen
data_NaNbCo4As3
_symmetry_space_group_name_H-M   'P 1'
_cell_length_a   3.73281100
_cell_length_b   10.89842900
_cell_length_c   12.55979400
_cell_angle_alpha   90.00000000
_cell_angle_beta   90.00000000
_cell_angle_gamma   90.00000000
_symmetry_Int_Tables_number   1
_chemical_formula_structural   NaNbCo4As3
_chemical_formula_sum   'Na4 Nb4 Co16 As12'
_cell_volume   510.95472177
_cell_formula_units_Z   4
loop_
 _symmetry_equiv_pos_site_id
 _symmetry_equiv_pos_as_xyz
  1  'x, y, z'
loop_
 _atom_site_type_symbol
 _atom_site_label
 _atom_site_symmetry_multiplicity
 _atom_site_fract_x
 _atom_site_fract_y
 _atom_site_fract_z
 _atom_site_occupancy
  Na  Na0  1  0.250000  0.579916  0.706056  1
  Na  Na1  1  0.250000  0.920084  0.206056  1
  Na  Na2  1  0.750000  0.420084  0.293944  1
  Na  Na3  1  0.750000  0.079916  0.793944  1
  Nb  Nb4  1  0.250000  0.701883  0.989984  1
  Nb  Nb5  1  0.250000  0.798117  0.489984  1
  Nb  Nb6  1  0.750000  0.298117  0.010016  1
  Nb  Nb7  1  0.750000  0.201883  0.510016  1
  Co  Co8  1  0.250000  0.404434  0.489770  1
  Co  Co9  1  0.250000  0.095566  0.989770  1
  Co  Co10  1  0.750000  0.595566  0.510230  1
  Co  Co11  1  0.750000  0.904434  0.010230  1
  Co  Co12  1  0.250000  0.215517  0.172040  1
  Co  Co13  1  0.250000  0.284483  0.672040  1
  Co  Co14  1  0.750000  0.784483  0.827960  1
  Co  Co15  1  0.750000  0.715517  0.327960  1
  Co  Co16  1  0.250000  0.880231  0.698660  1
  Co  Co17  1  0.250000  0.619769  0.198660  1
  Co  Co18  1  0.750000  0.119769  0.301340  1
  Co  Co19  1  0.750000  0.380231  0.801340  1
  Co  Co20  1  0.250000  0.462153  0.936641  1
  Co  Co21  1  0.250000  0.037847  0.436641  1
  Co  Co22  1  0.750000  0.537847  0.063359  1
  Co  Co23  1  0.750000  0.962153  0.563359  1
  As  As24  1  0.250000  0.422578  0.122630  1
  As  As25  1  0.250000  0.077422  0.622630  1
  As  As26  1  0.750000  0.577422  0.877370  1
  As  As27  1  0.750000  0.922578  0.377370  1
  As  As28  1  0.250000  0.262468  0.858162  1
  As  As29  1  0.250000  0.237532  0.358162  1
  As  As30  1  0.750000  0.737532  0.141838  1
  As  As31  1  0.750000  0.762468  0.641838  1
  As  As32  1  0.250000  0.586988  0.386403  1
  As  As33  1  0.250000  0.913012  0.886403  1
  As  As34  1  0.750000  0.413012  0.613597  1
  As  As35  1  0.750000  0.086988  0.113597  1
