# generated using pymatgen
data_Dy4Al16GaSiIr6
_symmetry_space_group_name_H-M   'P 1'
_cell_length_a   7.54544718
_cell_length_b   7.54544678
_cell_length_c   9.43650000
_cell_angle_alpha   90.00000000
_cell_angle_beta   90.00000000
_cell_angle_gamma   119.55915656
_symmetry_Int_Tables_number   1
_chemical_formula_structural   Dy4Al16GaSiIr6
_chemical_formula_sum   'Dy4 Al16 Ga1 Si1 Ir6'
_cell_volume   467.33000502
_cell_formula_units_Z   1
loop_
 _symmetry_equiv_pos_site_id
 _symmetry_equiv_pos_as_xyz
  1  'x, y, z'
loop_
 _atom_site_type_symbol
 _atom_site_label
 _atom_site_symmetry_multiplicity
 _atom_site_fract_x
 _atom_site_fract_y
 _atom_site_fract_z
 _atom_site_occupancy
  Dy  Dy0  1  0.994553  0.674318  0.750000  1
  Dy  Dy1  1  0.004157  0.324718  0.250000  1
  Dy  Dy2  1  0.674318  0.994553  0.750000  1
  Dy  Dy3  1  0.324718  0.004157  0.250000  1
  Al  Al4  1  0.001392  0.335612  0.574583  1
  Al  Al5  1  0.998778  0.662958  0.423532  1
  Al  Al6  1  0.998778  0.662958  0.076468  1
  Al  Al7  1  0.335612  0.001392  0.925417  1
  Al  Al8  1  0.001392  0.335612  0.925417  1
  Al  Al9  1  0.662958  0.998778  0.076468  1
  Al  Al10  1  0.662958  0.998778  0.423532  1
  Al  Al11  1  0.335612  0.001392  0.574583  1
  Al  Al12  1  0.334784  0.334784  0.054458  1
  Al  Al13  1  0.665275  0.665275  0.946011  1
  Al  Al14  1  0.665275  0.665275  0.553989  1
  Al  Al15  1  0.334784  0.334784  0.445542  1
  Al  Al16  1  0.338681  0.550249  0.750000  1
  Al  Al17  1  0.663498  0.451235  0.250000  1
  Al  Al18  1  0.550249  0.338681  0.750000  1
  Al  Al19  1  0.451235  0.663498  0.250000  1
  Ga  Ga20  1  0.132788  0.132788  0.750000  1
  Si  Si21  1  0.869353  0.869353  0.250000  1
  Ir  Ir22  1  0.672199  0.328854  0.499505  1
  Ir  Ir23  1  0.328854  0.672199  0.499505  1
  Ir  Ir24  1  0.328854  0.672199  0.000495  1
  Ir  Ir25  1  0.672199  0.328854  0.000495  1
  Ir  Ir26  1  0.998371  0.998371  0.491143  1
  Ir  Ir27  1  0.998371  0.998371  0.008857  1
