# generated using pymatgen
data_Cs4Pm4Se7S
_symmetry_space_group_name_H-M   'P 1'
_cell_length_a   8.72646287
_cell_length_b   8.73571483
_cell_length_c   7.53268068
_cell_angle_alpha   90.05549832
_cell_angle_beta   98.19272719
_cell_angle_gamma   75.51249536
_symmetry_Int_Tables_number   1
_chemical_formula_structural   Cs4Pm4Se7S
_chemical_formula_sum   'Cs4 Pm4 Se7 S1'
_cell_volume   549.93670215
_cell_formula_units_Z   1
loop_
 _symmetry_equiv_pos_site_id
 _symmetry_equiv_pos_as_xyz
  1  'x, y, z'
loop_
 _atom_site_type_symbol
 _atom_site_label
 _atom_site_symmetry_multiplicity
 _atom_site_fract_x
 _atom_site_fract_y
 _atom_site_fract_z
 _atom_site_occupancy
  Cs  Cs0  1  0.000425  0.531085  0.997264  1
  Cs  Cs1  1  0.002188  0.278565  0.509120  1
  Cs  Cs2  1  0.996760  0.780453  0.498691  1
  Cs  Cs3  1  0.004151  0.039497  0.996143  1
  Pm  Pm4  1  0.499769  0.655456  0.251592  1
  Pm  Pm5  1  0.497013  0.156288  0.242908  1
  Pm  Pm6  1  0.497948  0.910009  0.751435  1
  Pm  Pm7  1  0.496215  0.403305  0.752393  1
  Se  Se8  1  0.690730  0.359574  0.116109  1
  Se  Se9  1  0.308374  0.953441  0.383948  1
  Se  Se10  1  0.687999  0.109762  0.612577  1
  Se  Se11  1  0.308170  0.705104  0.885335  1
  Se  Se12  1  0.690846  0.858737  0.114376  1
  Se  Se13  1  0.307470  0.451375  0.383889  1
  Se  Se14  1  0.687424  0.608282  0.616744  1
  S  S15  1  0.324516  0.199062  0.887471  1
