# generated using pymatgen
data_Tb4Fe3Co7(P6Ru5)2
_symmetry_space_group_name_H-M   'P 1'
_cell_length_a   3.77550600
_cell_length_b   10.55306057
_cell_length_c   12.01346424
_cell_angle_alpha   90.20409382
_cell_angle_beta   90.00000000
_cell_angle_gamma   90.00000000
_symmetry_Int_Tables_number   1
_chemical_formula_structural   Tb4Fe3Co7(P6Ru5)2
_chemical_formula_sum   'Tb4 Fe3 Co7 P12 Ru10'
_cell_volume   478.65114318
_cell_formula_units_Z   1
loop_
 _symmetry_equiv_pos_site_id
 _symmetry_equiv_pos_as_xyz
  1  'x, y, z'
loop_
 _atom_site_type_symbol
 _atom_site_label
 _atom_site_symmetry_multiplicity
 _atom_site_fract_x
 _atom_site_fract_y
 _atom_site_fract_z
 _atom_site_occupancy
  Tb  Tb0  1  0.250000  0.584832  0.708123  1
  Tb  Tb1  1  0.250000  0.915052  0.208967  1
  Tb  Tb2  1  0.750000  0.418632  0.293008  1
  Tb  Tb3  1  0.750000  0.081320  0.792217  1
  Fe  Fe4  1  0.250000  0.036433  0.434848  1
  Fe  Fe5  1  0.750000  0.537837  0.065711  1
  Fe  Fe6  1  0.750000  0.961146  0.566273  1
  Co  Co7  1  0.750000  0.774034  0.821496  1
  Co  Co8  1  0.750000  0.727192  0.322191  1
  Co  Co9  1  0.250000  0.878875  0.699551  1
  Co  Co10  1  0.250000  0.621426  0.199076  1
  Co  Co11  1  0.750000  0.112549  0.301576  1
  Co  Co12  1  0.750000  0.388911  0.802923  1
  Co  Co13  1  0.250000  0.462595  0.934303  1
  P  P14  1  0.250000  0.429857  0.113400  1
  P  P15  1  0.250000  0.070034  0.612346  1
  P  P16  1  0.750000  0.577331  0.887742  1
  P  P17  1  0.750000  0.925761  0.387650  1
  P  P18  1  0.250000  0.270583  0.870276  1
  P  P19  1  0.250000  0.227888  0.370001  1
  P  P20  1  0.750000  0.727199  0.135816  1
  P  P21  1  0.750000  0.772832  0.635532  1
  P  P22  1  0.250000  0.604599  0.386209  1
  P  P23  1  0.250000  0.895426  0.886126  1
  P  P24  1  0.750000  0.399688  0.611315  1
  P  P25  1  0.750000  0.099787  0.111636  1
  Ru  Ru26  1  0.250000  0.702789  0.981559  1
  Ru  Ru27  1  0.250000  0.797156  0.483067  1
  Ru  Ru28  1  0.750000  0.293993  0.011684  1
  Ru  Ru29  1  0.750000  0.204568  0.511373  1
  Ru  Ru30  1  0.250000  0.407131  0.485608  1
  Ru  Ru31  1  0.250000  0.092305  0.985337  1
  Ru  Ru32  1  0.750000  0.599988  0.512390  1
  Ru  Ru33  1  0.750000  0.899972  0.012823  1
  Ru  Ru34  1  0.250000  0.225628  0.178758  1
  Ru  Ru35  1  0.250000  0.274651  0.679097  1
