# generated using pymatgen
data_Lu4Al12Ga5SiIr6
_symmetry_space_group_name_H-M   'P 1'
_cell_length_a   7.50842733
_cell_length_b   7.50842657
_cell_length_c   9.42755400
_cell_angle_alpha   90.00000000
_cell_angle_beta   90.00000000
_cell_angle_gamma   119.88794538
_symmetry_Int_Tables_number   1
_chemical_formula_structural   Lu4Al12Ga5SiIr6
_chemical_formula_sum   'Lu4 Al12 Ga5 Si1 Ir6'
_cell_volume   460.80464832
_cell_formula_units_Z   1
loop_
 _symmetry_equiv_pos_site_id
 _symmetry_equiv_pos_as_xyz
  1  'x, y, z'
loop_
 _atom_site_type_symbol
 _atom_site_label
 _atom_site_symmetry_multiplicity
 _atom_site_fract_x
 _atom_site_fract_y
 _atom_site_fract_z
 _atom_site_occupancy
  Lu  Lu0  1  0.996341  0.673604  0.250000  1
  Lu  Lu1  1  0.000962  0.333411  0.750000  1
  Lu  Lu2  1  0.673604  0.996341  0.250000  1
  Lu  Lu3  1  0.333411  0.000962  0.750000  1
  Al  Al4  1  0.000303  0.336282  0.077113  1
  Al  Al5  1  0.998369  0.667135  0.925953  1
  Al  Al6  1  0.998369  0.667135  0.574047  1
  Al  Al7  1  0.336282  0.000303  0.422887  1
  Al  Al8  1  0.000303  0.336282  0.422887  1
  Al  Al9  1  0.667135  0.998369  0.574047  1
  Al  Al10  1  0.667135  0.998369  0.925953  1
  Al  Al11  1  0.336282  0.000303  0.077113  1
  Al  Al12  1  0.331123  0.331123  0.560720  1
  Al  Al13  1  0.662404  0.662404  0.440446  1
  Al  Al14  1  0.662404  0.662404  0.059554  1
  Al  Al15  1  0.331123  0.331123  0.939280  1
  Ga  Ga16  1  0.881656  0.881656  0.750000  1
  Ga  Ga17  1  0.336566  0.549751  0.250000  1
  Ga  Ga18  1  0.662103  0.454154  0.750000  1
  Ga  Ga19  1  0.549751  0.336566  0.250000  1
  Ga  Ga20  1  0.454154  0.662103  0.750000  1
  Si  Si21  1  0.126881  0.126881  0.250000  1
  Ir  Ir22  1  0.670914  0.326162  0.999643  1
  Ir  Ir23  1  0.326162  0.670914  0.999643  1
  Ir  Ir24  1  0.326162  0.670914  0.500357  1
  Ir  Ir25  1  0.670914  0.326162  0.500357  1
  Ir  Ir26  1  0.999596  0.999596  0.011421  1
  Ir  Ir27  1  0.999596  0.999596  0.488579  1
