# generated using pymatgen
data_NaNpH6Os
_symmetry_space_group_name_H-M   'P 1'
_cell_length_a   5.07248313
_cell_length_b   5.07248384
_cell_length_c   5.07248500
_cell_angle_alpha   59.99999895
_cell_angle_beta   59.99999433
_cell_angle_gamma   60.00000837
_symmetry_Int_Tables_number   1
_chemical_formula_structural   NaNpH6Os
_chemical_formula_sum   'Na1 Np1 H6 Os1'
_cell_volume   92.28838847
_cell_formula_units_Z   1
loop_
 _symmetry_equiv_pos_site_id
 _symmetry_equiv_pos_as_xyz
  1  'x, y, z'
loop_
 _atom_site_type_symbol
 _atom_site_label
 _atom_site_symmetry_multiplicity
 _atom_site_fract_x
 _atom_site_fract_y
 _atom_site_fract_z
 _atom_site_occupancy
  Na  Na0  1  0.750000  0.750000  0.750000  1
  Np  Np1  1  0.250000  0.250000  0.250000  1
  H  H2  1  0.759260  0.240740  0.240740  1
  H  H3  1  0.240740  0.759260  0.759260  1
  H  H4  1  0.240740  0.759260  0.240740  1
  H  H5  1  0.759260  0.240740  0.759260  1
  H  H6  1  0.240740  0.240740  0.759260  1
  H  H7  1  0.759260  0.759260  0.240740  1
  Os  Os8  1  0.000000  0.000000  0.000000  1
