# generated using pymatgen
data_DyEr15(InPt)4
_symmetry_space_group_name_H-M   'P 1'
_cell_length_a   9.65409597
_cell_length_b   9.65409557
_cell_length_c   9.65675000
_cell_angle_alpha   59.99090417
_cell_angle_beta   59.99090555
_cell_angle_gamma   59.94231057
_symmetry_Int_Tables_number   1
_chemical_formula_structural   DyEr15(InPt)4
_chemical_formula_sum   'Dy1 Er15 In4 Pt4'
_cell_volume   636.04790334
_cell_formula_units_Z   1
loop_
 _symmetry_equiv_pos_site_id
 _symmetry_equiv_pos_as_xyz
  1  'x, y, z'
loop_
 _atom_site_type_symbol
 _atom_site_label
 _atom_site_symmetry_multiplicity
 _atom_site_fract_x
 _atom_site_fract_y
 _atom_site_fract_z
 _atom_site_occupancy
  Dy  Dy0  1  0.062293  0.062293  0.437707  1
  Er  Er1  1  0.649485  0.053038  0.648740  1
  Er  Er2  1  0.190153  0.808601  0.191039  1
  Er  Er3  1  0.438180  0.062298  0.437890  1
  Er  Er4  1  0.191125  0.191125  0.808875  1
  Er  Er5  1  0.649798  0.649798  0.649535  1
  Er  Er6  1  0.053038  0.649485  0.648740  1
  Er  Er7  1  0.438180  0.062298  0.061632  1
  Er  Er8  1  0.649798  0.649798  0.050870  1
  Er  Er9  1  0.190153  0.808601  0.810206  1
  Er  Er10  1  0.808601  0.190153  0.810206  1
  Er  Er11  1  0.808601  0.190153  0.191039  1
  Er  Er12  1  0.809873  0.809873  0.190127  1
  Er  Er13  1  0.062298  0.438180  0.437890  1
  Er  Er14  1  0.436498  0.436498  0.063502  1
  Er  Er15  1  0.062298  0.438180  0.061632  1
  In  In16  1  0.748202  0.417990  0.416904  1
  In  In17  1  0.416389  0.416389  0.750867  1
  In  In18  1  0.417990  0.748202  0.416904  1
  In  In19  1  0.416389  0.416389  0.416355  1
  Pt  Pt20  1  0.857555  0.857555  0.857047  1
  Pt  Pt21  1  0.427000  0.858551  0.857226  1
  Pt  Pt22  1  0.857555  0.857555  0.427846  1
  Pt  Pt23  1  0.858551  0.427000  0.857226  1
