# generated using pymatgen
data_Hf6Ti3Nb(GaGe)3
_symmetry_space_group_name_H-M   'P 1'
_cell_length_a   7.88179072
_cell_length_b   7.88055812
_cell_length_c   5.39723652
_cell_angle_alpha   90.04396816
_cell_angle_beta   89.99935088
_cell_angle_gamma   120.05423350
_symmetry_Int_Tables_number   1
_chemical_formula_structural   Hf6Ti3Nb(GaGe)3
_chemical_formula_sum   'Hf6 Ti3 Nb1 Ga3 Ge3'
_cell_volume   290.16577835
_cell_formula_units_Z   1
loop_
 _symmetry_equiv_pos_site_id
 _symmetry_equiv_pos_as_xyz
  1  'x, y, z'
loop_
 _atom_site_type_symbol
 _atom_site_label
 _atom_site_symmetry_multiplicity
 _atom_site_fract_x
 _atom_site_fract_y
 _atom_site_fract_z
 _atom_site_occupancy
  Hf  Hf0  1  0.751183  0.752962  0.248501  1
  Hf  Hf1  1  0.750728  0.998706  0.751723  1
  Hf  Hf2  1  0.000657  0.248292  0.248012  1
  Hf  Hf3  1  0.246019  0.247852  0.751353  1
  Hf  Hf4  1  0.246088  0.998894  0.248613  1
  Hf  Hf5  1  0.000504  0.753354  0.751921  1
  Ti  Ti6  1  0.667867  0.333469  0.000439  1
  Ti  Ti7  1  0.667875  0.333393  0.499645  1
  Ti  Ti8  1  0.334526  0.666576  0.499488  1
  Nb  Nb9  1  0.334355  0.666545  0.000075  1
  Ga  Ga10  1  0.998155  0.602954  0.252120  1
  Ga  Ga11  1  0.397762  0.394491  0.252150  1
  Ga  Ga12  1  0.397042  0.002596  0.748046  1
  Ge  Ge13  1  0.604182  0.002418  0.252180  1
  Ge  Ge14  1  0.604831  0.601659  0.747812  1
  Ge  Ge15  1  0.998224  0.395838  0.747921  1
