# generated using pymatgen
data_Yb3Sm(Ga3Pt4)2
_symmetry_space_group_name_H-M   'P 1'
_cell_length_a   8.16294970
_cell_length_b   8.16294968
_cell_length_c   7.47745900
_cell_angle_alpha   90.13212586
_cell_angle_beta   89.86788116
_cell_angle_gamma   139.43664641
_symmetry_Int_Tables_number   1
_chemical_formula_structural   Yb3Sm(Ga3Pt4)2
_chemical_formula_sum   'Yb3 Sm1 Ga6 Pt8'
_cell_volume   324.00596896
_cell_formula_units_Z   1
loop_
 _symmetry_equiv_pos_site_id
 _symmetry_equiv_pos_as_xyz
  1  'x, y, z'
loop_
 _atom_site_type_symbol
 _atom_site_label
 _atom_site_symmetry_multiplicity
 _atom_site_fract_x
 _atom_site_fract_y
 _atom_site_fract_z
 _atom_site_occupancy
  Yb  Yb0  1  0.105398  0.894602  0.410420  1
  Yb  Yb1  1  0.895074  0.104926  0.590784  1
  Yb  Yb2  1  0.391992  0.608008  0.911905  1
  Sm  Sm3  1  0.605208  0.394792  0.088639  1
  Ga  Ga4  1  0.998125  0.001875  0.997979  1
  Ga  Ga5  1  0.500080  0.499920  0.499578  1
  Ga  Ga6  1  0.019279  0.482926  0.253925  1
  Ga  Ga7  1  0.484088  0.016880  0.747432  1
  Ga  Ga8  1  0.983120  0.515912  0.747432  1
  Ga  Ga9  1  0.517074  0.980721  0.253925  1
  Pt  Pt10  1  0.186056  0.313256  0.249600  1
  Pt  Pt11  1  0.313382  0.185356  0.748579  1
  Pt  Pt12  1  0.814644  0.686618  0.748579  1
  Pt  Pt13  1  0.686744  0.813944  0.249600  1
  Pt  Pt14  1  0.182314  0.817686  0.024947  1
  Pt  Pt15  1  0.818042  0.181958  0.977290  1
  Pt  Pt16  1  0.321168  0.678832  0.524958  1
  Pt  Pt17  1  0.678214  0.321786  0.474427  1
