# generated using pymatgen
data_Ca3Eu9(AlAs3)4
_symmetry_space_group_name_H-M   'P 1'
_cell_length_a   12.58768849
_cell_length_b   4.34647000
_cell_length_c   13.52388868
_cell_angle_alpha   90.00000000
_cell_angle_beta   90.08491629
_cell_angle_gamma   90.00000000
_symmetry_Int_Tables_number   1
_chemical_formula_structural   Ca3Eu9(AlAs3)4
_chemical_formula_sum   'Ca3 Eu9 Al4 As12'
_cell_volume   739.91832520
_cell_formula_units_Z   1
loop_
 _symmetry_equiv_pos_site_id
 _symmetry_equiv_pos_as_xyz
  1  'x, y, z'
loop_
 _atom_site_type_symbol
 _atom_site_label
 _atom_site_symmetry_multiplicity
 _atom_site_fract_x
 _atom_site_fract_y
 _atom_site_fract_z
 _atom_site_occupancy
  Ca  Ca0  1  0.223645  0.750000  0.788618  1
  Ca  Ca1  1  0.776514  0.250002  0.211126  1
  Ca  Ca2  1  0.723195  0.750000  0.711653  1
  Eu  Eu3  1  0.068817  0.250002  0.109791  1
  Eu  Eu4  1  0.430674  0.750000  0.610095  1
  Eu  Eu5  1  0.572370  0.250002  0.390344  1
  Eu  Eu6  1  0.930575  0.750000  0.889597  1
  Eu  Eu7  1  0.856411  0.250002  0.501880  1
  Eu  Eu8  1  0.642726  0.750000  0.001360  1
  Eu  Eu9  1  0.358350  0.250002  0.997217  1
  Eu  Eu10  1  0.139960  0.750000  0.500188  1
  Eu  Eu11  1  0.275282  0.250002  0.290100  1
  Al  Al12  1  0.058068  0.250002  0.699851  1
  Al  Al13  1  0.442926  0.750000  0.199300  1
  Al  Al14  1  0.558740  0.250002  0.800027  1
  Al  Al15  1  0.940170  0.750000  0.300184  1
  As  As16  1  0.243654  0.250002  0.625939  1
  As  As17  1  0.256949  0.750000  0.124228  1
  As  As18  1  0.744087  0.250002  0.873765  1
  As  As19  1  0.755232  0.750000  0.373239  1
  As  As20  1  0.102450  0.250002  0.883281  1
  As  As21  1  0.403008  0.750000  0.384817  1
  As  As22  1  0.602336  0.250002  0.616656  1
  As  As23  1  0.897257  0.750000  0.116286  1
  As  As24  1  0.038962  0.250002  0.349062  1
  As  As25  1  0.458279  0.750000  0.847629  1
  As  As26  1  0.542165  0.250002  0.151494  1
  As  As27  1  0.957202  0.750000  0.652276  1
