# generated using pymatgen
data_Na8Sb3AsS4(O4F3)4
_symmetry_space_group_name_H-M   'P 1'
_cell_length_a   8.46568200
_cell_length_b   8.46568231
_cell_length_c   11.25367300
_cell_angle_alpha   90.00000000
_cell_angle_beta   90.00000000
_cell_angle_gamma   128.72816665
_symmetry_Int_Tables_number   1
_chemical_formula_structural   Na8Sb3AsS4(O4F3)4
_chemical_formula_sum   'Na8 Sb3 As1 S4 O16 F12'
_cell_volume   629.18920065
_cell_formula_units_Z   1
loop_
 _symmetry_equiv_pos_site_id
 _symmetry_equiv_pos_as_xyz
  1  'x, y, z'
loop_
 _atom_site_type_symbol
 _atom_site_label
 _atom_site_symmetry_multiplicity
 _atom_site_fract_x
 _atom_site_fract_y
 _atom_site_fract_z
 _atom_site_occupancy
  Na  Na0  1  0.967901  0.471545  0.247541  1
  Na  Na1  1  0.619070  0.378873  0.998136  1
  Na  Na2  1  0.029023  0.530740  0.751749  1
  Na  Na3  1  0.378873  0.619070  0.998136  1
  Na  Na4  1  0.114560  0.878336  0.504068  1
  Na  Na5  1  0.530740  0.029023  0.751749  1
  Na  Na6  1  0.471545  0.967901  0.247541  1
  Na  Na7  1  0.878336  0.114560  0.504068  1
  Sb  Sb8  1  0.386902  0.386902  0.663224  1
  Sb  Sb9  1  0.886329  0.886329  0.839807  1
  Sb  Sb10  1  0.616470  0.616470  0.338289  1
  As  As11  1  0.133635  0.133635  0.164804  1
  S  S12  1  0.316860  0.682516  0.499111  1
  S  S13  1  0.819816  0.181816  0.001053  1
  S  S14  1  0.682516  0.316860  0.499111  1
  S  S15  1  0.181816  0.819816  0.001053  1
  O  O16  1  0.797123  0.272045  0.895304  1
  O  O17  1  0.272045  0.797123  0.895304  1
  O  O18  1  0.714000  0.961110  0.977419  1
  O  O19  1  0.787549  0.537485  0.476748  1
  O  O20  1  0.227637  0.705689  0.393279  1
  O  O21  1  0.728052  0.203241  0.106355  1
  O  O22  1  0.705689  0.227637  0.393279  1
  O  O23  1  0.293685  0.771005  0.605258  1
  O  O24  1  0.537485  0.787549  0.476748  1
  O  O25  1  0.285274  0.038893  0.024039  1
  O  O26  1  0.961110  0.714000  0.977419  1
  O  O27  1  0.771005  0.293685  0.605258  1
  O  O28  1  0.213368  0.462036  0.520780  1
  O  O29  1  0.462036  0.213368  0.520780  1
  O  O30  1  0.203241  0.728052  0.106355  1
  O  O31  1  0.038893  0.285274  0.024039  1
  F  F32  1  0.902886  0.718977  0.720686  1
  F  F33  1  0.373103  0.373103  0.118720  1
  F  F34  1  0.271977  0.100901  0.273451  1
  F  F35  1  0.878977  0.878977  0.385515  1
  F  F36  1  0.219289  0.404347  0.780129  1
  F  F37  1  0.620501  0.620501  0.884833  1
  F  F38  1  0.718977  0.902886  0.720686  1
  F  F39  1  0.778672  0.594720  0.219306  1
  F  F40  1  0.404347  0.219289  0.780129  1
  F  F41  1  0.123064  0.123064  0.615986  1
  F  F42  1  0.100901  0.271977  0.273451  1
  F  F43  1  0.594720  0.778672  0.219306  1
