# generated using pymatgen
data_Tb5Ho3Au4
_symmetry_space_group_name_H-M   'P 1'
_cell_length_a   4.96245700
_cell_length_b   7.13274447
_cell_length_c   8.98232711
_cell_angle_alpha   90.09536828
_cell_angle_beta   90.00000000
_cell_angle_gamma   90.00000000
_symmetry_Int_Tables_number   1
_chemical_formula_structural   Tb5Ho3Au4
_chemical_formula_sum   'Tb5 Ho3 Au4'
_cell_volume   317.93745061
_cell_formula_units_Z   1
loop_
 _symmetry_equiv_pos_site_id
 _symmetry_equiv_pos_as_xyz
  1  'x, y, z'
loop_
 _atom_site_type_symbol
 _atom_site_label
 _atom_site_symmetry_multiplicity
 _atom_site_fract_x
 _atom_site_fract_y
 _atom_site_fract_z
 _atom_site_occupancy
  Tb  Tb0  1  0.250000  0.486624  0.176729  1
  Tb  Tb1  1  0.750000  0.513091  0.823408  1
  Tb  Tb2  1  0.250000  0.987388  0.323135  1
  Tb  Tb3  1  0.750000  0.013460  0.676932  1
  Tb  Tb4  1  0.750000  0.648687  0.419233  1
  Ho  Ho5  1  0.250000  0.351383  0.580996  1
  Ho  Ho6  1  0.750000  0.148567  0.080343  1
  Ho  Ho7  1  0.250000  0.851551  0.919449  1
  Au  Au8  1  0.250000  0.256770  0.900850  1
  Au  Au9  1  0.750000  0.743311  0.098207  1
  Au  Au10  1  0.250000  0.757158  0.599934  1
  Au  Au11  1  0.750000  0.242010  0.400782  1
