# generated using pymatgen
data_Ba4YbSbO8
_symmetry_space_group_name_H-M   'P 1'
_cell_length_a   7.38919028
_cell_length_b   7.38918940
_cell_length_c   6.03331800
_cell_angle_alpha   90.00000000
_cell_angle_beta   90.00000000
_cell_angle_gamma   131.84018162
_symmetry_Int_Tables_number   1
_chemical_formula_structural   Ba4YbSbO8
_chemical_formula_sum   'Ba4 Yb1 Sb1 O8'
_cell_volume   245.42060390
_cell_formula_units_Z   1
loop_
 _symmetry_equiv_pos_site_id
 _symmetry_equiv_pos_as_xyz
  1  'x, y, z'
loop_
 _atom_site_type_symbol
 _atom_site_label
 _atom_site_symmetry_multiplicity
 _atom_site_fract_x
 _atom_site_fract_y
 _atom_site_fract_z
 _atom_site_occupancy
  Ba  Ba0  1  0.357927  0.642073  0.000000  1
  Ba  Ba1  1  0.856027  0.143973  0.500000  1
  Ba  Ba2  1  0.143973  0.856027  0.500000  1
  Ba  Ba3  1  0.642073  0.357927  0.000000  1
  Yb  Yb4  1  0.000000  0.000000  0.000000  1
  Sb  Sb5  1  0.500000  0.500000  0.500000  1
  O  O6  1  0.263592  0.263592  0.735109  1
  O  O7  1  0.736408  0.736408  0.264891  1
  O  O8  1  0.736408  0.736408  0.735109  1
  O  O9  1  0.263592  0.263592  0.264891  1
  O  O10  1  0.167459  0.832541  0.000000  1
  O  O11  1  0.653303  0.346697  0.500000  1
  O  O12  1  0.346697  0.653303  0.500000  1
  O  O13  1  0.832541  0.167459  0.000000  1
