# generated using pymatgen
data_Sm3In3Hg2Ir
_symmetry_space_group_name_H-M   'P 1'
_cell_length_a   8.05512800
_cell_length_b   8.05512845
_cell_length_c   3.99844200
_cell_angle_alpha   90.00000000
_cell_angle_beta   90.00000000
_cell_angle_gamma   119.99999815
_symmetry_Int_Tables_number   1
_chemical_formula_structural   Sm3In3Hg2Ir
_chemical_formula_sum   'Sm3 In3 Hg2 Ir1'
_cell_volume   224.68100445
_cell_formula_units_Z   1
loop_
 _symmetry_equiv_pos_site_id
 _symmetry_equiv_pos_as_xyz
  1  'x, y, z'
loop_
 _atom_site_type_symbol
 _atom_site_label
 _atom_site_symmetry_multiplicity
 _atom_site_fract_x
 _atom_site_fract_y
 _atom_site_fract_z
 _atom_site_occupancy
  Sm  Sm0  1  0.581683  0.612504  0.000000  1
  Sm  Sm1  1  0.387496  0.969178  0.000000  1
  Sm  Sm2  1  0.030822  0.418317  0.000000  1
  In  In3  1  0.004801  0.730761  0.500000  1
  In  In4  1  0.269239  0.274040  0.500000  1
  In  In5  1  0.725960  0.995199  0.500000  1
  Hg  Hg6  1  0.000000  0.000000  0.000000  1
  Hg  Hg7  1  0.666667  0.333333  0.500000  1
  Ir  Ir8  1  0.333333  0.666667  0.500000  1
