# generated using pymatgen
data_Nd4Y12Cd4RuPt3
_symmetry_space_group_name_H-M   'P 1'
_cell_length_a   9.79435680
_cell_length_b   9.78308076
_cell_length_c   9.78308032
_cell_angle_alpha   59.86219865
_cell_angle_beta   59.76802487
_cell_angle_gamma   59.76802833
_symmetry_Int_Tables_number   1
_chemical_formula_structural   Nd4Y12Cd4RuPt3
_chemical_formula_sum   'Nd4 Y12 Cd4 Ru1 Pt3'
_cell_volume   659.82589311
_cell_formula_units_Z   1
loop_
 _symmetry_equiv_pos_site_id
 _symmetry_equiv_pos_as_xyz
  1  'x, y, z'
loop_
 _atom_site_type_symbol
 _atom_site_label
 _atom_site_symmetry_multiplicity
 _atom_site_fract_x
 _atom_site_fract_y
 _atom_site_fract_z
 _atom_site_occupancy
  Nd  Nd0  1  0.564740  0.935899  0.565852  1
  Nd  Nd1  1  0.937433  0.560713  0.935633  1
  Nd  Nd2  1  0.564740  0.565852  0.935899  1
  Nd  Nd3  1  0.937433  0.935633  0.560713  1
  Y  Y4  1  0.352300  0.351442  0.351442  1
  Y  Y5  1  0.348030  0.349684  0.951503  1
  Y  Y6  1  0.348030  0.951503  0.349684  1
  Y  Y7  1  0.949434  0.349101  0.349101  1
  Y  Y8  1  0.816229  0.187223  0.187223  1
  Y  Y9  1  0.188547  0.810354  0.810354  1
  Y  Y10  1  0.188526  0.815577  0.188186  1
  Y  Y11  1  0.810196  0.186015  0.810166  1
  Y  Y12  1  0.188526  0.188186  0.815577  1
  Y  Y13  1  0.810196  0.810166  0.186015  1
  Y  Y14  1  0.939891  0.559521  0.559521  1
  Y  Y15  1  0.556497  0.941237  0.941237  1
  Cd  Cd16  1  0.582835  0.578208  0.578208  1
  Cd  Cd17  1  0.578577  0.583016  0.257862  1
  Cd  Cd18  1  0.578577  0.257862  0.583016  1
  Cd  Cd19  1  0.257865  0.578938  0.578938  1
  Ru  Ru20  1  0.143495  0.141850  0.141850  1
  Pt  Pt21  1  0.142439  0.145767  0.573692  1
  Pt  Pt22  1  0.142439  0.573692  0.145767  1
  Pt  Pt23  1  0.573026  0.142560  0.142560  1
