# generated using pymatgen
data_Pr3Cd2HgPt2Au
_symmetry_space_group_name_H-M   'P 1'
_cell_length_a   8.02109700
_cell_length_b   7.98471568
_cell_length_c   3.93493500
_cell_angle_alpha   90.00000000
_cell_angle_beta   90.00000000
_cell_angle_gamma   120.15084246
_symmetry_Int_Tables_number   1
_chemical_formula_structural   Pr3Cd2HgPt2Au
_chemical_formula_sum   'Pr3 Cd2 Hg1 Pt2 Au1'
_cell_volume   217.92110271
_cell_formula_units_Z   1
loop_
 _symmetry_equiv_pos_site_id
 _symmetry_equiv_pos_as_xyz
  1  'x, y, z'
loop_
 _atom_site_type_symbol
 _atom_site_label
 _atom_site_symmetry_multiplicity
 _atom_site_fract_x
 _atom_site_fract_y
 _atom_site_fract_z
 _atom_site_occupancy
  Pr  Pr0  1  0.586371  0.000000  0.000000  1
  Pr  Pr1  1  0.001983  0.593282  0.000000  1
  Pr  Pr2  1  0.408700  0.406718  0.000000  1
  Cd  Cd3  1  0.999079  0.261558  0.500000  1
  Cd  Cd4  1  0.737522  0.738442  0.500000  1
  Hg  Hg5  1  0.264084  0.000000  0.500000  1
  Pt  Pt6  1  0.334674  0.660720  0.500000  1
  Pt  Pt7  1  0.673954  0.339280  0.500000  1
  Au  Au8  1  0.993633  0.000000  0.000000  1
