# generated using pymatgen
data_Zr6Ti5Al11Os7
_symmetry_space_group_name_H-M   'P 1'
_cell_length_a   8.84618769
_cell_length_b   8.84618807
_cell_length_c   8.80830632
_cell_angle_alpha   59.85762893
_cell_angle_beta   59.85762974
_cell_angle_gamma   60.00000249
_symmetry_Int_Tables_number   1
_chemical_formula_structural   Zr6Ti5Al11Os7
_chemical_formula_sum   'Zr6 Ti5 Al11 Os7'
_cell_volume   486.35323201
_cell_formula_units_Z   1
loop_
 _symmetry_equiv_pos_site_id
 _symmetry_equiv_pos_as_xyz
  1  'x, y, z'
loop_
 _atom_site_type_symbol
 _atom_site_label
 _atom_site_symmetry_multiplicity
 _atom_site_fract_x
 _atom_site_fract_y
 _atom_site_fract_z
 _atom_site_occupancy
  Zr  Zr0  1  0.705643  0.705643  0.297499  1
  Zr  Zr1  1  0.291214  0.705643  0.297499  1
  Zr  Zr2  1  0.705643  0.291214  0.297499  1
  Zr  Zr3  1  0.300919  0.300919  0.705977  1
  Zr  Zr4  1  0.692184  0.300919  0.705977  1
  Zr  Zr5  1  0.300919  0.692184  0.705977  1
  Ti  Ti6  1  0.880060  0.880060  0.359823  1
  Ti  Ti7  1  0.877652  0.362905  0.881793  1
  Ti  Ti8  1  0.362905  0.877652  0.881793  1
  Ti  Ti9  1  0.877652  0.877652  0.881793  1
  Ti  Ti10  1  0.122709  0.122709  0.631873  1
  Al  Al11  1  0.119472  0.643854  0.117201  1
  Al  Al12  1  0.643854  0.119472  0.117201  1
  Al  Al13  1  0.119472  0.119472  0.117201  1
  Al  Al14  1  0.664236  0.664236  0.007289  1
  Al  Al15  1  0.664578  0.006125  0.664717  1
  Al  Al16  1  0.006125  0.664578  0.664717  1
  Al  Al17  1  0.664578  0.664578  0.664717  1
  Al  Al18  1  0.333060  0.333060  0.000821  1
  Al  Al19  1  0.334855  0.996524  0.333766  1
  Al  Al20  1  0.996524  0.334855  0.333766  1
  Al  Al21  1  0.334855  0.334855  0.333766  1
  Os  Os22  1  0.003837  0.003837  0.988490  1
  Os  Os23  1  0.999475  0.999475  0.501271  1
  Os  Os24  1  0.499779  0.999475  0.501271  1
  Os  Os25  1  0.999475  0.499779  0.501271  1
  Os  Os26  1  0.500629  0.500629  0.001679  1
  Os  Os27  1  0.997063  0.500629  0.001679  1
  Os  Os28  1  0.500629  0.997063  0.001679  1
