# generated using pymatgen
data_LiHo4Bi3C
_symmetry_space_group_name_H-M   'P 1'
_cell_length_a   6.45828301
_cell_length_b   8.94867575
_cell_length_c   8.94853601
_cell_angle_alpha   120.00051237
_cell_angle_beta   89.99709665
_cell_angle_gamma   90.00579591
_symmetry_Int_Tables_number   1
_chemical_formula_structural   LiHo4Bi3C
_chemical_formula_sum   'Li2 Ho8 Bi6 C2'
_cell_volume   447.87438178
_cell_formula_units_Z   2
loop_
 _symmetry_equiv_pos_site_id
 _symmetry_equiv_pos_as_xyz
  1  'x, y, z'
loop_
 _atom_site_type_symbol
 _atom_site_label
 _atom_site_symmetry_multiplicity
 _atom_site_fract_x
 _atom_site_fract_y
 _atom_site_fract_z
 _atom_site_occupancy
  Li  Li0  1  0.499999  0.333313  0.666628  1
  Li  Li1  1  0.499999  0.666684  0.333372  1
  Ho  Ho2  1  0.999998  0.666673  0.333342  1
  Ho  Ho3  1  0.999998  0.333331  0.666658  1
  Ho  Ho4  1  0.748900  0.210563  0.000000  1
  Ho  Ho5  1  0.748903  0.789418  0.789413  1
  Ho  Ho6  1  0.748903  0.000005  0.210587  1
  Ho  Ho7  1  0.251094  0.789438  0.000000  1
  Ho  Ho8  1  0.251103  0.210585  0.210588  1
  Ho  Ho9  1  0.251103  0.999997  0.789412  1
  Bi  Bi10  1  0.739615  0.593791  0.000000  1
  Bi  Bi11  1  0.739598  0.406172  0.406181  1
  Bi  Bi12  1  0.739598  0.999991  0.593819  1
  Bi  Bi13  1  0.260384  0.406208  0.000000  1
  Bi  Bi14  1  0.260401  0.593826  0.593822  1
  Bi  Bi15  1  0.260401  0.000005  0.406178  1
  C  C16  1  0.500001  0.000000  0.000000  1
  C  C17  1  0.000004  0.000000  0.000000  1
