# generated using pymatgen
data_Tb7Yb12YSi16
_symmetry_space_group_name_H-M   'P 1'
_cell_length_a   7.44362902
_cell_length_b   7.81891701
_cell_length_c   15.16506003
_cell_angle_alpha   89.99985099
_cell_angle_beta   89.99242723
_cell_angle_gamma   89.99484200
_symmetry_Int_Tables_number   1
_chemical_formula_structural   Tb7Yb12YSi16
_chemical_formula_sum   'Tb7 Yb12 Y1 Si16'
_cell_volume   882.62343073
_cell_formula_units_Z   1
loop_
 _symmetry_equiv_pos_site_id
 _symmetry_equiv_pos_as_xyz
  1  'x, y, z'
loop_
 _atom_site_type_symbol
 _atom_site_label
 _atom_site_symmetry_multiplicity
 _atom_site_fract_x
 _atom_site_fract_y
 _atom_site_fract_z
 _atom_site_occupancy
  Tb  Tb0  1  0.313596  0.177098  0.121045  1
  Tb  Tb1  1  0.813573  0.322901  0.378938  1
  Tb  Tb2  1  0.186405  0.677150  0.878914  1
  Tb  Tb3  1  0.686402  0.822872  0.621102  1
  Tb  Tb4  1  0.313567  0.177100  0.378938  1
  Tb  Tb5  1  0.813572  0.322900  0.121064  1
  Tb  Tb6  1  0.186456  0.677106  0.621065  1
  Yb  Yb7  1  0.970123  0.814979  0.403069  1
  Yb  Yb8  1  0.470122  0.685033  0.096930  1
  Yb  Yb9  1  0.529879  0.314980  0.596936  1
  Yb  Yb10  1  0.029868  0.185028  0.903064  1
  Yb  Yb11  1  0.029870  0.185017  0.596935  1
  Yb  Yb12  1  0.529927  0.314965  0.903075  1
  Yb  Yb13  1  0.470116  0.685025  0.403070  1
  Yb  Yb14  1  0.970107  0.814994  0.096929  1
  Yb  Yb15  1  0.354719  0.019716  0.749998  1
  Yb  Yb16  1  0.854721  0.480297  0.750008  1
  Yb  Yb17  1  0.145283  0.519705  0.250005  1
  Yb  Yb18  1  0.645286  0.980288  0.249998  1
  Y  Y19  1  0.686469  0.822961  0.878956  1
  Si  Si20  1  0.858938  0.532542  0.538641  1
  Si  Si21  1  0.359016  0.967413  0.961344  1
  Si  Si22  1  0.641064  0.032549  0.461361  1
  Si  Si23  1  0.141044  0.467483  0.038635  1
  Si  Si24  1  0.141072  0.467453  0.461364  1
  Si  Si25  1  0.641097  0.032510  0.038602  1
  Si  Si26  1  0.358913  0.967444  0.538636  1
  Si  Si27  1  0.858843  0.532514  0.961335  1
  Si  Si28  1  0.978608  0.886073  0.750043  1
  Si  Si29  1  0.478676  0.613943  0.749967  1
  Si  Si30  1  0.521356  0.386103  0.249997  1
  Si  Si31  1  0.021361  0.113892  0.250000  1
  Si  Si32  1  0.249513  0.393627  0.750018  1
  Si  Si33  1  0.749460  0.106346  0.750022  1
  Si  Si34  1  0.250489  0.893628  0.249998  1
  Si  Si35  1  0.750490  0.606365  0.249997  1
