# generated using pymatgen
data_YHoTa2(SnPt)4
_symmetry_space_group_name_H-M   'P 1'
_cell_length_a   6.45266909
_cell_length_b   4.54068900
_cell_length_c   9.11337513
_cell_angle_alpha   90.00000000
_cell_angle_beta   89.98041089
_cell_angle_gamma   90.00000000
_symmetry_Int_Tables_number   1
_chemical_formula_structural   YHoTa2(SnPt)4
_chemical_formula_sum   'Y1 Ho1 Ta2 Sn4 Pt4'
_cell_volume   267.01789851
_cell_formula_units_Z   1
loop_
 _symmetry_equiv_pos_site_id
 _symmetry_equiv_pos_as_xyz
  1  'x, y, z'
loop_
 _atom_site_type_symbol
 _atom_site_label
 _atom_site_symmetry_multiplicity
 _atom_site_fract_x
 _atom_site_fract_y
 _atom_site_fract_z
 _atom_site_occupancy
  Y  Y0  1  0.504197  0.500000  0.623486  1
  Ho  Ho1  1  0.004375  0.000000  0.376517  1
  Ta  Ta2  1  0.496907  0.500000  0.122243  1
  Ta  Ta3  1  0.996948  0.000000  0.877751  1
  Sn  Sn4  1  0.984228  0.500000  0.125713  1
  Sn  Sn5  1  0.511401  0.000000  0.372042  1
  Sn  Sn6  1  0.011356  0.500000  0.627701  1
  Sn  Sn7  1  0.484247  0.000000  0.874568  1
  Pt  Pt8  1  0.734571  0.000000  0.109971  1
  Pt  Pt9  1  0.267972  0.500000  0.354247  1
  Pt  Pt10  1  0.769634  0.000000  0.645321  1
  Pt  Pt11  1  0.234161  0.500000  0.890436  1
