# generated using pymatgen
data_PrZr4UF22
_symmetry_space_group_name_H-M   'P 1'
_cell_length_a   8.51411667
_cell_length_b   8.51411772
_cell_length_c   8.51411719
_cell_angle_alpha   124.73242207
_cell_angle_beta   106.36320969
_cell_angle_gamma   98.54174634
_symmetry_Int_Tables_number   1
_chemical_formula_structural   PrZr4UF22
_chemical_formula_sum   'Pr1 Zr4 U1 F22'
_cell_volume   447.74107259
_cell_formula_units_Z   1
loop_
 _symmetry_equiv_pos_site_id
 _symmetry_equiv_pos_as_xyz
  1  'x, y, z'
loop_
 _atom_site_type_symbol
 _atom_site_label
 _atom_site_symmetry_multiplicity
 _atom_site_fract_x
 _atom_site_fract_y
 _atom_site_fract_z
 _atom_site_occupancy
  Pr  Pr0  1  0.750000  0.750000  0.000000  1
  Zr  Zr1  1  0.819125  0.633749  0.452994  1
  Zr  Zr2  1  0.180757  0.366133  0.547006  1
  Zr  Zr3  1  0.319243  0.866251  0.185376  1
  Zr  Zr4  1  0.680875  0.133867  0.814624  1
  U  U5  1  0.250000  0.250000  0.000000  1
  F  F6  1  0.321479  0.035747  0.082468  1
  F  F7  1  0.719644  0.870322  0.589729  1
  F  F8  1  0.953279  0.239011  0.917532  1
  F  F9  1  0.946430  0.105448  0.311691  1
  F  F10  1  0.219407  0.629678  0.849323  1
  F  F11  1  0.793757  0.634740  0.688309  1
  F  F12  1  0.546721  0.464253  0.285732  1
  F  F13  1  0.445278  0.134301  0.840704  1
  F  F14  1  0.780356  0.370085  0.150677  1
  F  F15  1  0.293596  0.604574  0.159296  1
  F  F16  1  0.452188  0.534634  0.713365  1
  F  F17  1  0.706243  0.394552  0.840982  1
  F  F18  1  0.553570  0.865260  0.159018  1
  F  F19  1  0.047812  0.761177  0.082446  1
  F  F20  1  0.000212  0.500212  0.500000  1
  F  F21  1  0.821269  0.738823  0.286635  1
  F  F22  1  0.206404  0.365699  0.310978  1
  F  F23  1  0.678731  0.965366  0.917554  1
  F  F24  1  0.178521  0.260989  0.714268  1
  F  F25  1  0.280593  0.129915  0.410271  1
  F  F26  1  0.054722  0.895426  0.689022  1
  F  F27  1  0.499788  0.999788  0.500000  1
