# generated using pymatgen
data_La2Sm3Pt19
_symmetry_space_group_name_H-M   'P 1'
_cell_length_a   5.45845517
_cell_length_b   5.45845654
_cell_length_c   18.07438249
_cell_angle_alpha   81.31513346
_cell_angle_beta   81.31513275
_cell_angle_gamma   60.00000633
_symmetry_Int_Tables_number   1
_chemical_formula_structural   La2Sm3Pt19
_chemical_formula_sum   'La2 Sm3 Pt19'
_cell_volume   459.22948222
_cell_formula_units_Z   1
loop_
 _symmetry_equiv_pos_site_id
 _symmetry_equiv_pos_as_xyz
  1  'x, y, z'
loop_
 _atom_site_type_symbol
 _atom_site_label
 _atom_site_symmetry_multiplicity
 _atom_site_fract_x
 _atom_site_fract_y
 _atom_site_fract_z
 _atom_site_occupancy
  La  La0  1  0.999541  0.999541  0.001377  1
  La  La1  1  0.078281  0.078281  0.765156  1
  Sm  Sm2  1  0.922801  0.922801  0.231599  1
  Sm  Sm3  1  0.152490  0.152490  0.542530  1
  Sm  Sm4  1  0.847985  0.847985  0.456046  1
  Pt  Pt5  1  0.500024  0.500024  0.499927  1
  Pt  Pt6  1  0.249778  0.249778  0.250665  1
  Pt  Pt7  1  0.750197  0.750197  0.749409  1
  Pt  Pt8  1  0.333024  0.333024  0.000927  1
  Pt  Pt9  1  0.666582  0.666582  0.000256  1
  Pt  Pt10  1  0.416526  0.416526  0.750423  1
  Pt  Pt11  1  0.583395  0.583395  0.249815  1
  Pt  Pt12  1  0.122028  0.627591  0.622789  1
  Pt  Pt13  1  0.627591  0.627591  0.622789  1
  Pt  Pt14  1  0.627591  0.122028  0.622789  1
  Pt  Pt15  1  0.878017  0.372735  0.376515  1
  Pt  Pt16  1  0.372735  0.372735  0.376515  1
  Pt  Pt17  1  0.372735  0.878017  0.376515  1
  Pt  Pt18  1  0.041122  0.541277  0.876323  1
  Pt  Pt19  1  0.541277  0.541277  0.876323  1
  Pt  Pt20  1  0.541277  0.041122  0.876323  1
  Pt  Pt21  1  0.958340  0.458332  0.124997  1
  Pt  Pt22  1  0.458332  0.458332  0.124997  1
  Pt  Pt23  1  0.458332  0.958340  0.124997  1
