# generated using pymatgen
data_DyEr15(In3Fe)2
_symmetry_space_group_name_H-M   'P 1'
_cell_length_a   10.27937700
_cell_length_b   10.27391056
_cell_length_c   6.95916356
_cell_angle_alpha   89.92719713
_cell_angle_beta   90.00000000
_cell_angle_gamma   120.01759263
_symmetry_Int_Tables_number   1
_chemical_formula_structural   DyEr15(In3Fe)2
_chemical_formula_sum   'Dy1 Er15 In6 Fe2'
_cell_volume   636.37449623
_cell_formula_units_Z   1
loop_
 _symmetry_equiv_pos_site_id
 _symmetry_equiv_pos_as_xyz
  1  'x, y, z'
loop_
 _atom_site_type_symbol
 _atom_site_label
 _atom_site_symmetry_multiplicity
 _atom_site_fract_x
 _atom_site_fract_y
 _atom_site_fract_z
 _atom_site_occupancy
  Dy  Dy0  1  0.534631  0.069260  0.791720  1
  Er  Er1  1  0.930970  0.465571  0.792469  1
  Er  Er2  1  0.534602  0.465571  0.792469  1
  Er  Er3  1  0.465044  0.930088  0.291975  1
  Er  Er4  1  0.069444  0.534808  0.292361  1
  Er  Er5  1  0.465363  0.534808  0.292361  1
  Er  Er6  1  0.821267  0.642533  0.498643  1
  Er  Er7  1  0.356906  0.178657  0.498297  1
  Er  Er8  1  0.821752  0.178657  0.498297  1
  Er  Er9  1  0.178872  0.357743  0.998826  1
  Er  Er10  1  0.642770  0.821132  0.998967  1
  Er  Er11  1  0.178362  0.821132  0.998967  1
  Er  Er12  1  0.666900  0.333798  0.181386  1
  Er  Er13  1  0.333039  0.666079  0.680926  1
  Er  Er14  1  0.999936  0.999870  0.779241  1
  Er  Er15  1  0.999945  0.999888  0.279504  1
  In  In16  1  0.836994  0.673991  0.038625  1
  In  In17  1  0.325724  0.163093  0.038631  1
  In  In18  1  0.837369  0.163093  0.038631  1
  In  In19  1  0.163045  0.326089  0.538445  1
  In  In20  1  0.673857  0.836805  0.538629  1
  In  In21  1  0.162949  0.836805  0.538629  1
  Fe  Fe22  1  0.666890  0.333778  0.568702  1
  Fe  Fe23  1  0.333373  0.666747  0.069204  1
