# generated using pymatgen
data_Dy7Lu(Ga3Pd)4
_symmetry_space_group_name_H-M   'P 1'
_cell_length_a   8.86664400
_cell_length_b   8.88861240
_cell_length_c   7.04840300
_cell_angle_alpha   90.00000000
_cell_angle_beta   90.00000000
_cell_angle_gamma   120.08373231
_symmetry_Int_Tables_number   1
_chemical_formula_structural   Dy7Lu(Ga3Pd)4
_chemical_formula_sum   'Dy7 Lu1 Ga12 Pd4'
_cell_volume   480.67058756
_cell_formula_units_Z   1
loop_
 _symmetry_equiv_pos_site_id
 _symmetry_equiv_pos_as_xyz
  1  'x, y, z'
loop_
 _atom_site_type_symbol
 _atom_site_label
 _atom_site_symmetry_multiplicity
 _atom_site_fract_x
 _atom_site_fract_y
 _atom_site_fract_z
 _atom_site_occupancy
  Dy  Dy0  1  0.999828  0.999906  0.250000  1
  Dy  Dy1  1  0.000173  0.000080  0.750000  1
  Dy  Dy2  1  0.516922  0.033840  0.250000  1
  Dy  Dy3  1  0.516944  0.483073  0.250000  1
  Dy  Dy4  1  0.967322  0.483667  0.250000  1
  Dy  Dy5  1  0.482545  0.965432  0.750000  1
  Dy  Dy6  1  0.482519  0.517125  0.750000  1
  Lu  Lu7  1  0.033332  0.516656  0.750000  1
  Ga  Ga8  1  0.166719  0.333683  0.041853  1
  Ga  Ga9  1  0.166734  0.833018  0.458171  1
  Ga  Ga10  1  0.664780  0.832389  0.456962  1
  Ga  Ga11  1  0.664780  0.832389  0.043038  1
  Ga  Ga12  1  0.166734  0.833018  0.041829  1
  Ga  Ga13  1  0.833565  0.665686  0.955430  1
  Ga  Ga14  1  0.833535  0.167899  0.955456  1
  Ga  Ga15  1  0.335410  0.167707  0.956971  1
  Ga  Ga16  1  0.166719  0.333683  0.458147  1
  Ga  Ga17  1  0.335410  0.167707  0.543029  1
  Ga  Ga18  1  0.833565  0.665686  0.544570  1
  Ga  Ga19  1  0.833535  0.167899  0.544544  1
  Pd  Pd20  1  0.330507  0.665235  0.026406  1
  Pd  Pd21  1  0.330507  0.665235  0.473594  1
  Pd  Pd22  1  0.668958  0.334493  0.969416  1
  Pd  Pd23  1  0.668958  0.334493  0.530584  1
