# generated using pymatgen
data_Tb11YFe2Br17
_symmetry_space_group_name_H-M   'P 1'
_cell_length_a   9.32139355
_cell_length_b   11.19695814
_cell_length_c   11.20036200
_cell_angle_alpha   93.64137839
_cell_angle_beta   104.56396480
_cell_angle_gamma   114.37586469
_symmetry_Int_Tables_number   1
_chemical_formula_structural   Tb11YFe2Br17
_chemical_formula_sum   'Tb11 Y1 Fe2 Br17'
_cell_volume   1011.84851749
_cell_formula_units_Z   1
loop_
 _symmetry_equiv_pos_site_id
 _symmetry_equiv_pos_as_xyz
  1  'x, y, z'
loop_
 _atom_site_type_symbol
 _atom_site_label
 _atom_site_symmetry_multiplicity
 _atom_site_fract_x
 _atom_site_fract_y
 _atom_site_fract_z
 _atom_site_occupancy
  Tb  Tb0  1  0.986318  0.809583  0.581411  1
  Tb  Tb1  1  0.648116  0.239381  0.284407  1
  Tb  Tb2  1  0.015078  0.190200  0.420736  1
  Tb  Tb3  1  0.225773  0.672379  0.990469  1
  Tb  Tb4  1  0.257882  0.987952  0.891037  1
  Tb  Tb5  1  0.355345  0.760421  0.714538  1
  Tb  Tb6  1  0.943371  0.489036  0.678768  1
  Tb  Tb7  1  0.741648  0.009942  0.108409  1
  Tb  Tb8  1  0.147346  0.287788  0.150182  1
  Tb  Tb9  1  0.772294  0.327838  0.007798  1
  Tb  Tb10  1  0.848686  0.712510  0.850588  1
  Y  Y11  1  0.057665  0.513433  0.321644  1
  Fe  Fe12  1  0.104730  0.739004  0.786224  1
  Fe  Fe13  1  0.894848  0.260634  0.213632  1
  Br  Br14  1  0.792359  0.525779  0.420292  1
  Br  Br15  1  0.651447  0.423795  0.762558  1
  Br  Br16  1  0.847447  0.902432  0.327893  1
  Br  Br17  1  0.321071  0.215762  0.362642  1
  Br  Br18  1  0.153727  0.098054  0.672847  1
  Br  Br19  1  0.584316  0.051117  0.849047  1
  Br  Br20  1  0.762873  0.190411  0.534783  1
  Br  Br21  1  0.546222  0.710967  0.950377  1
  Br  Br22  1  0.346914  0.576117  0.238315  1
  Br  Br23  1  0.208917  0.474135  0.577276  1
  Br  Br24  1  0.053791  0.373203  0.901657  1
  Br  Br25  1  0.454465  0.288723  0.051039  1
  Br  Br26  1  0.000917  0.001362  0.001170  1
  Br  Br27  1  0.235591  0.806579  0.462683  1
  Br  Br28  1  0.418003  0.949624  0.151152  1
  Br  Br29  1  0.678132  0.785070  0.637058  1
  Br  Br30  1  0.944713  0.626765  0.099371  1
