# generated using pymatgen
data_Y18HoTmPb16
_symmetry_space_group_name_H-M   'P 1'
_cell_length_a   8.22296501
_cell_length_b   15.67797100
_cell_length_c   8.29311719
_cell_angle_alpha   90.00000000
_cell_angle_beta   89.99108082
_cell_angle_gamma   90.00000000
_symmetry_Int_Tables_number   1
_chemical_formula_structural   Y18HoTmPb16
_chemical_formula_sum   'Y18 Ho1 Tm1 Pb16'
_cell_volume   1069.14373724
_cell_formula_units_Z   1
loop_
 _symmetry_equiv_pos_site_id
 _symmetry_equiv_pos_as_xyz
  1  'x, y, z'
loop_
 _atom_site_type_symbol
 _atom_site_label
 _atom_site_symmetry_multiplicity
 _atom_site_fract_x
 _atom_site_fract_y
 _atom_site_fract_z
 _atom_site_occupancy
  Y  Y0  1  0.623209  0.620699  0.158836  1
  Y  Y1  1  0.122750  0.879181  0.341386  1
  Y  Y2  1  0.377183  0.120894  0.841461  1
  Y  Y3  1  0.876831  0.379151  0.658867  1
  Y  Y4  1  0.377183  0.379106  0.841461  1
  Y  Y5  1  0.876831  0.120849  0.658867  1
  Y  Y6  1  0.623209  0.879301  0.158836  1
  Y  Y7  1  0.122750  0.620819  0.341386  1
  Y  Y8  1  0.465209  0.600128  0.675706  1
  Y  Y9  1  0.964909  0.899915  0.824035  1
  Y  Y10  1  0.535105  0.100174  0.323996  1
  Y  Y11  1  0.034859  0.399784  0.175689  1
  Y  Y12  1  0.535105  0.399826  0.323996  1
  Y  Y13  1  0.034859  0.100216  0.175689  1
  Y  Y14  1  0.465209  0.899872  0.675706  1
  Y  Y15  1  0.964909  0.600085  0.824035  1
  Y  Y16  1  0.290887  0.750000  0.003548  1
  Y  Y17  1  0.209109  0.250000  0.503551  1
  Ho  Ho18  1  0.709099  0.250000  0.996238  1
  Tm  Tm19  1  0.790688  0.750000  0.496274  1
  Pb  Pb20  1  0.718890  0.456993  0.967076  1
  Pb  Pb21  1  0.218860  0.042648  0.533275  1
  Pb  Pb22  1  0.281111  0.957409  0.033149  1
  Pb  Pb23  1  0.781226  0.542844  0.466822  1
  Pb  Pb24  1  0.281111  0.542591  0.033149  1
  Pb  Pb25  1  0.781226  0.957156  0.466822  1
  Pb  Pb26  1  0.718890  0.043007  0.967076  1
  Pb  Pb27  1  0.218860  0.457352  0.533275  1
  Pb  Pb28  1  0.428287  0.750000  0.374114  1
  Pb  Pb29  1  0.927500  0.750000  0.126397  1
  Pb  Pb30  1  0.572533  0.250000  0.626529  1
  Pb  Pb31  1  0.071785  0.250000  0.874222  1
  Pb  Pb32  1  0.653316  0.750000  0.847030  1
  Pb  Pb33  1  0.152754  0.750000  0.652155  1
  Pb  Pb34  1  0.347249  0.250000  0.152268  1
  Pb  Pb35  1  0.846503  0.250000  0.347076  1
