# generated using pymatgen
data_NaTbSm5PtI12
_symmetry_space_group_name_H-M   'P 1'
_cell_length_a   9.88801143
_cell_length_b   9.93764563
_cell_length_c   9.97774317
_cell_angle_alpha   106.77164785
_cell_angle_beta   107.13542597
_cell_angle_gamma   107.05015084
_symmetry_Int_Tables_number   1
_chemical_formula_structural   NaTbSm5PtI12
_chemical_formula_sum   'Na1 Tb1 Sm5 Pt1 I12'
_cell_volume   816.83731422
_cell_formula_units_Z   1
loop_
 _symmetry_equiv_pos_site_id
 _symmetry_equiv_pos_as_xyz
  1  'x, y, z'
loop_
 _atom_site_type_symbol
 _atom_site_label
 _atom_site_symmetry_multiplicity
 _atom_site_fract_x
 _atom_site_fract_y
 _atom_site_fract_z
 _atom_site_occupancy
  Na  Na0  1  0.499983  0.499911  0.499946  1
  Tb  Tb1  1  0.971722  0.690784  0.897461  1
  Sm  Sm2  1  0.102931  0.028923  0.312170  1
  Sm  Sm3  1  0.301286  0.098411  0.027046  1
  Sm  Sm4  1  0.028202  0.312806  0.103241  1
  Sm  Sm5  1  0.897041  0.970999  0.687719  1
  Sm  Sm6  1  0.698118  0.900030  0.972510  1
  Pt  Pt7  1  0.999615  0.999065  0.999595  1
  I  I8  1  0.074722  0.680033  0.220664  1
  I  I9  1  0.227095  0.076877  0.681501  1
  I  I10  1  0.679210  0.223273  0.075394  1
  I  I11  1  0.924637  0.322637  0.776194  1
  I  I12  1  0.772722  0.922858  0.318493  1
  I  I13  1  0.316693  0.774010  0.923618  1
  I  I14  1  0.453745  0.144456  0.372543  1
  I  I15  1  0.374774  0.451904  0.143943  1
  I  I16  1  0.144002  0.373169  0.452351  1
  I  I17  1  0.546199  0.855437  0.627509  1
  I  I18  1  0.629423  0.547927  0.856261  1
  I  I19  1  0.857880  0.626490  0.551841  1
