# generated using pymatgen
data_Dy2Ho3Zr3(P3Ir4)4
_symmetry_space_group_name_H-M   'P 1'
_cell_length_a   12.88096900
_cell_length_b   12.88096979
_cell_length_c   3.98148900
_cell_angle_alpha   90.00000000
_cell_angle_beta   90.00000000
_cell_angle_gamma   120.00000055
_symmetry_Int_Tables_number   1
_chemical_formula_structural   Dy2Ho3Zr3(P3Ir4)4
_chemical_formula_sum   'Dy2 Ho3 Zr3 P12 Ir16'
_cell_volume   572.10171035
_cell_formula_units_Z   1
loop_
 _symmetry_equiv_pos_site_id
 _symmetry_equiv_pos_as_xyz
  1  'x, y, z'
loop_
 _atom_site_type_symbol
 _atom_site_label
 _atom_site_symmetry_multiplicity
 _atom_site_fract_x
 _atom_site_fract_y
 _atom_site_fract_z
 _atom_site_occupancy
  Dy  Dy0  1  0.333333  0.666667  0.500000  1
  Dy  Dy1  1  0.666667  0.333333  0.500000  1
  Ho  Ho2  1  0.000000  0.814918  0.000000  1
  Ho  Ho3  1  0.185082  0.185082  0.000000  1
  Ho  Ho4  1  0.814918  0.000000  0.000000  1
  Zr  Zr5  1  0.000000  0.449203  0.500000  1
  Zr  Zr6  1  0.550797  0.550797  0.500000  1
  Zr  Zr7  1  0.449203  0.000000  0.500000  1
  P  P8  1  0.000000  0.649394  0.500000  1
  P  P9  1  0.350606  0.350606  0.500000  1
  P  P10  1  0.649394  0.000000  0.500000  1
  P  P11  1  0.517135  0.686437  0.000000  1
  P  P12  1  0.313563  0.830698  0.000000  1
  P  P13  1  0.169302  0.482865  0.000000  1
  P  P14  1  0.482865  0.169302  0.000000  1
  P  P15  1  0.686437  0.517135  0.000000  1
  P  P16  1  0.830698  0.313563  0.000000  1
  P  P17  1  0.000000  0.175902  0.500000  1
  P  P18  1  0.824098  0.824098  0.500000  1
  P  P19  1  0.175902  0.000000  0.500000  1
  Ir  Ir20  1  0.507688  0.863878  0.000000  1
  Ir  Ir21  1  0.136122  0.643811  0.000000  1
  Ir  Ir22  1  0.356189  0.492312  0.000000  1
  Ir  Ir23  1  0.492312  0.356189  0.000000  1
  Ir  Ir24  1  0.863878  0.507688  0.000000  1
  Ir  Ir25  1  0.643811  0.136122  0.000000  1
  Ir  Ir26  1  0.000000  0.278266  0.000000  1
  Ir  Ir27  1  0.721734  0.721734  0.000000  1
  Ir  Ir28  1  0.278266  0.000000  0.000000  1
  Ir  Ir29  1  0.629340  0.807488  0.500000  1
  Ir  Ir30  1  0.192512  0.821852  0.500000  1
  Ir  Ir31  1  0.178148  0.370660  0.500000  1
  Ir  Ir32  1  0.370660  0.178148  0.500000  1
  Ir  Ir33  1  0.807488  0.629340  0.500000  1
  Ir  Ir34  1  0.821852  0.192512  0.500000  1
  Ir  Ir35  1  0.000000  0.000000  0.500000  1
