# generated using pymatgen
data_Tb7DyIn2PtRh
_symmetry_space_group_name_H-M   'P 1'
_cell_length_a   9.74417201
_cell_length_b   9.73831211
_cell_length_c   9.73744856
_cell_angle_alpha   59.99791824
_cell_angle_beta   59.96173713
_cell_angle_gamma   59.97232763
_symmetry_Int_Tables_number   1
_chemical_formula_structural   Tb7DyIn2PtRh
_chemical_formula_sum   'Tb14 Dy2 In4 Pt2 Rh2'
_cell_volume   653.03338630
_cell_formula_units_Z   2
loop_
 _symmetry_equiv_pos_site_id
 _symmetry_equiv_pos_as_xyz
  1  'x, y, z'
loop_
 _atom_site_type_symbol
 _atom_site_label
 _atom_site_symmetry_multiplicity
 _atom_site_fract_x
 _atom_site_fract_y
 _atom_site_fract_z
 _atom_site_occupancy
  Tb  Tb0  1  0.690819  0.309134  0.309240  1
  Tb  Tb1  1  0.687267  0.693103  0.309710  1
  Tb  Tb2  1  0.309958  0.693113  0.309672  1
  Tb  Tb3  1  0.938690  0.937116  0.561947  1
  Tb  Tb4  1  0.150229  0.145974  0.553451  1
  Tb  Tb5  1  0.562280  0.937077  0.561802  1
  Tb  Tb6  1  0.153305  0.149259  0.149217  1
  Tb  Tb7  1  0.310073  0.309665  0.693142  1
  Tb  Tb8  1  0.939018  0.560846  0.560941  1
  Tb  Tb9  1  0.562331  0.561759  0.936988  1
  Tb  Tb10  1  0.563008  0.937178  0.936997  1
  Tb  Tb11  1  0.938743  0.561920  0.937022  1
  Tb  Tb12  1  0.150368  0.553389  0.145905  1
  Tb  Tb13  1  0.310608  0.689346  0.689557  1
  Dy  Dy14  1  0.687257  0.309625  0.693160  1
  Dy  Dy15  1  0.548168  0.149394  0.149165  1
  In  In16  1  0.916851  0.917911  0.248252  1
  In  In17  1  0.248634  0.917287  0.917244  1
  In  In18  1  0.916837  0.248281  0.917869  1
  In  In19  1  0.916687  0.917368  0.917265  1
  Pt  Pt20  1  0.355863  0.357709  0.357687  1
  Pt  Pt21  1  0.928257  0.357872  0.358199  1
  Rh  Rh22  1  0.357478  0.358593  0.926946  1
  Rh  Rh23  1  0.357271  0.927075  0.358620  1
