# generated using pymatgen
data_Sm3Ho3MgCo17P12
_symmetry_space_group_name_H-M   'P 1'
_cell_length_a   3.73453500
_cell_length_b   10.59628760
_cell_length_c   12.28513115
_cell_angle_alpha   90.04509016
_cell_angle_beta   90.00000000
_cell_angle_gamma   90.00000000
_symmetry_Int_Tables_number   1
_chemical_formula_structural   Sm3Ho3MgCo17P12
_chemical_formula_sum   'Sm3 Ho3 Mg1 Co17 P12'
_cell_volume   486.14960139
_cell_formula_units_Z   1
loop_
 _symmetry_equiv_pos_site_id
 _symmetry_equiv_pos_as_xyz
  1  'x, y, z'
loop_
 _atom_site_type_symbol
 _atom_site_label
 _atom_site_symmetry_multiplicity
 _atom_site_fract_x
 _atom_site_fract_y
 _atom_site_fract_z
 _atom_site_occupancy
  Sm  Sm0  1  0.000000  0.500947  0.526243  1
  Sm  Sm1  1  0.500000  0.001501  0.478188  1
  Sm  Sm2  1  0.500000  0.820966  0.207096  1
  Ho  Ho3  1  0.500000  0.178418  0.206208  1
  Ho  Ho4  1  0.000000  0.681792  0.795926  1
  Ho  Ho5  1  0.000000  0.317168  0.794425  1
  Mg  Mg6  1  0.500000  0.497012  0.152474  1
  Co  Co7  1  0.000000  0.498086  0.985585  1
  Co  Co8  1  0.500000  0.000322  0.010150  1
  Co  Co9  1  0.500000  0.297080  0.431635  1
  Co  Co10  1  0.500000  0.705497  0.434651  1
  Co  Co11  1  0.000000  0.203952  0.570845  1
  Co  Co12  1  0.000000  0.798605  0.573514  1
  Co  Co13  1  0.500000  0.880399  0.711430  1
  Co  Co14  1  0.500000  0.120197  0.709526  1
  Co  Co15  1  0.000000  0.621417  0.294417  1
  Co  Co16  1  0.000000  0.376945  0.290930  1
  Co  Co17  1  0.500000  0.328114  0.992187  1
  Co  Co18  1  0.500000  0.668723  0.992411  1
  Co  Co19  1  0.000000  0.163341  0.000343  1
  Co  Co20  1  0.000000  0.836079  0.000279  1
  Co  Co21  1  0.000000  0.000450  0.839375  1
  Co  Co22  1  0.500000  0.499935  0.706737  1
  Co  Co23  1  0.000000  0.002812  0.294149  1
  P  P24  1  0.500000  0.308469  0.617781  1
  P  P25  1  0.500000  0.692657  0.619842  1
  P  P26  1  0.000000  0.192434  0.384495  1
  P  P27  1  0.000000  0.809329  0.388118  1
  P  P28  1  0.500000  0.498637  0.883556  1
  P  P29  1  0.000000  0.001356  0.114011  1
  P  P30  1  0.500000  0.847951  0.890794  1
  P  P31  1  0.500000  0.150923  0.889351  1
  P  P32  1  0.000000  0.660626  0.101132  1
  P  P33  1  0.000000  0.335777  0.102508  1
  P  P34  1  0.500000  0.501446  0.352095  1
  P  P35  1  0.000000  0.000638  0.657594  1
