# generated using pymatgen
data_NdZr(PPt)2
_symmetry_space_group_name_H-M   'P 1'
_cell_length_a   4.12842000
_cell_length_b   4.12841985
_cell_length_c   15.33529900
_cell_angle_alpha   90.00000000
_cell_angle_beta   90.00000000
_cell_angle_gamma   119.99998519
_symmetry_Int_Tables_number   1
_chemical_formula_structural   NdZr(PPt)2
_chemical_formula_sum   'Nd2 Zr2 P4 Pt4'
_cell_volume   226.35530392
_cell_formula_units_Z   2
loop_
 _symmetry_equiv_pos_site_id
 _symmetry_equiv_pos_as_xyz
  1  'x, y, z'
loop_
 _atom_site_type_symbol
 _atom_site_label
 _atom_site_symmetry_multiplicity
 _atom_site_fract_x
 _atom_site_fract_y
 _atom_site_fract_z
 _atom_site_occupancy
  Nd  Nd0  1  0.000000  0.000000  0.500000  1
  Nd  Nd1  1  0.000000  0.000000  0.000000  1
  Zr  Zr2  1  0.000000  0.000000  0.250000  1
  Zr  Zr3  1  0.000000  0.000000  0.750000  1
  P  P4  1  0.333333  0.666667  0.877806  1
  P  P5  1  0.666667  0.333333  0.122194  1
  P  P6  1  0.666667  0.333333  0.377806  1
  P  P7  1  0.333333  0.666667  0.622194  1
  Pt  Pt8  1  0.333333  0.666667  0.350797  1
  Pt  Pt9  1  0.666667  0.333333  0.649203  1
  Pt  Pt10  1  0.666667  0.333333  0.850797  1
  Pt  Pt11  1  0.333333  0.666667  0.149203  1
