# generated using pymatgen
data_YbDy6Tm(B6Os)4
_symmetry_space_group_name_H-M   'P 1'
_cell_length_a   3.64901200
_cell_length_b   9.14781264
_cell_length_c   11.53345400
_cell_angle_alpha   89.93189690
_cell_angle_beta   90.00000000
_cell_angle_gamma   90.00000000
_symmetry_Int_Tables_number   1
_chemical_formula_structural   YbDy6Tm(B6Os)4
_chemical_formula_sum   'Yb1 Dy6 Tm1 B24 Os4'
_cell_volume   384.99193682
_cell_formula_units_Z   1
loop_
 _symmetry_equiv_pos_site_id
 _symmetry_equiv_pos_as_xyz
  1  'x, y, z'
loop_
 _atom_site_type_symbol
 _atom_site_label
 _atom_site_symmetry_multiplicity
 _atom_site_fract_x
 _atom_site_fract_y
 _atom_site_fract_z
 _atom_site_occupancy
  Yb  Yb0  1  0.000000  0.323229  0.413637  1
  Dy  Dy1  1  0.000000  0.676168  0.585436  1
  Dy  Dy2  1  0.000000  0.821906  0.086233  1
  Dy  Dy3  1  0.000000  0.178569  0.914174  1
  Dy  Dy4  1  0.000000  0.943969  0.371718  1
  Dy  Dy5  1  0.000000  0.058170  0.627743  1
  Dy  Dy6  1  0.000000  0.443100  0.128453  1
  Tm  Tm7  1  0.000000  0.556209  0.872492  1
  B  B8  1  0.500000  0.553273  0.432773  1
  B  B9  1  0.500000  0.446483  0.567507  1
  B  B10  1  0.500000  0.052925  0.066357  1
  B  B11  1  0.500000  0.945486  0.932559  1
  B  B12  1  0.500000  0.747555  0.419110  1
  B  B13  1  0.500000  0.253373  0.581075  1
  B  B14  1  0.500000  0.247446  0.080449  1
  B  B15  1  0.500000  0.750761  0.919438  1
  B  B16  1  0.500000  0.790760  0.266257  1
  B  B17  1  0.500000  0.210823  0.734098  1
  B  B18  1  0.500000  0.289734  0.233557  1
  B  B19  1  0.500000  0.708570  0.766732  1
  B  B20  1  0.500000  0.631425  0.186026  1
  B  B21  1  0.500000  0.369825  0.815273  1
  B  B22  1  0.500000  0.131480  0.313730  1
  B  B23  1  0.500000  0.868253  0.685714  1
  B  B24  1  0.500000  0.983276  0.211904  1
  B  B25  1  0.500000  0.016367  0.787365  1
  B  B26  1  0.500000  0.483147  0.287853  1
  B  B27  1  0.500000  0.517387  0.713435  1
  B  B28  1  0.500000  0.606744  0.028971  1
  B  B29  1  0.500000  0.394208  0.970011  1
  B  B30  1  0.500000  0.105561  0.470689  1
  B  B31  1  0.500000  0.893774  0.529598  1
  Os  Os32  1  0.000000  0.638555  0.320905  1
  Os  Os33  1  0.000000  0.363593  0.680265  1
  Os  Os34  1  0.000000  0.136282  0.177032  1
  Os  Os35  1  0.000000  0.861615  0.821432  1
