# generated using pymatgen
data_TbCe4Ho3(AlRu)8
_symmetry_space_group_name_H-M   'P 1'
_cell_length_a   4.06181200
_cell_length_b   7.07502260
_cell_length_c   16.02646729
_cell_angle_alpha   90.16221173
_cell_angle_beta   90.00000000
_cell_angle_gamma   90.00000000
_symmetry_Int_Tables_number   1
_chemical_formula_structural   TbCe4Ho3(AlRu)8
_chemical_formula_sum   'Tb1 Ce4 Ho3 Al8 Ru8'
_cell_volume   460.55734261
_cell_formula_units_Z   1
loop_
 _symmetry_equiv_pos_site_id
 _symmetry_equiv_pos_as_xyz
  1  'x, y, z'
loop_
 _atom_site_type_symbol
 _atom_site_label
 _atom_site_symmetry_multiplicity
 _atom_site_fract_x
 _atom_site_fract_y
 _atom_site_fract_z
 _atom_site_occupancy
  Tb  Tb0  1  0.250000  0.668175  0.937987  1
  Ce  Ce1  1  0.750000  0.464713  0.282696  1
  Ce  Ce2  1  0.750000  0.333145  0.062359  1
  Ce  Ce3  1  0.250000  0.041267  0.780153  1
  Ce  Ce4  1  0.250000  0.539371  0.717774  1
  Ho  Ho5  1  0.750000  0.960446  0.218873  1
  Ho  Ho6  1  0.250000  0.160878  0.558895  1
  Ho  Ho7  1  0.750000  0.835748  0.439452  1
  Al  Al8  1  0.750000  0.491827  0.562245  1
  Al  Al9  1  0.750000  0.371878  0.852562  1
  Al  Al10  1  0.750000  0.998411  0.937201  1
  Al  Al11  1  0.750000  0.871787  0.645952  1
  Al  Al12  1  0.250000  0.495875  0.437637  1
  Al  Al13  1  0.250000  0.995376  0.066320  1
  Al  Al14  1  0.250000  0.639084  0.150659  1
  Al  Al15  1  0.250000  0.121621  0.347636  1
  Ru  Ru16  1  0.750000  0.762459  0.807292  1
  Ru  Ru17  1  0.250000  0.236448  0.937278  1
  Ru  Ru18  1  0.750000  0.260435  0.429063  1
  Ru  Ru19  1  0.250000  0.742694  0.315827  1
  Ru  Ru20  1  0.750000  0.763665  0.066387  1
  Ru  Ru21  1  0.750000  0.250272  0.691993  1
  Ru  Ru22  1  0.250000  0.267447  0.185492  1
  Ru  Ru23  1  0.250000  0.726975  0.568266  1
