# generated using pymatgen
data_Th4Ga18AgRu5
_symmetry_space_group_name_H-M   'P 1'
_cell_length_a   7.72365854
_cell_length_b   7.72365701
_cell_length_c   9.67846458
_cell_angle_alpha   90.09989478
_cell_angle_beta   90.09989925
_cell_angle_gamma   119.59838783
_symmetry_Int_Tables_number   1
_chemical_formula_structural   Th4Ga18AgRu5
_chemical_formula_sum   'Th4 Ga18 Ag1 Ru5'
_cell_volume   502.02332654
_cell_formula_units_Z   1
loop_
 _symmetry_equiv_pos_site_id
 _symmetry_equiv_pos_as_xyz
  1  'x, y, z'
loop_
 _atom_site_type_symbol
 _atom_site_label
 _atom_site_symmetry_multiplicity
 _atom_site_fract_x
 _atom_site_fract_y
 _atom_site_fract_z
 _atom_site_occupancy
  Th  Th0  1  0.997850  0.672527  0.252451  1
  Th  Th1  1  0.002150  0.327473  0.747549  1
  Th  Th2  1  0.672527  0.997850  0.252451  1
  Th  Th3  1  0.327473  0.002150  0.747549  1
  Ga  Ga4  1  0.138507  0.138507  0.257418  1
  Ga  Ga5  1  0.861493  0.861493  0.742582  1
  Ga  Ga6  1  0.006638  0.346159  0.080286  1
  Ga  Ga7  1  0.993362  0.653841  0.919714  1
  Ga  Ga8  1  0.993976  0.663110  0.576352  1
  Ga  Ga9  1  0.336890  0.006024  0.423648  1
  Ga  Ga10  1  0.006024  0.336890  0.423648  1
  Ga  Ga11  1  0.663110  0.993976  0.576352  1
  Ga  Ga12  1  0.653841  0.993362  0.919713  1
  Ga  Ga13  1  0.346159  0.006638  0.080287  1
  Ga  Ga14  1  0.337806  0.337806  0.556507  1
  Ga  Ga15  1  0.662194  0.662194  0.443493  1
  Ga  Ga16  1  0.650068  0.650068  0.066525  1
  Ga  Ga17  1  0.349932  0.349932  0.933475  1
  Ga  Ga18  1  0.336933  0.547249  0.251037  1
  Ga  Ga19  1  0.663067  0.452751  0.748963  1
  Ga  Ga20  1  0.547249  0.336933  0.251037  1
  Ga  Ga21  1  0.452751  0.663067  0.748963  1
  Ag  Ag22  1  0.000000  0.000000  0.000000  1
  Ru  Ru23  1  0.673056  0.326944  0.000000  1
  Ru  Ru24  1  0.326944  0.673056  0.000000  1
  Ru  Ru25  1  0.327032  0.672968  0.500000  1
  Ru  Ru26  1  0.672968  0.327032  0.500000  1
  Ru  Ru27  1  0.000000  0.000000  0.500000  1
