# generated using pymatgen
data_Pa2Nb8Al4Pt
_symmetry_space_group_name_H-M   'P 1'
_cell_length_a   10.01031800
_cell_length_b   10.01031800
_cell_length_c   5.44569000
_cell_angle_alpha   90.00000000
_cell_angle_beta   90.00000000
_cell_angle_gamma   90.00000000
_symmetry_Int_Tables_number   1
_chemical_formula_structural   Pa2Nb8Al4Pt
_chemical_formula_sum   'Pa4 Nb16 Al8 Pt2'
_cell_volume   545.69335234
_cell_formula_units_Z   2
loop_
 _symmetry_equiv_pos_site_id
 _symmetry_equiv_pos_as_xyz
  1  'x, y, z'
loop_
 _atom_site_type_symbol
 _atom_site_label
 _atom_site_symmetry_multiplicity
 _atom_site_fract_x
 _atom_site_fract_y
 _atom_site_fract_z
 _atom_site_occupancy
  Pa  Pa0  1  0.398338  0.398338  0.000000  1
  Pa  Pa1  1  0.898338  0.101662  0.500000  1
  Pa  Pa2  1  0.101662  0.898338  0.500000  1
  Pa  Pa3  1  0.601662  0.601662  0.000000  1
  Nb  Nb4  1  0.132700  0.462462  0.000000  1
  Nb  Nb5  1  0.962462  0.367300  0.500000  1
  Nb  Nb6  1  0.037538  0.632700  0.500000  1
  Nb  Nb7  1  0.867300  0.537538  0.000000  1
  Nb  Nb8  1  0.367300  0.962462  0.500000  1
  Nb  Nb9  1  0.632700  0.037538  0.500000  1
  Nb  Nb10  1  0.462462  0.132700  0.000000  1
  Nb  Nb11  1  0.537538  0.867300  0.000000  1
  Nb  Nb12  1  0.186248  0.186248  0.251405  1
  Nb  Nb13  1  0.686248  0.313752  0.751405  1
  Nb  Nb14  1  0.313752  0.686248  0.751405  1
  Nb  Nb15  1  0.813752  0.813752  0.251405  1
  Nb  Nb16  1  0.313752  0.686248  0.248595  1
  Nb  Nb17  1  0.686248  0.313752  0.248595  1
  Nb  Nb18  1  0.186248  0.186248  0.748595  1
  Nb  Nb19  1  0.813752  0.813752  0.748595  1
  Al  Al20  1  0.263252  0.936950  0.000000  1
  Al  Al21  1  0.436950  0.236748  0.500000  1
  Al  Al22  1  0.563050  0.763252  0.500000  1
  Al  Al23  1  0.736748  0.063050  0.000000  1
  Al  Al24  1  0.236748  0.436950  0.500000  1
  Al  Al25  1  0.763252  0.563050  0.500000  1
  Al  Al26  1  0.936950  0.263252  0.000000  1
  Al  Al27  1  0.063050  0.736748  0.000000  1
  Pt  Pt28  1  0.000000  0.000000  0.000000  1
  Pt  Pt29  1  0.500000  0.500000  0.500000  1
