# generated using pymatgen
data_Ta8Co2Os2CN
_symmetry_space_group_name_H-M   'P 1'
_cell_length_a   8.33080678
_cell_length_b   8.33074168
_cell_length_c   8.32519907
_cell_angle_alpha   60.01838956
_cell_angle_beta   60.01882834
_cell_angle_gamma   60.05560828
_symmetry_Int_Tables_number   1
_chemical_formula_structural   Ta8Co2Os2CN
_chemical_formula_sum   'Ta16 Co4 Os4 C2 N2'
_cell_volume   408.84128452
_cell_formula_units_Z   2
loop_
 _symmetry_equiv_pos_site_id
 _symmetry_equiv_pos_as_xyz
  1  'x, y, z'
loop_
 _atom_site_type_symbol
 _atom_site_label
 _atom_site_symmetry_multiplicity
 _atom_site_fract_x
 _atom_site_fract_y
 _atom_site_fract_z
 _atom_site_occupancy
  Ta  Ta0  1  0.086753  0.637665  0.637810  1
  Ta  Ta1  1  0.637680  0.086694  0.637830  1
  Ta  Ta2  1  0.637619  0.637623  0.087047  1
  Ta  Ta3  1  0.637574  0.637582  0.637702  1
  Ta  Ta4  1  0.809599  0.809593  0.190395  1
  Ta  Ta5  1  0.190407  0.190410  0.809597  1
  Ta  Ta6  1  0.809119  0.190214  0.810136  1
  Ta  Ta7  1  0.190217  0.809124  0.190520  1
  Ta  Ta8  1  0.190206  0.809126  0.810137  1
  Ta  Ta9  1  0.809115  0.190224  0.190524  1
  Ta  Ta10  1  0.436249  0.436250  0.063764  1
  Ta  Ta11  1  0.064474  0.064491  0.435516  1
  Ta  Ta12  1  0.436424  0.064286  0.435470  1
  Ta  Ta13  1  0.064274  0.436413  0.063855  1
  Ta  Ta14  1  0.064257  0.436440  0.435495  1
  Ta  Ta15  1  0.436399  0.064301  0.063867  1
  Co  Co16  1  0.453175  0.849695  0.848535  1
  Co  Co17  1  0.849721  0.453185  0.848513  1
  Co  Co18  1  0.849173  0.849128  0.453708  1
  Co  Co19  1  0.849191  0.849150  0.847954  1
  Os  Os20  1  0.749527  0.416287  0.417083  1
  Os  Os21  1  0.416280  0.749567  0.417065  1
  Os  Os22  1  0.416538  0.416526  0.749614  1
  Os  Os23  1  0.416560  0.416549  0.417324  1
  C  C24  1  0.627015  0.124235  0.124380  1
  C  C25  1  0.124229  0.627013  0.124383  1
  N  N26  1  0.124115  0.124116  0.627421  1
  N  N27  1  0.124112  0.124113  0.124355  1
