# generated using pymatgen
data_PrEr7(CdRh)2
_symmetry_space_group_name_H-M   'P 1'
_cell_length_a   9.67460816
_cell_length_b   9.67460920
_cell_length_c   9.64580300
_cell_angle_alpha   60.09844288
_cell_angle_beta   60.09843936
_cell_angle_gamma   59.80310750
_symmetry_Int_Tables_number   1
_chemical_formula_structural   PrEr7(CdRh)2
_chemical_formula_sum   'Pr2 Er14 Cd4 Rh4'
_cell_volume   638.38473589
_cell_formula_units_Z   2
loop_
 _symmetry_equiv_pos_site_id
 _symmetry_equiv_pos_as_xyz
  1  'x, y, z'
loop_
 _atom_site_type_symbol
 _atom_site_label
 _atom_site_symmetry_multiplicity
 _atom_site_fract_x
 _atom_site_fract_y
 _atom_site_fract_z
 _atom_site_occupancy
  Pr  Pr0  1  0.568599  0.568599  0.931401  1
  Pr  Pr1  1  0.931401  0.931401  0.568599  1
  Er  Er2  1  0.349690  0.349690  0.345117  1
  Er  Er3  1  0.349690  0.349690  0.955503  1
  Er  Er4  1  0.345117  0.955503  0.349690  1
  Er  Er5  1  0.955503  0.345117  0.349690  1
  Er  Er6  1  0.812832  0.187168  0.187168  1
  Er  Er7  1  0.187168  0.812832  0.812832  1
  Er  Er8  1  0.187168  0.812832  0.187168  1
  Er  Er9  1  0.812832  0.187168  0.812832  1
  Er  Er10  1  0.188932  0.188932  0.811068  1
  Er  Er11  1  0.811068  0.811068  0.188932  1
  Er  Er12  1  0.941187  0.558813  0.558813  1
  Er  Er13  1  0.558813  0.941187  0.941187  1
  Er  Er14  1  0.558813  0.941187  0.558813  1
  Er  Er15  1  0.941187  0.558813  0.941187  1
  Cd  Cd16  1  0.581947  0.581947  0.577419  1
  Cd  Cd17  1  0.581947  0.581947  0.258685  1
  Cd  Cd18  1  0.577419  0.258685  0.581947  1
  Cd  Cd19  1  0.258685  0.577419  0.581947  1
  Rh  Rh20  1  0.144888  0.144888  0.136839  1
  Rh  Rh21  1  0.144888  0.144888  0.573383  1
  Rh  Rh22  1  0.136839  0.573383  0.144888  1
  Rh  Rh23  1  0.573383  0.136839  0.144888  1
