# generated using pymatgen
data_Tb8Ta4Nb8Si15Ge
_symmetry_space_group_name_H-M   'P 1'
_cell_length_a   6.89769825
_cell_length_b   7.09199663
_cell_length_c   13.47158602
_cell_angle_alpha   90.04406733
_cell_angle_beta   89.92525172
_cell_angle_gamma   90.01898220
_symmetry_Int_Tables_number   1
_chemical_formula_structural   Tb8Ta4Nb8Si15Ge
_chemical_formula_sum   'Tb8 Ta4 Nb8 Si15 Ge1'
_cell_volume   659.00835260
_cell_formula_units_Z   1
loop_
 _symmetry_equiv_pos_site_id
 _symmetry_equiv_pos_as_xyz
  1  'x, y, z'
loop_
 _atom_site_type_symbol
 _atom_site_label
 _atom_site_symmetry_multiplicity
 _atom_site_fract_x
 _atom_site_fract_y
 _atom_site_fract_z
 _atom_site_occupancy
  Tb  Tb0  1  0.503421  0.329194  0.095907  1
  Tb  Tb1  1  0.002329  0.170531  0.403768  1
  Tb  Tb2  1  0.499703  0.672767  0.596606  1
  Tb  Tb3  1  0.996572  0.828954  0.904523  1
  Tb  Tb4  1  0.496469  0.670746  0.904371  1
  Tb  Tb5  1  0.996491  0.829710  0.596100  1
  Tb  Tb6  1  0.503832  0.327837  0.403268  1
  Tb  Tb7  1  0.003342  0.171252  0.095659  1
  Ta  Ta8  1  0.664197  0.009462  0.750178  1
  Ta  Ta9  1  0.164118  0.489749  0.751995  1
  Ta  Ta10  1  0.335447  0.990599  0.249771  1
  Ta  Ta11  1  0.835794  0.509720  0.249849  1
  Nb  Nb12  1  0.836292  0.324103  0.625915  1
  Nb  Nb13  1  0.337950  0.175277  0.874721  1
  Nb  Nb14  1  0.161933  0.675564  0.125327  1
  Nb  Nb15  1  0.661545  0.825037  0.374049  1
  Nb  Nb16  1  0.160376  0.677969  0.372927  1
  Nb  Nb17  1  0.661208  0.824332  0.125343  1
  Nb  Nb18  1  0.837988  0.324415  0.874702  1
  Nb  Nb19  1  0.340577  0.171763  0.626755  1
  Si  Si20  1  0.797625  0.624842  0.750193  1
  Si  Si21  1  0.296524  0.874004  0.750600  1
  Si  Si22  1  0.202816  0.375113  0.249711  1
  Si  Si23  1  0.702946  0.124906  0.249581  1
  Si  Si24  1  0.542695  0.375332  0.750386  1
  Si  Si25  1  0.042719  0.124985  0.750045  1
  Si  Si26  1  0.456927  0.624787  0.249893  1
  Si  Si27  1  0.956211  0.875779  0.249059  1
  Si  Si28  1  0.663077  0.037769  0.540590  1
  Si  Si29  1  0.162266  0.462623  0.959080  1
  Si  Si30  1  0.337301  0.962872  0.041012  1
  Si  Si31  1  0.833556  0.538226  0.458151  1
  Si  Si32  1  0.337052  0.962228  0.459106  1
  Si  Si33  1  0.837717  0.537373  0.041195  1
  Si  Si34  1  0.662422  0.037369  0.959032  1
  Ge  Ge35  1  0.168563  0.462812  0.540631  1
