# generated using pymatgen
data_Er20Cd6OsPd
_symmetry_space_group_name_H-M   'P 1'
_cell_length_a   9.54855400
_cell_length_b   9.54856909
_cell_length_c   9.75006700
_cell_angle_alpha   90.00000000
_cell_angle_beta   90.00000000
_cell_angle_gamma   119.99972284
_symmetry_Int_Tables_number   1
_chemical_formula_structural   Er20Cd6OsPd
_chemical_formula_sum   'Er20 Cd6 Os1 Pd1'
_cell_volume   769.86636896
_cell_formula_units_Z   1
loop_
 _symmetry_equiv_pos_site_id
 _symmetry_equiv_pos_as_xyz
  1  'x, y, z'
loop_
 _atom_site_type_symbol
 _atom_site_label
 _atom_site_symmetry_multiplicity
 _atom_site_fract_x
 _atom_site_fract_y
 _atom_site_fract_z
 _atom_site_occupancy
  Er  Er0  1  0.209456  0.790542  0.939920  1
  Er  Er1  1  0.209455  0.418914  0.939921  1
  Er  Er2  1  0.581087  0.790545  0.939917  1
  Er  Er3  1  0.792149  0.207848  0.057387  1
  Er  Er4  1  0.792149  0.584300  0.057389  1
  Er  Er5  1  0.415701  0.207851  0.057387  1
  Er  Er6  1  0.792149  0.207848  0.442613  1
  Er  Er7  1  0.792149  0.584300  0.442611  1
  Er  Er8  1  0.415701  0.207851  0.442613  1
  Er  Er9  1  0.209456  0.790542  0.560080  1
  Er  Er10  1  0.209455  0.418914  0.560079  1
  Er  Er11  1  0.581087  0.790545  0.560083  1
  Er  Er12  1  0.540095  0.459906  0.750000  1
  Er  Er13  1  0.540093  0.080189  0.750000  1
  Er  Er14  1  0.919810  0.459904  0.750000  1
  Er  Er15  1  0.456938  0.543066  0.250000  1
  Er  Er16  1  0.456940  0.913871  0.250000  1
  Er  Er17  1  0.086128  0.543065  0.250000  1
  Er  Er18  1  0.000001  0.000003  0.000613  1
  Er  Er19  1  0.000001  0.000003  0.499387  1
  Cd  Cd20  1  0.885008  0.114985  0.750000  1
  Cd  Cd21  1  0.885010  0.770021  0.750000  1
  Cd  Cd22  1  0.229977  0.114982  0.750000  1
  Cd  Cd23  1  0.115032  0.884969  0.250000  1
  Cd  Cd24  1  0.115035  0.230063  0.250000  1
  Cd  Cd25  1  0.769938  0.884972  0.250000  1
  Os  Os26  1  0.333336  0.666669  0.750000  1
  Pd  Pd27  1  0.666665  0.333332  0.250000  1
