# generated using pymatgen
data_AgBi3Ir3RuO14
_symmetry_space_group_name_H-M   'P 1'
_cell_length_a   7.39494598
_cell_length_b   7.41545699
_cell_length_c   7.24540863
_cell_angle_alpha   59.46197687
_cell_angle_beta   59.31488837
_cell_angle_gamma   60.09145663
_symmetry_Int_Tables_number   1
_chemical_formula_structural   AgBi3Ir3RuO14
_chemical_formula_sum   'Ag1 Bi3 Ir3 Ru1 O14'
_cell_volume   278.50689188
_cell_formula_units_Z   1
loop_
 _symmetry_equiv_pos_site_id
 _symmetry_equiv_pos_as_xyz
  1  'x, y, z'
loop_
 _atom_site_type_symbol
 _atom_site_label
 _atom_site_symmetry_multiplicity
 _atom_site_fract_x
 _atom_site_fract_y
 _atom_site_fract_z
 _atom_site_occupancy
  Ag  Ag0  1  0.125000  0.125000  0.625000  1
  Bi  Bi1  1  0.125000  0.625000  0.125000  1
  Bi  Bi2  1  0.625000  0.125000  0.125000  1
  Bi  Bi3  1  0.125000  0.125000  0.125000  1
  Ir  Ir4  1  0.625000  0.625000  0.125000  1
  Ir  Ir5  1  0.125000  0.625000  0.625000  1
  Ir  Ir6  1  0.625000  0.625000  0.625000  1
  Ru  Ru7  1  0.625000  0.125000  0.625000  1
  O  O8  1  0.245302  0.247277  0.262120  1
  O  O9  1  0.004698  0.002723  0.987880  1
  O  O10  1  0.564494  0.945816  0.544513  1
  O  O11  1  0.295537  0.707597  0.290711  1
  O  O12  1  0.543845  0.542403  0.959289  1
  O  O13  1  0.950817  0.555210  0.543155  1
  O  O14  1  0.544367  0.952492  0.958775  1
  O  O15  1  0.945177  0.945816  0.544513  1
  O  O16  1  0.954463  0.542403  0.959289  1
  O  O17  1  0.705633  0.297508  0.291225  1
  O  O18  1  0.299183  0.694790  0.706845  1
  O  O19  1  0.685506  0.304184  0.705487  1
  O  O20  1  0.304823  0.304184  0.705487  1
  O  O21  1  0.706155  0.707597  0.290711  1
