# generated using pymatgen
data_Nb6Si5Ge(MoRu2)2
_symmetry_space_group_name_H-M   'P 1'
_cell_length_a   7.55323405
_cell_length_b   7.55107963
_cell_length_c   7.55323520
_cell_angle_alpha   127.01373236
_cell_angle_beta   123.98660653
_cell_angle_gamma   80.74204178
_symmetry_Int_Tables_number   1
_chemical_formula_structural   Nb6Si5Ge(MoRu2)2
_chemical_formula_sum   'Nb6 Si5 Ge1 Mo2 Ru4'
_cell_volume   275.00549108
_cell_formula_units_Z   1
loop_
 _symmetry_equiv_pos_site_id
 _symmetry_equiv_pos_as_xyz
  1  'x, y, z'
loop_
 _atom_site_type_symbol
 _atom_site_label
 _atom_site_symmetry_multiplicity
 _atom_site_fract_x
 _atom_site_fract_y
 _atom_site_fract_z
 _atom_site_occupancy
  Nb  Nb0  1  0.558665  0.094636  0.035972  1
  Nb  Nb1  1  0.442373  0.477162  0.534789  1
  Nb  Nb2  1  0.963456  0.488841  0.025384  1
  Nb  Nb3  1  0.038601  0.068969  0.530368  1
  Nb  Nb4  1  0.751027  0.922357  0.671330  1
  Nb  Nb5  1  0.246657  0.914732  0.168075  1
  Si  Si6  1  0.220036  0.492302  0.772266  1
  Si  Si7  1  0.333352  0.817817  0.492266  1
  Si  Si8  1  0.665642  0.157473  0.483756  1
  Si  Si9  1  0.825551  0.817817  0.984465  1
  Si  Si10  1  0.173717  0.157473  0.991832  1
  Ge  Ge11  1  0.781950  0.552255  0.270306  1
  Mo  Mo12  1  0.493037  0.246967  0.741404  1
  Mo  Mo13  1  0.005563  0.246967  0.253930  1
  Ru  Ru14  1  0.169922  0.749527  0.663091  1
  Ru  Ru15  1  0.839400  0.493688  0.589074  1
  Ru  Ru16  1  0.586436  0.749527  0.079605  1
  Ru  Ru17  1  0.404614  0.493688  0.154289  1
