# generated using pymatgen
data_Li2AlInSe4
_symmetry_space_group_name_H-M   'P 1'
_cell_length_a   7.05943367
_cell_length_b   7.05943360
_cell_length_c   7.05943321
_cell_angle_alpha   129.83853765
_cell_angle_beta   129.83853872
_cell_angle_gamma   73.66501570
_symmetry_Int_Tables_number   1
_chemical_formula_structural   Li2AlInSe4
_chemical_formula_sum   'Li2 Al1 In1 Se4'
_cell_volume   202.38961300
_cell_formula_units_Z   1
loop_
 _symmetry_equiv_pos_site_id
 _symmetry_equiv_pos_as_xyz
  1  'x, y, z'
loop_
 _atom_site_type_symbol
 _atom_site_label
 _atom_site_symmetry_multiplicity
 _atom_site_fract_x
 _atom_site_fract_y
 _atom_site_fract_z
 _atom_site_occupancy
  Li  Li0  1  0.250000  0.750000  0.500000  1
  Li  Li1  1  0.000000  0.000000  0.000000  1
  Al  Al2  1  0.750000  0.250000  0.500000  1
  In  In3  1  0.500000  0.500000  0.000000  1
  Se  Se4  1  0.100479  0.123845  0.488967  1
  Se  Se5  1  0.634879  0.611512  0.511033  1
  Se  Se6  1  0.388488  0.899521  0.023367  1
  Se  Se7  1  0.876155  0.365121  0.976633  1
