# generated using pymatgen
data_Pr3YTh4(AlRh)8
_symmetry_space_group_name_H-M   'P 1'
_cell_length_a   4.26327400
_cell_length_b   7.18169917
_cell_length_c   16.35255500
_cell_angle_alpha   89.80836747
_cell_angle_beta   90.00000000
_cell_angle_gamma   90.00000000
_symmetry_Int_Tables_number   1
_chemical_formula_structural   Pr3YTh4(AlRh)8
_chemical_formula_sum   'Pr3 Y1 Th4 Al8 Rh8'
_cell_volume   500.67239190
_cell_formula_units_Z   1
loop_
 _symmetry_equiv_pos_site_id
 _symmetry_equiv_pos_as_xyz
  1  'x, y, z'
loop_
 _atom_site_type_symbol
 _atom_site_label
 _atom_site_symmetry_multiplicity
 _atom_site_fract_x
 _atom_site_fract_y
 _atom_site_fract_z
 _atom_site_occupancy
  Pr  Pr0  1  0.250000  0.657193  0.560691  1
  Pr  Pr1  1  0.750000  0.343842  0.440647  1
  Pr  Pr2  1  0.750000  0.844062  0.057979  1
  Y  Y3  1  0.250000  0.159637  0.940111  1
  Th  Th4  1  0.250000  0.528168  0.781279  1
  Th  Th5  1  0.750000  0.470853  0.218710  1
  Th  Th6  1  0.750000  0.972123  0.278562  1
  Th  Th7  1  0.250000  0.027221  0.722290  1
  Al  Al8  1  0.250000  0.649192  0.352663  1
  Al  Al9  1  0.750000  0.352168  0.648548  1
  Al  Al10  1  0.750000  0.858059  0.855098  1
  Al  Al11  1  0.250000  0.148257  0.144197  1
  Al  Al12  1  0.250000  0.504543  0.058619  1
  Al  Al13  1  0.750000  0.490953  0.938878  1
  Al  Al14  1  0.750000  0.994248  0.562154  1
  Al  Al15  1  0.250000  0.007083  0.438591  1
  Rh  Rh16  1  0.250000  0.751493  0.188784  1
  Rh  Rh17  1  0.750000  0.241855  0.815894  1
  Rh  Rh18  1  0.750000  0.744068  0.690076  1
  Rh  Rh19  1  0.250000  0.254966  0.309490  1
  Rh  Rh20  1  0.250000  0.718659  0.925645  1
  Rh  Rh21  1  0.750000  0.281200  0.069790  1
  Rh  Rh22  1  0.750000  0.788587  0.425917  1
  Rh  Rh23  1  0.250000  0.211572  0.575382  1
