# generated using pymatgen
data_La2MgAs4Au
_symmetry_space_group_name_H-M   'P 1'
_cell_length_a   10.97775259
_cell_length_b   10.97775256
_cell_length_c   10.97775385
_cell_angle_alpha   158.06062031
_cell_angle_beta   158.06062068
_cell_angle_gamma   31.22265595
_symmetry_Int_Tables_number   1
_chemical_formula_structural   La2MgAs4Au
_chemical_formula_sum   'La2 Mg1 As4 Au1'
_cell_volume   184.54675593
_cell_formula_units_Z   1
loop_
 _symmetry_equiv_pos_site_id
 _symmetry_equiv_pos_as_xyz
  1  'x, y, z'
loop_
 _atom_site_type_symbol
 _atom_site_label
 _atom_site_symmetry_multiplicity
 _atom_site_fract_x
 _atom_site_fract_y
 _atom_site_fract_z
 _atom_site_occupancy
  La  La0  1  0.107240  0.107240  0.000000  1
  La  La1  1  0.892760  0.892760  0.000000  1
  Mg  Mg2  1  0.750000  0.250000  0.500000  1
  As  As3  1  0.335673  0.335673  0.000000  1
  As  As4  1  0.664327  0.664327  0.000000  1
  As  As5  1  0.500248  0.000248  0.500000  1
  As  As6  1  0.999752  0.499752  0.500000  1
  Au  Au7  1  0.250000  0.750000  0.500000  1
