# generated using pymatgen
data_Na8Sr4V8Co3NiO32
_symmetry_space_group_name_H-M   'P 1'
_cell_length_a   5.57985000
_cell_length_b   9.70002243
_cell_length_c   13.85622400
_cell_angle_alpha   89.90828558
_cell_angle_beta   90.00000000
_cell_angle_gamma   90.00000000
_symmetry_Int_Tables_number   1
_chemical_formula_structural   Na8Sr4V8Co3NiO32
_chemical_formula_sum   'Na8 Sr4 V8 Co3 Ni1 O32'
_cell_volume   749.96259257
_cell_formula_units_Z   1
loop_
 _symmetry_equiv_pos_site_id
 _symmetry_equiv_pos_as_xyz
  1  'x, y, z'
loop_
 _atom_site_type_symbol
 _atom_site_label
 _atom_site_symmetry_multiplicity
 _atom_site_fract_x
 _atom_site_fract_y
 _atom_site_fract_z
 _atom_site_occupancy
  Na  Na0  1  0.478596  0.816832  0.916585  1
  Na  Na1  1  0.973903  0.682167  0.083507  1
  Na  Na2  1  0.521404  0.183168  0.083415  1
  Na  Na3  1  0.026097  0.317833  0.916493  1
  Na  Na4  1  0.521932  0.149150  0.583261  1
  Na  Na5  1  0.021633  0.351150  0.416616  1
  Na  Na6  1  0.478068  0.850850  0.416739  1
  Na  Na7  1  0.978367  0.648850  0.583384  1
  Sr  Sr8  1  0.558278  0.459833  0.750109  1
  Sr  Sr9  1  0.059006  0.040523  0.249777  1
  Sr  Sr10  1  0.441722  0.540167  0.249891  1
  Sr  Sr11  1  0.940994  0.959477  0.750223  1
  V  V12  1  0.467817  0.815793  0.634813  1
  V  V13  1  0.969626  0.682567  0.365999  1
  V  V14  1  0.532183  0.184207  0.365187  1
  V  V15  1  0.030374  0.317433  0.634001  1
  V  V16  1  0.480708  0.149320  0.865016  1
  V  V17  1  0.981241  0.350754  0.135028  1
  V  V18  1  0.519292  0.850680  0.134984  1
  V  V19  1  0.018759  0.649246  0.864972  1
  Co  Co20  1  0.000000  0.000000  0.500000  1
  Co  Co21  1  0.500000  0.500000  0.000000  1
  Co  Co22  1  0.000000  0.000000  0.000000  1
  Ni  Ni23  1  0.500000  0.500000  0.500000  1
  O  O24  1  0.496860  0.636933  0.616370  1
  O  O25  1  0.999008  0.861848  0.383643  1
  O  O26  1  0.503140  0.363067  0.383630  1
  O  O27  1  0.000992  0.138152  0.616357  1
  O  O28  1  0.693303  0.906060  0.573755  1
  O  O29  1  0.195807  0.593084  0.427321  1
  O  O30  1  0.306697  0.093940  0.426245  1
  O  O31  1  0.804193  0.406916  0.572679  1
  O  O32  1  0.190214  0.081159  0.879948  1
  O  O33  1  0.691422  0.419440  0.120309  1
  O  O34  1  0.809786  0.918841  0.120052  1
  O  O35  1  0.308578  0.580560  0.879691  1
  O  O36  1  0.696670  0.039581  0.915385  1
  O  O37  1  0.197551  0.460213  0.084444  1
  O  O38  1  0.303330  0.960419  0.084615  1
  O  O39  1  0.802449  0.539787  0.915556  1
  O  O40  1  0.485491  0.305967  0.927486  1
  O  O41  1  0.987934  0.193966  0.072624  1
  O  O42  1  0.514509  0.694033  0.072514  1
  O  O43  1  0.012066  0.806034  0.927376  1
  O  O44  1  0.193530  0.869239  0.586568  1
  O  O45  1  0.696050  0.629589  0.414636  1
  O  O46  1  0.806470  0.130761  0.413432  1
  O  O47  1  0.303950  0.370411  0.585364  1
  O  O48  1  0.482781  0.862517  0.754005  1
  O  O49  1  0.983939  0.635263  0.246899  1
  O  O50  1  0.517219  0.137483  0.245995  1
  O  O51  1  0.016061  0.364737  0.753101  1
  O  O52  1  0.553179  0.186937  0.747326  1
  O  O53  1  0.054343  0.313452  0.252616  1
  O  O54  1  0.446821  0.813063  0.252674  1
  O  O55  1  0.945657  0.686548  0.747384  1
