# generated using pymatgen
data_Er4As6RuRh6
_symmetry_space_group_name_H-M   'P 1'
_cell_length_a   7.24131581
_cell_length_b   7.24131615
_cell_length_c   7.24131700
_cell_angle_alpha   109.47122021
_cell_angle_beta   109.47122116
_cell_angle_gamma   109.47121916
_symmetry_Int_Tables_number   1
_chemical_formula_structural   Er4As6RuRh6
_chemical_formula_sum   'Er4 As6 Ru1 Rh6'
_cell_volume   292.30125105
_cell_formula_units_Z   1
loop_
 _symmetry_equiv_pos_site_id
 _symmetry_equiv_pos_as_xyz
  1  'x, y, z'
loop_
 _atom_site_type_symbol
 _atom_site_label
 _atom_site_symmetry_multiplicity
 _atom_site_fract_x
 _atom_site_fract_y
 _atom_site_fract_z
 _atom_site_occupancy
  Er  Er0  1  0.500000  0.500000  0.500000  1
  Er  Er1  1  0.000000  0.500000  0.000000  1
  Er  Er2  1  0.500000  0.000000  0.000000  1
  Er  Er3  1  0.000000  0.000000  0.500000  1
  As  As4  1  0.685312  0.000000  0.685312  1
  As  As5  1  0.685312  0.685312  0.000000  1
  As  As6  1  0.314688  0.314688  0.000000  1
  As  As7  1  0.000000  0.685312  0.685312  1
  As  As8  1  0.000000  0.314688  0.314688  1
  As  As9  1  0.314688  0.000000  0.314688  1
  Ru  Ru10  1  0.000000  0.000000  0.000000  1
  Rh  Rh11  1  0.500000  0.750000  0.250000  1
  Rh  Rh12  1  0.750000  0.250000  0.500000  1
  Rh  Rh13  1  0.250000  0.750000  0.500000  1
  Rh  Rh14  1  0.250000  0.500000  0.750000  1
  Rh  Rh15  1  0.500000  0.250000  0.750000  1
  Rh  Rh16  1  0.750000  0.500000  0.250000  1
