# generated using pymatgen
data_Ca2YHo3(GeRh2)6
_symmetry_space_group_name_H-M   'P 1'
_cell_length_a   5.61150400
_cell_length_b   5.61150398
_cell_length_c   15.49324000
_cell_angle_alpha   90.00000000
_cell_angle_beta   90.00000000
_cell_angle_gamma   120.00000009
_symmetry_Int_Tables_number   1
_chemical_formula_structural   Ca2YHo3(GeRh2)6
_chemical_formula_sum   'Ca2 Y1 Ho3 Ge6 Rh12'
_cell_volume   422.50459080
_cell_formula_units_Z   1
loop_
 _symmetry_equiv_pos_site_id
 _symmetry_equiv_pos_as_xyz
  1  'x, y, z'
loop_
 _atom_site_type_symbol
 _atom_site_label
 _atom_site_symmetry_multiplicity
 _atom_site_fract_x
 _atom_site_fract_y
 _atom_site_fract_z
 _atom_site_occupancy
  Ca  Ca0  1  0.333333  0.666667  0.749860  1
  Ca  Ca1  1  0.666667  0.333333  0.250017  1
  Y  Y2  1  0.333333  0.666667  0.958271  1
  Ho  Ho3  1  0.333333  0.666667  0.541550  1
  Ho  Ho4  1  0.666667  0.333333  0.458368  1
  Ho  Ho5  1  0.666667  0.333333  0.041722  1
  Ge  Ge6  1  0.000000  0.000000  0.250102  1
  Ge  Ge7  1  0.000000  0.000000  0.749995  1
  Ge  Ge8  1  0.333333  0.666667  0.250016  1
  Ge  Ge9  1  0.666667  0.333333  0.749964  1
  Ge  Ge10  1  0.000000  0.000000  0.000069  1
  Ge  Ge11  1  0.000000  0.000000  0.499959  1
  Rh  Rh12  1  0.168510  0.337019  0.126328  1
  Rh  Rh13  1  0.831319  0.662637  0.873704  1
  Rh  Rh14  1  0.662981  0.831490  0.126328  1
  Rh  Rh15  1  0.831356  0.662712  0.626058  1
  Rh  Rh16  1  0.337363  0.168681  0.873704  1
  Rh  Rh17  1  0.168661  0.337322  0.373946  1
  Rh  Rh18  1  0.168510  0.831490  0.126328  1
  Rh  Rh19  1  0.337288  0.168644  0.626058  1
  Rh  Rh20  1  0.831319  0.168681  0.873704  1
  Rh  Rh21  1  0.662678  0.831339  0.373946  1
  Rh  Rh22  1  0.831356  0.168644  0.626058  1
  Rh  Rh23  1  0.168661  0.831339  0.373946  1
