# generated using pymatgen
data_Tb3EuF12
_symmetry_space_group_name_H-M   'P 1'
_cell_length_a   4.37113438
_cell_length_b   6.53790794
_cell_length_c   7.01590500
_cell_angle_alpha   90.00000000
_cell_angle_beta   90.00000000
_cell_angle_gamma   90.77949328
_symmetry_Int_Tables_number   1
_chemical_formula_structural   Tb3EuF12
_chemical_formula_sum   'Tb3 Eu1 F12'
_cell_volume   200.48249831
_cell_formula_units_Z   1
loop_
 _symmetry_equiv_pos_site_id
 _symmetry_equiv_pos_as_xyz
  1  'x, y, z'
loop_
 _atom_site_type_symbol
 _atom_site_label
 _atom_site_symmetry_multiplicity
 _atom_site_fract_x
 _atom_site_fract_y
 _atom_site_fract_z
 _atom_site_occupancy
  Tb  Tb0  1  0.434805  0.871402  0.250000  1
  Tb  Tb1  1  0.565200  0.130790  0.750000  1
  Tb  Tb2  1  0.067042  0.368037  0.250000  1
  Eu  Eu3  1  0.936286  0.631169  0.750000  1
  F  F4  1  0.381734  0.164185  0.435741  1
  F  F5  1  0.883132  0.331603  0.560965  1
  F  F6  1  0.118315  0.663341  0.066164  1
  F  F7  1  0.613492  0.839521  0.937241  1
  F  F8  1  0.585661  0.522055  0.250000  1
  F  F9  1  0.083460  0.986376  0.750000  1
  F  F10  1  0.915264  0.020379  0.250000  1
  F  F11  1  0.418937  0.472489  0.750000  1
  F  F12  1  0.381734  0.164185  0.064259  1
  F  F13  1  0.883132  0.331603  0.939035  1
  F  F14  1  0.118315  0.663341  0.433836  1
  F  F15  1  0.613492  0.839521  0.562759  1
