# generated using pymatgen
data_Li2Bi3Pt3O14
_symmetry_space_group_name_H-M   'P 1'
_cell_length_a   7.05408453
_cell_length_b   7.05408479
_cell_length_c   7.05408500
_cell_angle_alpha   61.24004545
_cell_angle_beta   61.24004432
_cell_angle_gamma   61.24004640
_symmetry_Int_Tables_number   1
_chemical_formula_structural   Li2Bi3Pt3O14
_chemical_formula_sum   'Li2 Bi3 Pt3 O14'
_cell_volume   255.12442314
_cell_formula_units_Z   1
loop_
 _symmetry_equiv_pos_site_id
 _symmetry_equiv_pos_as_xyz
  1  'x, y, z'
loop_
 _atom_site_type_symbol
 _atom_site_label
 _atom_site_symmetry_multiplicity
 _atom_site_fract_x
 _atom_site_fract_y
 _atom_site_fract_z
 _atom_site_occupancy
  Li  Li0  1  0.500000  0.500000  0.500000  1
  Li  Li1  1  0.000000  0.000000  0.000000  1
  Bi  Bi2  1  0.000000  0.500000  0.000000  1
  Bi  Bi3  1  0.500000  0.000000  0.000000  1
  Bi  Bi4  1  0.000000  0.000000  0.500000  1
  Pt  Pt5  1  0.500000  0.000000  0.500000  1
  Pt  Pt6  1  0.000000  0.500000  0.500000  1
  Pt  Pt7  1  0.500000  0.500000  0.000000  1
  O  O8  1  0.401800  0.401800  0.853468  1
  O  O9  1  0.853468  0.401800  0.401800  1
  O  O10  1  0.401800  0.853468  0.401800  1
  O  O11  1  0.834013  0.834013  0.403128  1
  O  O12  1  0.403128  0.834013  0.834013  1
  O  O13  1  0.834013  0.403128  0.834013  1
  O  O14  1  0.598200  0.598200  0.146532  1
  O  O15  1  0.146532  0.598200  0.598200  1
  O  O16  1  0.598200  0.146532  0.598200  1
  O  O17  1  0.165987  0.165987  0.596872  1
  O  O18  1  0.596872  0.165987  0.165987  1
  O  O19  1  0.165987  0.596872  0.165987  1
  O  O20  1  0.115784  0.115784  0.115784  1
  O  O21  1  0.884216  0.884216  0.884216  1
