# generated using pymatgen
data_Ho15Si9O
_symmetry_space_group_name_H-M   'P 1'
_cell_length_a   14.38460800
_cell_length_b   14.38460754
_cell_length_c   6.37826700
_cell_angle_alpha   90.00000000
_cell_angle_beta   90.00000000
_cell_angle_gamma   119.99999645
_symmetry_Int_Tables_number   1
_chemical_formula_structural   Ho15Si9O
_chemical_formula_sum   'Ho30 Si18 O2'
_cell_volume   1142.95568250
_cell_formula_units_Z   2
loop_
 _symmetry_equiv_pos_site_id
 _symmetry_equiv_pos_as_xyz
  1  'x, y, z'
loop_
 _atom_site_type_symbol
 _atom_site_label
 _atom_site_symmetry_multiplicity
 _atom_site_fract_x
 _atom_site_fract_y
 _atom_site_fract_z
 _atom_site_occupancy
  Ho  Ho0  1  0.341262  0.016161  0.517264  1
  Ho  Ho1  1  0.983839  0.325101  0.517264  1
  Ho  Ho2  1  0.658738  0.983839  0.017264  1
  Ho  Ho3  1  0.983839  0.658738  0.517264  1
  Ho  Ho4  1  0.674899  0.658738  0.517264  1
  Ho  Ho5  1  0.016161  0.674899  0.017264  1
  Ho  Ho6  1  0.674899  0.016161  0.517264  1
  Ho  Ho7  1  0.016161  0.341262  0.017264  1
  Ho  Ho8  1  0.325101  0.341262  0.017264  1
  Ho  Ho9  1  0.325101  0.983839  0.017264  1
  Ho  Ho10  1  0.341262  0.325101  0.517264  1
  Ho  Ho11  1  0.658738  0.674899  0.017264  1
  Ho  Ho12  1  0.586522  0.413478  0.778794  1
  Ho  Ho13  1  0.586522  0.173045  0.778794  1
  Ho  Ho14  1  0.413478  0.586522  0.278794  1
  Ho  Ho15  1  0.826955  0.413478  0.778794  1
  Ho  Ho16  1  0.413478  0.826955  0.278794  1
  Ho  Ho17  1  0.173045  0.586522  0.278794  1
  Ho  Ho18  1  0.919144  0.080856  0.793274  1
  Ho  Ho19  1  0.919144  0.838288  0.793274  1
  Ho  Ho20  1  0.080856  0.919144  0.293274  1
  Ho  Ho21  1  0.161712  0.080856  0.793274  1
  Ho  Ho22  1  0.080856  0.161712  0.293274  1
  Ho  Ho23  1  0.838288  0.919144  0.293274  1
  Ho  Ho24  1  0.254494  0.745506  0.733919  1
  Ho  Ho25  1  0.254494  0.508987  0.733919  1
  Ho  Ho26  1  0.745506  0.254494  0.233919  1
  Ho  Ho27  1  0.491013  0.745506  0.733919  1
  Ho  Ho28  1  0.745506  0.491013  0.233919  1
  Ho  Ho29  1  0.508987  0.254494  0.233919  1
  Si  Si30  1  0.133366  0.866634  0.739486  1
  Si  Si31  1  0.133366  0.266732  0.739486  1
  Si  Si32  1  0.866634  0.133366  0.239486  1
  Si  Si33  1  0.733268  0.866634  0.739486  1
  Si  Si34  1  0.866634  0.733268  0.239486  1
  Si  Si35  1  0.266732  0.133366  0.239486  1
  Si  Si36  1  0.800563  0.199437  0.806470  1
  Si  Si37  1  0.800563  0.601125  0.806470  1
  Si  Si38  1  0.199437  0.800563  0.306470  1
  Si  Si39  1  0.398875  0.199437  0.806470  1
  Si  Si40  1  0.199437  0.398875  0.306470  1
  Si  Si41  1  0.601125  0.800563  0.306470  1
  Si  Si42  1  0.466817  0.533183  0.752029  1
  Si  Si43  1  0.466817  0.933633  0.752029  1
  Si  Si44  1  0.533183  0.466817  0.252029  1
  Si  Si45  1  0.066367  0.533183  0.752029  1
  Si  Si46  1  0.533183  0.066367  0.252029  1
  Si  Si47  1  0.933633  0.466817  0.252029  1
  O  O48  1  0.333333  0.666667  0.508735  1
  O  O49  1  0.666667  0.333333  0.008735  1
