# generated using pymatgen
data_Eu2GaIr2
_symmetry_space_group_name_H-M   'P 1'
_cell_length_a   5.79722313
_cell_length_b   5.79722253
_cell_length_c   7.93206400
_cell_angle_alpha   78.77804287
_cell_angle_beta   78.77804404
_cell_angle_gamma   59.68630734
_symmetry_Int_Tables_number   1
_chemical_formula_structural   Eu2GaIr2
_chemical_formula_sum   'Eu4 Ga2 Ir4'
_cell_volume   224.26407819
_cell_formula_units_Z   2
loop_
 _symmetry_equiv_pos_site_id
 _symmetry_equiv_pos_as_xyz
  1  'x, y, z'
loop_
 _atom_site_type_symbol
 _atom_site_label
 _atom_site_symmetry_multiplicity
 _atom_site_fract_x
 _atom_site_fract_y
 _atom_site_fract_z
 _atom_site_occupancy
  Eu  Eu0  1  0.789020  0.502457  0.354775  1
  Eu  Eu1  1  0.497543  0.210980  0.145225  1
  Eu  Eu2  1  0.211017  0.495129  0.646753  1
  Eu  Eu3  1  0.504871  0.788983  0.853247  1
  Ga  Ga4  1  0.101244  0.898756  0.250000  1
  Ga  Ga5  1  0.898495  0.101505  0.750000  1
  Ir  Ir6  1  0.006987  0.718410  0.010093  1
  Ir  Ir7  1  0.281590  0.993013  0.489907  1
  Ir  Ir8  1  0.993419  0.284188  0.990058  1
  Ir  Ir9  1  0.715812  0.006581  0.509942  1
