# generated using pymatgen
data_Ta6Nb2Co8Si13Ge
_symmetry_space_group_name_H-M   'P 1'
_cell_length_a   9.23614084
_cell_length_b   9.23592883
_cell_length_c   9.24116707
_cell_angle_alpha   94.29354374
_cell_angle_beta   94.12456930
_cell_angle_gamma   148.54732924
_symmetry_Int_Tables_number   1
_chemical_formula_structural   Ta6Nb2Co8Si13Ge
_chemical_formula_sum   'Ta6 Nb2 Co8 Si13 Ge1'
_cell_volume   395.96765467
_cell_formula_units_Z   1
loop_
 _symmetry_equiv_pos_site_id
 _symmetry_equiv_pos_as_xyz
  1  'x, y, z'
loop_
 _atom_site_type_symbol
 _atom_site_label
 _atom_site_symmetry_multiplicity
 _atom_site_fract_x
 _atom_site_fract_y
 _atom_site_fract_z
 _atom_site_occupancy
  Ta  Ta0  1  0.866986  0.133623  0.000618  1
  Ta  Ta1  1  0.133341  0.866682  0.000003  1
  Ta  Ta2  1  0.500276  0.310790  0.811047  1
  Ta  Ta3  1  0.499765  0.689378  0.189119  1
  Ta  Ta4  1  0.689935  0.499722  0.189683  1
  Ta  Ta5  1  0.310039  0.500209  0.810272  1
  Nb  Nb6  1  0.132593  0.133263  0.265849  1
  Nb  Nb7  1  0.867008  0.867072  0.734088  1
  Co  Co8  1  0.399536  0.897482  0.801215  1
  Co  Co9  1  0.100700  0.600929  0.202014  1
  Co  Co10  1  0.096416  0.897248  0.497951  1
  Co  Co11  1  0.398735  0.601110  0.500248  1
  Co  Co12  1  0.600703  0.401535  0.497943  1
  Co  Co13  1  0.899127  0.101494  0.500238  1
  Co  Co14  1  0.903732  0.401678  0.801193  1
  Co  Co15  1  0.601080  0.101310  0.202006  1
  Si  Si16  1  0.500035  0.902324  0.402380  1
  Si  Si17  1  0.905944  0.499972  0.405917  1
  Si  Si18  1  0.094134  0.499967  0.594007  1
  Si  Si19  1  0.750838  0.750947  0.000134  1
  Si  Si20  1  0.249180  0.249297  0.000129  1
  Si  Si21  1  0.291617  0.292074  0.583666  1
  Si  Si22  1  0.707294  0.708602  0.415923  1
  Si  Si23  1  0.708176  0.292036  0.000402  1
  Si  Si24  1  0.292846  0.708606  0.001255  1
  Si  Si25  1  0.000207  0.297219  0.297432  1
  Si  Si26  1  0.999896  0.704264  0.704054  1
  Si  Si27  1  0.704773  0.999508  0.704407  1
  Si  Si28  1  0.295141  0.999959  0.295084  1
  Ge  Ge29  1  0.499949  0.091699  0.591718  1
