# generated using pymatgen
data_Tb6GaCoOs
_symmetry_space_group_name_H-M   'P 1'
_cell_length_a   8.38605732
_cell_length_b   8.38605737
_cell_length_c   8.38605680
_cell_angle_alpha   112.54336934
_cell_angle_beta   110.08547762
_cell_angle_gamma   105.85452459
_symmetry_Int_Tables_number   1
_chemical_formula_structural   Tb6GaCoOs
_chemical_formula_sum   'Tb12 Ga2 Co2 Os2'
_cell_volume   452.42679298
_cell_formula_units_Z   2
loop_
 _symmetry_equiv_pos_site_id
 _symmetry_equiv_pos_as_xyz
  1  'x, y, z'
loop_
 _atom_site_type_symbol
 _atom_site_label
 _atom_site_symmetry_multiplicity
 _atom_site_fract_x
 _atom_site_fract_y
 _atom_site_fract_z
 _atom_site_occupancy
  Tb  Tb0  1  0.051518  0.744094  0.307424  1
  Tb  Tb1  1  0.948482  0.255906  0.692576  1
  Tb  Tb2  1  0.563329  0.255906  0.307424  1
  Tb  Tb3  1  0.436671  0.744094  0.692576  1
  Tb  Tb4  1  0.674205  0.858023  0.183819  1
  Tb  Tb5  1  0.325795  0.509614  0.183819  1
  Tb  Tb6  1  0.325795  0.141977  0.816181  1
  Tb  Tb7  1  0.674205  0.490386  0.816181  1
  Tb  Tb8  1  0.179624  0.221128  0.400751  1
  Tb  Tb9  1  0.820376  0.221128  0.041504  1
  Tb  Tb10  1  0.179624  0.778872  0.958496  1
  Tb  Tb11  1  0.820376  0.778872  0.599249  1
  Ga  Ga12  1  0.000000  0.500000  0.500000  1
  Ga  Ga13  1  0.500000  0.000000  0.500000  1
  Co  Co14  1  0.888708  0.888708  0.000000  1
  Co  Co15  1  0.111292  0.111292  0.000000  1
  Os  Os16  1  0.672628  0.500000  0.172628  1
  Os  Os17  1  0.327372  0.500000  0.827372  1
