# generated using pymatgen
data_Sc5Si12Rh19
_symmetry_space_group_name_H-M   'P 1'
_cell_length_a   12.68702300
_cell_length_b   12.68702343
_cell_length_c   3.90930200
_cell_angle_alpha   90.00000000
_cell_angle_beta   90.00000000
_cell_angle_gamma   119.99999628
_symmetry_Int_Tables_number   1
_chemical_formula_structural   Sc5Si12Rh19
_chemical_formula_sum   'Sc5 Si12 Rh19'
_cell_volume   544.94081727
_cell_formula_units_Z   1
loop_
 _symmetry_equiv_pos_site_id
 _symmetry_equiv_pos_as_xyz
  1  'x, y, z'
loop_
 _atom_site_type_symbol
 _atom_site_label
 _atom_site_symmetry_multiplicity
 _atom_site_fract_x
 _atom_site_fract_y
 _atom_site_fract_z
 _atom_site_occupancy
  Sc  Sc0  1  0.000000  0.185231  0.500000  1
  Sc  Sc1  1  0.814769  0.814769  0.500000  1
  Sc  Sc2  1  0.185231  0.000000  0.500000  1
  Sc  Sc3  1  0.666667  0.333333  0.000000  1
  Sc  Sc4  1  0.333333  0.666667  0.000000  1
  Si  Si5  1  0.479856  0.314107  0.500000  1
  Si  Si6  1  0.820828  0.000000  0.000000  1
  Si  Si7  1  0.179172  0.179172  0.000000  1
  Si  Si8  1  0.000000  0.820828  0.000000  1
  Si  Si9  1  0.368930  0.000000  0.000000  1
  Si  Si10  1  0.685893  0.165749  0.500000  1
  Si  Si11  1  0.834251  0.520144  0.500000  1
  Si  Si12  1  0.520144  0.834251  0.500000  1
  Si  Si13  1  0.165749  0.685893  0.500000  1
  Si  Si14  1  0.314107  0.479856  0.500000  1
  Si  Si15  1  0.000000  0.368930  0.000000  1
  Si  Si16  1  0.631070  0.631070  0.000000  1
  Rh  Rh17  1  0.808440  0.182672  0.000000  1
  Rh  Rh18  1  0.374232  0.191560  0.000000  1
  Rh  Rh19  1  0.640512  0.512705  0.500000  1
  Rh  Rh20  1  0.872193  0.359488  0.500000  1
  Rh  Rh21  1  0.359488  0.872193  0.500000  1
  Rh  Rh22  1  0.512705  0.640512  0.500000  1
  Rh  Rh23  1  0.127807  0.487295  0.500000  1
  Rh  Rh24  1  0.817328  0.625768  0.000000  1
  Rh  Rh25  1  0.625768  0.817328  0.000000  1
  Rh  Rh26  1  0.182672  0.808440  0.000000  1
  Rh  Rh27  1  0.191560  0.374232  0.000000  1
  Rh  Rh28  1  0.000000  0.723108  0.500000  1
  Rh  Rh29  1  0.276892  0.276892  0.500000  1
  Rh  Rh30  1  0.723108  0.000000  0.500000  1
  Rh  Rh31  1  0.000000  0.554915  0.000000  1
  Rh  Rh32  1  0.445085  0.445085  0.000000  1
  Rh  Rh33  1  0.554915  0.000000  0.000000  1
  Rh  Rh34  1  0.000000  0.000000  0.000000  1
  Rh  Rh35  1  0.487295  0.127807  0.500000  1
