# generated using pymatgen
data_Sb2PbF12
_symmetry_space_group_name_H-M   'P 1'
_cell_length_a   5.63670934
_cell_length_b   5.69300122
_cell_length_c   9.98152817
_cell_angle_alpha   96.80017039
_cell_angle_beta   96.88116622
_cell_angle_gamma   118.07664214
_symmetry_Int_Tables_number   1
_chemical_formula_structural   Sb2PbF12
_chemical_formula_sum   'Sb2 Pb1 F12'
_cell_volume   274.93269457
_cell_formula_units_Z   1
loop_
 _symmetry_equiv_pos_site_id
 _symmetry_equiv_pos_as_xyz
  1  'x, y, z'
loop_
 _atom_site_type_symbol
 _atom_site_label
 _atom_site_symmetry_multiplicity
 _atom_site_fract_x
 _atom_site_fract_y
 _atom_site_fract_z
 _atom_site_occupancy
  Sb  Sb0  1  0.212569  0.500022  0.596264  1
  Sb  Sb1  1  0.383096  0.693234  0.132180  1
  Pb  Pb2  1  0.986772  0.955130  0.886291  1
  F  F3  1  0.329258  0.981545  0.207078  1
  F  F4  1  0.551537  0.617968  0.733477  1
  F  F5  1  0.072400  0.602519  0.981133  1
  F  F6  1  0.127727  0.424248  0.213500  1
  F  F7  1  0.409703  0.405194  0.016625  1
  F  F8  1  0.265154  0.224983  0.504425  1
  F  F9  1  0.699050  0.776139  0.259398  1
  F  F10  1  0.178666  0.777739  0.718614  1
  F  F11  1  0.867486  0.393342  0.488582  1
  F  F12  1  0.029054  0.257780  0.721085  1
  F  F13  1  0.422251  0.771812  0.502275  1
  F  F14  1  0.613277  0.928346  0.017072  1
