# generated using pymatgen
data_NdScZn4Ru
_symmetry_space_group_name_H-M   'P 1'
_cell_length_a   6.95857500
_cell_length_b   6.95857500
_cell_length_c   5.12840200
_cell_angle_alpha   90.00000000
_cell_angle_beta   90.00000000
_cell_angle_gamma   90.00000000
_symmetry_Int_Tables_number   1
_chemical_formula_structural   NdScZn4Ru
_chemical_formula_sum   'Nd2 Sc2 Zn8 Ru2'
_cell_volume   248.32628175
_cell_formula_units_Z   2
loop_
 _symmetry_equiv_pos_site_id
 _symmetry_equiv_pos_as_xyz
  1  'x, y, z'
loop_
 _atom_site_type_symbol
 _atom_site_label
 _atom_site_symmetry_multiplicity
 _atom_site_fract_x
 _atom_site_fract_y
 _atom_site_fract_z
 _atom_site_occupancy
  Nd  Nd0  1  0.000000  0.500000  0.767219  1
  Nd  Nd1  1  0.500000  0.000000  0.232781  1
  Sc  Sc2  1  0.000000  0.000000  0.000000  1
  Sc  Sc3  1  0.500000  0.500000  0.000000  1
  Zn  Zn4  1  0.189806  0.689806  0.276975  1
  Zn  Zn5  1  0.810194  0.689806  0.276975  1
  Zn  Zn6  1  0.810194  0.310194  0.276975  1
  Zn  Zn7  1  0.310194  0.189806  0.723025  1
  Zn  Zn8  1  0.189806  0.310194  0.276975  1
  Zn  Zn9  1  0.689806  0.189806  0.723025  1
  Zn  Zn10  1  0.689806  0.810194  0.723025  1
  Zn  Zn11  1  0.310194  0.810194  0.723025  1
  Ru  Ru12  1  0.500000  0.500000  0.500000  1
  Ru  Ru13  1  0.000000  0.000000  0.500000  1
