# generated using pymatgen
data_Tb2Mn5P7Ir6W
_symmetry_space_group_name_H-M   'P 1'
_cell_length_a   9.39945246
_cell_length_b   9.40555321
_cell_length_c   3.86340600
_cell_angle_alpha   90.00000000
_cell_angle_beta   90.00000000
_cell_angle_gamma   119.70138271
_symmetry_Int_Tables_number   1
_chemical_formula_structural   Tb2Mn5P7Ir6W
_chemical_formula_sum   'Tb2 Mn5 P7 Ir6 W1'
_cell_volume   296.67903246
_cell_formula_units_Z   1
loop_
 _symmetry_equiv_pos_site_id
 _symmetry_equiv_pos_as_xyz
  1  'x, y, z'
loop_
 _atom_site_type_symbol
 _atom_site_label
 _atom_site_symmetry_multiplicity
 _atom_site_fract_x
 _atom_site_fract_y
 _atom_site_fract_z
 _atom_site_occupancy
  Tb  Tb0  1  0.667444  0.333364  0.000000  1
  Tb  Tb1  1  0.332900  0.667325  0.500000  1
  Mn  Mn2  1  0.270180  0.112460  0.000000  1
  Mn  Mn3  1  0.837588  0.729462  0.000000  1
  Mn  Mn4  1  0.888532  0.156549  0.000000  1
  Mn  Mn5  1  0.785913  0.902300  0.500000  1
  Mn  Mn6  1  0.120027  0.212418  0.500000  1
  P  P7  1  0.297785  0.890360  0.000000  1
  P  P8  1  0.588299  0.700184  0.000000  1
  P  P9  1  0.109809  0.408486  0.000000  1
  P  P10  1  0.397785  0.279289  0.500000  1
  P  P11  1  0.881023  0.602162  0.500000  1
  P  P12  1  0.723020  0.118559  0.500000  1
  P  P13  1  0.000813  0.999274  0.000000  1
  Ir  Ir14  1  0.066981  0.637763  0.000000  1
  Ir  Ir15  1  0.573133  0.936096  0.000000  1
  Ir  Ir16  1  0.362227  0.426197  0.000000  1
  Ir  Ir17  1  0.444563  0.057929  0.500000  1
  Ir  Ir18  1  0.613405  0.558452  0.500000  1
  Ir  Ir19  1  0.946049  0.385214  0.500000  1
  W  W20  1  0.092526  0.886159  0.500000  1
