# generated using pymatgen
data_Y3Lu(GaSi)2
_symmetry_space_group_name_H-M   'P 1'
_cell_length_a   3.95389900
_cell_length_b   5.78049973
_cell_length_c   7.98614100
_cell_angle_alpha   89.94430498
_cell_angle_beta   90.00000000
_cell_angle_gamma   90.00000000
_symmetry_Int_Tables_number   1
_chemical_formula_structural   Y3Lu(GaSi)2
_chemical_formula_sum   'Y3 Lu1 Ga2 Si2'
_cell_volume   182.52725607
_cell_formula_units_Z   1
loop_
 _symmetry_equiv_pos_site_id
 _symmetry_equiv_pos_as_xyz
  1  'x, y, z'
loop_
 _atom_site_type_symbol
 _atom_site_label
 _atom_site_symmetry_multiplicity
 _atom_site_fract_x
 _atom_site_fract_y
 _atom_site_fract_z
 _atom_site_occupancy
  Y  Y0  1  0.250000  0.379898  0.678975  1
  Y  Y1  1  0.250000  0.119457  0.177714  1
  Y  Y2  1  0.750000  0.611525  0.322058  1
  Lu  Lu3  1  0.750000  0.888299  0.820814  1
  Ga  Ga4  1  0.250000  0.868773  0.540568  1
  Ga  Ga5  1  0.250000  0.633061  0.035558  1
  Si  Si6  1  0.750000  0.126825  0.463304  1
  Si  Si7  1  0.750000  0.372163  0.961007  1
