# generated using pymatgen
data_Ti4Mn5CrSi2
_symmetry_space_group_name_H-M   'P 1'
_cell_length_a   4.78237607
_cell_length_b   4.78382527
_cell_length_c   7.82465200
_cell_angle_alpha   90.00000000
_cell_angle_beta   90.00000000
_cell_angle_gamma   120.01002084
_symmetry_Int_Tables_number   1
_chemical_formula_structural   Ti4Mn5CrSi2
_chemical_formula_sum   'Ti4 Mn5 Cr1 Si2'
_cell_volume   155.01396829
_cell_formula_units_Z   1
loop_
 _symmetry_equiv_pos_site_id
 _symmetry_equiv_pos_as_xyz
  1  'x, y, z'
loop_
 _atom_site_type_symbol
 _atom_site_label
 _atom_site_symmetry_multiplicity
 _atom_site_fract_x
 _atom_site_fract_y
 _atom_site_fract_z
 _atom_site_occupancy
  Ti  Ti0  1  0.333581  0.666791  0.434349  1
  Ti  Ti1  1  0.666500  0.333250  0.563852  1
  Ti  Ti2  1  0.666500  0.333250  0.936148  1
  Ti  Ti3  1  0.333581  0.666791  0.065651  1
  Mn  Mn4  1  0.825434  0.174236  0.250000  1
  Mn  Mn5  1  0.825434  0.651197  0.250000  1
  Mn  Mn6  1  0.348178  0.174089  0.250000  1
  Mn  Mn7  1  0.173139  0.827410  0.750000  1
  Mn  Mn8  1  0.173139  0.345729  0.750000  1
  Cr  Cr9  1  0.649707  0.824854  0.750000  1
  Si  Si10  1  0.002404  0.001202  0.498393  1
  Si  Si11  1  0.002404  0.001202  0.001607  1
