# generated using pymatgen
data_TbEr5Tm10(CdPt)4
_symmetry_space_group_name_H-M   'P 1'
_cell_length_a   9.57153703
_cell_length_b   9.57153705
_cell_length_c   9.55614000
_cell_angle_alpha   60.05319875
_cell_angle_beta   60.05319870
_cell_angle_gamma   60.03565250
_symmetry_Int_Tables_number   1
_chemical_formula_structural   TbEr5Tm10(CdPt)4
_chemical_formula_sum   'Tb1 Er5 Tm10 Cd4 Pt4'
_cell_volume   619.72168288
_cell_formula_units_Z   1
loop_
 _symmetry_equiv_pos_site_id
 _symmetry_equiv_pos_as_xyz
  1  'x, y, z'
loop_
 _atom_site_type_symbol
 _atom_site_label
 _atom_site_symmetry_multiplicity
 _atom_site_fract_x
 _atom_site_fract_y
 _atom_site_fract_z
 _atom_site_occupancy
  Tb  Tb0  1  0.937036  0.937036  0.562964  1
  Er  Er1  1  0.936028  0.563565  0.564058  1
  Er  Er2  1  0.563565  0.936028  0.936348  1
  Er  Er3  1  0.563565  0.936028  0.564058  1
  Er  Er4  1  0.936028  0.563565  0.936348  1
  Er  Er5  1  0.566444  0.566444  0.933556  1
  Tm  Tm6  1  0.352411  0.352411  0.349343  1
  Tm  Tm7  1  0.352411  0.352411  0.945835  1
  Tm  Tm8  1  0.356837  0.937004  0.353079  1
  Tm  Tm9  1  0.937004  0.356837  0.353079  1
  Tm  Tm10  1  0.811236  0.190263  0.188421  1
  Tm  Tm11  1  0.190263  0.811236  0.810082  1
  Tm  Tm12  1  0.190263  0.811236  0.188421  1
  Tm  Tm13  1  0.811236  0.190263  0.810082  1
  Tm  Tm14  1  0.190301  0.190301  0.809699  1
  Tm  Tm15  1  0.811825  0.811825  0.188175  1
  Cd  Cd16  1  0.580938  0.580938  0.583430  1
  Cd  Cd17  1  0.580938  0.580938  0.254693  1
  Cd  Cd18  1  0.579370  0.253684  0.583473  1
  Cd  Cd19  1  0.253684  0.579370  0.583473  1
  Pt  Pt20  1  0.143371  0.143371  0.145639  1
  Pt  Pt21  1  0.143371  0.143371  0.567621  1
  Pt  Pt22  1  0.140434  0.571444  0.144062  1
  Pt  Pt23  1  0.571444  0.140434  0.144062  1
