# generated using pymatgen
data_Ca2Al20Ir3Os
_symmetry_space_group_name_H-M   'P 1'
_cell_length_a   6.87833345
_cell_length_b   6.88779263
_cell_length_c   9.16621208
_cell_angle_alpha   89.93279584
_cell_angle_beta   89.88010085
_cell_angle_gamma   96.56458092
_symmetry_Int_Tables_number   1
_chemical_formula_structural   Ca2Al20Ir3Os
_chemical_formula_sum   'Ca2 Al20 Ir3 Os1'
_cell_volume   431.41478994
_cell_formula_units_Z   1
loop_
 _symmetry_equiv_pos_site_id
 _symmetry_equiv_pos_as_xyz
  1  'x, y, z'
loop_
 _atom_site_type_symbol
 _atom_site_label
 _atom_site_symmetry_multiplicity
 _atom_site_fract_x
 _atom_site_fract_y
 _atom_site_fract_z
 _atom_site_occupancy
  Ca  Ca0  1  0.627512  0.374044  0.749475  1
  Ca  Ca1  1  0.372488  0.625956  0.250525  1
  Al  Al2  1  0.276792  0.018904  0.750286  1
  Al  Al3  1  0.019095  0.279212  0.252347  1
  Al  Al4  1  0.723208  0.981096  0.249714  1
  Al  Al5  1  0.980905  0.720788  0.747653  1
  Al  Al6  1  0.878227  0.122386  0.950808  1
  Al  Al7  1  0.121773  0.877614  0.049192  1
  Al  Al8  1  0.878808  0.124261  0.548122  1
  Al  Al9  1  0.121192  0.875739  0.451878  1
  Al  Al10  1  0.647669  0.916221  0.749772  1
  Al  Al11  1  0.916270  0.646823  0.250832  1
  Al  Al12  1  0.352331  0.083779  0.250228  1
  Al  Al13  1  0.083730  0.353177  0.749168  1
  Al  Al14  1  0.343902  0.656615  0.897010  1
  Al  Al15  1  0.656098  0.343385  0.102990  1
  Al  Al16  1  0.342667  0.655403  0.600968  1
  Al  Al17  1  0.657333  0.344597  0.399032  1
  Al  Al18  1  0.723488  0.722995  0.000276  1
  Al  Al19  1  0.723363  0.721774  0.501260  1
  Al  Al20  1  0.276512  0.277005  0.999724  1
  Al  Al21  1  0.276637  0.278226  0.498740  1
  Ir  Ir22  1  0.500000  0.000000  0.000000  1
  Ir  Ir23  1  0.000000  0.500000  0.000000  1
  Ir  Ir24  1  0.500000  0.000000  0.500000  1
  Os  Os25  1  0.000000  0.500000  0.500000  1
