# generated using pymatgen
data_DyNbCrB6
_symmetry_space_group_name_H-M   'P 1'
_cell_length_a   3.41401200
_cell_length_b   8.94079300
_cell_length_c   11.30429900
_cell_angle_alpha   90.00000000
_cell_angle_beta   90.00000000
_cell_angle_gamma   90.00000000
_symmetry_Int_Tables_number   1
_chemical_formula_structural   DyNbCrB6
_chemical_formula_sum   'Dy4 Nb4 Cr4 B24'
_cell_volume   345.05213545
_cell_formula_units_Z   4
loop_
 _symmetry_equiv_pos_site_id
 _symmetry_equiv_pos_as_xyz
  1  'x, y, z'
loop_
 _atom_site_type_symbol
 _atom_site_label
 _atom_site_symmetry_multiplicity
 _atom_site_fract_x
 _atom_site_fract_y
 _atom_site_fract_z
 _atom_site_occupancy
  Dy  Dy0  1  0.000000  0.822116  0.085942  1
  Dy  Dy1  1  0.000000  0.177884  0.914058  1
  Dy  Dy2  1  0.000000  0.322116  0.414058  1
  Dy  Dy3  1  0.000000  0.677884  0.585942  1
  Nb  Nb4  1  0.000000  0.444755  0.127789  1
  Nb  Nb5  1  0.000000  0.555245  0.872211  1
  Nb  Nb6  1  0.000000  0.944755  0.372211  1
  Nb  Nb7  1  0.000000  0.055245  0.627789  1
  Cr  Cr8  1  0.000000  0.143282  0.183363  1
  Cr  Cr9  1  0.000000  0.856718  0.816637  1
  Cr  Cr10  1  0.000000  0.643282  0.316637  1
  Cr  Cr11  1  0.000000  0.356718  0.683363  1
  B  B12  1  0.500000  0.054366  0.067587  1
  B  B13  1  0.500000  0.945634  0.932413  1
  B  B14  1  0.500000  0.554366  0.432413  1
  B  B15  1  0.500000  0.445634  0.567587  1
  B  B16  1  0.500000  0.253332  0.082668  1
  B  B17  1  0.500000  0.746668  0.917332  1
  B  B18  1  0.500000  0.753332  0.417332  1
  B  B19  1  0.500000  0.246668  0.582668  1
  B  B20  1  0.500000  0.296329  0.236168  1
  B  B21  1  0.500000  0.703671  0.763832  1
  B  B22  1  0.500000  0.796329  0.263832  1
  B  B23  1  0.500000  0.203671  0.736168  1
  B  B24  1  0.500000  0.129735  0.317293  1
  B  B25  1  0.500000  0.870265  0.682707  1
  B  B26  1  0.500000  0.629735  0.182707  1
  B  B27  1  0.500000  0.370265  0.817293  1
  B  B28  1  0.500000  0.482001  0.286734  1
  B  B29  1  0.500000  0.517999  0.713266  1
  B  B30  1  0.500000  0.982001  0.213266  1
  B  B31  1  0.500000  0.017999  0.786734  1
  B  B32  1  0.500000  0.099232  0.473759  1
  B  B33  1  0.500000  0.900768  0.526241  1
  B  B34  1  0.500000  0.599232  0.026241  1
  B  B35  1  0.500000  0.400768  0.973759  1
