# generated using pymatgen
data_CaDyAl20(FeIr)2
_symmetry_space_group_name_H-M   'P 1'
_cell_length_a   6.81856266
_cell_length_b   6.81856235
_cell_length_c   9.08033570
_cell_angle_alpha   90.01037626
_cell_angle_beta   90.01036433
_cell_angle_gamma   96.73773372
_symmetry_Int_Tables_number   1
_chemical_formula_structural   CaDyAl20(FeIr)2
_chemical_formula_sum   'Ca1 Dy1 Al20 Fe2 Ir2'
_cell_volume   419.25448998
_cell_formula_units_Z   1
loop_
 _symmetry_equiv_pos_site_id
 _symmetry_equiv_pos_as_xyz
  1  'x, y, z'
loop_
 _atom_site_type_symbol
 _atom_site_label
 _atom_site_symmetry_multiplicity
 _atom_site_fract_x
 _atom_site_fract_y
 _atom_site_fract_z
 _atom_site_occupancy
  Ca  Ca0  1  0.874535  0.125465  0.750000  1
  Dy  Dy1  1  0.126738  0.873262  0.250000  1
  Al  Al2  1  0.620024  0.372711  0.548459  1
  Al  Al3  1  0.380230  0.626462  0.448168  1
  Al  Al4  1  0.373538  0.619770  0.051832  1
  Al  Al5  1  0.627289  0.379976  0.951541  1
  Al  Al6  1  0.229085  0.221781  0.494306  1
  Al  Al7  1  0.769714  0.779301  0.504410  1
  Al  Al8  1  0.778219  0.770915  0.005694  1
  Al  Al9  1  0.220699  0.230286  0.995590  1
  Al  Al10  1  0.848119  0.161451  0.100305  1
  Al  Al11  1  0.153966  0.835972  0.900580  1
  Al  Al12  1  0.164028  0.846034  0.599420  1
  Al  Al13  1  0.838549  0.151881  0.399695  1
  Al  Al14  1  0.859725  0.586058  0.754806  1
  Al  Al15  1  0.139434  0.414548  0.245246  1
  Al  Al16  1  0.413942  0.140275  0.745194  1
  Al  Al17  1  0.585452  0.860566  0.254754  1
  Al  Al18  1  0.221839  0.479274  0.754358  1
  Al  Al19  1  0.778228  0.519259  0.245513  1
  Al  Al20  1  0.520726  0.778161  0.745642  1
  Al  Al21  1  0.480741  0.221772  0.254487  1
  Fe  Fe22  1  0.000132  0.502720  0.001328  1
  Fe  Fe23  1  0.497280  0.999868  0.498672  1
  Ir  Ir24  1  0.999794  0.502025  0.499000  1
  Ir  Ir25  1  0.497975  0.000206  0.001000  1
