# generated using pymatgen
data_ErPu7(ReC2)4
_symmetry_space_group_name_H-M   'P 1'
_cell_length_a   6.43740253
_cell_length_b   5.16069700
_cell_length_c   9.82230635
_cell_angle_alpha   90.00000000
_cell_angle_beta   89.76589625
_cell_angle_gamma   90.00000000
_symmetry_Int_Tables_number   1
_chemical_formula_structural   ErPu7(ReC2)4
_chemical_formula_sum   'Er1 Pu7 Re4 C8'
_cell_volume   326.30886874
_cell_formula_units_Z   1
loop_
 _symmetry_equiv_pos_site_id
 _symmetry_equiv_pos_as_xyz
  1  'x, y, z'
loop_
 _atom_site_type_symbol
 _atom_site_label
 _atom_site_symmetry_multiplicity
 _atom_site_fract_x
 _atom_site_fract_y
 _atom_site_fract_z
 _atom_site_occupancy
  Er  Er0  1  0.185413  0.749999  0.946413  1
  Pu  Pu1  1  0.811953  0.250000  0.046546  1
  Pu  Pu2  1  0.531379  0.749999  0.223961  1
  Pu  Pu3  1  0.029139  0.749999  0.282499  1
  Pu  Pu4  1  0.309127  0.250000  0.453626  1
  Pu  Pu5  1  0.690540  0.749999  0.547331  1
  Pu  Pu6  1  0.969794  0.250000  0.720434  1
  Pu  Pu7  1  0.470236  0.250000  0.779791  1
  Re  Re8  1  0.282916  0.250000  0.129835  1
  Re  Re9  1  0.781413  0.250000  0.366931  1
  Re  Re10  1  0.219343  0.749999  0.633841  1
  Re  Re11  1  0.718562  0.749999  0.869790  1
  C  C12  1  0.826139  0.749999  0.058407  1
  C  C13  1  0.544416  0.250000  0.242126  1
  C  C14  1  0.045214  0.250000  0.254704  1
  C  C15  1  0.326372  0.749999  0.444848  1
  C  C16  1  0.672970  0.250000  0.556669  1
  C  C17  1  0.952355  0.749999  0.741607  1
  C  C18  1  0.457121  0.749999  0.757488  1
  C  C19  1  0.175604  0.250000  0.943152  1
