# generated using pymatgen
data_Yb8YPt6
_symmetry_space_group_name_H-M   'P 1'
_cell_length_a   7.49805820
_cell_length_b   7.49756228
_cell_length_c   7.54931698
_cell_angle_alpha   70.28679099
_cell_angle_beta   70.07785687
_cell_angle_gamma   70.27020981
_symmetry_Int_Tables_number   1
_chemical_formula_structural   Yb8YPt6
_chemical_formula_sum   'Yb8 Y1 Pt6'
_cell_volume   363.53941565
_cell_formula_units_Z   1
loop_
 _symmetry_equiv_pos_site_id
 _symmetry_equiv_pos_as_xyz
  1  'x, y, z'
loop_
 _atom_site_type_symbol
 _atom_site_label
 _atom_site_symmetry_multiplicity
 _atom_site_fract_x
 _atom_site_fract_y
 _atom_site_fract_z
 _atom_site_occupancy
  Yb  Yb0  1  0.004360  0.995392  0.001587  1
  Yb  Yb1  1  0.402164  0.668863  0.151628  1
  Yb  Yb2  1  0.193196  0.194965  0.199859  1
  Yb  Yb3  1  0.849828  0.598025  0.332286  1
  Yb  Yb4  1  0.667884  0.150518  0.400894  1
  Yb  Yb5  1  0.331975  0.849206  0.597848  1
  Yb  Yb6  1  0.148155  0.403448  0.669174  1
  Yb  Yb7  1  0.801800  0.803084  0.801992  1
  Y  Y8  1  0.597925  0.328546  0.855391  1
  Pt  Pt9  1  0.829067  0.411896  0.042820  1
  Pt  Pt10  1  0.592196  0.957648  0.161843  1
  Pt  Pt11  1  0.048211  0.834324  0.411659  1
  Pt  Pt12  1  0.943225  0.170328  0.592194  1
  Pt  Pt13  1  0.410768  0.052737  0.830668  1
  Pt  Pt14  1  0.179246  0.581022  0.950157  1
