# generated using pymatgen
data_Hf2Cr2Co10As7
_symmetry_space_group_name_H-M   'P 1'
_cell_length_a   3.68102700
_cell_length_b   9.30812175
_cell_length_c   9.34056902
_cell_angle_alpha   119.82686050
_cell_angle_beta   90.00000000
_cell_angle_gamma   90.00000000
_symmetry_Int_Tables_number   1
_chemical_formula_structural   Hf2Cr2Co10As7
_chemical_formula_sum   'Hf2 Cr2 Co10 As7'
_cell_volume   277.64514437
_cell_formula_units_Z   1
loop_
 _symmetry_equiv_pos_site_id
 _symmetry_equiv_pos_as_xyz
  1  'x, y, z'
loop_
 _atom_site_type_symbol
 _atom_site_label
 _atom_site_symmetry_multiplicity
 _atom_site_fract_x
 _atom_site_fract_y
 _atom_site_fract_z
 _atom_site_occupancy
  Hf  Hf0  1  0.000000  0.672482  0.336804  1
  Hf  Hf1  1  0.500000  0.333611  0.666874  1
  Cr  Cr2  1  0.500000  0.776823  0.894402  1
  Cr  Cr3  1  0.500000  0.122483  0.222873  1
  Co  Co4  1  0.000000  0.562000  0.934801  1
  Co  Co5  1  0.000000  0.370560  0.435024  1
  Co  Co6  1  0.000000  0.063280  0.629071  1
  Co  Co7  1  0.500000  0.092613  0.874966  1
  Co  Co8  1  0.000000  0.879283  0.161463  1
  Co  Co9  1  0.000000  0.284402  0.123897  1
  Co  Co10  1  0.000000  0.839928  0.718567  1
  Co  Co11  1  0.500000  0.946139  0.385929  1
  Co  Co12  1  0.500000  0.438358  0.051813  1
  Co  Co13  1  0.500000  0.614277  0.560329  1
  As  As14  1  0.000000  0.001989  0.998807  1
  As  As15  1  0.500000  0.709271  0.121292  1
  As  As16  1  0.500000  0.417122  0.290801  1
  As  As17  1  0.500000  0.881057  0.591709  1
  As  As18  1  0.000000  0.583006  0.702050  1
  As  As19  1  0.000000  0.118171  0.416370  1
  As  As20  1  0.000000  0.293144  0.882158  1
