# generated using pymatgen
data_TmCo2O5
_symmetry_space_group_name_H-M   'P 1'
_cell_length_a   5.67809600
_cell_length_b   7.12161900
_cell_length_c   8.31423900
_cell_angle_alpha   90.00000000
_cell_angle_beta   90.00000000
_cell_angle_gamma   90.00000000
_symmetry_Int_Tables_number   1
_chemical_formula_structural   TmCo2O5
_chemical_formula_sum   'Tm4 Co8 O20'
_cell_volume   336.20484758
_cell_formula_units_Z   4
loop_
 _symmetry_equiv_pos_site_id
 _symmetry_equiv_pos_as_xyz
  1  'x, y, z'
loop_
 _atom_site_type_symbol
 _atom_site_label
 _atom_site_symmetry_multiplicity
 _atom_site_fract_x
 _atom_site_fract_y
 _atom_site_fract_z
 _atom_site_occupancy
  Tm  Tm0  1  0.500000  0.362540  0.328416  1
  Tm  Tm1  1  0.500000  0.637460  0.671584  1
  Tm  Tm2  1  0.500000  0.137460  0.828416  1
  Tm  Tm3  1  0.500000  0.862540  0.171584  1
  Co  Co4  1  0.000000  0.090754  0.151208  1
  Co  Co5  1  0.000000  0.909246  0.848792  1
  Co  Co6  1  0.000000  0.409246  0.651208  1
  Co  Co7  1  0.000000  0.590754  0.348792  1
  Co  Co8  1  0.245869  0.000000  0.500000  1
  Co  Co9  1  0.754131  0.000000  0.500000  1
  Co  Co10  1  0.754131  0.500000  0.000000  1
  Co  Co11  1  0.245869  0.500000  0.000000  1
  O  O12  1  0.228532  0.000000  0.000000  1
  O  O13  1  0.771468  0.000000  0.000000  1
  O  O14  1  0.771468  0.500000  0.500000  1
  O  O15  1  0.228532  0.500000  0.500000  1
  O  O16  1  0.000000  0.347686  0.068879  1
  O  O17  1  0.000000  0.652314  0.931121  1
  O  O18  1  0.000000  0.152314  0.568879  1
  O  O19  1  0.000000  0.847686  0.431121  1
  O  O20  1  0.500000  0.334873  0.055738  1
  O  O21  1  0.500000  0.665127  0.944262  1
  O  O22  1  0.500000  0.165127  0.555738  1
  O  O23  1  0.500000  0.834873  0.444262  1
  O  O24  1  0.258978  0.104878  0.292645  1
  O  O25  1  0.741022  0.895122  0.707355  1
  O  O26  1  0.258978  0.895122  0.707355  1
  O  O27  1  0.741022  0.395122  0.792645  1
  O  O28  1  0.741022  0.104878  0.292645  1
  O  O29  1  0.258978  0.604878  0.207355  1
  O  O30  1  0.741022  0.604878  0.207355  1
  O  O31  1  0.258978  0.395122  0.792645  1
