# generated using pymatgen
data_LiTb2(Co3As2)3
_symmetry_space_group_name_H-M   'P 1'
_cell_length_a   3.81519900
_cell_length_b   10.69715400
_cell_length_c   12.25557900
_cell_angle_alpha   90.00000000
_cell_angle_beta   90.00000000
_cell_angle_gamma   90.00000000
_symmetry_Int_Tables_number   1
_chemical_formula_structural   LiTb2(Co3As2)3
_chemical_formula_sum   'Li2 Tb4 Co18 As12'
_cell_volume   500.17188661
_cell_formula_units_Z   2
loop_
 _symmetry_equiv_pos_site_id
 _symmetry_equiv_pos_as_xyz
  1  'x, y, z'
loop_
 _atom_site_type_symbol
 _atom_site_label
 _atom_site_symmetry_multiplicity
 _atom_site_fract_x
 _atom_site_fract_y
 _atom_site_fract_z
 _atom_site_occupancy
  Li  Li0  1  0.250000  0.700631  0.991122  1
  Li  Li1  1  0.250000  0.799369  0.491122  1
  Tb  Tb2  1  0.250000  0.578009  0.700912  1
  Tb  Tb3  1  0.250000  0.921991  0.200912  1
  Tb  Tb4  1  0.750000  0.420768  0.299010  1
  Tb  Tb5  1  0.750000  0.079232  0.799010  1
  Co  Co6  1  0.750000  0.292667  0.007959  1
  Co  Co7  1  0.750000  0.207333  0.507959  1
  Co  Co8  1  0.250000  0.404613  0.487644  1
  Co  Co9  1  0.250000  0.095387  0.987644  1
  Co  Co10  1  0.750000  0.589478  0.514256  1
  Co  Co11  1  0.750000  0.910522  0.014256  1
  Co  Co12  1  0.250000  0.218341  0.175519  1
  Co  Co13  1  0.250000  0.281659  0.675519  1
  Co  Co14  1  0.750000  0.785878  0.824611  1
  Co  Co15  1  0.750000  0.714122  0.324611  1
  Co  Co16  1  0.250000  0.882213  0.697923  1
  Co  Co17  1  0.250000  0.617787  0.197923  1
  Co  Co18  1  0.750000  0.119589  0.301976  1
  Co  Co19  1  0.750000  0.380411  0.801976  1
  Co  Co20  1  0.250000  0.465397  0.931173  1
  Co  Co21  1  0.250000  0.034603  0.431173  1
  Co  Co22  1  0.750000  0.530721  0.066786  1
  Co  Co23  1  0.750000  0.969279  0.566786  1
  As  As24  1  0.250000  0.418546  0.113570  1
  As  As25  1  0.250000  0.081454  0.613570  1
  As  As26  1  0.750000  0.581191  0.883417  1
  As  As27  1  0.750000  0.918809  0.383417  1
  As  As28  1  0.250000  0.267330  0.867613  1
  As  As29  1  0.250000  0.232670  0.367613  1
  As  As30  1  0.750000  0.730802  0.135266  1
  As  As31  1  0.750000  0.769198  0.635266  1
  As  As32  1  0.250000  0.601478  0.393305  1
  As  As33  1  0.250000  0.898522  0.893305  1
  As  As34  1  0.750000  0.395548  0.607937  1
  As  As35  1  0.750000  0.104452  0.107937  1
