# generated using pymatgen
data_Y7Mg3(Pb3C)2
_symmetry_space_group_name_H-M   'P 1'
_cell_length_a   9.02712500
_cell_length_b   9.02712512
_cell_length_c   6.35592400
_cell_angle_alpha   90.00000000
_cell_angle_beta   90.00000000
_cell_angle_gamma   119.99999590
_symmetry_Int_Tables_number   1
_chemical_formula_structural   Y7Mg3(Pb3C)2
_chemical_formula_sum   'Y7 Mg3 Pb6 C2'
_cell_volume   448.54731719
_cell_formula_units_Z   1
loop_
 _symmetry_equiv_pos_site_id
 _symmetry_equiv_pos_as_xyz
  1  'x, y, z'
loop_
 _atom_site_type_symbol
 _atom_site_label
 _atom_site_symmetry_multiplicity
 _atom_site_fract_x
 _atom_site_fract_y
 _atom_site_fract_z
 _atom_site_occupancy
  Y  Y0  1  0.214083  0.001609  0.252579  1
  Y  Y1  1  0.787526  0.001609  0.747421  1
  Y  Y2  1  0.998391  0.212474  0.252579  1
  Y  Y3  1  0.998391  0.785917  0.747421  1
  Y  Y4  1  0.787526  0.785917  0.252579  1
  Y  Y5  1  0.214083  0.212474  0.747421  1
  Y  Y6  1  0.333333  0.666667  0.500000  1
  Mg  Mg7  1  0.333333  0.666667  0.000000  1
  Mg  Mg8  1  0.666667  0.333333  0.000000  1
  Mg  Mg9  1  0.666667  0.333333  0.500000  1
  Pb  Pb10  1  0.589680  0.004020  0.255874  1
  Pb  Pb11  1  0.414340  0.004020  0.744126  1
  Pb  Pb12  1  0.995980  0.585660  0.255874  1
  Pb  Pb13  1  0.995980  0.410320  0.744126  1
  Pb  Pb14  1  0.414340  0.410320  0.255874  1
  Pb  Pb15  1  0.589680  0.585660  0.744126  1
  C  C16  1  0.000000  0.000000  0.000000  1
  C  C17  1  0.000000  0.000000  0.500000  1
