# generated using pymatgen
data_Dy2Y4Tm6Co5Bi
_symmetry_space_group_name_H-M   'P 1'
_cell_length_a   8.26941698
_cell_length_b   8.27019504
_cell_length_c   8.27017251
_cell_angle_alpha   110.65157371
_cell_angle_beta   110.83632072
_cell_angle_gamma   106.95801239
_symmetry_Int_Tables_number   1
_chemical_formula_structural   Dy2Y4Tm6Co5Bi
_chemical_formula_sum   'Dy2 Y4 Tm6 Co5 Bi1'
_cell_volume   434.75056411
_cell_formula_units_Z   1
loop_
 _symmetry_equiv_pos_site_id
 _symmetry_equiv_pos_as_xyz
  1  'x, y, z'
loop_
 _atom_site_type_symbol
 _atom_site_label
 _atom_site_symmetry_multiplicity
 _atom_site_fract_x
 _atom_site_fract_y
 _atom_site_fract_z
 _atom_site_occupancy
  Dy  Dy0  1  0.987217  0.792944  0.194278  1
  Dy  Dy1  1  0.012783  0.207056  0.805722  1
  Y  Y2  1  0.814366  0.711122  0.526344  1
  Y  Y3  1  0.185634  0.288878  0.473656  1
  Y  Y4  1  0.185629  0.711974  0.896745  1
  Y  Y5  1  0.814371  0.288026  0.103255  1
  Tm  Tm6  1  0.687742  0.377292  0.688358  1
  Tm  Tm7  1  0.312258  0.622708  0.311642  1
  Tm  Tm8  1  0.687742  0.999381  0.310448  1
  Tm  Tm9  1  0.312258  0.000619  0.689552  1
  Tm  Tm10  1  0.598160  0.793024  0.805135  1
  Tm  Tm11  1  0.401840  0.206976  0.194865  1
  Co  Co12  1  0.622801  0.999469  0.623333  1
  Co  Co13  1  0.377199  0.000531  0.376667  1
  Co  Co14  1  0.112340  0.612040  0.500306  1
  Co  Co15  1  0.887660  0.387960  0.499694  1
  Co  Co16  1  0.000000  0.000000  0.000000  1
  Bi  Bi17  1  0.500000  0.500000  0.000000  1
