# generated using pymatgen
data_CsPu3(SeO6)2
_symmetry_space_group_name_H-M   'P 1'
_cell_length_a   7.98720600
_cell_length_b   7.98720707
_cell_length_c   13.36254200
_cell_angle_alpha   90.00000000
_cell_angle_beta   90.00000000
_cell_angle_gamma   120.00000320
_symmetry_Int_Tables_number   1
_chemical_formula_structural   CsPu3(SeO6)2
_chemical_formula_sum   'Cs2 Pu6 Se4 O24'
_cell_volume   738.26032635
_cell_formula_units_Z   2
loop_
 _symmetry_equiv_pos_site_id
 _symmetry_equiv_pos_as_xyz
  1  'x, y, z'
loop_
 _atom_site_type_symbol
 _atom_site_label
 _atom_site_symmetry_multiplicity
 _atom_site_fract_x
 _atom_site_fract_y
 _atom_site_fract_z
 _atom_site_occupancy
  Cs  Cs0  1  0.666667  0.333333  0.470998  1
  Cs  Cs1  1  0.333333  0.666667  0.970998  1
  Pu  Pu2  1  0.834839  0.667237  0.795504  1
  Pu  Pu3  1  0.832400  0.165161  0.795504  1
  Pu  Pu4  1  0.667237  0.832400  0.295504  1
  Pu  Pu5  1  0.165161  0.332763  0.295504  1
  Pu  Pu6  1  0.332763  0.167600  0.795504  1
  Pu  Pu7  1  0.167600  0.834839  0.295504  1
  Se  Se8  1  0.000000  0.000000  0.578088  1
  Se  Se9  1  0.666667  0.333333  0.013960  1
  Se  Se10  1  0.333333  0.666667  0.513960  1
  Se  Se11  1  0.000000  0.000000  0.078088  1
  O  O12  1  0.251091  0.097506  0.327100  1
  O  O13  1  0.153585  0.251091  0.827100  1
  O  O14  1  0.097506  0.846415  0.827100  1
  O  O15  1  0.902494  0.153585  0.327100  1
  O  O16  1  0.846415  0.748909  0.327100  1
  O  O17  1  0.748909  0.902494  0.827100  1
  O  O18  1  0.486759  0.914628  0.266889  1
  O  O19  1  0.572131  0.486759  0.766889  1
  O  O20  1  0.914628  0.427869  0.766889  1
  O  O21  1  0.085372  0.572131  0.266889  1
  O  O22  1  0.427869  0.513241  0.266889  1
  O  O23  1  0.513241  0.085372  0.766889  1
  O  O24  1  0.769079  0.210502  0.957757  1
  O  O25  1  0.558577  0.769079  0.457757  1
  O  O26  1  0.210502  0.441423  0.457757  1
  O  O27  1  0.789498  0.558577  0.957757  1
  O  O28  1  0.441423  0.230921  0.957757  1
  O  O29  1  0.230921  0.789498  0.457757  1
  O  O30  1  0.893618  0.119549  0.634263  1
  O  O31  1  0.774068  0.893618  0.134263  1
  O  O32  1  0.119549  0.225932  0.134263  1
  O  O33  1  0.880451  0.774068  0.634263  1
  O  O34  1  0.225932  0.106382  0.634263  1
  O  O35  1  0.106382  0.880451  0.134263  1
