# generated using pymatgen
data_Tm4Tc5OsRu2
_symmetry_space_group_name_H-M   'P 1'
_cell_length_a   5.26240909
_cell_length_b   5.19704877
_cell_length_c   9.07579600
_cell_angle_alpha   90.00000000
_cell_angle_beta   90.00000000
_cell_angle_gamma   119.39969457
_symmetry_Int_Tables_number   1
_chemical_formula_structural   Tm4Tc5OsRu2
_chemical_formula_sum   'Tm4 Tc5 Os1 Ru2'
_cell_volume   216.24804009
_cell_formula_units_Z   1
loop_
 _symmetry_equiv_pos_site_id
 _symmetry_equiv_pos_as_xyz
  1  'x, y, z'
loop_
 _atom_site_type_symbol
 _atom_site_label
 _atom_site_symmetry_multiplicity
 _atom_site_fract_x
 _atom_site_fract_y
 _atom_site_fract_z
 _atom_site_occupancy
  Tm  Tm0  1  0.668189  0.333602  0.563034  1
  Tm  Tm1  1  0.330454  0.665624  0.434774  1
  Tm  Tm2  1  0.330454  0.665624  0.065226  1
  Tm  Tm3  1  0.668189  0.333602  0.936966  1
  Tc  Tc4  1  0.172210  0.344038  0.750000  1
  Tc  Tc5  1  0.171311  0.828782  0.750000  1
  Tc  Tc6  1  0.657149  0.828001  0.750000  1
  Tc  Tc7  1  0.831748  0.660497  0.250000  1
  Tc  Tc8  1  0.832704  0.172257  0.250000  1
  Os  Os9  1  0.347398  0.173366  0.250000  1
  Ru  Ru10  1  0.995097  0.997304  0.499475  1
  Ru  Ru11  1  0.995097  0.997304  0.000525  1
