# generated using pymatgen
data_Hf2Co(SiPt)2
_symmetry_space_group_name_H-M   'P 1'
_cell_length_a   3.88242600
_cell_length_b   6.45867900
_cell_length_c   8.56993100
_cell_angle_alpha   90.00000000
_cell_angle_beta   90.00000000
_cell_angle_gamma   90.00000000
_symmetry_Int_Tables_number   1
_chemical_formula_structural   Hf2Co(SiPt)2
_chemical_formula_sum   'Hf4 Co2 Si4 Pt4'
_cell_volume   214.89396167
_cell_formula_units_Z   2
loop_
 _symmetry_equiv_pos_site_id
 _symmetry_equiv_pos_as_xyz
  1  'x, y, z'
loop_
 _atom_site_type_symbol
 _atom_site_label
 _atom_site_symmetry_multiplicity
 _atom_site_fract_x
 _atom_site_fract_y
 _atom_site_fract_z
 _atom_site_occupancy
  Hf  Hf0  1  0.000000  0.876621  0.325820  1
  Hf  Hf1  1  0.000000  0.123379  0.674180  1
  Hf  Hf2  1  0.000000  0.376621  0.174180  1
  Hf  Hf3  1  0.000000  0.623379  0.825820  1
  Co  Co4  1  0.000000  0.500000  0.500000  1
  Co  Co5  1  0.000000  0.000000  0.000000  1
  Si  Si6  1  0.500000  0.567550  0.357990  1
  Si  Si7  1  0.500000  0.432450  0.642010  1
  Si  Si8  1  0.500000  0.067550  0.142010  1
  Si  Si9  1  0.500000  0.932450  0.857990  1
  Pt  Pt10  1  0.500000  0.687289  0.086577  1
  Pt  Pt11  1  0.500000  0.312711  0.913423  1
  Pt  Pt12  1  0.500000  0.187289  0.413423  1
  Pt  Pt13  1  0.500000  0.812711  0.586577  1
