# generated using pymatgen
data_Rb6Mn(VBr6)3
_symmetry_space_group_name_H-M   'P 1'
_cell_length_a   7.57106700
_cell_length_b   7.57009186
_cell_length_c   19.06412210
_cell_angle_alpha   90.01089337
_cell_angle_beta   90.00000000
_cell_angle_gamma   120.00426563
_symmetry_Int_Tables_number   1
_chemical_formula_structural   Rb6Mn(VBr6)3
_chemical_formula_sum   'Rb6 Mn1 V3 Br18'
_cell_volume   946.20884168
_cell_formula_units_Z   1
loop_
 _symmetry_equiv_pos_site_id
 _symmetry_equiv_pos_as_xyz
  1  'x, y, z'
loop_
 _atom_site_type_symbol
 _atom_site_label
 _atom_site_symmetry_multiplicity
 _atom_site_fract_x
 _atom_site_fract_y
 _atom_site_fract_z
 _atom_site_occupancy
  Rb  Rb0  1  0.333338  0.666677  0.068580  1
  Rb  Rb1  1  0.999999  0.999998  0.246988  1
  Rb  Rb2  1  0.333333  0.666667  0.429843  1
  Rb  Rb3  1  0.666669  0.333340  0.567245  1
  Rb  Rb4  1  0.000011  0.000022  0.750317  1
  Rb  Rb5  1  0.666670  0.333342  0.935675  1
  Mn  Mn6  1  0.666718  0.333436  0.156991  1
  V  V7  1  0.666680  0.333361  0.339175  1
  V  V8  1  0.333298  0.666596  0.663778  1
  V  V9  1  0.333318  0.666635  0.835032  1
  Br  Br10  1  0.829695  0.659390  0.090136  1
  Br  Br11  1  0.340663  0.170317  0.090093  1
  Br  Br12  1  0.829653  0.170317  0.090093  1
  Br  Br13  1  0.512796  0.025594  0.253549  1
  Br  Br14  1  0.513029  0.487056  0.253674  1
  Br  Br15  1  0.974026  0.487056  0.253674  1
  Br  Br16  1  0.349474  0.174613  0.410606  1
  Br  Br17  1  0.825139  0.174613  0.410606  1
  Br  Br18  1  0.825305  0.650611  0.410681  1
  Br  Br19  1  0.174624  0.349247  0.591888  1
  Br  Br20  1  0.174816  0.825441  0.591959  1
  Br  Br21  1  0.650625  0.825441  0.591959  1
  Br  Br22  1  0.022496  0.511185  0.749302  1
  Br  Br23  1  0.488689  0.511185  0.749302  1
  Br  Br24  1  0.488829  0.977657  0.749376  1
  Br  Br25  1  0.174870  0.825411  0.906512  1
  Br  Br26  1  0.650541  0.825411  0.906512  1
  Br  Br27  1  0.174695  0.349390  0.906461  1
