# generated using pymatgen
data_Cs2Pd(BrO3)6
_symmetry_space_group_name_H-M   'P 1'
_cell_length_a   8.02549084
_cell_length_b   8.02549096
_cell_length_c   8.02549000
_cell_angle_alpha   96.71179656
_cell_angle_beta   96.71179666
_cell_angle_gamma   96.71178266
_symmetry_Int_Tables_number   1
_chemical_formula_structural   Cs2Pd(BrO3)6
_chemical_formula_sum   'Cs2 Pd1 Br6 O18'
_cell_volume   505.36430160
_cell_formula_units_Z   1
loop_
 _symmetry_equiv_pos_site_id
 _symmetry_equiv_pos_as_xyz
  1  'x, y, z'
loop_
 _atom_site_type_symbol
 _atom_site_label
 _atom_site_symmetry_multiplicity
 _atom_site_fract_x
 _atom_site_fract_y
 _atom_site_fract_z
 _atom_site_occupancy
  Cs  Cs0  1  0.168280  0.168280  0.168280  1
  Cs  Cs1  1  0.831720  0.831720  0.831720  1
  Pd  Pd2  1  0.500000  0.500000  0.500000  1
  Br  Br3  1  0.702497  0.331736  0.179668  1
  Br  Br4  1  0.668264  0.820332  0.297503  1
  Br  Br5  1  0.179668  0.702497  0.331736  1
  Br  Br6  1  0.820332  0.297503  0.668264  1
  Br  Br7  1  0.297503  0.668264  0.820332  1
  Br  Br8  1  0.331736  0.179668  0.702497  1
  O  O9  1  0.888033  0.374129  0.301404  1
  O  O10  1  0.625871  0.698596  0.111967  1
  O  O11  1  0.698596  0.111967  0.625871  1
  O  O12  1  0.690043  0.670619  0.449829  1
  O  O13  1  0.674168  0.129494  0.099758  1
  O  O14  1  0.449829  0.690043  0.670619  1
  O  O15  1  0.329381  0.550171  0.309957  1
  O  O16  1  0.309957  0.329381  0.550171  1
  O  O17  1  0.129494  0.099758  0.674168  1
  O  O18  1  0.900242  0.325832  0.870506  1
  O  O19  1  0.670619  0.449829  0.690043  1
  O  O20  1  0.111967  0.625871  0.698596  1
  O  O21  1  0.550171  0.309957  0.329381  1
  O  O22  1  0.325832  0.870506  0.900242  1
  O  O23  1  0.870506  0.900242  0.325832  1
  O  O24  1  0.374129  0.301404  0.888033  1
  O  O25  1  0.301404  0.888033  0.374129  1
  O  O26  1  0.099758  0.674168  0.129494  1
