# generated using pymatgen
data_Ba2CaCe(Ge4N7)2
_symmetry_space_group_name_H-M   'P 1'
_cell_length_a   6.36209400
_cell_length_b   6.36209261
_cell_length_c   10.44312700
_cell_angle_alpha   90.00000000
_cell_angle_beta   90.00000000
_cell_angle_gamma   119.99999682
_symmetry_Int_Tables_number   1
_chemical_formula_structural   Ba2CaCe(Ge4N7)2
_chemical_formula_sum   'Ba2 Ca1 Ce1 Ge8 N14'
_cell_volume   366.06758443
_cell_formula_units_Z   1
loop_
 _symmetry_equiv_pos_site_id
 _symmetry_equiv_pos_as_xyz
  1  'x, y, z'
loop_
 _atom_site_type_symbol
 _atom_site_label
 _atom_site_symmetry_multiplicity
 _atom_site_fract_x
 _atom_site_fract_y
 _atom_site_fract_z
 _atom_site_occupancy
  Ba  Ba0  1  0.333333  0.666667  0.353978  1
  Ba  Ba1  1  0.666667  0.333333  0.876898  1
  Ca  Ca2  1  0.666667  0.333333  0.237510  1
  Ce  Ce3  1  0.333333  0.666667  0.735140  1
  Ge  Ge4  1  0.827510  0.655020  0.544443  1
  Ge  Ge5  1  0.174628  0.825372  0.048371  1
  Ge  Ge6  1  0.650743  0.825372  0.048371  1
  Ge  Ge7  1  0.344980  0.172490  0.544443  1
  Ge  Ge8  1  0.827510  0.172490  0.544443  1
  Ge  Ge9  1  0.174628  0.349257  0.048371  1
  Ge  Ge10  1  0.000000  0.000000  0.810885  1
  Ge  Ge11  1  0.000000  0.000000  0.314812  1
  N  N12  1  0.000000  0.000000  0.622184  1
  N  N13  1  0.000000  0.000000  0.120322  1
  N  N14  1  0.158354  0.316709  0.868440  1
  N  N15  1  0.842366  0.157634  0.371041  1
  N  N16  1  0.315269  0.157634  0.371041  1
  N  N17  1  0.683291  0.841646  0.868440  1
  N  N18  1  0.158354  0.841646  0.868440  1
  N  N19  1  0.842366  0.684731  0.371041  1
  N  N20  1  0.984563  0.492283  0.606553  1
  N  N21  1  0.494133  0.988263  0.099842  1
  N  N22  1  0.494133  0.505867  0.099842  1
  N  N23  1  0.507717  0.492283  0.606553  1
  N  N24  1  0.011737  0.505867  0.099842  1
  N  N25  1  0.507717  0.015437  0.606553  1
