# generated using pymatgen
data_Na4CaSiGeSe6
_symmetry_space_group_name_H-M   'P 1'
_cell_length_a   7.36344604
_cell_length_b   7.35594950
_cell_length_c   7.16772019
_cell_angle_alpha   81.03119278
_cell_angle_beta   80.81581898
_cell_angle_gamma   114.48252231
_symmetry_Int_Tables_number   1
_chemical_formula_structural   Na4CaSiGeSe6
_chemical_formula_sum   'Na4 Ca1 Si1 Ge1 Se6'
_cell_volume   337.98287466
_cell_formula_units_Z   1
loop_
 _symmetry_equiv_pos_site_id
 _symmetry_equiv_pos_as_xyz
  1  'x, y, z'
loop_
 _atom_site_type_symbol
 _atom_site_label
 _atom_site_symmetry_multiplicity
 _atom_site_fract_x
 _atom_site_fract_y
 _atom_site_fract_z
 _atom_site_occupancy
  Na  Na0  1  0.513075  0.486355  0.498994  1
  Na  Na1  1  0.354911  0.647077  0.000714  1
  Na  Na2  1  0.685445  0.311830  0.001015  1
  Na  Na3  1  0.050355  0.951564  0.000570  1
  Ca  Ca4  1  0.870058  0.127627  0.498301  1
  Si  Si5  1  0.031696  0.638484  0.559220  1
  Ge  Ge6  1  0.347705  0.954051  0.445376  1
  Se  Se7  1  0.276278  0.207032  0.254911  1
  Se  Se8  1  0.803288  0.722658  0.739303  1
  Se  Se9  1  0.459854  0.057630  0.724641  1
  Se  Se10  1  0.945764  0.545275  0.283635  1
  Se  Se11  1  0.613558  0.909360  0.245344  1
  Se  Se12  1  0.091171  0.397900  0.747977  1
