# generated using pymatgen
data_Y10NiAg3
_symmetry_space_group_name_H-M   'P 1'
_cell_length_a   9.57208200
_cell_length_b   9.57208271
_cell_length_c   9.66408400
_cell_angle_alpha   90.00000000
_cell_angle_beta   90.00000000
_cell_angle_gamma   119.99999754
_symmetry_Int_Tables_number   1
_chemical_formula_structural   Y10NiAg3
_chemical_formula_sum   'Y20 Ni2 Ag6'
_cell_volume   766.83899903
_cell_formula_units_Z   2
loop_
 _symmetry_equiv_pos_site_id
 _symmetry_equiv_pos_as_xyz
  1  'x, y, z'
loop_
 _atom_site_type_symbol
 _atom_site_label
 _atom_site_symmetry_multiplicity
 _atom_site_fract_x
 _atom_site_fract_y
 _atom_site_fract_z
 _atom_site_occupancy
  Y  Y0  1  0.000000  0.000000  0.500000  1
  Y  Y1  1  0.000000  0.000000  0.000000  1
  Y  Y2  1  0.543949  0.456051  0.250000  1
  Y  Y3  1  0.543949  0.087899  0.250000  1
  Y  Y4  1  0.912101  0.456051  0.250000  1
  Y  Y5  1  0.456051  0.543949  0.750000  1
  Y  Y6  1  0.456051  0.912101  0.750000  1
  Y  Y7  1  0.087899  0.543949  0.750000  1
  Y  Y8  1  0.209758  0.790242  0.438889  1
  Y  Y9  1  0.209758  0.419517  0.438889  1
  Y  Y10  1  0.580483  0.790242  0.438889  1
  Y  Y11  1  0.790242  0.209758  0.561111  1
  Y  Y12  1  0.790242  0.580483  0.561111  1
  Y  Y13  1  0.419517  0.209758  0.561111  1
  Y  Y14  1  0.790242  0.209758  0.938889  1
  Y  Y15  1  0.790242  0.580483  0.938889  1
  Y  Y16  1  0.419517  0.209758  0.938889  1
  Y  Y17  1  0.209758  0.790242  0.061111  1
  Y  Y18  1  0.209758  0.419517  0.061111  1
  Y  Y19  1  0.580483  0.790242  0.061111  1
  Ni  Ni20  1  0.333333  0.666667  0.250000  1
  Ni  Ni21  1  0.666667  0.333333  0.750000  1
  Ag  Ag22  1  0.883597  0.116403  0.250000  1
  Ag  Ag23  1  0.883597  0.767193  0.250000  1
  Ag  Ag24  1  0.232807  0.116403  0.250000  1
  Ag  Ag25  1  0.116403  0.883597  0.750000  1
  Ag  Ag26  1  0.116403  0.232807  0.750000  1
  Ag  Ag27  1  0.767193  0.883597  0.750000  1
