# generated using pymatgen
data_TbY15In4IrPd3
_symmetry_space_group_name_H-M   'P 1'
_cell_length_a   9.73913051
_cell_length_b   9.76807607
_cell_length_c   9.74337173
_cell_angle_alpha   60.06120382
_cell_angle_beta   60.01439769
_cell_angle_gamma   60.09796958
_symmetry_Int_Tables_number   1
_chemical_formula_structural   TbY15In4IrPd3
_chemical_formula_sum   'Tb1 Y15 In4 Ir1 Pd3'
_cell_volume   656.28448915
_cell_formula_units_Z   1
loop_
 _symmetry_equiv_pos_site_id
 _symmetry_equiv_pos_as_xyz
  1  'x, y, z'
loop_
 _atom_site_type_symbol
 _atom_site_label
 _atom_site_symmetry_multiplicity
 _atom_site_fract_x
 _atom_site_fract_y
 _atom_site_fract_z
 _atom_site_occupancy
  Tb  Tb0  1  0.560132  0.940024  0.939711  1
  Y  Y1  1  0.103527  0.688957  0.103990  1
  Y  Y2  1  0.940423  0.940916  0.559390  1
  Y  Y3  1  0.939911  0.555690  0.939996  1
  Y  Y4  1  0.312711  0.687387  0.312712  1
  Y  Y5  1  0.939960  0.555791  0.564288  1
  Y  Y6  1  0.309441  0.314648  0.687229  1
  Y  Y7  1  0.099303  0.105617  0.099002  1
  Y  Y8  1  0.564402  0.555690  0.939996  1
  Y  Y9  1  0.099382  0.106326  0.694911  1
  Y  Y10  1  0.688680  0.314648  0.687229  1
  Y  Y11  1  0.687190  0.687387  0.312712  1
  Y  Y12  1  0.687343  0.315140  0.310173  1
  Y  Y13  1  0.312401  0.688320  0.686878  1
  Y  Y14  1  0.559270  0.940916  0.559390  1
  Y  Y15  1  0.696079  0.105617  0.099002  1
  In  In16  1  0.333469  0.333681  0.333948  1
  In  In17  1  0.998902  0.333681  0.333948  1
  In  In18  1  0.332966  0.000435  0.333631  1
  In  In19  1  0.333038  0.333543  0.000380  1
  Ir  Ir20  1  0.893159  0.321038  0.892645  1
  Pd  Pd21  1  0.894130  0.891791  0.894625  1
  Pd  Pd22  1  0.894724  0.890965  0.319586  1
  Pd  Pd23  1  0.319453  0.891791  0.894625  1
