# generated using pymatgen
data_Pr8Tm2Si5Sn
_symmetry_space_group_name_H-M   'P 1'
_cell_length_a   7.69729473
_cell_length_b   7.69729557
_cell_length_c   9.21518900
_cell_angle_alpha   114.68579843
_cell_angle_beta   114.68579367
_cell_angle_gamma   90.00000049
_symmetry_Int_Tables_number   1
_chemical_formula_structural   Pr8Tm2Si5Sn
_chemical_formula_sum   'Pr8 Tm2 Si5 Sn1'
_cell_volume   440.57641582
_cell_formula_units_Z   1
loop_
 _symmetry_equiv_pos_site_id
 _symmetry_equiv_pos_as_xyz
  1  'x, y, z'
loop_
 _atom_site_type_symbol
 _atom_site_label
 _atom_site_symmetry_multiplicity
 _atom_site_fract_x
 _atom_site_fract_y
 _atom_site_fract_z
 _atom_site_occupancy
  Pr  Pr0  1  0.973452  0.826517  0.281278  1
  Pr  Pr1  1  0.307826  0.454761  0.281278  1
  Pr  Pr2  1  0.826517  0.307826  0.281278  1
  Pr  Pr3  1  0.454761  0.973452  0.281278  1
  Pr  Pr4  1  0.045239  0.192174  0.718722  1
  Pr  Pr5  1  0.673483  0.526548  0.718722  1
  Pr  Pr6  1  0.192174  0.673483  0.718722  1
  Pr  Pr7  1  0.526548  0.045239  0.718722  1
  Tm  Tm8  1  0.511862  0.511862  0.023724  1
  Tm  Tm9  1  0.988138  0.988138  0.976276  1
  Si  Si10  1  0.250000  0.250000  0.500000  1
  Si  Si11  1  0.619415  0.880585  0.000000  1
  Si  Si12  1  0.380585  0.119415  0.000000  1
  Si  Si13  1  0.880585  0.380585  0.000000  1
  Si  Si14  1  0.119415  0.619415  0.000000  1
  Sn  Sn15  1  0.750000  0.750000  0.500000  1
