# generated using pymatgen
data_U4Ga4SiTc7As
_symmetry_space_group_name_H-M   'P 1'
_cell_length_a   7.20650455
_cell_length_b   7.20650476
_cell_length_c   7.21337398
_cell_angle_alpha   109.17287000
_cell_angle_beta   109.63849363
_cell_angle_gamma   109.56417612
_symmetry_Int_Tables_number   1
_chemical_formula_structural   U4Ga4SiTc7As
_chemical_formula_sum   'U4 Ga4 Si1 Tc7 As1'
_cell_volume   288.51198311
_cell_formula_units_Z   1
loop_
 _symmetry_equiv_pos_site_id
 _symmetry_equiv_pos_as_xyz
  1  'x, y, z'
loop_
 _atom_site_type_symbol
 _atom_site_label
 _atom_site_symmetry_multiplicity
 _atom_site_fract_x
 _atom_site_fract_y
 _atom_site_fract_z
 _atom_site_occupancy
  U  U0  1  0.482825  0.478350  0.480685  1
  U  U1  1  0.002930  0.505172  0.001158  1
  U  U2  1  0.495986  0.998228  0.001158  1
  U  U3  1  0.002335  0.997859  0.480685  1
  Ga  Ga4  1  0.707225  0.993006  0.700231  1
  Ga  Ga5  1  0.686075  0.687024  0.986169  1
  Ga  Ga6  1  0.299145  0.300095  0.986169  1
  Ga  Ga7  1  0.992393  0.708383  0.700776  1
  Si  Si8  1  0.324078  0.995761  0.319839  1
  Tc  Tc9  1  0.497175  0.748347  0.245522  1
  Tc  Tc10  1  0.748037  0.250576  0.500124  1
  Tc  Tc11  1  0.249547  0.752087  0.500124  1
  Tc  Tc12  1  0.244034  0.502638  0.746672  1
  Tc  Tc13  1  0.027179  0.018961  0.046140  1
  Tc  Tc14  1  0.501113  0.245057  0.746171  1
  Tc  Tc15  1  0.745961  0.501456  0.247418  1
  As  As16  1  0.993961  0.316998  0.310959  1
