# generated using pymatgen
data_Pa2Be21Cu5
_symmetry_space_group_name_H-M   'P 1'
_cell_length_a   7.38035853
_cell_length_b   7.36056463
_cell_length_c   7.36306186
_cell_angle_alpha   60.16672341
_cell_angle_beta   60.31454156
_cell_angle_gamma   59.93340206
_symmetry_Int_Tables_number   1
_chemical_formula_structural   Pa2Be21Cu5
_chemical_formula_sum   'Pa2 Be21 Cu5'
_cell_volume   283.71351035
_cell_formula_units_Z   1
loop_
 _symmetry_equiv_pos_site_id
 _symmetry_equiv_pos_as_xyz
  1  'x, y, z'
loop_
 _atom_site_type_symbol
 _atom_site_label
 _atom_site_symmetry_multiplicity
 _atom_site_fract_x
 _atom_site_fract_y
 _atom_site_fract_z
 _atom_site_occupancy
  Pa  Pa0  1  0.250645  0.249147  0.249685  1
  Pa  Pa1  1  0.750314  0.749480  0.749354  1
  Be  Be2  1  0.058980  0.940515  0.303991  1
  Be  Be3  1  0.297806  0.934722  0.702194  1
  Be  Be4  1  0.301114  0.697006  0.056083  1
  Be  Be5  1  0.704066  0.065564  0.295934  1
  Be  Be6  1  0.943917  0.054204  0.698886  1
  Be  Be7  1  0.062482  0.700975  0.937518  1
  Be  Be8  1  0.696009  0.303486  0.941020  1
  Be  Be9  1  0.441778  0.209818  0.558222  1
  Be  Be10  1  0.214928  0.439612  0.785072  1
  Be  Be11  1  0.558926  0.789270  0.441074  1
  Be  Be12  1  0.781877  0.565619  0.218123  1
  Be  Be13  1  0.220511  0.566095  0.433327  1
  Be  Be14  1  0.557308  0.438346  0.215768  1
  Be  Be15  1  0.566673  0.219933  0.779489  1
  Be  Be16  1  0.784232  0.211422  0.442692  1
  Be  Be17  1  0.433104  0.780257  0.221670  1
  Be  Be18  1  0.436337  0.563087  0.786411  1
  Be  Be19  1  0.778330  0.435032  0.566896  1
  Be  Be20  1  0.213589  0.785834  0.563663  1
  Be  Be21  1  0.001966  0.001951  0.998034  1
  Be  Be22  1  0.498975  0.499911  0.501025  1
  Cu  Cu23  1  0.314302  0.047689  0.940804  1
  Cu  Cu24  1  0.059196  0.302795  0.685698  1
  Cu  Cu25  1  0.694581  0.946718  0.055021  1
  Cu  Cu26  1  0.944979  0.696320  0.305419  1
  Cu  Cu27  1  0.933075  0.305191  0.066925  1
