# generated using pymatgen
data_Zr4Al7Ru
_symmetry_space_group_name_H-M   'P 1'
_cell_length_a   5.33307900
_cell_length_b   5.33307798
_cell_length_c   8.56547800
_cell_angle_alpha   90.00000000
_cell_angle_beta   90.00000000
_cell_angle_gamma   120.00000015
_symmetry_Int_Tables_number   1
_chemical_formula_structural   Zr4Al7Ru
_chemical_formula_sum   'Zr4 Al7 Ru1'
_cell_volume   210.97849287
_cell_formula_units_Z   1
loop_
 _symmetry_equiv_pos_site_id
 _symmetry_equiv_pos_as_xyz
  1  'x, y, z'
loop_
 _atom_site_type_symbol
 _atom_site_label
 _atom_site_symmetry_multiplicity
 _atom_site_fract_x
 _atom_site_fract_y
 _atom_site_fract_z
 _atom_site_occupancy
  Zr  Zr0  1  0.333333  0.666667  0.437770  1
  Zr  Zr1  1  0.666667  0.333333  0.562230  1
  Zr  Zr2  1  0.666667  0.333333  0.932791  1
  Zr  Zr3  1  0.333333  0.666667  0.067209  1
  Al  Al4  1  0.000000  0.000000  0.500000  1
  Al  Al5  1  0.830248  0.169752  0.240230  1
  Al  Al6  1  0.830248  0.660498  0.240230  1
  Al  Al7  1  0.339502  0.169752  0.240230  1
  Al  Al8  1  0.169752  0.830248  0.759770  1
  Al  Al9  1  0.169752  0.339502  0.759770  1
  Al  Al10  1  0.660498  0.830248  0.759770  1
  Ru  Ru11  1  0.000000  0.000000  0.000000  1
