# generated using pymatgen
data_Ho3Sc2In4IrRh
_symmetry_space_group_name_H-M   'P 1'
_cell_length_a   3.54183200
_cell_length_b   7.89486137
_cell_length_c   17.91490018
_cell_angle_alpha   89.86638119
_cell_angle_beta   90.00000000
_cell_angle_gamma   90.00000000
_symmetry_Int_Tables_number   1
_chemical_formula_structural   Ho3Sc2In4IrRh
_chemical_formula_sum   'Ho6 Sc4 In8 Ir2 Rh2'
_cell_volume   500.93996065
_cell_formula_units_Z   2
loop_
 _symmetry_equiv_pos_site_id
 _symmetry_equiv_pos_as_xyz
  1  'x, y, z'
loop_
 _atom_site_type_symbol
 _atom_site_label
 _atom_site_symmetry_multiplicity
 _atom_site_fract_x
 _atom_site_fract_y
 _atom_site_fract_z
 _atom_site_occupancy
  Ho  Ho0  1  0.000000  0.000000  0.000000  1
  Ho  Ho1  1  0.000000  0.500000  0.500000  1
  Ho  Ho2  1  0.000000  0.751543  0.782360  1
  Ho  Ho3  1  0.000000  0.248457  0.217640  1
  Ho  Ho4  1  0.000000  0.248527  0.717076  1
  Ho  Ho5  1  0.000000  0.751473  0.282924  1
  Sc  Sc6  1  0.000000  0.878350  0.589116  1
  Sc  Sc7  1  0.000000  0.121650  0.410884  1
  Sc  Sc8  1  0.000000  0.378072  0.910585  1
  Sc  Sc9  1  0.000000  0.621928  0.089415  1
  In  In10  1  0.500000  0.810112  0.439261  1
  In  In11  1  0.500000  0.189888  0.560739  1
  In  In12  1  0.500000  0.310336  0.060705  1
  In  In13  1  0.500000  0.689664  0.939295  1
  In  In14  1  0.500000  0.922703  0.149225  1
  In  In15  1  0.500000  0.077297  0.850775  1
  In  In16  1  0.500000  0.423676  0.350320  1
  In  In17  1  0.500000  0.576324  0.649680  1
  Ir  Ir18  1  0.500000  0.964527  0.693489  1
  Ir  Ir19  1  0.500000  0.035473  0.306511  1
  Rh  Rh20  1  0.500000  0.464202  0.807389  1
  Rh  Rh21  1  0.500000  0.535798  0.192611  1
