# generated using pymatgen
data_SrFe2Sb2(PO4)6
_symmetry_space_group_name_H-M   'P 1'
_cell_length_a   8.37143221
_cell_length_b   8.37143179
_cell_length_c   9.07794754
_cell_angle_alpha   117.45721154
_cell_angle_beta   62.54278370
_cell_angle_gamma   120.00000104
_symmetry_Int_Tables_number   1
_chemical_formula_structural   SrFe2Sb2(PO4)6
_chemical_formula_sum   'Sr1 Fe2 Sb2 P6 O24'
_cell_volume   466.37562600
_cell_formula_units_Z   1
loop_
 _symmetry_equiv_pos_site_id
 _symmetry_equiv_pos_as_xyz
  1  'x, y, z'
loop_
 _atom_site_type_symbol
 _atom_site_label
 _atom_site_symmetry_multiplicity
 _atom_site_fract_x
 _atom_site_fract_y
 _atom_site_fract_z
 _atom_site_occupancy
  Sr  Sr0  1  0.000000  0.000000  0.000000  1
  Fe  Fe1  1  0.851728  0.148272  0.444817  1
  Fe  Fe2  1  0.148272  0.851728  0.555183  1
  Sb  Sb3  1  0.650334  0.349665  0.048996  1
  Sb  Sb4  1  0.349665  0.650334  0.951004  1
  P  P5  1  0.249811  0.040961  0.250815  1
  P  P6  1  0.959039  0.459667  0.250815  1
  P  P7  1  0.540333  0.750188  0.250815  1
  P  P8  1  0.459667  0.249812  0.749184  1
  P  P9  1  0.040961  0.540333  0.749184  1
  P  P10  1  0.750188  0.959039  0.749184  1
  O  O11  1  0.155143  0.468807  0.093941  1
  O  O12  1  0.531193  0.780276  0.093941  1
  O  O13  1  0.219724  0.844857  0.093941  1
  O  O14  1  0.466043  0.179997  0.200832  1
  O  O15  1  0.820004  0.486879  0.200832  1
  O  O16  1  0.513122  0.533957  0.200832  1
  O  O17  1  0.112455  0.120219  0.263795  1
  O  O18  1  0.879782  0.256031  0.263795  1
  O  O19  1  0.743969  0.887545  0.263795  1
  O  O20  1  0.210691  0.008765  0.416402  1
  O  O21  1  0.991234  0.618328  0.416402  1
  O  O22  1  0.381671  0.789309  0.416402  1
  O  O23  1  0.618328  0.210691  0.583599  1
  O  O24  1  0.008765  0.381672  0.583599  1
  O  O25  1  0.789308  0.991234  0.583599  1
  O  O26  1  0.256030  0.112455  0.736205  1
  O  O27  1  0.120219  0.743970  0.736205  1
  O  O28  1  0.887545  0.879782  0.736205  1
  O  O29  1  0.486879  0.466044  0.799168  1
  O  O30  1  0.179998  0.513122  0.799168  1
  O  O31  1  0.533956  0.820003  0.799168  1
  O  O32  1  0.780276  0.155143  0.906060  1
  O  O33  1  0.468806  0.219724  0.906060  1
  O  O34  1  0.844857  0.531194  0.906060  1
