# generated using pymatgen
data_VTc2O9
_symmetry_space_group_name_H-M   'P 1'
_cell_length_a   8.16877651
_cell_length_b   8.16877716
_cell_length_c   9.15411500
_cell_angle_alpha   90.00000000
_cell_angle_beta   90.00000000
_cell_angle_gamma   138.85385198
_symmetry_Int_Tables_number   1
_chemical_formula_structural   VTc2O9
_chemical_formula_sum   'V2 Tc4 O18'
_cell_volume   401.92445028
_cell_formula_units_Z   2
loop_
 _symmetry_equiv_pos_site_id
 _symmetry_equiv_pos_as_xyz
  1  'x, y, z'
loop_
 _atom_site_type_symbol
 _atom_site_label
 _atom_site_symmetry_multiplicity
 _atom_site_fract_x
 _atom_site_fract_y
 _atom_site_fract_z
 _atom_site_occupancy
  V  V0  1  0.880134  0.119866  0.781458  1
  V  V1  1  0.119866  0.880134  0.281458  1
  Tc  Tc2  1  0.516461  0.483539  0.688977  1
  Tc  Tc3  1  0.483539  0.516461  0.188977  1
  Tc  Tc4  1  0.227970  0.772030  0.870624  1
  Tc  Tc5  1  0.772030  0.227970  0.370624  1
  O  O6  1  0.930617  0.069383  0.935611  1
  O  O7  1  0.069383  0.930617  0.435611  1
  O  O8  1  0.572145  0.427855  0.851089  1
  O  O9  1  0.427855  0.572145  0.351089  1
  O  O10  1  0.590625  0.409375  0.548585  1
  O  O11  1  0.409375  0.590625  0.048585  1
  O  O12  1  0.964762  0.540353  0.326384  1
  O  O13  1  0.035238  0.459647  0.826384  1
  O  O14  1  0.459647  0.035238  0.326384  1
  O  O15  1  0.540353  0.964762  0.826384  1
  O  O16  1  0.802209  0.197791  0.553525  1
  O  O17  1  0.197791  0.802209  0.053525  1
  O  O18  1  0.864245  0.135755  0.265848  1
  O  O19  1  0.135755  0.864245  0.765848  1
  O  O20  1  0.802066  0.700932  0.177242  1
  O  O21  1  0.197934  0.299068  0.677242  1
  O  O22  1  0.299068  0.197934  0.177242  1
  O  O23  1  0.700932  0.802066  0.677242  1
