# generated using pymatgen
data_LaInAg4
_symmetry_space_group_name_H-M   'P 1'
_cell_length_a   5.70172638
_cell_length_b   5.70172684
_cell_length_c   5.70172700
_cell_angle_alpha   60.00000489
_cell_angle_beta   60.00000220
_cell_angle_gamma   60.00001085
_symmetry_Int_Tables_number   1
_chemical_formula_structural   LaInAg4
_chemical_formula_sum   'La1 In1 Ag4'
_cell_volume   131.07028986
_cell_formula_units_Z   1
loop_
 _symmetry_equiv_pos_site_id
 _symmetry_equiv_pos_as_xyz
  1  'x, y, z'
loop_
 _atom_site_type_symbol
 _atom_site_label
 _atom_site_symmetry_multiplicity
 _atom_site_fract_x
 _atom_site_fract_y
 _atom_site_fract_z
 _atom_site_occupancy
  La  La0  1  0.000000  0.000000  0.000000  1
  In  In1  1  0.250000  0.250000  0.250000  1
  Ag  Ag2  1  0.624772  0.624772  0.125682  1
  Ag  Ag3  1  0.125682  0.624772  0.624772  1
  Ag  Ag4  1  0.624772  0.125682  0.624772  1
  Ag  Ag5  1  0.624772  0.624772  0.624772  1
