# generated using pymatgen
data_Tb3Sc3MnBiSb
_symmetry_space_group_name_H-M   'P 1'
_cell_length_a   7.88287000
_cell_length_b   7.88286978
_cell_length_c   4.27964500
_cell_angle_alpha   90.00000000
_cell_angle_beta   90.00000000
_cell_angle_gamma   119.99999252
_symmetry_Int_Tables_number   1
_chemical_formula_structural   Tb3Sc3MnBiSb
_chemical_formula_sum   'Tb3 Sc3 Mn1 Bi1 Sb1'
_cell_volume   230.30699393
_cell_formula_units_Z   1
loop_
 _symmetry_equiv_pos_site_id
 _symmetry_equiv_pos_as_xyz
  1  'x, y, z'
loop_
 _atom_site_type_symbol
 _atom_site_label
 _atom_site_symmetry_multiplicity
 _atom_site_fract_x
 _atom_site_fract_y
 _atom_site_fract_z
 _atom_site_occupancy
  Tb  Tb0  1  0.608933  0.005591  0.000000  1
  Tb  Tb1  1  0.994409  0.603342  0.000000  1
  Tb  Tb2  1  0.396658  0.391067  0.000000  1
  Sc  Sc3  1  0.225824  0.002445  0.500000  1
  Sc  Sc4  1  0.997555  0.223380  0.500000  1
  Sc  Sc5  1  0.776620  0.774176  0.500000  1
  Mn  Mn6  1  0.000000  0.000000  0.000000  1
  Bi  Bi7  1  0.333333  0.666667  0.500000  1
  Sb  Sb8  1  0.666667  0.333333  0.500000  1
