# generated using pymatgen
data_Sr2CaPt2
_symmetry_space_group_name_H-M   'P 1'
_cell_length_a   7.94947323
_cell_length_b   7.94947352
_cell_length_c   7.94947436
_cell_angle_alpha   70.74457463
_cell_angle_beta   70.74458430
_cell_angle_gamma   70.74457823
_symmetry_Int_Tables_number   1
_chemical_formula_structural   Sr2CaPt2
_chemical_formula_sum   'Sr6 Ca3 Pt6'
_cell_volume   433.73953174
_cell_formula_units_Z   3
loop_
 _symmetry_equiv_pos_site_id
 _symmetry_equiv_pos_as_xyz
  1  'x, y, z'
loop_
 _atom_site_type_symbol
 _atom_site_label
 _atom_site_symmetry_multiplicity
 _atom_site_fract_x
 _atom_site_fract_y
 _atom_site_fract_z
 _atom_site_occupancy
  Sr  Sr0  1  0.330246  0.607556  0.846152  1
  Sr  Sr1  1  0.846152  0.330246  0.607556  1
  Sr  Sr2  1  0.607556  0.846152  0.330246  1
  Sr  Sr3  1  0.669754  0.392444  0.153848  1
  Sr  Sr4  1  0.153848  0.669754  0.392444  1
  Sr  Sr5  1  0.392444  0.153848  0.669754  1
  Ca  Ca6  1  0.000000  0.000000  0.000000  1
  Ca  Ca7  1  0.803612  0.803612  0.803612  1
  Ca  Ca8  1  0.196388  0.196388  0.196388  1
  Pt  Pt9  1  0.144856  0.963597  0.587265  1
  Pt  Pt10  1  0.587265  0.144856  0.963597  1
  Pt  Pt11  1  0.963597  0.587265  0.144856  1
  Pt  Pt12  1  0.855144  0.036403  0.412735  1
  Pt  Pt13  1  0.412735  0.855144  0.036403  1
  Pt  Pt14  1  0.036403  0.412735  0.855144  1
