# generated using pymatgen
data_Sm5(RhO6)2
_symmetry_space_group_name_H-M   'P 1'
_cell_length_a   6.98504800
_cell_length_b   6.98504915
_cell_length_c   7.46312101
_cell_angle_alpha   74.56580550
_cell_angle_beta   74.56580659
_cell_angle_gamma   51.20439133
_symmetry_Int_Tables_number   1
_chemical_formula_structural   Sm5(RhO6)2
_chemical_formula_sum   'Sm5 Rh2 O12'
_cell_volume   271.16053449
_cell_formula_units_Z   1
loop_
 _symmetry_equiv_pos_site_id
 _symmetry_equiv_pos_as_xyz
  1  'x, y, z'
loop_
 _atom_site_type_symbol
 _atom_site_label
 _atom_site_symmetry_multiplicity
 _atom_site_fract_x
 _atom_site_fract_y
 _atom_site_fract_z
 _atom_site_occupancy
  Sm  Sm0  1  0.304196  0.304196  0.358975  1
  Sm  Sm1  1  0.695804  0.695804  0.641025  1
  Sm  Sm2  1  0.692140  0.692140  0.167899  1
  Sm  Sm3  1  0.307860  0.307860  0.832101  1
  Sm  Sm4  1  0.000000  0.000000  0.500000  1
  Rh  Rh5  1  0.754134  0.245866  0.000000  1
  Rh  Rh6  1  0.245866  0.754134  0.000000  1
  O  O7  1  0.095648  0.597642  0.576021  1
  O  O8  1  0.999103  0.999103  0.178093  1
  O  O9  1  0.402358  0.904352  0.423979  1
  O  O10  1  0.500118  0.500118  0.182889  1
  O  O11  1  0.099417  0.573629  0.081592  1
  O  O12  1  0.904352  0.402358  0.423979  1
  O  O13  1  0.000897  0.000897  0.821907  1
  O  O14  1  0.597642  0.095647  0.576021  1
  O  O15  1  0.499882  0.499882  0.817111  1
  O  O16  1  0.573629  0.099417  0.081592  1
  O  O17  1  0.426371  0.900583  0.918408  1
  O  O18  1  0.900583  0.426371  0.918408  1
