# generated using pymatgen
data_TbDyZr2(Al3Rh)6
_symmetry_space_group_name_H-M   'P 1'
_cell_length_a   7.52419203
_cell_length_b   7.50214682
_cell_length_c   9.36474800
_cell_angle_alpha   90.00000000
_cell_angle_beta   90.00000000
_cell_angle_gamma   119.68723965
_symmetry_Int_Tables_number   1
_chemical_formula_structural   TbDyZr2(Al3Rh)6
_chemical_formula_sum   'Tb1 Dy1 Zr2 Al18 Rh6'
_cell_volume   459.23212627
_cell_formula_units_Z   1
loop_
 _symmetry_equiv_pos_site_id
 _symmetry_equiv_pos_as_xyz
  1  'x, y, z'
loop_
 _atom_site_type_symbol
 _atom_site_label
 _atom_site_symmetry_multiplicity
 _atom_site_fract_x
 _atom_site_fract_y
 _atom_site_fract_z
 _atom_site_occupancy
  Tb  Tb0  1  0.670252  0.994053  0.750000  1
  Dy  Dy1  1  0.329699  0.005917  0.250000  1
  Zr  Zr2  1  0.994719  0.670681  0.750000  1
  Zr  Zr3  1  0.005319  0.329327  0.250000  1
  Al  Al4  1  0.124690  0.122867  0.750000  1
  Al  Al5  1  0.875499  0.877199  0.250000  1
  Al  Al6  1  0.999526  0.337545  0.574547  1
  Al  Al7  1  0.000609  0.662591  0.425334  1
  Al  Al8  1  0.000609  0.662591  0.074666  1
  Al  Al9  1  0.331498  0.997842  0.921631  1
  Al  Al10  1  0.999526  0.337545  0.925453  1
  Al  Al11  1  0.668369  0.002168  0.078603  1
  Al  Al12  1  0.668369  0.002168  0.421397  1
  Al  Al13  1  0.331498  0.997842  0.578369  1
  Al  Al14  1  0.330881  0.333472  0.055313  1
  Al  Al15  1  0.669125  0.666410  0.944816  1
  Al  Al16  1  0.669125  0.666410  0.555184  1
  Al  Al17  1  0.330881  0.333472  0.444687  1
  Al  Al18  1  0.333280  0.548353  0.750000  1
  Al  Al19  1  0.666578  0.451458  0.250000  1
  Al  Al20  1  0.555876  0.344453  0.750000  1
  Al  Al21  1  0.444058  0.655631  0.250000  1
  Rh  Rh22  1  0.672214  0.327612  0.499313  1
  Rh  Rh23  1  0.327712  0.672367  0.500558  1
  Rh  Rh24  1  0.327712  0.672367  0.999442  1
  Rh  Rh25  1  0.672214  0.327612  0.000687  1
  Rh  Rh26  1  0.000080  0.000023  0.499939  1
  Rh  Rh27  1  0.000080  0.000023  0.000061  1
