# generated using pymatgen
data_Pr8ErLuPb8
_symmetry_space_group_name_H-M   'P 1'
_cell_length_a   8.40452100
_cell_length_b   8.52220400
_cell_length_c   16.26206000
_cell_angle_alpha   90.00000000
_cell_angle_beta   90.00000000
_cell_angle_gamma   90.00000000
_symmetry_Int_Tables_number   1
_chemical_formula_structural   Pr8ErLuPb8
_chemical_formula_sum   'Pr16 Er2 Lu2 Pb16'
_cell_volume   1164.77073838
_cell_formula_units_Z   2
loop_
 _symmetry_equiv_pos_site_id
 _symmetry_equiv_pos_as_xyz
  1  'x, y, z'
loop_
 _atom_site_type_symbol
 _atom_site_label
 _atom_site_symmetry_multiplicity
 _atom_site_fract_x
 _atom_site_fract_y
 _atom_site_fract_z
 _atom_site_occupancy
  Pr  Pr0  1  0.468729  0.822628  0.400057  1
  Pr  Pr1  1  0.031271  0.322628  0.900057  1
  Pr  Pr2  1  0.031271  0.322628  0.599943  1
  Pr  Pr3  1  0.875483  0.840953  0.880282  1
  Pr  Pr4  1  0.468729  0.822628  0.099943  1
  Pr  Pr5  1  0.376589  0.658147  0.879966  1
  Pr  Pr6  1  0.624517  0.340953  0.119718  1
  Pr  Pr7  1  0.624517  0.340953  0.380282  1
  Pr  Pr8  1  0.531931  0.178388  0.599596  1
  Pr  Pr9  1  0.376589  0.658147  0.620034  1
  Pr  Pr10  1  0.531931  0.178388  0.900404  1
  Pr  Pr11  1  0.968069  0.678388  0.400404  1
  Pr  Pr12  1  0.968069  0.678388  0.099596  1
  Pr  Pr13  1  0.123411  0.158147  0.120034  1
  Pr  Pr14  1  0.875483  0.840953  0.619718  1
  Pr  Pr15  1  0.123411  0.158147  0.379966  1
  Er  Er16  1  0.292786  0.497022  0.250000  1
  Er  Er17  1  0.207214  0.997022  0.750000  1
  Lu  Lu18  1  0.791867  0.003625  0.250000  1
  Lu  Lu19  1  0.708133  0.503625  0.750000  1
  Pb  Pb20  1  0.841568  0.154320  0.750000  1
  Pb  Pb21  1  0.717046  0.531126  0.546018  1
  Pb  Pb22  1  0.930151  0.376249  0.250000  1
  Pb  Pb23  1  0.217111  0.968190  0.954295  1
  Pb  Pb24  1  0.282889  0.468190  0.045705  1
  Pb  Pb25  1  0.569849  0.876249  0.750000  1
  Pb  Pb26  1  0.342032  0.345933  0.750000  1
  Pb  Pb27  1  0.069093  0.623991  0.750000  1
  Pb  Pb28  1  0.782954  0.031126  0.453982  1
  Pb  Pb29  1  0.282889  0.468190  0.454295  1
  Pb  Pb30  1  0.157968  0.845933  0.250000  1
  Pb  Pb31  1  0.217111  0.968190  0.545705  1
  Pb  Pb32  1  0.782954  0.031126  0.046018  1
  Pb  Pb33  1  0.658432  0.654320  0.250000  1
  Pb  Pb34  1  0.717046  0.531126  0.953982  1
  Pb  Pb35  1  0.430907  0.123991  0.250000  1
