# generated using pymatgen
data_Rb2(CuSe)5
_symmetry_space_group_name_H-M   'P 1'
_cell_length_a   9.66915990
_cell_length_b   9.66915915
_cell_length_c   9.66915864
_cell_angle_alpha   126.19122250
_cell_angle_beta   126.19122477
_cell_angle_gamma   79.57407617
_symmetry_Int_Tables_number   1
_chemical_formula_structural   Rb2(CuSe)5
_chemical_formula_sum   'Rb4 Cu10 Se10'
_cell_volume   568.94781020
_cell_formula_units_Z   2
loop_
 _symmetry_equiv_pos_site_id
 _symmetry_equiv_pos_as_xyz
  1  'x, y, z'
loop_
 _atom_site_type_symbol
 _atom_site_label
 _atom_site_symmetry_multiplicity
 _atom_site_fract_x
 _atom_site_fract_y
 _atom_site_fract_z
 _atom_site_occupancy
  Rb  Rb0  1  0.379517  0.807117  0.186635  1
  Rb  Rb1  1  0.807117  0.620483  0.427599  1
  Rb  Rb2  1  0.192883  0.379517  0.572401  1
  Rb  Rb3  1  0.620483  0.192883  0.813365  1
  Cu  Cu4  1  0.948664  0.648918  0.099262  1
  Cu  Cu5  1  0.351082  0.450344  0.299746  1
  Cu  Cu6  1  0.750000  0.250000  0.500000  1
  Cu  Cu7  1  0.150599  0.051336  0.700254  1
  Cu  Cu8  1  0.549656  0.849401  0.900738  1
  Cu  Cu9  1  0.648918  0.549656  0.700254  1
  Cu  Cu10  1  0.051336  0.351082  0.900738  1
  Cu  Cu11  1  0.450344  0.150599  0.099262  1
  Cu  Cu12  1  0.849401  0.948664  0.299746  1
  Cu  Cu13  1  0.250000  0.750000  0.500000  1
  Se  Se14  1  0.948721  0.550632  0.799236  1
  Se  Se15  1  0.352963  0.352963  0.000000  1
  Se  Se16  1  0.751395  0.149485  0.200764  1
  Se  Se17  1  0.149485  0.948721  0.398089  1
  Se  Se18  1  0.550632  0.751395  0.601911  1
  Se  Se19  1  0.647037  0.647037  0.000000  1
  Se  Se20  1  0.051279  0.449368  0.200764  1
  Se  Se21  1  0.449368  0.248605  0.398089  1
  Se  Se22  1  0.850515  0.051279  0.601911  1
  Se  Se23  1  0.248605  0.850515  0.799236  1
