# generated using pymatgen
data_Hf4TiSi4Mo2W
_symmetry_space_group_name_H-M   'P 1'
_cell_length_a   3.52050000
_cell_length_b   6.94258085
_cell_length_c   8.24720891
_cell_angle_alpha   90.32884279
_cell_angle_beta   90.00000000
_cell_angle_gamma   90.00000000
_symmetry_Int_Tables_number   1
_chemical_formula_structural   Hf4TiSi4Mo2W
_chemical_formula_sum   'Hf4 Ti1 Si4 Mo2 W1'
_cell_volume   201.56964793
_cell_formula_units_Z   1
loop_
 _symmetry_equiv_pos_site_id
 _symmetry_equiv_pos_as_xyz
  1  'x, y, z'
loop_
 _atom_site_type_symbol
 _atom_site_label
 _atom_site_symmetry_multiplicity
 _atom_site_fract_x
 _atom_site_fract_y
 _atom_site_fract_z
 _atom_site_occupancy
  Hf  Hf0  1  0.250000  0.544668  0.166358  1
  Hf  Hf1  1  0.250000  0.043660  0.335167  1
  Hf  Hf2  1  0.750000  0.456057  0.834077  1
  Hf  Hf3  1  0.750000  0.961384  0.669797  1
  Ti  Ti4  1  0.250000  0.627337  0.560622  1
  Si  Si5  1  0.250000  0.756600  0.860085  1
  Si  Si6  1  0.250000  0.256000  0.636683  1
  Si  Si7  1  0.750000  0.242563  0.139160  1
  Si  Si8  1  0.750000  0.743477  0.360732  1
  Mo  Mo9  1  0.750000  0.366891  0.438662  1
  Mo  Mo10  1  0.750000  0.868441  0.060798  1
  W  W11  1  0.250000  0.132921  0.937860  1
