# generated using pymatgen
data_Ti5Nb3Si2Sb4Pd
_symmetry_space_group_name_H-M   'P 1'
_cell_length_a   5.00671007
_cell_length_b   7.78586390
_cell_length_c   7.80259501
_cell_angle_alpha   95.55050932
_cell_angle_beta   108.57409805
_cell_angle_gamma   71.24063775
_symmetry_Int_Tables_number   1
_chemical_formula_structural   Ti5Nb3Si2Sb4Pd
_chemical_formula_sum   'Ti5 Nb3 Si2 Sb4 Pd1'
_cell_volume   272.99306020
_cell_formula_units_Z   1
loop_
 _symmetry_equiv_pos_site_id
 _symmetry_equiv_pos_as_xyz
  1  'x, y, z'
loop_
 _atom_site_type_symbol
 _atom_site_label
 _atom_site_symmetry_multiplicity
 _atom_site_fract_x
 _atom_site_fract_y
 _atom_site_fract_z
 _atom_site_occupancy
  Ti  Ti0  1  0.413983  0.876375  0.714572  1
  Ti  Ti1  1  0.573751  0.123045  0.285141  1
  Ti  Ti2  1  0.925146  0.284218  0.122830  1
  Ti  Ti3  1  0.083387  0.715132  0.874388  1
  Ti  Ti4  1  0.712827  0.715615  0.126660  1
  Nb  Nb5  1  0.300609  0.285806  0.875568  1
  Nb  Nb6  1  0.788684  0.125314  0.715922  1
  Nb  Nb7  1  0.197825  0.875524  0.283245  1
  Si  Si8  1  0.252417  0.997573  0.000290  1
  Si  Si9  1  0.749021  0.997279  0.000537  1
  Sb  Sb10  1  0.386609  0.497933  0.198527  1
  Sb  Sb11  1  0.678616  0.505950  0.804931  1
  Sb  Sb12  1  0.818304  0.802078  0.500539  1
  Sb  Sb13  1  0.116796  0.198495  0.496393  1
  Pd  Pd14  1  0.252026  0.499662  0.500460  1
