# generated using pymatgen
data_NaCaEr2CuSe5
_symmetry_space_group_name_H-M   'P 1'
_cell_length_a   4.05989900
_cell_length_b   7.20932652
_cell_length_c   17.80759300
_cell_angle_alpha   90.00000000
_cell_angle_beta   90.00000000
_cell_angle_gamma   73.64589705
_symmetry_Int_Tables_number   1
_chemical_formula_structural   NaCaEr2CuSe5
_chemical_formula_sum   'Na2 Ca2 Er4 Cu2 Se10'
_cell_volume   500.12453059
_cell_formula_units_Z   2
loop_
 _symmetry_equiv_pos_site_id
 _symmetry_equiv_pos_as_xyz
  1  'x, y, z'
loop_
 _atom_site_type_symbol
 _atom_site_label
 _atom_site_symmetry_multiplicity
 _atom_site_fract_x
 _atom_site_fract_y
 _atom_site_fract_z
 _atom_site_occupancy
  Na  Na0  1  0.518866  0.962270  0.250000  1
  Na  Na1  1  0.481135  0.037730  0.750000  1
  Ca  Ca2  1  0.000000  0.000000  0.000000  1
  Ca  Ca3  1  0.000000  0.000000  0.500000  1
  Er  Er4  1  0.272452  0.455095  0.105321  1
  Er  Er5  1  0.272452  0.455095  0.394679  1
  Er  Er6  1  0.727549  0.544905  0.605321  1
  Er  Er7  1  0.727549  0.544905  0.894680  1
  Cu  Cu8  1  0.790976  0.418051  0.250000  1
  Cu  Cu9  1  0.209025  0.581948  0.750000  1
  Se  Se10  1  0.643716  0.712572  0.046909  1
  Se  Se11  1  0.904584  0.190833  0.144035  1
  Se  Se12  1  0.187053  0.625893  0.250000  1
  Se  Se13  1  0.904584  0.190833  0.355965  1
  Se  Se14  1  0.643716  0.712572  0.453092  1
  Se  Se15  1  0.356285  0.287428  0.546908  1
  Se  Se16  1  0.095416  0.809167  0.644035  1
  Se  Se17  1  0.812948  0.374107  0.750000  1
  Se  Se18  1  0.095416  0.809167  0.855965  1
  Se  Se19  1  0.356285  0.287428  0.953092  1
