# generated using pymatgen
data_Ta12Al9Tc3C4
_symmetry_space_group_name_H-M   'P 1'
_cell_length_a   8.32614168
_cell_length_b   8.32614187
_cell_length_c   8.32614120
_cell_angle_alpha   60.16884562
_cell_angle_beta   60.16884178
_cell_angle_gamma   60.16884278
_symmetry_Int_Tables_number   1
_chemical_formula_structural   Ta12Al9Tc3C4
_chemical_formula_sum   'Ta12 Al9 Tc3 C4'
_cell_volume   409.70753844
_cell_formula_units_Z   1
loop_
 _symmetry_equiv_pos_site_id
 _symmetry_equiv_pos_as_xyz
  1  'x, y, z'
loop_
 _atom_site_type_symbol
 _atom_site_label
 _atom_site_symmetry_multiplicity
 _atom_site_fract_x
 _atom_site_fract_y
 _atom_site_fract_z
 _atom_site_occupancy
  Ta  Ta0  1  0.190053  0.809671  0.190053  1
  Ta  Ta1  1  0.809337  0.188257  0.809337  1
  Ta  Ta2  1  0.059947  0.440329  0.059947  1
  Ta  Ta3  1  0.061743  0.440663  0.440663  1
  Ta  Ta4  1  0.440329  0.059947  0.059947  1
  Ta  Ta5  1  0.440663  0.061743  0.440663  1
  Ta  Ta6  1  0.809337  0.809337  0.188257  1
  Ta  Ta7  1  0.059947  0.059947  0.440329  1
  Ta  Ta8  1  0.190053  0.190053  0.809671  1
  Ta  Ta9  1  0.188257  0.809337  0.809337  1
  Ta  Ta10  1  0.440663  0.440663  0.061743  1
  Ta  Ta11  1  0.809671  0.190053  0.190053  1
  Al  Al12  1  0.625000  0.625000  0.625000  1
  Al  Al13  1  0.837609  0.837609  0.495367  1
  Al  Al14  1  0.495367  0.837609  0.837609  1
  Al  Al15  1  0.412391  0.754633  0.412391  1
  Al  Al16  1  0.754633  0.412391  0.412391  1
  Al  Al17  1  0.415645  0.415645  0.415645  1
  Al  Al18  1  0.412391  0.412391  0.754633  1
  Al  Al19  1  0.837609  0.495367  0.837609  1
  Al  Al20  1  0.834355  0.834355  0.834355  1
  Tc  Tc21  1  0.125000  0.625000  0.625000  1
  Tc  Tc22  1  0.625000  0.625000  0.125000  1
  Tc  Tc23  1  0.625000  0.125000  0.625000  1
  C  C24  1  0.125000  0.125000  0.125000  1
  C  C25  1  0.125000  0.125000  0.625000  1
  C  C26  1  0.625000  0.125000  0.125000  1
  C  C27  1  0.125000  0.625000  0.125000  1
