# generated using pymatgen
data_Er10Cd2NiHg
_symmetry_space_group_name_H-M   'P 1'
_cell_length_a   9.55913503
_cell_length_b   9.54580540
_cell_length_c   9.53397600
_cell_angle_alpha   90.00000000
_cell_angle_beta   90.00000000
_cell_angle_gamma   119.95387706
_symmetry_Int_Tables_number   1
_chemical_formula_structural   Er10Cd2NiHg
_chemical_formula_sum   'Er20 Cd4 Ni2 Hg2'
_cell_volume   753.76768790
_cell_formula_units_Z   2
loop_
 _symmetry_equiv_pos_site_id
 _symmetry_equiv_pos_as_xyz
  1  'x, y, z'
loop_
 _atom_site_type_symbol
 _atom_site_label
 _atom_site_symmetry_multiplicity
 _atom_site_fract_x
 _atom_site_fract_y
 _atom_site_fract_z
 _atom_site_occupancy
  Er  Er0  1  0.996928  0.998464  0.493785  1
  Er  Er1  1  0.996928  0.998464  0.006215  1
  Er  Er2  1  0.546569  0.458818  0.250000  1
  Er  Er3  1  0.546569  0.087752  0.250000  1
  Er  Er4  1  0.912766  0.456383  0.250000  1
  Er  Er5  1  0.455826  0.543556  0.750000  1
  Er  Er6  1  0.455826  0.912271  0.750000  1
  Er  Er7  1  0.088868  0.544434  0.750000  1
  Er  Er8  1  0.210677  0.790221  0.436891  1
  Er  Er9  1  0.210677  0.420458  0.436891  1
  Er  Er10  1  0.578963  0.789482  0.436830  1
  Er  Er11  1  0.789846  0.210682  0.563218  1
  Er  Er12  1  0.789846  0.579163  0.563218  1
  Er  Er13  1  0.420701  0.210350  0.562701  1
  Er  Er14  1  0.789846  0.210682  0.936782  1
  Er  Er15  1  0.789846  0.579163  0.936782  1
  Er  Er16  1  0.420701  0.210350  0.937299  1
  Er  Er17  1  0.210677  0.790221  0.063109  1
  Er  Er18  1  0.210677  0.420458  0.063109  1
  Er  Er19  1  0.578963  0.789482  0.063170  1
  Cd  Cd20  1  0.236702  0.118351  0.250000  1
  Cd  Cd21  1  0.113891  0.885256  0.750000  1
  Cd  Cd22  1  0.113891  0.228636  0.750000  1
  Cd  Cd23  1  0.770198  0.885099  0.750000  1
  Ni  Ni24  1  0.333617  0.666809  0.250000  1
  Ni  Ni25  1  0.666168  0.333083  0.750000  1
  Hg  Hg26  1  0.881916  0.121756  0.250000  1
  Hg  Hg27  1  0.881916  0.760160  0.250000  1
