# generated using pymatgen
data_Hf7ZrTc4
_symmetry_space_group_name_H-M   'P 1'
_cell_length_a   14.44656700
_cell_length_b   3.34772500
_cell_length_c   4.78474800
_cell_angle_alpha   90.00000000
_cell_angle_beta   90.00000000
_cell_angle_gamma   90.00000000
_symmetry_Int_Tables_number   1
_chemical_formula_structural   Hf7ZrTc4
_chemical_formula_sum   'Hf7 Zr1 Tc4'
_cell_volume   231.40540634
_cell_formula_units_Z   1
loop_
 _symmetry_equiv_pos_site_id
 _symmetry_equiv_pos_as_xyz
  1  'x, y, z'
loop_
 _atom_site_type_symbol
 _atom_site_label
 _atom_site_symmetry_multiplicity
 _atom_site_fract_x
 _atom_site_fract_y
 _atom_site_fract_z
 _atom_site_occupancy
  Hf  Hf0  1  0.298827  0.000000  0.000000  1
  Hf  Hf1  1  0.996778  0.000000  0.000000  1
  Hf  Hf2  1  0.496035  0.499999  0.000000  1
  Hf  Hf3  1  0.797359  0.499999  0.000000  1
  Hf  Hf4  1  0.146714  0.000000  0.499999  1
  Hf  Hf5  1  0.448385  0.000000  0.499999  1
  Hf  Hf6  1  0.645604  0.499999  0.499999  1
  Zr  Zr7  1  0.949390  0.499999  0.499999  1
  Tc  Tc8  1  0.641919  0.000000  0.000000  1
  Tc  Tc9  1  0.142760  0.499999  0.000000  1
  Tc  Tc10  1  0.800657  0.000000  0.499999  1
  Tc  Tc11  1  0.302213  0.499999  0.499999  1
