# generated using pymatgen
data_PrDy(AuBr6)2
_symmetry_space_group_name_H-M   'P 1'
_cell_length_a   8.28288705
_cell_length_b   10.56354411
_cell_length_c   15.05166794
_cell_angle_alpha   103.11019831
_cell_angle_beta   96.66990428
_cell_angle_gamma   112.50251072
_symmetry_Int_Tables_number   1
_chemical_formula_structural   PrDy(AuBr6)2
_chemical_formula_sum   'Pr2 Dy2 Au4 Br24'
_cell_volume   1154.44780102
_cell_formula_units_Z   2
loop_
 _symmetry_equiv_pos_site_id
 _symmetry_equiv_pos_as_xyz
  1  'x, y, z'
loop_
 _atom_site_type_symbol
 _atom_site_label
 _atom_site_symmetry_multiplicity
 _atom_site_fract_x
 _atom_site_fract_y
 _atom_site_fract_z
 _atom_site_occupancy
  Pr  Pr0  1  0.975643  0.311926  0.868711  1
  Pr  Pr1  1  0.024357  0.688074  0.131289  1
  Dy  Dy2  1  0.578945  0.922747  0.619688  1
  Dy  Dy3  1  0.421055  0.077253  0.380312  1
  Au  Au4  1  0.295846  0.633690  0.759528  1
  Au  Au5  1  0.704154  0.366310  0.240472  1
  Au  Au6  1  0.500000  0.500000  0.500000  1
  Au  Au7  1  0.000000  0.000000  0.000000  1
  Br  Br8  1  0.612047  0.739366  0.745808  1
  Br  Br9  1  0.387953  0.260634  0.254192  1
  Br  Br10  1  0.279296  0.849814  0.730202  1
  Br  Br11  1  0.720704  0.150186  0.269798  1
  Br  Br12  1  0.977051  0.536445  0.770512  1
  Br  Br13  1  0.022949  0.463555  0.229488  1
  Br  Br14  1  0.315065  0.414092  0.783594  1
  Br  Br15  1  0.684935  0.585908  0.216406  1
  Br  Br16  1  0.687294  0.364314  0.503389  1
  Br  Br17  1  0.312706  0.635686  0.496611  1
  Br  Br18  1  0.763035  0.731159  0.526994  1
  Br  Br19  1  0.236965  0.268841  0.473006  1
  Br  Br20  1  0.785844  0.108666  0.978483  1
  Br  Br21  1  0.214156  0.891334  0.021517  1
  Br  Br22  1  0.765164  0.794185  0.031208  1
  Br  Br23  1  0.234836  0.205815  0.968792  1
  Br  Br24  1  0.612673  0.185824  0.738206  1
  Br  Br25  1  0.387327  0.814176  0.261794  1
  Br  Br26  1  0.944260  0.049912  0.723252  1
  Br  Br27  1  0.055740  0.950088  0.276748  1
  Br  Br28  1  0.723630  0.049845  0.483833  1
  Br  Br29  1  0.276370  0.950155  0.516167  1
  Br  Br30  1  0.757654  0.433711  0.974924  1
  Br  Br31  1  0.242346  0.566289  0.025076  1
