# generated using pymatgen
data_KCaTm2CuSe5
_symmetry_space_group_name_H-M   'P 1'
_cell_length_a   4.09214000
_cell_length_b   7.39834194
_cell_length_c   17.82002800
_cell_angle_alpha   90.00000000
_cell_angle_beta   90.00000000
_cell_angle_gamma   73.94511486
_symmetry_Int_Tables_number   1
_chemical_formula_structural   KCaTm2CuSe5
_chemical_formula_sum   'K2 Ca2 Tm4 Cu2 Se10'
_cell_volume   518.46016577
_cell_formula_units_Z   2
loop_
 _symmetry_equiv_pos_site_id
 _symmetry_equiv_pos_as_xyz
  1  'x, y, z'
loop_
 _atom_site_type_symbol
 _atom_site_label
 _atom_site_symmetry_multiplicity
 _atom_site_fract_x
 _atom_site_fract_y
 _atom_site_fract_z
 _atom_site_occupancy
  K  K0  1  0.522351  0.955302  0.250000  1
  K  K1  1  0.477650  0.044698  0.750000  1
  Ca  Ca2  1  0.000000  0.000000  0.000000  1
  Ca  Ca3  1  0.000000  0.000000  0.500000  1
  Tm  Tm4  1  0.270546  0.458907  0.103131  1
  Tm  Tm5  1  0.270546  0.458907  0.396869  1
  Tm  Tm6  1  0.729455  0.541093  0.603131  1
  Tm  Tm7  1  0.729455  0.541093  0.896870  1
  Cu  Cu8  1  0.796414  0.407174  0.250000  1
  Cu  Cu9  1  0.203587  0.592825  0.750000  1
  Se  Se10  1  0.643672  0.712658  0.047528  1
  Se  Se11  1  0.897609  0.204785  0.138472  1
  Se  Se12  1  0.198679  0.602642  0.250000  1
  Se  Se13  1  0.897609  0.204785  0.361528  1
  Se  Se14  1  0.643672  0.712658  0.452473  1
  Se  Se15  1  0.356329  0.287342  0.547527  1
  Se  Se16  1  0.102391  0.795215  0.638472  1
  Se  Se17  1  0.801322  0.397358  0.750000  1
  Se  Se18  1  0.102391  0.795215  0.861528  1
  Se  Se19  1  0.356329  0.287342  0.952473  1
