# generated using pymatgen
data_TbHo3(FeOs)4
_symmetry_space_group_name_H-M   'P 1'
_cell_length_a   5.26726727
_cell_length_b   5.26451003
_cell_length_c   9.06152330
_cell_angle_alpha   73.11288705
_cell_angle_beta   90.48826656
_cell_angle_gamma   119.98268080
_symmetry_Int_Tables_number   1
_chemical_formula_structural   TbHo3(FeOs)4
_chemical_formula_sum   'Tb1 Ho3 Fe4 Os4'
_cell_volume   205.41111937
_cell_formula_units_Z   1
loop_
 _symmetry_equiv_pos_site_id
 _symmetry_equiv_pos_as_xyz
  1  'x, y, z'
loop_
 _atom_site_type_symbol
 _atom_site_label
 _atom_site_symmetry_multiplicity
 _atom_site_fract_x
 _atom_site_fract_y
 _atom_site_fract_z
 _atom_site_occupancy
  Tb  Tb0  1  0.876758  0.750962  0.374833  1
  Ho  Ho1  1  0.376959  0.751221  0.874517  1
  Ho  Ho2  1  0.998172  0.999071  0.000031  1
  Ho  Ho3  1  0.497940  0.998621  0.500698  1
  Fe  Fe4  1  0.187424  0.374748  0.437930  1
  Fe  Fe5  1  0.687633  0.375216  0.937202  1
  Fe  Fe6  1  0.937885  0.375681  0.186522  1
  Fe  Fe7  1  0.436963  0.374281  0.688401  1
  Os  Os8  1  0.437596  0.375666  0.186597  1
  Os  Os9  1  0.937536  0.374448  0.688337  1
  Os  Os10  1  0.437596  0.875334  0.186597  1
  Os  Os11  1  0.937536  0.874751  0.688337  1
