# generated using pymatgen
data_Li2Co2C
_symmetry_space_group_name_H-M   'P 1'
_cell_length_a   3.66960901
_cell_length_b   4.78632521
_cell_length_c   3.66925153
_cell_angle_alpha   112.47861482
_cell_angle_beta   90.01053747
_cell_angle_gamma   67.46904241
_symmetry_Int_Tables_number   1
_chemical_formula_structural   Li2Co2C
_chemical_formula_sum   'Li2 Co2 C1'
_cell_volume   54.19037397
_cell_formula_units_Z   1
loop_
 _symmetry_equiv_pos_site_id
 _symmetry_equiv_pos_as_xyz
  1  'x, y, z'
loop_
 _atom_site_type_symbol
 _atom_site_label
 _atom_site_symmetry_multiplicity
 _atom_site_fract_x
 _atom_site_fract_y
 _atom_site_fract_z
 _atom_site_occupancy
  Li  Li0  1  0.600757  0.788779  0.586715  1
  Li  Li1  1  0.070555  0.849718  0.117127  1
  Co  Co2  1  0.833277  0.319353  0.853603  1
  Co  Co3  1  0.333941  0.319358  0.354283  1
  C  C4  1  0.333289  0.319187  0.854408  1
