# generated using pymatgen
data_Tm20GaBi11
_symmetry_space_group_name_H-M   'P 1'
_cell_length_a   8.11996939
_cell_length_b   9.40114900
_cell_length_c   11.87402024
_cell_angle_alpha   90.00000000
_cell_angle_beta   89.67655969
_cell_angle_gamma   90.00000000
_symmetry_Int_Tables_number   1
_chemical_formula_structural   Tm20GaBi11
_chemical_formula_sum   'Tm20 Ga1 Bi11'
_cell_volume   906.41313997
_cell_formula_units_Z   1
loop_
 _symmetry_equiv_pos_site_id
 _symmetry_equiv_pos_as_xyz
  1  'x, y, z'
loop_
 _atom_site_type_symbol
 _atom_site_label
 _atom_site_symmetry_multiplicity
 _atom_site_fract_x
 _atom_site_fract_y
 _atom_site_fract_z
 _atom_site_occupancy
  Tm  Tm0  1  0.038567  0.250000  0.510180  1
  Tm  Tm1  1  0.978275  0.750000  0.489677  1
  Tm  Tm2  1  0.475106  0.750000  0.010834  1
  Tm  Tm3  1  0.525531  0.250000  0.988947  1
  Tm  Tm4  1  0.356482  0.250000  0.293872  1
  Tm  Tm5  1  0.646123  0.750000  0.716689  1
  Tm  Tm6  1  0.147417  0.750000  0.782819  1
  Tm  Tm7  1  0.854400  0.250000  0.216292  1
  Tm  Tm8  1  0.192395  0.250000  0.777237  1
  Tm  Tm9  1  0.810626  0.750000  0.217999  1
  Tm  Tm10  1  0.312621  0.750000  0.281158  1
  Tm  Tm11  1  0.674857  0.250000  0.710621  1
  Tm  Tm12  1  0.193815  0.065766  0.060479  1
  Tm  Tm13  1  0.806357  0.934718  0.940520  1
  Tm  Tm14  1  0.308582  0.949424  0.559352  1
  Tm  Tm15  1  0.806357  0.565282  0.940520  1
  Tm  Tm16  1  0.684300  0.072684  0.444705  1
  Tm  Tm17  1  0.193815  0.434234  0.060479  1
  Tm  Tm18  1  0.684300  0.427316  0.444705  1
  Tm  Tm19  1  0.308582  0.550576  0.559352  1
  Ga  Ga20  1  0.408903  0.250000  0.539866  1
  Bi  Bi21  1  0.593349  0.750000  0.457320  1
  Bi  Bi22  1  0.093765  0.750000  0.042714  1
  Bi  Bi23  1  0.907706  0.250000  0.954960  1
  Bi  Bi24  1  0.064312  0.002879  0.324653  1
  Bi  Bi25  1  0.934449  0.997407  0.674944  1
  Bi  Bi26  1  0.434779  0.996383  0.825350  1
  Bi  Bi27  1  0.934449  0.502593  0.674944  1
  Bi  Bi28  1  0.565344  0.004265  0.174403  1
  Bi  Bi29  1  0.064312  0.497121  0.324653  1
  Bi  Bi30  1  0.565344  0.495735  0.174403  1
  Bi  Bi31  1  0.434779  0.503617  0.825350  1
