# generated using pymatgen
data_Hf8PtRh3C2
_symmetry_space_group_name_H-M   'P 1'
_cell_length_a   8.75809713
_cell_length_b   8.75809694
_cell_length_c   8.77277500
_cell_angle_alpha   59.94454100
_cell_angle_beta   59.94454172
_cell_angle_gamma   59.88798744
_symmetry_Int_Tables_number   1
_chemical_formula_structural   Hf8PtRh3C2
_chemical_formula_sum   'Hf16 Pt2 Rh6 C4'
_cell_volume   475.01635247
_cell_formula_units_Z   2
loop_
 _symmetry_equiv_pos_site_id
 _symmetry_equiv_pos_as_xyz
  1  'x, y, z'
loop_
 _atom_site_type_symbol
 _atom_site_label
 _atom_site_symmetry_multiplicity
 _atom_site_fract_x
 _atom_site_fract_y
 _atom_site_fract_z
 _atom_site_occupancy
  Hf  Hf0  1  0.121527  0.624511  0.626981  1
  Hf  Hf1  1  0.624511  0.121527  0.626981  1
  Hf  Hf2  1  0.626346  0.626346  0.119015  1
  Hf  Hf3  1  0.626346  0.626346  0.628292  1
  Hf  Hf4  1  0.816736  0.816736  0.183264  1
  Hf  Hf5  1  0.183184  0.183184  0.816816  1
  Hf  Hf6  1  0.816111  0.182979  0.817583  1
  Hf  Hf7  1  0.182979  0.816111  0.183326  1
  Hf  Hf8  1  0.182979  0.816111  0.817583  1
  Hf  Hf9  1  0.816111  0.182979  0.183326  1
  Hf  Hf10  1  0.433702  0.433702  0.066298  1
  Hf  Hf11  1  0.066146  0.066146  0.433854  1
  Hf  Hf12  1  0.433618  0.068413  0.433912  1
  Hf  Hf13  1  0.068413  0.433618  0.064057  1
  Hf  Hf14  1  0.068413  0.433618  0.433912  1
  Hf  Hf15  1  0.433618  0.068413  0.064057  1
  Pt  Pt16  1  0.763773  0.411598  0.412313  1
  Pt  Pt17  1  0.411598  0.763773  0.412313  1
  Rh  Rh18  1  0.412777  0.412777  0.760599  1
  Rh  Rh19  1  0.412777  0.412777  0.413845  1
  Rh  Rh20  1  0.483318  0.838746  0.838969  1
  Rh  Rh21  1  0.838746  0.483318  0.838969  1
  Rh  Rh22  1  0.838434  0.838434  0.484735  1
  Rh  Rh23  1  0.838434  0.838434  0.838398  1
  C  C24  1  0.625016  0.124760  0.125112  1
  C  C25  1  0.124760  0.625016  0.125112  1
  C  C26  1  0.124812  0.124812  0.624983  1
  C  C27  1  0.124812  0.124812  0.125393  1
