# generated using pymatgen
data_Pr6Al4Pt13
_symmetry_space_group_name_H-M   'P 1'
_cell_length_a   8.42844591
_cell_length_b   8.42844593
_cell_length_c   8.42844600
_cell_angle_alpha   109.47122079
_cell_angle_beta   109.47122085
_cell_angle_gamma   109.47122376
_symmetry_Int_Tables_number   1
_chemical_formula_structural   Pr6Al4Pt13
_chemical_formula_sum   'Pr6 Al4 Pt13'
_cell_volume   460.91475223
_cell_formula_units_Z   1
loop_
 _symmetry_equiv_pos_site_id
 _symmetry_equiv_pos_as_xyz
  1  'x, y, z'
loop_
 _atom_site_type_symbol
 _atom_site_label
 _atom_site_symmetry_multiplicity
 _atom_site_fract_x
 _atom_site_fract_y
 _atom_site_fract_z
 _atom_site_occupancy
  Pr  Pr0  1  0.000000  0.300194  0.300194  1
  Pr  Pr1  1  0.000000  0.699806  0.699806  1
  Pr  Pr2  1  0.300194  0.000000  0.300194  1
  Pr  Pr3  1  0.699806  0.699806  0.000000  1
  Pr  Pr4  1  0.699806  0.000000  0.699806  1
  Pr  Pr5  1  0.300194  0.300194  0.000000  1
  Al  Al6  1  0.000000  0.000000  0.500000  1
  Al  Al7  1  0.500000  0.000000  0.000000  1
  Al  Al8  1  0.000000  0.500000  0.000000  1
  Al  Al9  1  0.500000  0.500000  0.500000  1
  Pt  Pt10  1  0.319178  0.680822  0.000000  1
  Pt  Pt11  1  0.000000  0.319178  0.680822  1
  Pt  Pt12  1  0.680822  0.000000  0.319178  1
  Pt  Pt13  1  0.361644  0.680822  0.680822  1
  Pt  Pt14  1  0.680822  0.361644  0.680822  1
  Pt  Pt15  1  0.638356  0.319178  0.319178  1
  Pt  Pt16  1  0.319178  0.638356  0.319178  1
  Pt  Pt17  1  0.319178  0.319178  0.638356  1
  Pt  Pt18  1  0.000000  0.680822  0.319178  1
  Pt  Pt19  1  0.680822  0.680822  0.361644  1
  Pt  Pt20  1  0.319178  0.000000  0.680822  1
  Pt  Pt21  1  0.000000  0.000000  0.000000  1
  Pt  Pt22  1  0.680822  0.319178  0.000000  1
