# generated using pymatgen
data_Mg4Ge3P3Ir7
_symmetry_space_group_name_H-M   'P 1'
_cell_length_a   6.97145968
_cell_length_b   6.97145928
_cell_length_c   6.97145808
_cell_angle_alpha   109.45419343
_cell_angle_beta   110.88285517
_cell_angle_gamma   108.08866409
_symmetry_Int_Tables_number   1
_chemical_formula_structural   Mg4Ge3P3Ir7
_chemical_formula_sum   'Mg4 Ge3 P3 Ir7'
_cell_volume   260.66981910
_cell_formula_units_Z   1
loop_
 _symmetry_equiv_pos_site_id
 _symmetry_equiv_pos_as_xyz
  1  'x, y, z'
loop_
 _atom_site_type_symbol
 _atom_site_label
 _atom_site_symmetry_multiplicity
 _atom_site_fract_x
 _atom_site_fract_y
 _atom_site_fract_z
 _atom_site_occupancy
  Mg  Mg0  1  0.999803  0.999081  0.494567  1
  Mg  Mg1  1  0.504513  0.999081  0.999278  1
  Mg  Mg2  1  0.000197  0.494764  0.999278  1
  Mg  Mg3  1  0.495487  0.494764  0.494567  1
  Ge  Ge4  1  0.689810  0.689540  0.999730  1
  Ge  Ge5  1  0.310190  0.309920  0.999730  1
  Ge  Ge6  1  0.000000  0.697320  0.697320  1
  P  P7  1  0.000000  0.322424  0.322424  1
  P  P8  1  0.683845  0.000655  0.684501  1
  P  P9  1  0.316155  0.000655  0.316811  1
  Ir  Ir10  1  0.000000  0.012681  0.012681  1
  Ir  Ir11  1  0.245944  0.494505  0.740449  1
  Ir  Ir12  1  0.747079  0.243939  0.496860  1
  Ir  Ir13  1  0.500000  0.241331  0.741331  1
  Ir  Ir14  1  0.500000  0.755055  0.255055  1
  Ir  Ir15  1  0.754056  0.494505  0.248560  1
  Ir  Ir16  1  0.252921  0.749781  0.496860  1
