# generated using pymatgen
data_Hf3Sc(SbRh5)2
_symmetry_space_group_name_H-M   'P 1'
_cell_length_a   4.14452900
_cell_length_b   5.64529756
_cell_length_c   11.05026910
_cell_angle_alpha   90.05097009
_cell_angle_beta   90.00000000
_cell_angle_gamma   90.00000000
_symmetry_Int_Tables_number   1
_chemical_formula_structural   Hf3Sc(SbRh5)2
_chemical_formula_sum   'Hf3 Sc1 Sb2 Rh10'
_cell_volume   258.54414256
_cell_formula_units_Z   1
loop_
 _symmetry_equiv_pos_site_id
 _symmetry_equiv_pos_as_xyz
  1  'x, y, z'
loop_
 _atom_site_type_symbol
 _atom_site_label
 _atom_site_symmetry_multiplicity
 _atom_site_fract_x
 _atom_site_fract_y
 _atom_site_fract_z
 _atom_site_occupancy
  Hf  Hf0  1  0.500000  0.827768  0.358527  1
  Hf  Hf1  1  0.500000  0.673793  0.853679  1
  Hf  Hf2  1  0.500000  0.326923  0.143272  1
  Sc  Sc3  1  0.500000  0.175076  0.642969  1
  Sb  Sb4  1  0.000000  0.495086  0.502179  1
  Sb  Sb5  1  0.000000  0.999532  0.999377  1
  Rh  Rh6  1  0.500000  0.198528  0.890259  1
  Rh  Rh7  1  0.500000  0.802172  0.111524  1
  Rh  Rh8  1  0.500000  0.698236  0.610942  1
  Rh  Rh9  1  0.500000  0.304293  0.386335  1
  Rh  Rh10  1  0.000000  0.433275  0.747103  1
  Rh  Rh11  1  0.000000  0.568408  0.254581  1
  Rh  Rh12  1  0.000000  0.997741  0.498928  1
  Rh  Rh13  1  0.000000  0.499951  0.000088  1
  Rh  Rh14  1  0.000000  0.067945  0.244992  1
  Rh  Rh15  1  0.000000  0.931273  0.755245  1
