# generated using pymatgen
data_DyLu6Co6CuSn22
_symmetry_space_group_name_H-M   'P 1'
_cell_length_a   9.60281100
_cell_length_b   9.60281001
_cell_length_c   9.86009500
_cell_angle_alpha   90.00000000
_cell_angle_beta   90.00000000
_cell_angle_gamma   119.99999307
_symmetry_Int_Tables_number   1
_chemical_formula_structural   DyLu6Co6CuSn22
_chemical_formula_sum   'Dy1 Lu6 Co6 Cu1 Sn22'
_cell_volume   787.42369482
_cell_formula_units_Z   1
loop_
 _symmetry_equiv_pos_site_id
 _symmetry_equiv_pos_as_xyz
  1  'x, y, z'
loop_
 _atom_site_type_symbol
 _atom_site_label
 _atom_site_symmetry_multiplicity
 _atom_site_fract_x
 _atom_site_fract_y
 _atom_site_fract_z
 _atom_site_occupancy
  Dy  Dy0  1  0.000000  0.000000  0.000000  1
  Lu  Lu1  1  0.480912  0.519088  0.306390  1
  Lu  Lu2  1  0.519088  0.480912  0.693610  1
  Lu  Lu3  1  0.480912  0.961824  0.306390  1
  Lu  Lu4  1  0.519088  0.038176  0.693610  1
  Lu  Lu5  1  0.038176  0.519088  0.306390  1
  Lu  Lu6  1  0.961824  0.480912  0.693610  1
  Co  Co7  1  0.831251  0.168749  0.198525  1
  Co  Co8  1  0.168749  0.831251  0.801475  1
  Co  Co9  1  0.831251  0.662501  0.198525  1
  Co  Co10  1  0.168749  0.337499  0.801475  1
  Co  Co11  1  0.337499  0.168749  0.198525  1
  Co  Co12  1  0.662501  0.831251  0.801475  1
  Cu  Cu13  1  0.000000  0.000000  0.500000  1
  Sn  Sn14  1  0.346186  0.000000  0.000000  1
  Sn  Sn15  1  0.653814  0.000000  0.000000  1
  Sn  Sn16  1  0.000000  0.346186  0.000000  1
  Sn  Sn17  1  0.000000  0.653814  0.000000  1
  Sn  Sn18  1  0.653814  0.653814  0.000000  1
  Sn  Sn19  1  0.346186  0.346186  0.000000  1
  Sn  Sn20  1  0.333333  0.666667  0.817603  1
  Sn  Sn21  1  0.666667  0.333333  0.182397  1
  Sn  Sn22  1  0.783316  0.216684  0.454740  1
  Sn  Sn23  1  0.216684  0.783316  0.545260  1
  Sn  Sn24  1  0.783316  0.566632  0.454740  1
  Sn  Sn25  1  0.216684  0.433368  0.545260  1
  Sn  Sn26  1  0.433368  0.216684  0.454740  1
  Sn  Sn27  1  0.566632  0.783316  0.545260  1
  Sn  Sn28  1  0.333333  0.666667  0.124885  1
  Sn  Sn29  1  0.666667  0.333333  0.875115  1
  Sn  Sn30  1  0.111787  0.888213  0.283325  1
  Sn  Sn31  1  0.888213  0.111787  0.716675  1
  Sn  Sn32  1  0.111787  0.223573  0.283325  1
  Sn  Sn33  1  0.888213  0.776427  0.716675  1
  Sn  Sn34  1  0.776427  0.888213  0.283325  1
  Sn  Sn35  1  0.223573  0.111787  0.716675  1
