# generated using pymatgen
data_Y12Mg7Re12WN48
_symmetry_space_group_name_H-M   'P 1'
_cell_length_a   11.12300478
_cell_length_b   11.12300518
_cell_length_c   11.06485900
_cell_angle_alpha   109.36535804
_cell_angle_beta   109.36535876
_cell_angle_gamma   109.57687400
_symmetry_Int_Tables_number   1
_chemical_formula_structural   Y12Mg7Re12WN48
_chemical_formula_sum   'Y12 Mg7 Re12 W1 N48'
_cell_volume   1055.19808165
_cell_formula_units_Z   1
loop_
 _symmetry_equiv_pos_site_id
 _symmetry_equiv_pos_as_xyz
  1  'x, y, z'
loop_
 _atom_site_type_symbol
 _atom_site_label
 _atom_site_symmetry_multiplicity
 _atom_site_fract_x
 _atom_site_fract_y
 _atom_site_fract_z
 _atom_site_occupancy
  Y  Y0  1  0.374314  0.749514  0.128373  1
  Y  Y1  1  0.248661  0.374885  0.123996  1
  Y  Y2  1  0.375200  0.125687  0.254059  1
  Y  Y3  1  0.874885  0.626224  0.250889  1
  Y  Y4  1  0.750486  0.124800  0.378860  1
  Y  Y5  1  0.126224  0.251339  0.375335  1
  Y  Y6  1  0.873776  0.748661  0.624665  1
  Y  Y7  1  0.249514  0.875200  0.621141  1
  Y  Y8  1  0.125115  0.373777  0.749111  1
  Y  Y9  1  0.624800  0.874313  0.745941  1
  Y  Y10  1  0.625687  0.250486  0.871627  1
  Y  Y11  1  0.751339  0.625115  0.876004  1
  Mg  Mg12  1  0.000000  0.000000  0.000000  1
  Mg  Mg13  1  0.000000  0.500000  0.000000  1
  Mg  Mg14  1  0.500000  0.500000  0.000000  1
  Mg  Mg15  1  0.000000  0.000000  0.500000  1
  Mg  Mg16  1  0.500000  0.000000  0.500000  1
  Mg  Mg17  1  0.000000  0.500000  0.500000  1
  Mg  Mg18  1  0.500000  0.500000  0.500000  1
  Re  Re19  1  0.874296  0.248975  0.126521  1
  Re  Re20  1  0.748975  0.874679  0.122454  1
  Re  Re21  1  0.625321  0.374296  0.247775  1
  Re  Re22  1  0.125459  0.873989  0.248387  1
  Re  Re23  1  0.251470  0.625459  0.377072  1
  Re  Re24  1  0.626011  0.751470  0.374398  1
  Re  Re25  1  0.373989  0.248530  0.625602  1
  Re  Re26  1  0.748530  0.374541  0.622928  1
  Re  Re27  1  0.874541  0.126011  0.751613  1
  Re  Re28  1  0.374679  0.625704  0.752225  1
  Re  Re29  1  0.251025  0.125321  0.877546  1
  Re  Re30  1  0.125704  0.751025  0.873479  1
  W  W31  1  0.500000  0.000000  0.000000  1
  N  N32  1  0.212305  0.121919  0.022968  1
  N  N33  1  0.320412  0.905217  0.017649  1
  N  N34  1  0.877893  0.398712  0.093329  1
  N  N35  1  0.714892  0.693235  0.093716  1
  N  N36  1  0.621918  0.409614  0.098951  1
  N  N37  1  0.974025  0.690717  0.097172  1
  N  N38  1  0.021657  0.214893  0.121177  1
  N  N39  1  0.594783  0.915197  0.112432  1
  N  N40  1  0.218956  0.596200  0.193427  1
  N  N41  1  0.475464  0.599443  0.191979  1
  N  N42  1  0.584804  0.179588  0.197237  1
  N  N43  1  0.123979  0.024536  0.216515  1
  N  N44  1  0.479181  0.377893  0.284565  1
  N  N45  1  0.308340  0.905243  0.279705  1
  N  N46  1  0.898712  0.020819  0.305383  1
  N  N47  1  0.909614  0.287695  0.310662  1
  N  N48  1  0.283307  0.474024  0.376852  1
  N  N49  1  0.594757  0.903098  0.374462  1
  N  N50  1  0.806764  0.521656  0.400480  1
  N  N51  1  0.096200  0.877244  0.402773  1
  N  N52  1  0.099443  0.623978  0.407464  1
  N  N53  1  0.809283  0.783308  0.406455  1
  N  N54  1  0.596902  0.191659  0.471363  1
  N  N55  1  0.377244  0.281044  0.474471  1
  N  N56  1  0.622756  0.718956  0.525529  1
  N  N57  1  0.403098  0.808341  0.528636  1
  N  N58  1  0.190717  0.216693  0.593545  1
  N  N59  1  0.900557  0.376021  0.592536  1
  N  N60  1  0.903801  0.122756  0.597227  1
  N  N61  1  0.193236  0.478343  0.599520  1
  N  N62  1  0.405243  0.096902  0.625537  1
  N  N63  1  0.716693  0.525976  0.623148  1
  N  N64  1  0.090386  0.712304  0.689336  1
  N  N65  1  0.101288  0.979182  0.694617  1
  N  N66  1  0.691658  0.094757  0.720294  1
  N  N67  1  0.520819  0.622107  0.715435  1
  N  N68  1  0.415196  0.820412  0.802764  1
  N  N69  1  0.876021  0.975465  0.783486  1
  N  N70  1  0.524535  0.400557  0.808021  1
  N  N71  1  0.781045  0.403800  0.806573  1
  N  N72  1  0.405217  0.084804  0.887568  1
  N  N73  1  0.978344  0.785108  0.878823  1
  N  N74  1  0.025976  0.309283  0.902828  1
  N  N75  1  0.378081  0.590386  0.901049  1
  N  N76  1  0.285107  0.306763  0.906284  1
  N  N77  1  0.122107  0.601288  0.906672  1
  N  N78  1  0.679588  0.094783  0.982352  1
  N  N79  1  0.787696  0.878081  0.977033  1
