# generated using pymatgen
data_La2Pr6Cd2OsPd
_symmetry_space_group_name_H-M   'P 1'
_cell_length_a   10.07667635
_cell_length_b   10.07667747
_cell_length_c   10.17261900
_cell_angle_alpha   59.68454330
_cell_angle_beta   59.68453957
_cell_angle_gamma   59.63162478
_symmetry_Int_Tables_number   1
_chemical_formula_structural   La2Pr6Cd2OsPd
_chemical_formula_sum   'La4 Pr12 Cd4 Os2 Pd2'
_cell_volume   724.85817313
_cell_formula_units_Z   2
loop_
 _symmetry_equiv_pos_site_id
 _symmetry_equiv_pos_as_xyz
  1  'x, y, z'
loop_
 _atom_site_type_symbol
 _atom_site_label
 _atom_site_symmetry_multiplicity
 _atom_site_fract_x
 _atom_site_fract_y
 _atom_site_fract_z
 _atom_site_occupancy
  La  La0  1  0.346984  0.346984  0.356744  1
  La  La1  1  0.346984  0.346984  0.949290  1
  La  La2  1  0.342961  0.957865  0.349587  1
  La  La3  1  0.957865  0.342961  0.349587  1
  Pr  Pr4  1  0.815985  0.188731  0.191659  1
  Pr  Pr5  1  0.188731  0.815985  0.803625  1
  Pr  Pr6  1  0.188731  0.815985  0.191659  1
  Pr  Pr7  1  0.815985  0.188731  0.803625  1
  Pr  Pr8  1  0.188179  0.188179  0.811821  1
  Pr  Pr9  1  0.806183  0.806183  0.193817  1
  Pr  Pr10  1  0.936507  0.557220  0.566570  1
  Pr  Pr11  1  0.557220  0.936507  0.939703  1
  Pr  Pr12  1  0.557220  0.936507  0.566570  1
  Pr  Pr13  1  0.936507  0.557220  0.939703  1
  Pr  Pr14  1  0.563178  0.563178  0.936822  1
  Pr  Pr15  1  0.937825  0.937825  0.562175  1
  Cd  Cd16  1  0.579698  0.579698  0.580642  1
  Cd  Cd17  1  0.579698  0.579698  0.259961  1
  Cd  Cd18  1  0.580586  0.258123  0.580645  1
  Cd  Cd19  1  0.258123  0.580586  0.580645  1
  Os  Os20  1  0.146312  0.146312  0.135445  1
  Os  Os21  1  0.146312  0.146312  0.571932  1
  Pd  Pd22  1  0.148103  0.574122  0.138887  1
  Pd  Pd23  1  0.574122  0.148103  0.138887  1
