# generated using pymatgen
data_Nb2Tl3Cu3S8
_symmetry_space_group_name_H-M   'P 1'
_cell_length_a   5.57289008
_cell_length_b   7.34646494
_cell_length_c   10.19237800
_cell_angle_alpha   96.08909549
_cell_angle_beta   105.86579858
_cell_angle_gamma   90.00000381
_symmetry_Int_Tables_number   1
_chemical_formula_structural   Nb2Tl3Cu3S8
_chemical_formula_sum   'Nb2 Tl3 Cu3 S8'
_cell_volume   398.94183358
_cell_formula_units_Z   1
loop_
 _symmetry_equiv_pos_site_id
 _symmetry_equiv_pos_as_xyz
  1  'x, y, z'
loop_
 _atom_site_type_symbol
 _atom_site_label
 _atom_site_symmetry_multiplicity
 _atom_site_fract_x
 _atom_site_fract_y
 _atom_site_fract_z
 _atom_site_occupancy
  Nb  Nb0  1  0.402013  0.191176  0.261971  1
  Nb  Nb1  1  0.140042  0.808822  0.738028  1
  Tl  Tl2  1  0.008230  0.499999  0.000000  1
  Tl  Tl3  1  0.678408  0.709612  0.361947  1
  Tl  Tl4  1  0.316461  0.290388  0.638053  1
  Cu  Cu5  1  0.268311  0.000000  0.000000  1
  Cu  Cu6  1  0.896854  0.180540  0.252057  1
  Cu  Cu7  1  0.644796  0.819460  0.747944  1
  S  S8  1  0.544105  0.254700  0.076905  1
  S  S9  1  0.131159  0.937530  0.187882  1
  S  S10  1  0.176715  0.429845  0.329292  1
  S  S11  1  0.742547  0.128421  0.434388  1
  S  S12  1  0.308159  0.871579  0.565613  1
  S  S13  1  0.847425  0.570156  0.670708  1
  S  S14  1  0.943277  0.062470  0.812118  1
  S  S15  1  0.467199  0.745299  0.923096  1
