# generated using pymatgen
data_La(EuB8)3
_symmetry_space_group_name_H-M   'P 1'
_cell_length_a   4.16684300
_cell_length_b   4.16684300
_cell_length_c   16.67514300
_cell_angle_alpha   90.00000000
_cell_angle_beta   90.00000000
_cell_angle_gamma   90.00000000
_symmetry_Int_Tables_number   1
_chemical_formula_structural   La(EuB8)3
_chemical_formula_sum   'La1 Eu3 B24'
_cell_volume   289.52351413
_cell_formula_units_Z   1
loop_
 _symmetry_equiv_pos_site_id
 _symmetry_equiv_pos_as_xyz
  1  'x, y, z'
loop_
 _atom_site_type_symbol
 _atom_site_label
 _atom_site_symmetry_multiplicity
 _atom_site_fract_x
 _atom_site_fract_y
 _atom_site_fract_z
 _atom_site_occupancy
  La  La0  1  0.500000  0.500000  0.000000  1
  Eu  Eu1  1  0.500000  0.500000  0.251100  1
  Eu  Eu2  1  0.500000  0.500000  0.500000  1
  Eu  Eu3  1  0.500000  0.500000  0.748900  1
  B  B4  1  0.000000  0.000000  0.050126  1
  B  B5  1  0.000000  0.000000  0.300382  1
  B  B6  1  0.000000  0.000000  0.550396  1
  B  B7  1  0.000000  0.000000  0.800112  1
  B  B8  1  0.000000  0.299136  0.874932  1
  B  B9  1  0.000000  0.299136  0.125068  1
  B  B10  1  0.000000  0.298526  0.375023  1
  B  B11  1  0.000000  0.298526  0.624977  1
  B  B12  1  0.299136  0.000000  0.874932  1
  B  B13  1  0.299136  0.000000  0.125068  1
  B  B14  1  0.298526  0.000000  0.375023  1
  B  B15  1  0.298526  0.000000  0.624977  1
  B  B16  1  0.000000  0.000000  0.949874  1
  B  B17  1  0.000000  0.000000  0.199888  1
  B  B18  1  0.000000  0.000000  0.449604  1
  B  B19  1  0.000000  0.000000  0.699618  1
  B  B20  1  0.000000  0.700864  0.874932  1
  B  B21  1  0.000000  0.700864  0.125068  1
  B  B22  1  0.000000  0.701474  0.375023  1
  B  B23  1  0.000000  0.701474  0.624977  1
  B  B24  1  0.700864  0.000000  0.874932  1
  B  B25  1  0.700864  0.000000  0.125068  1
  B  B26  1  0.701474  0.000000  0.375023  1
  B  B27  1  0.701474  0.000000  0.624977  1
