# generated using pymatgen
data_Ca10Cu3Hg2Ir
_symmetry_space_group_name_H-M   'P 1'
_cell_length_a   9.22351646
_cell_length_b   9.22351677
_cell_length_c   9.26039389
_cell_angle_alpha   129.95918253
_cell_angle_beta   129.95918598
_cell_angle_gamma   73.16485199
_symmetry_Int_Tables_number   1
_chemical_formula_structural   Ca10Cu3Hg2Ir
_chemical_formula_sum   'Ca10 Cu3 Hg2 Ir1'
_cell_volume   452.62710710
_cell_formula_units_Z   1
loop_
 _symmetry_equiv_pos_site_id
 _symmetry_equiv_pos_as_xyz
  1  'x, y, z'
loop_
 _atom_site_type_symbol
 _atom_site_label
 _atom_site_symmetry_multiplicity
 _atom_site_fract_x
 _atom_site_fract_y
 _atom_site_fract_z
 _atom_site_occupancy
  Ca  Ca0  1  0.533004  0.023501  0.830596  1
  Ca  Ca1  1  0.202408  0.692904  0.169404  1
  Ca  Ca2  1  0.031470  0.191619  0.500000  1
  Ca  Ca3  1  0.684479  0.545239  0.500000  1
  Ca  Ca4  1  0.476499  0.966996  0.169404  1
  Ca  Ca5  1  0.807096  0.297592  0.830596  1
  Ca  Ca6  1  0.954761  0.815521  0.500000  1
  Ca  Ca7  1  0.308381  0.468530  0.500000  1
  Ca  Ca8  1  0.502777  0.506234  0.009012  1
  Ca  Ca9  1  0.993766  0.997223  0.990988  1
  Cu  Cu10  1  0.382639  0.117361  0.500000  1
  Cu  Cu11  1  0.112165  0.612690  0.724854  1
  Cu  Cu12  1  0.887310  0.387835  0.275146  1
  Hg  Hg13  1  0.253509  0.246491  0.000000  1
  Hg  Hg14  1  0.753509  0.746491  0.000000  1
  Ir  Ir15  1  0.616227  0.883773  0.500000  1
