# generated using pymatgen
data_La2Gd(HoRu)2
_symmetry_space_group_name_H-M   'P 1'
_cell_length_a   6.50365938
_cell_length_b   7.24007772
_cell_length_c   8.78485300
_cell_angle_alpha   96.33719128
_cell_angle_beta   111.72568861
_cell_angle_gamma   89.99999327
_symmetry_Int_Tables_number   1
_chemical_formula_structural   La2Gd(HoRu)2
_chemical_formula_sum   'La4 Gd2 Ho4 Ru4'
_cell_volume   381.54705837
_cell_formula_units_Z   2
loop_
 _symmetry_equiv_pos_site_id
 _symmetry_equiv_pos_as_xyz
  1  'x, y, z'
loop_
 _atom_site_type_symbol
 _atom_site_label
 _atom_site_symmetry_multiplicity
 _atom_site_fract_x
 _atom_site_fract_y
 _atom_site_fract_z
 _atom_site_occupancy
  La  La0  1  0.978543  0.911626  0.193715  1
  La  La1  1  0.784828  0.588374  0.806285  1
  La  La2  1  0.021108  0.089208  0.806004  1
  La  La3  1  0.215104  0.410792  0.193996  1
  Gd  Gd4  1  0.636191  0.814983  0.430734  1
  Gd  Gd5  1  0.205456  0.685017  0.569266  1
  Ho  Ho6  1  0.364829  0.185475  0.569705  1
  Ho  Ho7  1  0.795124  0.314525  0.430295  1
  Ho  Ho8  1  0.425654  0.750000  0.000000  1
  Ho  Ho9  1  0.574345  0.250000  0.000000  1
  Ru  Ru10  1  0.824104  0.580573  0.224054  1
  Ru  Ru11  1  0.600050  0.919427  0.775946  1
  Ru  Ru12  1  0.174655  0.418723  0.774649  1
  Ru  Ru13  1  0.400006  0.081277  0.225351  1
