# generated using pymatgen
data_Y10Sn6As
_symmetry_space_group_name_H-M   'P 1'
_cell_length_a   6.63585600
_cell_length_b   9.09272789
_cell_length_c   9.09191202
_cell_angle_alpha   120.00297240
_cell_angle_beta   90.00222935
_cell_angle_gamma   89.99553706
_symmetry_Int_Tables_number   1
_chemical_formula_structural   Y10Sn6As
_chemical_formula_sum   'Y10 Sn6 As1'
_cell_volume   475.07698737
_cell_formula_units_Z   1
loop_
 _symmetry_equiv_pos_site_id
 _symmetry_equiv_pos_as_xyz
  1  'x, y, z'
loop_
 _atom_site_type_symbol
 _atom_site_label
 _atom_site_symmetry_multiplicity
 _atom_site_fract_x
 _atom_site_fract_y
 _atom_site_fract_z
 _atom_site_occupancy
  Y  Y0  1  0.500000  0.333360  0.666721  1
  Y  Y1  1  0.500000  0.666640  0.333279  1
  Y  Y2  1  0.000001  0.666714  0.333429  1
  Y  Y3  1  0.000001  0.333285  0.666571  1
  Y  Y4  1  0.750149  0.250628  0.000000  1
  Y  Y5  1  0.750192  0.749250  0.749312  1
  Y  Y6  1  0.750192  0.999938  0.250688  1
  Y  Y7  1  0.249851  0.749373  0.000000  1
  Y  Y8  1  0.249806  0.250750  0.250687  1
  Y  Y9  1  0.249806  0.000063  0.749313  1
  Sn  Sn10  1  0.749440  0.606311  0.000000  1
  Sn  Sn11  1  0.749447  0.393680  0.393697  1
  Sn  Sn12  1  0.749447  0.999984  0.606303  1
  Sn  Sn13  1  0.250560  0.393689  0.000000  1
  Sn  Sn14  1  0.250554  0.606320  0.606304  1
  Sn  Sn15  1  0.250554  0.000017  0.393696  1
  As  As16  1  0.500000  0.000000  0.000000  1
