# generated using pymatgen
data_Dy4YEr11(In3Co)2
_symmetry_space_group_name_H-M   'P 1'
_cell_length_a   10.29955302
_cell_length_b   10.30969333
_cell_length_c   6.99433203
_cell_angle_alpha   90.02922834
_cell_angle_beta   89.99725559
_cell_angle_gamma   119.96116808
_symmetry_Int_Tables_number   1
_chemical_formula_structural   Dy4YEr11(In3Co)2
_chemical_formula_sum   'Dy4 Y1 Er11 In6 Co2'
_cell_volume   643.44397287
_cell_formula_units_Z   1
loop_
 _symmetry_equiv_pos_site_id
 _symmetry_equiv_pos_as_xyz
  1  'x, y, z'
loop_
 _atom_site_type_symbol
 _atom_site_label
 _atom_site_symmetry_multiplicity
 _atom_site_fract_x
 _atom_site_fract_y
 _atom_site_fract_z
 _atom_site_occupancy
  Dy  Dy0  1  0.929714  0.464641  0.791194  1
  Dy  Dy1  1  0.534860  0.464717  0.791249  1
  Dy  Dy2  1  0.464542  0.928981  0.291453  1
  Dy  Dy3  1  0.070322  0.535331  0.291972  1
  Y  Y4  1  0.534263  0.068538  0.791051  1
  Er  Er5  1  0.464963  0.535496  0.292135  1
  Er  Er6  1  0.821811  0.643983  0.498009  1
  Er  Er7  1  0.356810  0.179120  0.496942  1
  Er  Er8  1  0.822153  0.178882  0.497087  1
  Er  Er9  1  0.178635  0.357019  0.999230  1
  Er  Er10  1  0.643389  0.820857  0.999200  1
  Er  Er11  1  0.177494  0.821114  0.999018  1
  Er  Er12  1  0.666745  0.333746  0.182709  1
  Er  Er13  1  0.333187  0.666060  0.683092  1
  Er  Er14  1  0.000172  0.000246  0.779506  1
  Er  Er15  1  0.999871  0.999739  0.279474  1
  In  In16  1  0.836837  0.673706  0.039428  1
  In  In17  1  0.325198  0.162301  0.039611  1
  In  In18  1  0.837088  0.162283  0.039504  1
  In  In19  1  0.163370  0.326433  0.540838  1
  In  In20  1  0.674493  0.837510  0.540676  1
  In  In21  1  0.163061  0.837753  0.540885  1
  Co  Co22  1  0.667492  0.334978  0.564725  1
  Co  Co23  1  0.333531  0.666558  0.066917  1
