# generated using pymatgen
data_Er3TmLu4In3Co
_symmetry_space_group_name_H-M   'P 1'
_cell_length_a   10.18700000
_cell_length_b   10.18700018
_cell_length_c   6.97165200
_cell_angle_alpha   90.00000000
_cell_angle_beta   90.00000000
_cell_angle_gamma   119.99999940
_symmetry_Int_Tables_number   1
_chemical_formula_structural   Er3TmLu4In3Co
_chemical_formula_sum   'Er6 Tm2 Lu8 In6 Co2'
_cell_volume   626.55464641
_cell_formula_units_Z   2
loop_
 _symmetry_equiv_pos_site_id
 _symmetry_equiv_pos_as_xyz
  1  'x, y, z'
loop_
 _atom_site_type_symbol
 _atom_site_label
 _atom_site_symmetry_multiplicity
 _atom_site_fract_x
 _atom_site_fract_y
 _atom_site_fract_z
 _atom_site_occupancy
  Er  Er0  1  0.535212  0.070425  0.513371  1
  Er  Er1  1  0.929575  0.464788  0.513371  1
  Er  Er2  1  0.535212  0.464788  0.513371  1
  Er  Er3  1  0.464788  0.929575  0.013371  1
  Er  Er4  1  0.070425  0.535212  0.013371  1
  Er  Er5  1  0.464788  0.535212  0.013371  1
  Tm  Tm6  1  0.000000  0.000000  0.501110  1
  Tm  Tm7  1  0.000000  0.000000  0.001110  1
  Lu  Lu8  1  0.179367  0.358735  0.717891  1
  Lu  Lu9  1  0.641265  0.820633  0.717891  1
  Lu  Lu10  1  0.179367  0.820633  0.717891  1
  Lu  Lu11  1  0.820633  0.641265  0.217891  1
  Lu  Lu12  1  0.358735  0.179367  0.217891  1
  Lu  Lu13  1  0.820633  0.179367  0.217891  1
  Lu  Lu14  1  0.666667  0.333333  0.905663  1
  Lu  Lu15  1  0.333333  0.666667  0.405663  1
  In  In16  1  0.837588  0.675176  0.764077  1
  In  In17  1  0.324824  0.162412  0.764077  1
  In  In18  1  0.837588  0.162412  0.764077  1
  In  In19  1  0.162412  0.324824  0.264077  1
  In  In20  1  0.675176  0.837588  0.264077  1
  In  In21  1  0.162412  0.837588  0.264077  1
  Co  Co22  1  0.666667  0.333333  0.286210  1
  Co  Co23  1  0.333333  0.666667  0.786210  1
