# generated using pymatgen
data_NaP3(WO6)2
_symmetry_space_group_name_H-M   'P 1'
_cell_length_a   8.72803512
_cell_length_b   8.70547866
_cell_length_c   9.14781817
_cell_angle_alpha   62.32768793
_cell_angle_beta   63.03346349
_cell_angle_gamma   60.63618418
_symmetry_Int_Tables_number   1
_chemical_formula_structural   NaP3(WO6)2
_chemical_formula_sum   'Na2 P6 W4 O24'
_cell_volume   513.02006177
_cell_formula_units_Z   2
loop_
 _symmetry_equiv_pos_site_id
 _symmetry_equiv_pos_as_xyz
  1  'x, y, z'
loop_
 _atom_site_type_symbol
 _atom_site_label
 _atom_site_symmetry_multiplicity
 _atom_site_fract_x
 _atom_site_fract_y
 _atom_site_fract_z
 _atom_site_occupancy
  Na  Na0  1  0.824900  0.525621  0.447432  1
  Na  Na1  1  0.175100  0.474379  0.552568  1
  P  P2  1  0.529973  0.463019  0.754412  1
  P  P3  1  0.748807  0.967487  0.247132  1
  P  P4  1  0.033580  0.253086  0.251029  1
  P  P5  1  0.966420  0.746914  0.748971  1
  P  P6  1  0.251193  0.032513  0.752868  1
  P  P7  1  0.470027  0.536981  0.245588  1
  W  W8  1  0.145086  0.651332  0.065712  1
  W  W9  1  0.649766  0.145842  0.558835  1
  W  W10  1  0.350234  0.854158  0.441165  1
  W  W11  1  0.854914  0.348668  0.934288  1
  O  O12  1  0.896811  0.774069  0.238603  1
  O  O13  1  0.515303  0.642157  0.594603  1
  O  O14  1  0.381016  0.494401  0.918862  1
  O  O15  1  0.725565  0.405686  0.764575  1
  O  O16  1  0.086955  0.411746  0.226664  1
  O  O17  1  0.795291  0.113934  0.071398  1
  O  O18  1  0.526591  0.310692  0.714319  1
  O  O19  1  0.235222  0.994408  0.611558  1
  O  O20  1  0.853774  0.269617  0.403333  1
  O  O21  1  0.557063  0.970914  0.288746  1
  O  O22  1  0.006804  0.283865  0.083168  1
  O  O23  1  0.185386  0.064375  0.293122  1
  O  O24  1  0.814614  0.935625  0.706878  1
  O  O25  1  0.993196  0.716135  0.916832  1
  O  O26  1  0.442937  0.029086  0.711254  1
  O  O27  1  0.146226  0.730383  0.596667  1
  O  O28  1  0.764778  0.005592  0.388442  1
  O  O29  1  0.473409  0.689308  0.285681  1
  O  O30  1  0.204709  0.886066  0.928602  1
  O  O31  1  0.913045  0.588254  0.773336  1
  O  O32  1  0.274435  0.594314  0.235425  1
  O  O33  1  0.618984  0.505599  0.081138  1
  O  O34  1  0.484697  0.357843  0.405397  1
  O  O35  1  0.103189  0.225931  0.761397  1
