# generated using pymatgen
data_Yb3TmAl24Pt7Au2
_symmetry_space_group_name_H-M   'P 1'
_cell_length_a   7.55440813
_cell_length_b   7.58044201
_cell_length_c   13.25416393
_cell_angle_alpha   84.61401331
_cell_angle_beta   79.24194736
_cell_angle_gamma   59.85083117
_symmetry_Int_Tables_number   1
_chemical_formula_structural   Yb3TmAl24Pt7Au2
_chemical_formula_sum   'Yb3 Tm1 Al24 Pt7 Au2'
_cell_volume   644.79582394
_cell_formula_units_Z   1
loop_
 _symmetry_equiv_pos_site_id
 _symmetry_equiv_pos_as_xyz
  1  'x, y, z'
loop_
 _atom_site_type_symbol
 _atom_site_label
 _atom_site_symmetry_multiplicity
 _atom_site_fract_x
 _atom_site_fract_y
 _atom_site_fract_z
 _atom_site_occupancy
  Yb  Yb0  1  0.392403  0.169264  0.808890  1
  Yb  Yb1  1  0.607395  0.830339  0.191017  1
  Yb  Yb2  1  0.734330  0.499012  0.809653  1
  Tm  Tm3  1  0.266882  0.500485  0.190383  1
  Al  Al4  1  0.683375  0.834521  0.946451  1
  Al  Al5  1  0.316709  0.165706  0.054748  1
  Al  Al6  1  0.146706  0.837969  0.560758  1
  Al  Al7  1  0.853595  0.161950  0.438391  1
  Al  Al8  1  0.487636  0.159073  0.558777  1
  Al  Al9  1  0.512685  0.841124  0.440506  1
  Al  Al10  1  0.224170  0.159937  0.324410  1
  Al  Al11  1  0.775850  0.840029  0.674432  1
  Al  Al12  1  0.440602  0.506409  0.673940  1
  Al  Al13  1  0.560395  0.493857  0.324541  1
  Al  Al14  1  0.108587  0.154191  0.672454  1
  Al  Al15  1  0.891217  0.845502  0.326418  1
  Al  Al16  1  0.352490  0.499717  0.945580  1
  Al  Al17  1  0.646890  0.500560  0.054976  1
  Al  Al18  1  0.015244  0.167382  0.955129  1
  Al  Al19  1  0.984343  0.831767  0.046491  1
  Al  Al20  1  0.195730  0.499007  0.438258  1
  Al  Al21  1  0.804902  0.500783  0.561904  1
  Al  Al22  1  0.730989  0.167915  0.183222  1
  Al  Al23  1  0.266369  0.835798  0.817253  1
  Al  Al24  1  0.059815  0.634943  0.819082  1
  Al  Al25  1  0.942820  0.364824  0.181714  1
  Al  Al26  1  0.853763  0.042914  0.816984  1
  Al  Al27  1  0.144723  0.955470  0.183265  1
  Pt  Pt28  1  0.657231  0.171609  0.000721  1
  Pt  Pt29  1  0.341898  0.828306  0.001085  1
  Pt  Pt30  1  0.537597  0.167679  0.361901  1
  Pt  Pt31  1  0.461616  0.832623  0.636968  1
  Pt  Pt32  1  0.780284  0.173831  0.635769  1
  Pt  Pt33  1  0.220248  0.825126  0.363087  1
  Pt  Pt34  1  0.999888  0.500137  0.001000  1
  Au  Au35  1  0.119841  0.491290  0.638175  1
  Au  Au36  1  0.880779  0.508952  0.361666  1
