# generated using pymatgen
data_Sr4Sc2RuWO12
_symmetry_space_group_name_H-M   'P 1'
_cell_length_a   5.74748433
_cell_length_b   5.70954887
_cell_length_c   8.09509800
_cell_angle_alpha   90.03144994
_cell_angle_beta   90.20090254
_cell_angle_gamma   90.00299054
_symmetry_Int_Tables_number   1
_chemical_formula_structural   Sr4Sc2RuWO12
_chemical_formula_sum   'Sr4 Sc2 Ru1 W1 O12'
_cell_volume   265.64336036
_cell_formula_units_Z   1
loop_
 _symmetry_equiv_pos_site_id
 _symmetry_equiv_pos_as_xyz
  1  'x, y, z'
loop_
 _atom_site_type_symbol
 _atom_site_label
 _atom_site_symmetry_multiplicity
 _atom_site_fract_x
 _atom_site_fract_y
 _atom_site_fract_z
 _atom_site_occupancy
  Sr  Sr0  1  0.502742  0.502189  0.264541  1
  Sr  Sr1  1  0.996057  0.002959  0.265955  1
  Sr  Sr2  1  0.003942  0.997042  0.734045  1
  Sr  Sr3  1  0.497257  0.497810  0.735459  1
  Sc  Sc4  1  0.000000  0.499999  0.000000  1
  Sc  Sc5  1  0.499999  0.000000  0.500000  1
  Ru  Ru6  1  0.999999  0.499999  0.500000  1
  W  W7  1  0.500001  0.000000  0.000000  1
  O  O8  1  0.734234  0.243386  0.032018  1
  O  O9  1  0.740666  0.763145  0.032114  1
  O  O10  1  0.441227  0.999268  0.237446  1
  O  O11  1  0.057780  0.498993  0.252142  1
  O  O12  1  0.750614  0.256005  0.471377  1
  O  O13  1  0.756445  0.749973  0.471450  1
  O  O14  1  0.243556  0.250028  0.528550  1
  O  O15  1  0.249385  0.743996  0.528623  1
  O  O16  1  0.942219  0.501008  0.747858  1
  O  O17  1  0.558773  0.000733  0.762553  1
  O  O18  1  0.259334  0.236856  0.967886  1
  O  O19  1  0.265765  0.756615  0.967982  1
