# generated using pymatgen
data_Ho2Lu4Al23VOs8
_symmetry_space_group_name_H-M   'P 1'
_cell_length_a   8.80828692
_cell_length_b   8.80828765
_cell_length_c   9.49695500
_cell_angle_alpha   90.00545770
_cell_angle_beta   89.99454089
_cell_angle_gamma   119.93247784
_symmetry_Int_Tables_number   1
_chemical_formula_structural   Ho2Lu4Al23VOs8
_chemical_formula_sum   'Ho2 Lu4 Al23 V1 Os8'
_cell_volume   638.54725538
_cell_formula_units_Z   1
loop_
 _symmetry_equiv_pos_site_id
 _symmetry_equiv_pos_as_xyz
  1  'x, y, z'
loop_
 _atom_site_type_symbol
 _atom_site_label
 _atom_site_symmetry_multiplicity
 _atom_site_fract_x
 _atom_site_fract_y
 _atom_site_fract_z
 _atom_site_occupancy
  Ho  Ho0  1  0.196040  0.803960  0.245802  1
  Ho  Ho1  1  0.806812  0.193188  0.750594  1
  Lu  Lu2  1  0.197262  0.394532  0.245063  1
  Lu  Lu3  1  0.805566  0.611273  0.750258  1
  Lu  Lu4  1  0.605468  0.802738  0.245063  1
  Lu  Lu5  1  0.388727  0.194434  0.750258  1
  Al  Al6  1  0.666356  0.333644  0.976497  1
  Al  Al7  1  0.666376  0.333624  0.520159  1
  Al  Al8  1  0.333642  0.666358  0.481102  1
  Al  Al9  1  0.162471  0.324031  0.575760  1
  Al  Al10  1  0.836862  0.674533  0.424475  1
  Al  Al11  1  0.675969  0.837529  0.575760  1
  Al  Al12  1  0.835281  0.671254  0.076829  1
  Al  Al13  1  0.325467  0.163138  0.424475  1
  Al  Al14  1  0.160883  0.320862  0.925079  1
  Al  Al15  1  0.161967  0.838033  0.576443  1
  Al  Al16  1  0.328746  0.164719  0.076829  1
  Al  Al17  1  0.837355  0.162645  0.423714  1
  Al  Al18  1  0.679138  0.839117  0.925079  1
  Al  Al19  1  0.835779  0.164221  0.077650  1
  Al  Al20  1  0.160416  0.839584  0.924131  1
  Al  Al21  1  0.562735  0.124203  0.253288  1
  Al  Al22  1  0.440761  0.882959  0.751498  1
  Al  Al23  1  0.875797  0.437265  0.253288  1
  Al  Al24  1  0.117041  0.559239  0.751498  1
  Al  Al25  1  0.561517  0.438483  0.253435  1
  Al  Al26  1  0.442065  0.557935  0.751609  1
  Al  Al27  1  0.999223  0.000777  0.250272  1
  Al  Al28  1  0.000767  0.999233  0.749697  1
  V  V29  1  0.333363  0.666637  0.985359  1
  Os  Os30  1  0.495630  0.990904  0.005511  1
  Os  Os31  1  0.009096  0.504370  0.005511  1
  Os  Os32  1  0.499442  0.999023  0.503961  1
  Os  Os33  1  0.495380  0.504620  0.005673  1
  Os  Os34  1  0.000977  0.500558  0.503961  1
  Os  Os35  1  0.499600  0.500400  0.504182  1
  Os  Os36  1  0.000024  0.999976  0.000719  1
  Os  Os37  1  0.999995  0.000005  0.499517  1
