# generated using pymatgen
data_Ga3Sn2B2Ir5Pt
_symmetry_space_group_name_H-M   'P 1'
_cell_length_a   6.50316673
_cell_length_b   6.48617445
_cell_length_c   5.57379415
_cell_angle_alpha   90.07362622
_cell_angle_beta   89.96328236
_cell_angle_gamma   119.91359545
_symmetry_Int_Tables_number   1
_chemical_formula_structural   Ga3Sn2B2Ir5Pt
_chemical_formula_sum   'Ga3 Sn2 B2 Ir5 Pt1'
_cell_volume   203.78498456
_cell_formula_units_Z   1
loop_
 _symmetry_equiv_pos_site_id
 _symmetry_equiv_pos_as_xyz
  1  'x, y, z'
loop_
 _atom_site_type_symbol
 _atom_site_label
 _atom_site_symmetry_multiplicity
 _atom_site_fract_x
 _atom_site_fract_y
 _atom_site_fract_z
 _atom_site_occupancy
  Ga  Ga0  1  0.000000  0.600418  0.004811  1
  Ga  Ga1  1  0.408426  0.400525  0.004270  1
  Ga  Ga2  1  0.591574  0.992099  0.004270  1
  Sn  Sn3  1  0.662974  0.334038  0.494721  1
  Sn  Sn4  1  0.337026  0.671065  0.494721  1
  B  B5  1  0.000000  0.995681  0.499253  1
  B  B6  1  0.000000  0.995957  0.001854  1
  Ir  Ir7  1  0.000000  0.260069  0.246611  1
  Ir  Ir8  1  0.739104  0.740766  0.252707  1
  Ir  Ir9  1  0.261040  0.000860  0.749912  1
  Ir  Ir10  1  0.260896  0.001662  0.252707  1
  Ir  Ir11  1  0.738960  0.739820  0.749912  1
  Pt  Pt12  1  0.000000  0.267040  0.744251  1
