# generated using pymatgen
data_YHoLu2(ReN3)4
_symmetry_space_group_name_H-M   'P 1'
_cell_length_a   7.34780193
_cell_length_b   7.34780179
_cell_length_c   6.24271260
_cell_angle_alpha   72.68203127
_cell_angle_beta   72.68203200
_cell_angle_gamma   81.59246832
_symmetry_Int_Tables_number   1
_chemical_formula_structural   YHoLu2(ReN3)4
_chemical_formula_sum   'Y1 Ho1 Lu2 Re4 N12'
_cell_volume   306.56552357
_cell_formula_units_Z   1
loop_
 _symmetry_equiv_pos_site_id
 _symmetry_equiv_pos_as_xyz
  1  'x, y, z'
loop_
 _atom_site_type_symbol
 _atom_site_label
 _atom_site_symmetry_multiplicity
 _atom_site_fract_x
 _atom_site_fract_y
 _atom_site_fract_z
 _atom_site_occupancy
  Y  Y0  1  0.286981  0.713019  0.750000  1
  Ho  Ho1  1  0.714041  0.285959  0.250000  1
  Lu  Lu2  1  0.907135  0.092865  0.750000  1
  Lu  Lu3  1  0.092320  0.907680  0.250000  1
  Re  Re4  1  0.622837  0.796890  0.279938  1
  Re  Re5  1  0.203110  0.377163  0.220062  1
  Re  Re6  1  0.377601  0.203315  0.719470  1
  Re  Re7  1  0.796685  0.622399  0.780530  1
  N  N8  1  0.668573  0.632845  0.086476  1
  N  N9  1  0.371101  0.873871  0.333888  1
  N  N10  1  0.367155  0.331427  0.413524  1
  N  N11  1  0.126129  0.628899  0.166112  1
  N  N12  1  0.005836  0.214450  0.342985  1
  N  N13  1  0.785550  0.994164  0.157015  1
  N  N14  1  0.213242  0.007811  0.843188  1
  N  N15  1  0.629458  0.126576  0.663484  1
  N  N16  1  0.332149  0.365514  0.915142  1
  N  N17  1  0.873424  0.370542  0.836516  1
  N  N18  1  0.634486  0.667851  0.584858  1
  N  N19  1  0.992189  0.786758  0.656812  1
