# generated using pymatgen
data_Hf2Sc2(Al8Pt3)3
_symmetry_space_group_name_H-M   'P 1'
_cell_length_a   7.46568737
_cell_length_b   7.46648357
_cell_length_c   12.97178699
_cell_angle_alpha   84.41709745
_cell_angle_beta   101.03543817
_cell_angle_gamma   119.92564994
_symmetry_Int_Tables_number   1
_chemical_formula_structural   Hf2Sc2(Al8Pt3)3
_chemical_formula_sum   'Hf2 Sc2 Al24 Pt9'
_cell_volume   615.08417244
_cell_formula_units_Z   1
loop_
 _symmetry_equiv_pos_site_id
 _symmetry_equiv_pos_as_xyz
  1  'x, y, z'
loop_
 _atom_site_type_symbol
 _atom_site_label
 _atom_site_symmetry_multiplicity
 _atom_site_fract_x
 _atom_site_fract_y
 _atom_site_fract_z
 _atom_site_occupancy
  Hf  Hf0  1  0.732562  0.000234  0.191202  1
  Hf  Hf1  1  0.267438  0.999766  0.808798  1
  Sc  Sc2  1  0.062350  0.668129  0.192290  1
  Sc  Sc3  1  0.937650  0.331871  0.807710  1
  Al  Al4  1  0.813080  0.871712  0.815778  1
  Al  Al5  1  0.186920  0.128288  0.184222  1
  Al  Al6  1  0.983912  0.666293  0.941121  1
  Al  Al7  1  0.016088  0.333707  0.058879  1
  Al  Al8  1  0.395735  0.667054  0.816891  1
  Al  Al9  1  0.604265  0.332946  0.183109  1
  Al  Al10  1  0.886209  0.664734  0.676634  1
  Al  Al11  1  0.113791  0.335266  0.323366  1
  Al  Al12  1  0.599685  0.451981  0.816201  1
  Al  Al13  1  0.400315  0.548019  0.183799  1
  Al  Al14  1  0.229202  0.337933  0.675257  1
  Al  Al15  1  0.770798  0.662067  0.324743  1
  Al  Al16  1  0.853041  0.333266  0.560597  1
  Al  Al17  1  0.186806  0.999691  0.560642  1
  Al  Al18  1  0.813194  0.000309  0.439358  1
  Al  Al19  1  0.352954  0.995617  0.058968  1
  Al  Al20  1  0.647046  0.004383  0.941032  1
  Al  Al21  1  0.558331  0.995812  0.676673  1
  Al  Al22  1  0.441669  0.004188  0.323327  1
  Al  Al23  1  0.521430  0.667146  0.563705  1
  Al  Al24  1  0.478570  0.332854  0.436295  1
  Al  Al25  1  0.687578  0.670773  0.051492  1
  Al  Al26  1  0.312422  0.329227  0.948508  1
  Al  Al27  1  0.146959  0.666734  0.439403  1
  Pt  Pt28  1  0.328330  0.671895  0.000161  1
  Pt  Pt29  1  0.544664  0.322917  0.637905  1
  Pt  Pt30  1  0.455336  0.677083  0.362095  1
  Pt  Pt31  1  0.889819  0.009380  0.639625  1
  Pt  Pt32  1  0.110181  0.990620  0.360375  1
  Pt  Pt33  1  0.671670  0.328105  0.999839  1
  Pt  Pt34  1  0.203199  0.667313  0.639738  1
  Pt  Pt35  1  0.796801  0.332687  0.360262  1
  Pt  Pt36  1  0.000000  0.000000  0.000000  1
