# generated using pymatgen
data_DyFe2(CoP)3
_symmetry_space_group_name_H-M   'P 1'
_cell_length_a   3.67997400
_cell_length_b   10.25924400
_cell_length_c   11.82965600
_cell_angle_alpha   90.00000000
_cell_angle_beta   90.00000000
_cell_angle_gamma   90.00000000
_symmetry_Int_Tables_number   1
_chemical_formula_structural   DyFe2(CoP)3
_chemical_formula_sum   'Dy4 Fe8 Co12 P12'
_cell_volume   446.61388916
_cell_formula_units_Z   4
loop_
 _symmetry_equiv_pos_site_id
 _symmetry_equiv_pos_as_xyz
  1  'x, y, z'
loop_
 _atom_site_type_symbol
 _atom_site_label
 _atom_site_symmetry_multiplicity
 _atom_site_fract_x
 _atom_site_fract_y
 _atom_site_fract_z
 _atom_site_occupancy
  Dy  Dy0  1  0.250000  0.581806  0.704333  1
  Dy  Dy1  1  0.250000  0.918194  0.204333  1
  Dy  Dy2  1  0.750000  0.418194  0.295667  1
  Dy  Dy3  1  0.750000  0.081806  0.795667  1
  Fe  Fe4  1  0.250000  0.710880  0.987604  1
  Fe  Fe5  1  0.250000  0.789120  0.487604  1
  Fe  Fe6  1  0.750000  0.289120  0.012396  1
  Fe  Fe7  1  0.750000  0.210880  0.512396  1
  Fe  Fe8  1  0.250000  0.404859  0.488334  1
  Fe  Fe9  1  0.250000  0.095141  0.988334  1
  Fe  Fe10  1  0.750000  0.595141  0.511666  1
  Fe  Fe11  1  0.750000  0.904859  0.011666  1
  Co  Co12  1  0.250000  0.221404  0.175631  1
  Co  Co13  1  0.250000  0.278596  0.675631  1
  Co  Co14  1  0.750000  0.778596  0.824369  1
  Co  Co15  1  0.750000  0.721404  0.324369  1
  Co  Co16  1  0.250000  0.881118  0.698420  1
  Co  Co17  1  0.250000  0.618882  0.198420  1
  Co  Co18  1  0.750000  0.118882  0.301580  1
  Co  Co19  1  0.750000  0.381118  0.801580  1
  Co  Co20  1  0.250000  0.466194  0.933197  1
  Co  Co21  1  0.250000  0.033806  0.433197  1
  Co  Co22  1  0.750000  0.533806  0.066803  1
  Co  Co23  1  0.750000  0.966194  0.566803  1
  P  P24  1  0.250000  0.419720  0.112444  1
  P  P25  1  0.250000  0.080280  0.612444  1
  P  P26  1  0.750000  0.580280  0.887556  1
  P  P27  1  0.750000  0.919720  0.387556  1
  P  P28  1  0.250000  0.268973  0.868705  1
  P  P29  1  0.250000  0.231027  0.368705  1
  P  P30  1  0.750000  0.731027  0.131295  1
  P  P31  1  0.750000  0.768973  0.631295  1
  P  P32  1  0.250000  0.600579  0.393752  1
  P  P33  1  0.250000  0.899421  0.893752  1
  P  P34  1  0.750000  0.399421  0.606248  1
  P  P35  1  0.750000  0.100579  0.106248  1
