# generated using pymatgen
data_Pr5Mn2O11F
_symmetry_space_group_name_H-M   'P 1'
_cell_length_a   7.06148497
_cell_length_b   7.12295824
_cell_length_c   7.58215030
_cell_angle_alpha   74.81970817
_cell_angle_beta   74.64581357
_cell_angle_gamma   50.19437664
_symmetry_Int_Tables_number   1
_chemical_formula_structural   Pr5Mn2O11F
_chemical_formula_sum   'Pr5 Mn2 O11 F1'
_cell_volume   280.31706887
_cell_formula_units_Z   1
loop_
 _symmetry_equiv_pos_site_id
 _symmetry_equiv_pos_as_xyz
  1  'x, y, z'
loop_
 _atom_site_type_symbol
 _atom_site_label
 _atom_site_symmetry_multiplicity
 _atom_site_fract_x
 _atom_site_fract_y
 _atom_site_fract_z
 _atom_site_occupancy
  Pr  Pr0  1  0.321833  0.295400  0.344860  1
  Pr  Pr1  1  0.673260  0.699391  0.650539  1
  Pr  Pr2  1  0.697167  0.692251  0.157294  1
  Pr  Pr3  1  0.313294  0.290645  0.851136  1
  Pr  Pr4  1  0.985413  0.032056  0.496425  1
  Mn  Mn5  1  0.760818  0.241855  0.997812  1
  Mn  Mn6  1  0.241196  0.755067  0.002060  1
  O  O7  1  0.998277  0.001215  0.171169  1
  O  O8  1  0.399136  0.904243  0.421571  1
  O  O9  1  0.504934  0.496362  0.169740  1
  O  O10  1  0.102501  0.582035  0.079248  1
  O  O11  1  0.909079  0.406989  0.426849  1
  O  O12  1  0.001551  0.997114  0.828955  1
  O  O13  1  0.593289  0.096000  0.578940  1
  O  O14  1  0.497627  0.498079  0.829486  1
  O  O15  1  0.585322  0.098300  0.078176  1
  O  O16  1  0.415922  0.895004  0.924678  1
  O  O17  1  0.902215  0.414315  0.915160  1
  F  F18  1  0.097165  0.603680  0.575902  1
