# generated using pymatgen
data_Hf4Zr2Sn6(IrRh)3
_symmetry_space_group_name_H-M   'P 1'
_cell_length_a   7.43561876
_cell_length_b   7.42547056
_cell_length_c   7.24748402
_cell_angle_alpha   90.00068399
_cell_angle_beta   89.99164403
_cell_angle_gamma   120.19940248
_symmetry_Int_Tables_number   1
_chemical_formula_structural   Hf4Zr2Sn6(IrRh)3
_chemical_formula_sum   'Hf4 Zr2 Sn6 Ir3 Rh3'
_cell_volume   345.84606863
_cell_formula_units_Z   1
loop_
 _symmetry_equiv_pos_site_id
 _symmetry_equiv_pos_as_xyz
  1  'x, y, z'
loop_
 _atom_site_type_symbol
 _atom_site_label
 _atom_site_symmetry_multiplicity
 _atom_site_fract_x
 _atom_site_fract_y
 _atom_site_fract_z
 _atom_site_occupancy
  Hf  Hf0  1  0.387181  0.974229  0.749059  1
  Hf  Hf1  1  0.985310  0.389013  0.251089  1
  Hf  Hf2  1  0.610978  0.597182  0.251465  1
  Hf  Hf3  1  0.404162  0.016640  0.251291  1
  Zr  Zr4  1  0.029324  0.414410  0.750031  1
  Zr  Zr5  1  0.586971  0.614576  0.750209  1
  Sn  Sn6  1  0.268976  0.269034  0.500586  1
  Sn  Sn7  1  0.998907  0.730152  0.500747  1
  Sn  Sn8  1  0.996372  0.726615  0.000515  1
  Sn  Sn9  1  0.732212  0.000503  0.501388  1
  Sn  Sn10  1  0.731126  0.003094  0.999806  1
  Sn  Sn11  1  0.272631  0.269873  0.000672  1
  Ir  Ir12  1  0.333048  0.667781  0.455377  1
  Ir  Ir13  1  0.663453  0.329864  0.523000  1
  Ir  Ir14  1  0.333152  0.667748  0.044529  1
  Rh  Rh15  1  0.003036  0.999926  0.751616  1
  Rh  Rh16  1  0.999960  0.999802  0.249677  1
  Rh  Rh17  1  0.663200  0.329558  0.968941  1
