# generated using pymatgen
data_Y4Ho8Tc3Os
_symmetry_space_group_name_H-M   'P 1'
_cell_length_a   6.26891353
_cell_length_b   7.44244901
_cell_length_c   9.08526000
_cell_angle_alpha   90.00000000
_cell_angle_beta   90.00000000
_cell_angle_gamma   90.04869351
_symmetry_Int_Tables_number   1
_chemical_formula_structural   Y4Ho8Tc3Os
_chemical_formula_sum   'Y4 Ho8 Tc3 Os1'
_cell_volume   423.88236723
_cell_formula_units_Z   1
loop_
 _symmetry_equiv_pos_site_id
 _symmetry_equiv_pos_as_xyz
  1  'x, y, z'
loop_
 _atom_site_type_symbol
 _atom_site_label
 _atom_site_symmetry_multiplicity
 _atom_site_fract_x
 _atom_site_fract_y
 _atom_site_fract_z
 _atom_site_occupancy
  Y  Y0  1  0.876002  0.540695  0.250000  1
  Y  Y1  1  0.625618  0.038808  0.250000  1
  Y  Y2  1  0.127235  0.458269  0.750000  1
  Y  Y3  1  0.375008  0.959893  0.750000  1
  Ho  Ho4  1  0.339958  0.675143  0.061190  1
  Ho  Ho5  1  0.157741  0.175207  0.437656  1
  Ho  Ho6  1  0.659811  0.325874  0.562691  1
  Ho  Ho7  1  0.839700  0.823668  0.936952  1
  Ho  Ho8  1  0.659811  0.325874  0.937309  1
  Ho  Ho9  1  0.839700  0.823668  0.563048  1
  Ho  Ho10  1  0.339958  0.675143  0.438810  1
  Ho  Ho11  1  0.157741  0.175207  0.062344  1
  Tc  Tc12  1  0.047105  0.884861  0.250000  1
  Tc  Tc13  1  0.455866  0.386725  0.250000  1
  Tc  Tc14  1  0.953572  0.115076  0.750000  1
  Os  Os15  1  0.545176  0.615887  0.750000  1
