# generated using pymatgen
data_V3GaRuS8
_symmetry_space_group_name_H-M   'P 1'
_cell_length_a   6.85718955
_cell_length_b   6.85128499
_cell_length_c   6.84561034
_cell_angle_alpha   59.92341857
_cell_angle_beta   59.87219678
_cell_angle_gamma   59.97132195
_symmetry_Int_Tables_number   1
_chemical_formula_structural   V3GaRuS8
_chemical_formula_sum   'V3 Ga1 Ru1 S8'
_cell_volume   227.01194576
_cell_formula_units_Z   1
loop_
 _symmetry_equiv_pos_site_id
 _symmetry_equiv_pos_as_xyz
  1  'x, y, z'
loop_
 _atom_site_type_symbol
 _atom_site_label
 _atom_site_symmetry_multiplicity
 _atom_site_fract_x
 _atom_site_fract_y
 _atom_site_fract_z
 _atom_site_occupancy
  V  V0  1  0.604660  0.192069  0.598638  1
  V  V1  1  0.192004  0.604653  0.598718  1
  V  V2  1  0.604660  0.604647  0.598652  1
  Ga  Ga3  1  0.998411  0.998413  0.004766  1
  Ru  Ru4  1  0.608162  0.608075  0.175615  1
  S  S5  1  0.863288  0.863315  0.410174  1
  S  S6  1  0.861037  0.413117  0.864820  1
  S  S7  1  0.413155  0.861068  0.864808  1
  S  S8  1  0.861004  0.861053  0.864791  1
  S  S9  1  0.370232  0.370275  0.889134  1
  S  S10  1  0.366734  0.366603  0.376703  1
  S  S11  1  0.889981  0.366680  0.376549  1
  S  S12  1  0.366671  0.890033  0.376634  1
