# generated using pymatgen
data_Ho2BeIr2
_symmetry_space_group_name_H-M   'P 1'
_cell_length_a   5.50671154
_cell_length_b   5.50671054
_cell_length_c   5.50671162
_cell_angle_alpha   140.15898974
_cell_angle_beta   116.12995876
_cell_angle_gamma   77.98113837
_symmetry_Int_Tables_number   1
_chemical_formula_structural   Ho2BeIr2
_chemical_formula_sum   'Ho2 Be1 Ir2'
_cell_volume   93.56435846
_cell_formula_units_Z   1
loop_
 _symmetry_equiv_pos_site_id
 _symmetry_equiv_pos_as_xyz
  1  'x, y, z'
loop_
 _atom_site_type_symbol
 _atom_site_label
 _atom_site_symmetry_multiplicity
 _atom_site_fract_x
 _atom_site_fract_y
 _atom_site_fract_z
 _atom_site_occupancy
  Ho  Ho0  1  0.697566  0.197566  0.500000  1
  Ho  Ho1  1  0.302433  0.802435  0.500001  1
  Be  Be2  1  0.000000  0.000000  0.000000  1
  Ir  Ir3  1  0.754607  0.500000  0.254607  1
  Ir  Ir4  1  0.245393  0.500001  0.745394  1
