# generated using pymatgen
data_Sc3TiFe2(Co5B2)2
_symmetry_space_group_name_H-M   'P 1'
_cell_length_a   8.64551610
_cell_length_b   8.64551624
_cell_length_c   2.95525800
_cell_angle_alpha   90.00000000
_cell_angle_beta   90.00000000
_cell_angle_gamma   90.43952160
_symmetry_Int_Tables_number   1
_chemical_formula_structural   Sc3TiFe2(Co5B2)2
_chemical_formula_sum   'Sc3 Ti1 Fe2 Co10 B4'
_cell_volume   220.88411179
_cell_formula_units_Z   1
loop_
 _symmetry_equiv_pos_site_id
 _symmetry_equiv_pos_as_xyz
  1  'x, y, z'
loop_
 _atom_site_type_symbol
 _atom_site_label
 _atom_site_symmetry_multiplicity
 _atom_site_fract_x
 _atom_site_fract_y
 _atom_site_fract_z
 _atom_site_occupancy
  Sc  Sc0  1  0.824492  0.324492  0.000000  1
  Sc  Sc1  1  0.323188  0.175038  0.000000  1
  Sc  Sc2  1  0.675038  0.823188  0.000000  1
  Ti  Ti3  1  0.175068  0.675068  0.000000  1
  Fe  Fe4  1  0.999504  0.001934  0.000000  1
  Fe  Fe5  1  0.501934  0.499504  0.000000  1
  Co  Co6  1  0.496988  0.996988  0.500000  1
  Co  Co7  1  0.006167  0.506167  0.500000  1
  Co  Co8  1  0.068737  0.221806  0.500000  1
  Co  Co9  1  0.214142  0.922845  0.500000  1
  Co  Co10  1  0.780649  0.067105  0.500000  1
  Co  Co11  1  0.939700  0.781813  0.500000  1
  Co  Co12  1  0.422845  0.714142  0.500000  1
  Co  Co13  1  0.567105  0.280649  0.500000  1
  Co  Co14  1  0.721806  0.568737  0.500000  1
  Co  Co15  1  0.281813  0.439700  0.500000  1
  B  B16  1  0.618552  0.118552  0.000000  1
  B  B17  1  0.122767  0.383748  0.000000  1
  B  B18  1  0.883748  0.622767  0.000000  1
  B  B19  1  0.375759  0.875759  0.000000  1
