# generated using pymatgen
data_DyHo(MgRh)2
_symmetry_space_group_name_H-M   'P 1'
_cell_length_a   4.10657800
_cell_length_b   7.09847764
_cell_length_c   8.50768839
_cell_angle_alpha   90.03623829
_cell_angle_beta   90.00000000
_cell_angle_gamma   90.00000000
_symmetry_Int_Tables_number   1
_chemical_formula_structural   DyHo(MgRh)2
_chemical_formula_sum   'Dy2 Ho2 Mg4 Rh4'
_cell_volume   248.00291352
_cell_formula_units_Z   2
loop_
 _symmetry_equiv_pos_site_id
 _symmetry_equiv_pos_as_xyz
  1  'x, y, z'
loop_
 _atom_site_type_symbol
 _atom_site_label
 _atom_site_symmetry_multiplicity
 _atom_site_fract_x
 _atom_site_fract_y
 _atom_site_fract_z
 _atom_site_occupancy
  Dy  Dy0  1  0.750000  0.963441  0.676723  1
  Dy  Dy1  1  0.250000  0.036559  0.323277  1
  Ho  Ho2  1  0.250000  0.537711  0.175357  1
  Ho  Ho3  1  0.750000  0.462289  0.824643  1
  Mg  Mg4  1  0.250000  0.636465  0.559785  1
  Mg  Mg5  1  0.750000  0.363535  0.440215  1
  Mg  Mg6  1  0.750000  0.862963  0.059215  1
  Mg  Mg7  1  0.250000  0.137037  0.940785  1
  Rh  Rh8  1  0.250000  0.749565  0.871194  1
  Rh  Rh9  1  0.750000  0.250435  0.128806  1
  Rh  Rh10  1  0.750000  0.747018  0.369827  1
  Rh  Rh11  1  0.250000  0.252982  0.630173  1
