# generated using pymatgen
data_Nd4SiPd28Se
_symmetry_space_group_name_H-M   'P 1'
_cell_length_a   9.01238500
_cell_length_b   9.01238500
_cell_length_c   7.18602900
_cell_angle_alpha   90.00000000
_cell_angle_beta   90.00000000
_cell_angle_gamma   90.00000000
_symmetry_Int_Tables_number   1
_chemical_formula_structural   Nd4SiPd28Se
_chemical_formula_sum   'Nd4 Si1 Pd28 Se1'
_cell_volume   583.67143270
_cell_formula_units_Z   1
loop_
 _symmetry_equiv_pos_site_id
 _symmetry_equiv_pos_as_xyz
  1  'x, y, z'
loop_
 _atom_site_type_symbol
 _atom_site_label
 _atom_site_symmetry_multiplicity
 _atom_site_fract_x
 _atom_site_fract_y
 _atom_site_fract_z
 _atom_site_occupancy
  Nd  Nd0  1  0.500000  0.000000  0.933950  1
  Nd  Nd1  1  0.000000  0.500000  0.065726  1
  Nd  Nd2  1  0.000000  0.000000  0.500525  1
  Nd  Nd3  1  0.500000  0.500000  0.500525  1
  Si  Si4  1  0.000000  0.500000  0.550683  1
  Pd  Pd5  1  0.328028  0.828028  0.622991  1
  Pd  Pd6  1  0.328028  0.171972  0.622991  1
  Pd  Pd7  1  0.671972  0.828028  0.622991  1
  Pd  Pd8  1  0.671972  0.171972  0.622991  1
  Pd  Pd9  1  0.164716  0.664716  0.383482  1
  Pd  Pd10  1  0.164716  0.335284  0.383482  1
  Pd  Pd11  1  0.835284  0.664716  0.383482  1
  Pd  Pd12  1  0.835284  0.335284  0.383482  1
  Pd  Pd13  1  0.500000  0.763907  0.250970  1
  Pd  Pd14  1  0.500000  0.236093  0.250970  1
  Pd  Pd15  1  0.263907  0.000000  0.250970  1
  Pd  Pd16  1  0.736093  0.000000  0.250970  1
  Pd  Pd17  1  0.000000  0.728938  0.742225  1
  Pd  Pd18  1  0.000000  0.271062  0.742225  1
  Pd  Pd19  1  0.228938  0.500000  0.742225  1
  Pd  Pd20  1  0.771062  0.500000  0.742225  1
  Pd  Pd21  1  0.500000  0.347855  0.857487  1
  Pd  Pd22  1  0.500000  0.652145  0.857487  1
  Pd  Pd23  1  0.847855  0.000000  0.857487  1
  Pd  Pd24  1  0.152145  0.000000  0.857487  1
  Pd  Pd25  1  0.000000  0.151337  0.142618  1
  Pd  Pd26  1  0.000000  0.848663  0.142618  1
  Pd  Pd27  1  0.651337  0.500000  0.142618  1
  Pd  Pd28  1  0.348663  0.500000  0.142618  1
  Pd  Pd29  1  0.247615  0.747615  0.999920  1
  Pd  Pd30  1  0.247615  0.252385  0.999920  1
  Pd  Pd31  1  0.752385  0.747615  0.999920  1
  Pd  Pd32  1  0.752385  0.252385  0.999920  1
  Se  Se33  1  0.500000  0.000000  0.449820  1
