# generated using pymatgen
data_Li3Nd3Si2Ge
_symmetry_space_group_name_H-M   'P 1'
_cell_length_a   7.27280400
_cell_length_b   7.27280312
_cell_length_c   4.35300100
_cell_angle_alpha   90.00000000
_cell_angle_beta   90.00000000
_cell_angle_gamma   120.00000402
_symmetry_Int_Tables_number   1
_chemical_formula_structural   Li3Nd3Si2Ge
_chemical_formula_sum   'Li3 Nd3 Si2 Ge1'
_cell_volume   199.39905487
_cell_formula_units_Z   1
loop_
 _symmetry_equiv_pos_site_id
 _symmetry_equiv_pos_as_xyz
  1  'x, y, z'
loop_
 _atom_site_type_symbol
 _atom_site_label
 _atom_site_symmetry_multiplicity
 _atom_site_fract_x
 _atom_site_fract_y
 _atom_site_fract_z
 _atom_site_occupancy
  Li  Li0  1  0.233288  0.000000  0.500000  1
  Li  Li1  1  0.766712  0.766712  0.500000  1
  Li  Li2  1  0.000000  0.233288  0.500000  1
  Nd  Nd3  1  0.000000  0.581042  0.000000  1
  Nd  Nd4  1  0.581042  0.000000  0.000000  1
  Nd  Nd5  1  0.418958  0.418958  0.000000  1
  Si  Si6  1  0.333333  0.666667  0.500000  1
  Si  Si7  1  0.666667  0.333333  0.500000  1
  Ge  Ge8  1  0.000000  0.000000  0.000000  1
