# generated using pymatgen
data_YbNi21SnB6
_symmetry_space_group_name_H-M   'P 1'
_cell_length_a   7.48488554
_cell_length_b   7.48238785
_cell_length_c   7.48396703
_cell_angle_alpha   59.98385451
_cell_angle_beta   60.00486878
_cell_angle_gamma   59.99401232
_symmetry_Int_Tables_number   1
_chemical_formula_structural   YbNi21SnB6
_chemical_formula_sum   'Yb1 Ni21 Sn1 B6'
_cell_volume   296.33677310
_cell_formula_units_Z   1
loop_
 _symmetry_equiv_pos_site_id
 _symmetry_equiv_pos_as_xyz
  1  'x, y, z'
loop_
 _atom_site_type_symbol
 _atom_site_label
 _atom_site_symmetry_multiplicity
 _atom_site_fract_x
 _atom_site_fract_y
 _atom_site_fract_z
 _atom_site_occupancy
  Yb  Yb0  1  0.249953  0.249921  0.249694  1
  Ni  Ni1  1  0.999908  0.000129  0.000063  1
  Ni  Ni2  1  0.615666  0.615293  0.153474  1
  Ni  Ni3  1  0.615544  0.153602  0.615410  1
  Ni  Ni4  1  0.153522  0.615367  0.615579  1
  Ni  Ni5  1  0.615551  0.615333  0.615489  1
  Ni  Ni6  1  0.387122  0.386847  0.838945  1
  Ni  Ni7  1  0.387030  0.838877  0.387049  1
  Ni  Ni8  1  0.839049  0.386817  0.387046  1
  Ni  Ni9  1  0.387162  0.386909  0.387091  1
  Ni  Ni10  1  0.000667  0.000768  0.336350  1
  Ni  Ni11  1  0.662336  0.000752  0.336195  1
  Ni  Ni12  1  0.000662  0.662477  0.336145  1
  Ni  Ni13  1  0.662429  0.336208  0.000648  1
  Ni  Ni14  1  0.000650  0.336390  0.000576  1
  Ni  Ni15  1  0.000644  0.336190  0.662463  1
  Ni  Ni16  1  0.336077  0.662477  0.000680  1
  Ni  Ni17  1  0.336046  0.000810  0.662394  1
  Ni  Ni18  1  0.336300  0.000809  0.000677  1
  Ni  Ni19  1  0.000663  0.000806  0.662402  1
  Ni  Ni20  1  0.000747  0.662415  0.000710  1
  Ni  Ni21  1  0.662294  0.000787  0.000676  1
  Sn  Sn22  1  0.749943  0.750108  0.750225  1
  B  B23  1  0.728339  0.728348  0.271649  1
  B  B24  1  0.271641  0.728391  0.271664  1
  B  B25  1  0.728458  0.271582  0.271578  1
  B  B26  1  0.271608  0.271644  0.728436  1
  B  B27  1  0.728319  0.271651  0.728360  1
  B  B28  1  0.271668  0.728290  0.728333  1
