# generated using pymatgen
data_K4Ba(TaSe4)2
_symmetry_space_group_name_H-M   'P 1'
_cell_length_a   12.33612433
_cell_length_b   12.33612479
_cell_length_c   12.33612486
_cell_angle_alpha   133.91869218
_cell_angle_beta   128.99832704
_cell_angle_gamma   71.15950812
_symmetry_Int_Tables_number   1
_chemical_formula_structural   K4Ba(TaSe4)2
_chemical_formula_sum   'K8 Ba2 Ta4 Se16'
_cell_volume   1029.08519874
_cell_formula_units_Z   2
loop_
 _symmetry_equiv_pos_site_id
 _symmetry_equiv_pos_as_xyz
  1  'x, y, z'
loop_
 _atom_site_type_symbol
 _atom_site_label
 _atom_site_symmetry_multiplicity
 _atom_site_fract_x
 _atom_site_fract_y
 _atom_site_fract_z
 _atom_site_occupancy
  K  K0  1  0.499791  0.249791  0.250000  1
  K  K1  1  0.000209  0.750209  0.250000  1
  K  K2  1  0.577148  0.701139  0.123992  1
  K  K3  1  0.422852  0.298861  0.876008  1
  K  K4  1  0.500209  0.750209  0.750000  1
  K  K5  1  0.077148  0.453156  0.376008  1
  K  K6  1  0.922852  0.546844  0.623992  1
  K  K7  1  0.999791  0.249791  0.750000  1
  Ba  Ba8  1  0.250000  0.000000  0.250000  1
  Ba  Ba9  1  0.750000  0.000000  0.750000  1
  Ta  Ta10  1  0.132614  0.926049  0.793435  1
  Ta  Ta11  1  0.867386  0.073951  0.206565  1
  Ta  Ta12  1  0.367386  0.660821  0.293435  1
  Ta  Ta13  1  0.632614  0.339179  0.706565  1
  Se  Se14  1  0.599742  0.602576  0.373148  1
  Se  Se15  1  0.747736  0.975097  0.227361  1
  Se  Se16  1  0.896555  0.860255  0.963699  1
  Se  Se17  1  0.770572  0.397424  0.997166  1
  Se  Se18  1  0.729428  0.226594  0.126852  1
  Se  Se19  1  0.752264  0.479625  0.727361  1
  Se  Se20  1  0.252264  0.024903  0.772639  1
  Se  Se21  1  0.229428  0.602576  0.002834  1
  Se  Se22  1  0.247736  0.520375  0.272639  1
  Se  Se23  1  0.270572  0.773406  0.873148  1
  Se  Se24  1  0.103445  0.139745  0.036301  1
  Se  Se25  1  0.900258  0.773406  0.502834  1
  Se  Se26  1  0.099742  0.226594  0.497166  1
  Se  Se27  1  0.603445  0.067144  0.463699  1
  Se  Se28  1  0.400258  0.397424  0.626852  1
  Se  Se29  1  0.396555  0.932856  0.536301  1
