# generated using pymatgen
data_KSn3MoO8
_symmetry_space_group_name_H-M   'P 1'
_cell_length_a   7.60645594
_cell_length_b   7.60645578
_cell_length_c   10.74345104
_cell_angle_alpha   47.24924116
_cell_angle_beta   47.24924232
_cell_angle_gamma   24.81348902
_symmetry_Int_Tables_number   1
_chemical_formula_structural   KSn3MoO8
_chemical_formula_sum   'K1 Sn3 Mo1 O8'
_cell_volume   187.55232388
_cell_formula_units_Z   1
loop_
 _symmetry_equiv_pos_site_id
 _symmetry_equiv_pos_as_xyz
  1  'x, y, z'
loop_
 _atom_site_type_symbol
 _atom_site_label
 _atom_site_symmetry_multiplicity
 _atom_site_fract_x
 _atom_site_fract_y
 _atom_site_fract_z
 _atom_site_occupancy
  K  K0  1  0.494095  0.494095  0.003638  1
  Sn  Sn1  1  0.831156  0.831156  0.821137  1
  Sn  Sn2  1  0.649565  0.649565  0.513790  1
  Sn  Sn3  1  0.353863  0.353863  0.483910  1
  Mo  Mo4  1  0.168257  0.168257  0.178934  1
  O  O5  1  0.162538  0.162538  0.383689  1
  O  O6  1  0.834865  0.834865  0.624469  1
  O  O7  1  0.457211  0.457211  0.707993  1
  O  O8  1  0.540739  0.540739  0.296467  1
  O  O9  1  0.201877  0.201877  0.944544  1
  O  O10  1  0.804206  0.804206  0.039747  1
  O  O11  1  0.845128  0.845128  0.360654  1
  O  O12  1  0.156502  0.156502  0.641031  1
