# generated using pymatgen
data_CeMnAl10Co
_symmetry_space_group_name_H-M   'P 1'
_cell_length_a   6.81560281
_cell_length_b   6.81560286
_cell_length_c   9.01414039
_cell_angle_alpha   89.77740637
_cell_angle_beta   90.22259634
_cell_angle_gamma   97.61501862
_symmetry_Int_Tables_number   1
_chemical_formula_structural   CeMnAl10Co
_chemical_formula_sum   'Ce2 Mn2 Al20 Co2'
_cell_volume   415.03046488
_cell_formula_units_Z   2
loop_
 _symmetry_equiv_pos_site_id
 _symmetry_equiv_pos_as_xyz
  1  'x, y, z'
loop_
 _atom_site_type_symbol
 _atom_site_label
 _atom_site_symmetry_multiplicity
 _atom_site_fract_x
 _atom_site_fract_y
 _atom_site_fract_z
 _atom_site_occupancy
  Ce  Ce0  1  0.876529  0.123471  0.748814  1
  Ce  Ce1  1  0.123471  0.876529  0.251186  1
  Mn  Mn2  1  0.500000  0.000000  0.500000  1
  Mn  Mn3  1  0.000000  0.500000  0.500000  1
  Al  Al4  1  0.412537  0.133573  0.750128  1
  Al  Al5  1  0.133573  0.412537  0.249872  1
  Al  Al6  1  0.587463  0.866427  0.249872  1
  Al  Al7  1  0.866427  0.587463  0.750128  1
  Al  Al8  1  0.521224  0.778079  0.749308  1
  Al  Al9  1  0.778079  0.521224  0.250692  1
  Al  Al10  1  0.478776  0.221921  0.250692  1
  Al  Al11  1  0.221921  0.478776  0.749308  1
  Al  Al12  1  0.840097  0.159903  0.401700  1
  Al  Al13  1  0.159903  0.840097  0.598300  1
  Al  Al14  1  0.839879  0.160121  0.099840  1
  Al  Al15  1  0.160121  0.839879  0.900160  1
  Al  Al16  1  0.623682  0.376318  0.948906  1
  Al  Al17  1  0.376318  0.623682  0.051094  1
  Al  Al18  1  0.625389  0.374611  0.547931  1
  Al  Al19  1  0.374611  0.625389  0.452069  1
  Al  Al20  1  0.772783  0.772783  0.000000  1
  Al  Al21  1  0.772586  0.772586  0.500000  1
  Al  Al22  1  0.227217  0.227217  0.000000  1
  Al  Al23  1  0.227414  0.227414  0.500000  1
  Co  Co24  1  0.500000  0.000000  0.000000  1
  Co  Co25  1  0.000000  0.500000  0.000000  1
