# generated using pymatgen
data_Er2Tm2B12OsW
_symmetry_space_group_name_H-M   'P 1'
_cell_length_a   3.60174600
_cell_length_b   9.17220198
_cell_length_c   11.56225419
_cell_angle_alpha   89.84324978
_cell_angle_beta   90.00000000
_cell_angle_gamma   90.00000000
_symmetry_Int_Tables_number   1
_chemical_formula_structural   Er2Tm2B12OsW
_chemical_formula_sum   'Er4 Tm4 B24 Os2 W2'
_cell_volume   381.96852689
_cell_formula_units_Z   2
loop_
 _symmetry_equiv_pos_site_id
 _symmetry_equiv_pos_as_xyz
  1  'x, y, z'
loop_
 _atom_site_type_symbol
 _atom_site_label
 _atom_site_symmetry_multiplicity
 _atom_site_fract_x
 _atom_site_fract_y
 _atom_site_fract_z
 _atom_site_occupancy
  Er  Er0  1  0.000000  0.321288  0.413806  1
  Er  Er1  1  0.000000  0.678712  0.586194  1
  Er  Er2  1  0.000000  0.821269  0.086446  1
  Er  Er3  1  0.000000  0.178731  0.913554  1
  Tm  Tm4  1  0.000000  0.944949  0.371658  1
  Tm  Tm5  1  0.000000  0.055051  0.628343  1
  Tm  Tm6  1  0.000000  0.442170  0.127583  1
  Tm  Tm7  1  0.000000  0.557830  0.872416  1
  B  B8  1  0.500000  0.550889  0.434799  1
  B  B9  1  0.500000  0.449111  0.565201  1
  B  B10  1  0.500000  0.053604  0.066551  1
  B  B11  1  0.500000  0.946396  0.933449  1
  B  B12  1  0.500000  0.752025  0.421755  1
  B  B13  1  0.500000  0.247975  0.578245  1
  B  B14  1  0.500000  0.248811  0.081063  1
  B  B15  1  0.500000  0.751189  0.918937  1
  B  B16  1  0.500000  0.796111  0.263073  1
  B  B17  1  0.500000  0.203889  0.736927  1
  B  B18  1  0.500000  0.290292  0.233453  1
  B  B19  1  0.500000  0.709707  0.766547  1
  B  B20  1  0.500000  0.631732  0.181167  1
  B  B21  1  0.500000  0.368268  0.818833  1
  B  B22  1  0.500000  0.130398  0.313539  1
  B  B23  1  0.500000  0.869602  0.686461  1
  B  B24  1  0.500000  0.983093  0.211629  1
  B  B25  1  0.500000  0.016907  0.788371  1
  B  B26  1  0.500000  0.476880  0.286063  1
  B  B27  1  0.500000  0.523120  0.713937  1
  B  B28  1  0.500000  0.603099  0.027830  1
  B  B29  1  0.500000  0.396901  0.972170  1
  B  B30  1  0.500000  0.102688  0.470535  1
  B  B31  1  0.500000  0.897312  0.529465  1
  Os  Os32  1  0.000000  0.137791  0.177878  1
  Os  Os33  1  0.000000  0.862209  0.822122  1
  W  W34  1  0.000000  0.638843  0.319383  1
  W  W35  1  0.000000  0.361157  0.680617  1
