# generated using pymatgen
data_Ho5Sc5In8Pt3Rh
_symmetry_space_group_name_H-M   'P 1'
_cell_length_a   3.57505500
_cell_length_b   7.89297231
_cell_length_c   17.76404748
_cell_angle_alpha   89.82109692
_cell_angle_beta   90.00000000
_cell_angle_gamma   90.00000000
_symmetry_Int_Tables_number   1
_chemical_formula_structural   Ho5Sc5In8Pt3Rh
_chemical_formula_sum   'Ho5 Sc5 In8 Pt3 Rh1'
_cell_volume   501.26007504
_cell_formula_units_Z   1
loop_
 _symmetry_equiv_pos_site_id
 _symmetry_equiv_pos_as_xyz
  1  'x, y, z'
loop_
 _atom_site_type_symbol
 _atom_site_label
 _atom_site_symmetry_multiplicity
 _atom_site_fract_x
 _atom_site_fract_y
 _atom_site_fract_z
 _atom_site_occupancy
  Ho  Ho0  1  0.000000  0.000393  0.000329  1
  Ho  Ho1  1  0.000000  0.750104  0.780315  1
  Ho  Ho2  1  0.000000  0.254554  0.219353  1
  Ho  Ho3  1  0.000000  0.252453  0.716207  1
  Ho  Ho4  1  0.000000  0.745462  0.282710  1
  Sc  Sc5  1  0.000000  0.499703  0.499838  1
  Sc  Sc6  1  0.000000  0.880430  0.584257  1
  Sc  Sc7  1  0.000000  0.119752  0.414562  1
  Sc  Sc8  1  0.000000  0.377175  0.913145  1
  Sc  Sc9  1  0.000000  0.620480  0.089650  1
  In  In10  1  0.500000  0.799209  0.440770  1
  In  In11  1  0.500000  0.200477  0.558787  1
  In  In12  1  0.500000  0.309568  0.062550  1
  In  In13  1  0.500000  0.691242  0.939627  1
  In  In14  1  0.500000  0.920827  0.149405  1
  In  In15  1  0.500000  0.077477  0.850701  1
  In  In16  1  0.500000  0.425426  0.355277  1
  In  In17  1  0.500000  0.577629  0.643692  1
  Pt  Pt18  1  0.500000  0.963839  0.690828  1
  Pt  Pt19  1  0.500000  0.035060  0.308573  1
  Pt  Pt20  1  0.500000  0.463043  0.806268  1
  Rh  Rh21  1  0.500000  0.535695  0.193155  1
