# generated using pymatgen
data_DyCu2Bi2(SeO2)2
_symmetry_space_group_name_H-M   'P 1'
_cell_length_a   12.84490736
_cell_length_b   3.89795187
_cell_length_c   3.89795100
_cell_angle_alpha   90.00000000
_cell_angle_beta   98.72727357
_cell_angle_gamma   98.72727766
_symmetry_Int_Tables_number   1
_chemical_formula_structural   DyCu2Bi2(SeO2)2
_chemical_formula_sum   'Dy1 Cu2 Bi2 Se2 O4'
_cell_volume   190.61971201
_cell_formula_units_Z   1
loop_
 _symmetry_equiv_pos_site_id
 _symmetry_equiv_pos_as_xyz
  1  'x, y, z'
loop_
 _atom_site_type_symbol
 _atom_site_label
 _atom_site_symmetry_multiplicity
 _atom_site_fract_x
 _atom_site_fract_y
 _atom_site_fract_z
 _atom_site_occupancy
  Dy  Dy0  1  0.000000  0.000000  0.000000  1
  Cu  Cu1  1  0.500000  0.750000  0.250000  1
  Cu  Cu2  1  0.500000  0.250000  0.750000  1
  Bi  Bi3  1  0.799528  0.399764  0.399764  1
  Bi  Bi4  1  0.200473  0.600235  0.600235  1
  Se  Se5  1  0.378890  0.189445  0.189445  1
  Se  Se6  1  0.621110  0.810554  0.810554  1
  O  O7  1  0.110427  0.555212  0.055213  1
  O  O8  1  0.889573  0.944787  0.444787  1
  O  O9  1  0.110427  0.055213  0.555212  1
  O  O10  1  0.889573  0.444787  0.944787  1
