# generated using pymatgen
data_Ho6Fe3Co13(NiP6)2
_symmetry_space_group_name_H-M   'P 1'
_cell_length_a   3.69811400
_cell_length_b   10.49242500
_cell_length_c   12.14108400
_cell_angle_alpha   90.00000000
_cell_angle_beta   90.00000000
_cell_angle_gamma   90.00000000
_symmetry_Int_Tables_number   1
_chemical_formula_structural   Ho6Fe3Co13(NiP6)2
_chemical_formula_sum   'Ho6 Fe3 Co13 Ni2 P12'
_cell_volume   471.10057273
_cell_formula_units_Z   1
loop_
 _symmetry_equiv_pos_site_id
 _symmetry_equiv_pos_as_xyz
  1  'x, y, z'
loop_
 _atom_site_type_symbol
 _atom_site_label
 _atom_site_symmetry_multiplicity
 _atom_site_fract_x
 _atom_site_fract_y
 _atom_site_fract_z
 _atom_site_occupancy
  Ho  Ho0  1  0.000000  0.500000  0.519641  1
  Ho  Ho1  1  0.500000  0.000000  0.479780  1
  Ho  Ho2  1  0.500000  0.815996  0.204527  1
  Ho  Ho3  1  0.500000  0.184004  0.204527  1
  Ho  Ho4  1  0.000000  0.682616  0.796094  1
  Ho  Ho5  1  0.000000  0.317384  0.796094  1
  Fe  Fe6  1  0.000000  0.500000  0.987827  1
  Fe  Fe7  1  0.500000  0.500000  0.155409  1
  Fe  Fe8  1  0.000000  0.000000  0.842997  1
  Co  Co9  1  0.500000  0.000000  0.014167  1
  Co  Co10  1  0.500000  0.298172  0.431003  1
  Co  Co11  1  0.500000  0.701828  0.431003  1
  Co  Co12  1  0.000000  0.202435  0.569104  1
  Co  Co13  1  0.000000  0.797565  0.569104  1
  Co  Co14  1  0.500000  0.878525  0.709360  1
  Co  Co15  1  0.500000  0.121475  0.709360  1
  Co  Co16  1  0.000000  0.621505  0.290121  1
  Co  Co17  1  0.000000  0.378495  0.290121  1
  Co  Co18  1  0.500000  0.331109  0.994292  1
  Co  Co19  1  0.500000  0.668891  0.994292  1
  Co  Co20  1  0.000000  0.166128  0.005559  1
  Co  Co21  1  0.000000  0.833872  0.005559  1
  Ni  Ni22  1  0.500000  0.500000  0.702311  1
  Ni  Ni23  1  0.000000  0.000000  0.298229  1
  P  P24  1  0.500000  0.309867  0.615792  1
  P  P25  1  0.500000  0.690133  0.615792  1
  P  P26  1  0.000000  0.190403  0.384383  1
  P  P27  1  0.000000  0.809597  0.384383  1
  P  P28  1  0.500000  0.500000  0.885316  1
  P  P29  1  0.000000  0.000000  0.117208  1
  P  P30  1  0.500000  0.847778  0.892517  1
  P  P31  1  0.500000  0.152222  0.892517  1
  P  P32  1  0.000000  0.652696  0.106391  1
  P  P33  1  0.000000  0.347304  0.106391  1
  P  P34  1  0.500000  0.500000  0.341703  1
  P  P35  1  0.000000  0.000000  0.657130  1
