# generated using pymatgen
data_Sr8Yb7Pr5Pt16
_symmetry_space_group_name_H-M   'P 1'
_cell_length_a   7.77029563
_cell_length_b   7.92013928
_cell_length_c   15.13260973
_cell_angle_alpha   89.99968381
_cell_angle_beta   90.03555155
_cell_angle_gamma   89.97023614
_symmetry_Int_Tables_number   1
_chemical_formula_structural   Sr8Yb7Pr5Pt16
_chemical_formula_sum   'Sr8 Yb7 Pr5 Pt16'
_cell_volume   931.28809335
_cell_formula_units_Z   1
loop_
 _symmetry_equiv_pos_site_id
 _symmetry_equiv_pos_as_xyz
  1  'x, y, z'
loop_
 _atom_site_type_symbol
 _atom_site_label
 _atom_site_symmetry_multiplicity
 _atom_site_fract_x
 _atom_site_fract_y
 _atom_site_fract_z
 _atom_site_occupancy
  Sr  Sr0  1  0.498901  0.325213  0.900861  1
  Sr  Sr1  1  0.000724  0.176089  0.595720  1
  Sr  Sr2  1  0.498277  0.676426  0.405943  1
  Sr  Sr3  1  0.002271  0.820786  0.095918  1
  Sr  Sr4  1  0.503476  0.678577  0.098563  1
  Sr  Sr5  1  0.004467  0.820278  0.403099  1
  Sr  Sr6  1  0.495881  0.321000  0.599129  1
  Sr  Sr7  1  0.996907  0.179088  0.899998  1
  Yb  Yb8  1  0.162553  0.331785  0.377293  1
  Yb  Yb9  1  0.337661  0.830971  0.623598  1
  Yb  Yb10  1  0.838942  0.668692  0.875046  1
  Yb  Yb11  1  0.176754  0.493494  0.748860  1
  Yb  Yb12  1  0.677441  0.006622  0.749177  1
  Yb  Yb13  1  0.824580  0.510844  0.252547  1
  Yb  Yb14  1  0.320253  0.990413  0.252456  1
  Pr  Pr15  1  0.338033  0.833343  0.876306  1
  Pr  Pr16  1  0.838254  0.666715  0.622889  1
  Pr  Pr17  1  0.661630  0.167035  0.378100  1
  Pr  Pr18  1  0.161518  0.333021  0.123788  1
  Pr  Pr19  1  0.663318  0.169346  0.122804  1
  Pt  Pt20  1  0.332294  0.039131  0.043822  1
  Pt  Pt21  1  0.836453  0.461358  0.455445  1
  Pt  Pt22  1  0.662492  0.961153  0.545427  1
  Pt  Pt23  1  0.161913  0.539769  0.955472  1
  Pt  Pt24  1  0.667101  0.962866  0.955423  1
  Pt  Pt25  1  0.164439  0.536702  0.543171  1
  Pt  Pt26  1  0.335451  0.036735  0.457022  1
  Pt  Pt27  1  0.836584  0.462546  0.041067  1
  Pt  Pt28  1  0.543533  0.628018  0.752070  1
  Pt  Pt29  1  0.044134  0.872169  0.747541  1
  Pt  Pt30  1  0.457715  0.374113  0.251043  1
  Pt  Pt31  1  0.958648  0.126706  0.249645  1
  Pt  Pt32  1  0.300318  0.125331  0.749568  1
  Pt  Pt33  1  0.801216  0.375244  0.749038  1
  Pt  Pt34  1  0.696943  0.873756  0.251131  1
  Pt  Pt35  1  0.198925  0.624664  0.251019  1
