# generated using pymatgen
data_Li4SmDy3Si8
_symmetry_space_group_name_H-M   'P 1'
_cell_length_a   3.80956500
_cell_length_b   7.60580815
_cell_length_c   10.22846232
_cell_angle_alpha   90.03080939
_cell_angle_beta   90.00000000
_cell_angle_gamma   90.00000000
_symmetry_Int_Tables_number   1
_chemical_formula_structural   Li4SmDy3Si8
_chemical_formula_sum   'Li4 Sm1 Dy3 Si8'
_cell_volume   296.36781731
_cell_formula_units_Z   1
loop_
 _symmetry_equiv_pos_site_id
 _symmetry_equiv_pos_as_xyz
  1  'x, y, z'
loop_
 _atom_site_type_symbol
 _atom_site_label
 _atom_site_symmetry_multiplicity
 _atom_site_fract_x
 _atom_site_fract_y
 _atom_site_fract_z
 _atom_site_occupancy
  Li  Li0  1  0.250000  0.989442  0.391457  1
  Li  Li1  1  0.750000  0.009856  0.608340  1
  Li  Li2  1  0.250000  0.491167  0.109995  1
  Li  Li3  1  0.750000  0.506892  0.891142  1
  Sm  Sm4  1  0.250000  0.141126  0.864331  1
  Dy  Dy5  1  0.750000  0.861040  0.136121  1
  Dy  Dy6  1  0.250000  0.638847  0.635097  1
  Dy  Dy7  1  0.750000  0.362202  0.363994  1
  Si  Si8  1  0.750000  0.270442  0.071833  1
  Si  Si9  1  0.250000  0.729009  0.931765  1
  Si  Si10  1  0.750000  0.768233  0.431820  1
  Si  Si11  1  0.250000  0.233140  0.565347  1
  Si  Si12  1  0.750000  0.839559  0.820497  1
  Si  Si13  1  0.250000  0.157397  0.181254  1
  Si  Si14  1  0.750000  0.344397  0.676178  1
  Si  Si15  1  0.250000  0.657250  0.320829  1
