# generated using pymatgen
data_CeHo(CdSn)3
_symmetry_space_group_name_H-M   'P 1'
_cell_length_a   4.64676900
_cell_length_b   4.79208600
_cell_length_c   8.99431700
_cell_angle_alpha   90.00000000
_cell_angle_beta   90.00000000
_cell_angle_gamma   90.00000000
_symmetry_Int_Tables_number   1
_chemical_formula_structural   CeHo(CdSn)3
_chemical_formula_sum   'Ce1 Ho1 Cd3 Sn3'
_cell_volume   200.28290260
_cell_formula_units_Z   1
loop_
 _symmetry_equiv_pos_site_id
 _symmetry_equiv_pos_as_xyz
  1  'x, y, z'
loop_
 _atom_site_type_symbol
 _atom_site_label
 _atom_site_symmetry_multiplicity
 _atom_site_fract_x
 _atom_site_fract_y
 _atom_site_fract_z
 _atom_site_occupancy
  Ce  Ce0  1  0.000000  0.000000  0.755840  1
  Ho  Ho1  1  0.000000  0.000000  0.244293  1
  Cd  Cd2  1  0.500000  0.500000  0.256389  1
  Cd  Cd3  1  0.500000  0.500000  0.741401  1
  Cd  Cd4  1  0.000000  0.500000  0.497028  1
  Sn  Sn5  1  0.000000  0.500000  0.004354  1
  Sn  Sn6  1  0.500000  0.000000  0.496762  1
  Sn  Sn7  1  0.500000  0.000000  0.003932  1
