# generated using pymatgen
data_Tb(ErPt2)9
_symmetry_space_group_name_H-M   'P 1'
_cell_length_a   9.73379869
_cell_length_b   9.72244569
_cell_length_c   5.75611600
_cell_angle_alpha   90.00000000
_cell_angle_beta   90.00000000
_cell_angle_gamma   90.04320101
_symmetry_Int_Tables_number   1
_chemical_formula_structural   Tb(ErPt2)9
_chemical_formula_sum   'Tb1 Er9 Pt18'
_cell_volume   544.73753354
_cell_formula_units_Z   1
loop_
 _symmetry_equiv_pos_site_id
 _symmetry_equiv_pos_as_xyz
  1  'x, y, z'
loop_
 _atom_site_type_symbol
 _atom_site_label
 _atom_site_symmetry_multiplicity
 _atom_site_fract_x
 _atom_site_fract_y
 _atom_site_fract_z
 _atom_site_occupancy
  Tb  Tb0  1  0.452561  0.809045  0.000000  1
  Er  Er1  1  0.547499  0.191154  0.000000  1
  Er  Er2  1  0.190861  0.547296  0.000000  1
  Er  Er3  1  0.809064  0.452465  0.000000  1
  Er  Er4  1  0.499914  0.499826  0.500000  1
  Er  Er5  1  0.308948  0.047685  0.500000  1
  Er  Er6  1  0.691103  0.952594  0.500000  1
  Er  Er7  1  0.952509  0.690959  0.500000  1
  Er  Er8  1  0.047509  0.309026  0.500000  1
  Er  Er9  1  0.999989  0.000066  0.000000  1
  Pt  Pt10  1  0.191041  0.808177  0.251259  1
  Pt  Pt11  1  0.808205  0.191837  0.749347  1
  Pt  Pt12  1  0.808205  0.191837  0.250653  1
  Pt  Pt13  1  0.191041  0.808177  0.748741  1
  Pt  Pt14  1  0.440935  0.781968  0.500000  1
  Pt  Pt15  1  0.559005  0.217940  0.500000  1
  Pt  Pt16  1  0.218010  0.558962  0.500000  1
  Pt  Pt17  1  0.782042  0.440981  0.500000  1
  Pt  Pt18  1  0.308177  0.308241  0.249378  1
  Pt  Pt19  1  0.692463  0.691570  0.750175  1
  Pt  Pt20  1  0.692463  0.691570  0.249825  1
  Pt  Pt21  1  0.308177  0.308241  0.750622  1
  Pt  Pt22  1  0.281571  0.059565  0.000000  1
  Pt  Pt23  1  0.718693  0.941280  0.000000  1
  Pt  Pt24  1  0.941067  0.717935  0.000000  1
  Pt  Pt25  1  0.058931  0.282082  0.000000  1
  Pt  Pt26  1  0.999941  0.000049  0.500000  1
  Pt  Pt27  1  0.500077  0.499470  0.000000  1
