# generated using pymatgen
data_Pr3Cd3IrAu2
_symmetry_space_group_name_H-M   'P 1'
_cell_length_a   7.99411000
_cell_length_b   7.99410920
_cell_length_c   3.99436100
_cell_angle_alpha   90.00000000
_cell_angle_beta   90.00000000
_cell_angle_gamma   119.99999501
_symmetry_Int_Tables_number   1
_chemical_formula_structural   Pr3Cd3IrAu2
_chemical_formula_sum   'Pr3 Cd3 Ir1 Au2'
_cell_volume   221.06407068
_cell_formula_units_Z   1
loop_
 _symmetry_equiv_pos_site_id
 _symmetry_equiv_pos_as_xyz
  1  'x, y, z'
loop_
 _atom_site_type_symbol
 _atom_site_label
 _atom_site_symmetry_multiplicity
 _atom_site_fract_x
 _atom_site_fract_y
 _atom_site_fract_z
 _atom_site_occupancy
  Pr  Pr0  1  0.579092  0.978311  0.000000  1
  Pr  Pr1  1  0.021689  0.600781  0.000000  1
  Pr  Pr2  1  0.399219  0.420908  0.000000  1
  Cd  Cd3  1  0.258323  0.998337  0.500000  1
  Cd  Cd4  1  0.001663  0.259986  0.500000  1
  Cd  Cd5  1  0.740014  0.741677  0.500000  1
  Ir  Ir6  1  0.333333  0.666667  0.500000  1
  Au  Au7  1  0.666667  0.333333  0.500000  1
  Au  Au8  1  0.000000  0.000000  0.000000  1
