# generated using pymatgen
data_Ce4Re2SnB6
_symmetry_space_group_name_H-M   'P 1'
_cell_length_a   5.42055601
_cell_length_b   5.42055656
_cell_length_c   8.60060847
_cell_angle_alpha   71.63155564
_cell_angle_beta   71.63155609
_cell_angle_gamma   59.99999409
_symmetry_Int_Tables_number   1
_chemical_formula_structural   Ce4Re2SnB6
_chemical_formula_sum   'Ce4 Re2 Sn1 B6'
_cell_volume   203.84765684
_cell_formula_units_Z   1
loop_
 _symmetry_equiv_pos_site_id
 _symmetry_equiv_pos_as_xyz
  1  'x, y, z'
loop_
 _atom_site_type_symbol
 _atom_site_label
 _atom_site_symmetry_multiplicity
 _atom_site_fract_x
 _atom_site_fract_y
 _atom_site_fract_z
 _atom_site_occupancy
  Ce  Ce0  1  0.253049  0.253049  0.240853  1
  Ce  Ce1  1  0.746951  0.746951  0.759147  1
  Ce  Ce2  1  0.413510  0.413510  0.759472  1
  Ce  Ce3  1  0.586490  0.586490  0.240529  1
  Re  Re4  1  0.112986  0.112986  0.661043  1
  Re  Re5  1  0.887014  0.887014  0.338957  1
  Sn  Sn6  1  0.000000  0.000000  0.000000  1
  B  B7  1  0.171791  0.828209  0.500000  1
  B  B8  1  0.828209  0.500000  0.500000  1
  B  B9  1  0.500000  0.171791  0.500000  1
  B  B10  1  0.171791  0.500000  0.500000  1
  B  B11  1  0.500000  0.828209  0.500000  1
  B  B12  1  0.828209  0.171791  0.500000  1
