# generated using pymatgen
data_Yb3YLu4(B6Ru)4
_symmetry_space_group_name_H-M   'P 1'
_cell_length_a   3.61465500
_cell_length_b   9.07877423
_cell_length_c   11.46730000
_cell_angle_alpha   89.95130356
_cell_angle_beta   90.00000000
_cell_angle_gamma   90.00000000
_symmetry_Int_Tables_number   1
_chemical_formula_structural   Yb3YLu4(B6Ru)4
_chemical_formula_sum   'Yb3 Y1 Lu4 B24 Ru4'
_cell_volume   376.31808163
_cell_formula_units_Z   1
loop_
 _symmetry_equiv_pos_site_id
 _symmetry_equiv_pos_as_xyz
  1  'x, y, z'
loop_
 _atom_site_type_symbol
 _atom_site_label
 _atom_site_symmetry_multiplicity
 _atom_site_fract_x
 _atom_site_fract_y
 _atom_site_fract_z
 _atom_site_occupancy
  Yb  Yb0  1  0.000000  0.324594  0.414684  1
  Yb  Yb1  1  0.000000  0.675402  0.584759  1
  Yb  Yb2  1  0.000000  0.823073  0.085897  1
  Y  Y3  1  0.000000  0.176300  0.915182  1
  Lu  Lu4  1  0.000000  0.941229  0.366994  1
  Lu  Lu5  1  0.000000  0.057804  0.631149  1
  Lu  Lu6  1  0.000000  0.443353  0.132660  1
  Lu  Lu7  1  0.000000  0.558534  0.868276  1
  B  B8  1  0.500000  0.553637  0.432690  1
  B  B9  1  0.500000  0.445763  0.567997  1
  B  B10  1  0.500000  0.054026  0.067285  1
  B  B11  1  0.500000  0.945269  0.933024  1
  B  B12  1  0.500000  0.749639  0.417370  1
  B  B13  1  0.500000  0.250169  0.582650  1
  B  B14  1  0.500000  0.250281  0.082443  1
  B  B15  1  0.500000  0.750406  0.917755  1
  B  B16  1  0.500000  0.791524  0.263944  1
  B  B17  1  0.500000  0.208073  0.735986  1
  B  B18  1  0.500000  0.291843  0.235256  1
  B  B19  1  0.500000  0.709104  0.764578  1
  B  B20  1  0.500000  0.630377  0.185133  1
  B  B21  1  0.500000  0.369874  0.815654  1
  B  B22  1  0.500000  0.130536  0.314391  1
  B  B23  1  0.500000  0.869800  0.684504  1
  B  B24  1  0.500000  0.982520  0.211141  1
  B  B25  1  0.500000  0.017030  0.788052  1
  B  B26  1  0.500000  0.483205  0.288602  1
  B  B27  1  0.500000  0.516805  0.712120  1
  B  B28  1  0.500000  0.597937  0.026929  1
  B  B29  1  0.500000  0.402038  0.973314  1
  B  B30  1  0.500000  0.096072  0.473160  1
  B  B31  1  0.500000  0.903692  0.525899  1
  Ru  Ru32  1  0.000000  0.639585  0.319671  1
  Ru  Ru33  1  0.000000  0.359467  0.681544  1
  Ru  Ru34  1  0.000000  0.139181  0.180037  1
  Ru  Ru35  1  0.000000  0.861864  0.819269  1
