# generated using pymatgen
data_K8Hf6BeI20
_symmetry_space_group_name_H-M   'P 1'
_cell_length_a   12.58309258
_cell_length_b   12.58309211
_cell_length_c   12.58309200
_cell_angle_alpha   60.00000028
_cell_angle_beta   60.00000153
_cell_angle_gamma   60.00000432
_symmetry_Int_Tables_number   1
_chemical_formula_structural   K8Hf6BeI20
_chemical_formula_sum   'K8 Hf6 Be1 I20'
_cell_volume   1408.79292430
_cell_formula_units_Z   1
loop_
 _symmetry_equiv_pos_site_id
 _symmetry_equiv_pos_as_xyz
  1  'x, y, z'
loop_
 _atom_site_type_symbol
 _atom_site_label
 _atom_site_symmetry_multiplicity
 _atom_site_fract_x
 _atom_site_fract_y
 _atom_site_fract_z
 _atom_site_occupancy
  K  K0  1  0.361694  0.361694  0.361694  1
  K  K1  1  0.638306  0.638306  0.638306  1
  K  K2  1  0.361694  0.361694  0.914916  1
  K  K3  1  0.361694  0.914916  0.361694  1
  K  K4  1  0.638306  0.638306  0.085084  1
  K  K5  1  0.638306  0.085084  0.638306  1
  K  K6  1  0.914916  0.361694  0.361694  1
  K  K7  1  0.085084  0.638306  0.638306  1
  Hf  Hf8  1  0.865773  0.134227  0.134227  1
  Hf  Hf9  1  0.134227  0.865773  0.865773  1
  Hf  Hf10  1  0.134227  0.865773  0.134227  1
  Hf  Hf11  1  0.865773  0.134227  0.865773  1
  Hf  Hf12  1  0.134227  0.134227  0.865773  1
  Hf  Hf13  1  0.865773  0.865773  0.134227  1
  Be  Be14  1  0.000000  0.000000  0.000000  1
  I  I15  1  0.323513  0.000000  0.000000  1
  I  I16  1  0.676487  0.000000  0.000000  1
  I  I17  1  0.000000  0.323513  0.676487  1
  I  I18  1  0.000000  0.676487  0.323513  1
  I  I19  1  0.000000  0.323513  0.000000  1
  I  I20  1  0.676487  0.000000  0.323513  1
  I  I21  1  0.000000  0.676487  0.000000  1
  I  I22  1  0.323513  0.000000  0.676487  1
  I  I23  1  0.000000  0.000000  0.323513  1
  I  I24  1  0.000000  0.000000  0.676487  1
  I  I25  1  0.676487  0.323513  0.000000  1
  I  I26  1  0.323513  0.676487  0.000000  1
  I  I27  1  0.686655  0.313345  0.313345  1
  I  I28  1  0.313345  0.686655  0.686655  1
  I  I29  1  0.313345  0.686655  0.313345  1
  I  I30  1  0.686655  0.313345  0.686655  1
  I  I31  1  0.313345  0.313345  0.686655  1
  I  I32  1  0.686655  0.686655  0.313345  1
  I  I33  1  0.250000  0.250000  0.250000  1
  I  I34  1  0.750000  0.750000  0.750000  1
