# generated using pymatgen
data_Tb2Ga(PIr2)6
_symmetry_space_group_name_H-M   'P 1'
_cell_length_a   3.95187900
_cell_length_b   9.68742467
_cell_length_c   9.68622406
_cell_angle_alpha   119.98909138
_cell_angle_beta   90.00114470
_cell_angle_gamma   89.98717917
_symmetry_Int_Tables_number   1
_chemical_formula_structural   Tb2Ga(PIr2)6
_chemical_formula_sum   'Tb2 Ga1 P6 Ir12'
_cell_volume   321.17729389
_cell_formula_units_Z   1
loop_
 _symmetry_equiv_pos_site_id
 _symmetry_equiv_pos_as_xyz
  1  'x, y, z'
loop_
 _atom_site_type_symbol
 _atom_site_label
 _atom_site_symmetry_multiplicity
 _atom_site_fract_x
 _atom_site_fract_y
 _atom_site_fract_z
 _atom_site_occupancy
  Tb  Tb0  1  0.248794  0.666737  0.333428  1
  Tb  Tb1  1  0.751206  0.333263  0.666572  1
  Ga  Ga2  1  0.500000  0.000000  0.000000  1
  P  P3  1  0.747400  0.878073  0.595611  1
  P  P4  1  0.747619  0.404601  0.282550  1
  P  P5  1  0.747567  0.717497  0.122050  1
  P  P6  1  0.252600  0.121927  0.404389  1
  P  P7  1  0.252381  0.595399  0.717450  1
  P  P8  1  0.252433  0.282503  0.877950  1
  Ir  Ir9  1  0.757393  0.121653  0.839036  1
  Ir  Ir10  1  0.757502  0.161110  0.282522  1
  Ir  Ir11  1  0.757206  0.717469  0.878473  1
  Ir  Ir12  1  0.242607  0.878347  0.160964  1
  Ir  Ir13  1  0.242498  0.838890  0.717478  1
  Ir  Ir14  1  0.242794  0.282531  0.121527  1
  Ir  Ir15  1  0.748445  0.612192  0.543517  1
  Ir  Ir16  1  0.748541  0.456608  0.068801  1
  Ir  Ir17  1  0.748511  0.931304  0.387819  1
  Ir  Ir18  1  0.251555  0.387808  0.456483  1
  Ir  Ir19  1  0.251459  0.543392  0.931199  1
  Ir  Ir20  1  0.251489  0.068696  0.612181  1
