# generated using pymatgen
data_LiCr2(TcO4)6
_symmetry_space_group_name_H-M   'P 1'
_cell_length_a   9.96213521
_cell_length_b   9.96213435
_cell_length_c   9.96213500
_cell_angle_alpha   55.36910893
_cell_angle_beta   55.36911233
_cell_angle_gamma   55.36911474
_symmetry_Int_Tables_number   1
_chemical_formula_structural   LiCr2(TcO4)6
_chemical_formula_sum   'Li1 Cr2 Tc6 O24'
_cell_volume   623.89429381
_cell_formula_units_Z   1
loop_
 _symmetry_equiv_pos_site_id
 _symmetry_equiv_pos_as_xyz
  1  'x, y, z'
loop_
 _atom_site_type_symbol
 _atom_site_label
 _atom_site_symmetry_multiplicity
 _atom_site_fract_x
 _atom_site_fract_y
 _atom_site_fract_z
 _atom_site_occupancy
  Li  Li0  1  0.368590  0.358445  0.352195  1
  Cr  Cr1  1  0.643104  0.643865  0.645511  1
  Cr  Cr2  1  0.849015  0.850723  0.851474  1
  Tc  Tc3  1  0.477737  0.740687  0.029554  1
  Tc  Tc4  1  0.740499  0.034393  0.476009  1
  Tc  Tc5  1  0.029544  0.478300  0.740336  1
  Tc  Tc6  1  0.953541  0.550241  0.248666  1
  Tc  Tc7  1  0.247851  0.952888  0.551261  1
  Tc  Tc8  1  0.549457  0.244927  0.956089  1
  O  O9  1  0.512171  0.277382  0.130151  1
  O  O10  1  0.130310  0.510530  0.277215  1
  O  O11  1  0.336464  0.951283  0.970815  1
  O  O12  1  0.276055  0.129780  0.511128  1
  O  O13  1  0.671433  0.734611  0.007991  1
  O  O14  1  0.377608  0.619790  0.241011  1
  O  O15  1  0.619939  0.247909  0.377792  1
  O  O16  1  0.950906  0.973926  0.333936  1
  O  O17  1  0.240121  0.379108  0.617739  1
  O  O18  1  0.963080  0.694798  0.030842  1
  O  O19  1  0.958068  0.355038  0.293405  1
  O  O20  1  0.291490  0.958291  0.356049  1
  O  O21  1  0.736275  0.005678  0.672969  1
  O  O22  1  0.008965  0.669416  0.738066  1
  O  O23  1  0.972444  0.335279  0.950197  1
  O  O24  1  0.756819  0.645143  0.396902  1
  O  O25  1  0.030527  0.962363  0.696672  1
  O  O26  1  0.397254  0.756078  0.644922  1
  O  O27  1  0.651719  0.385389  0.757964  1
  O  O28  1  0.353322  0.295594  0.957435  1
  O  O29  1  0.643228  0.899576  0.531281  1
  O  O30  1  0.690672  0.024465  0.969542  1
  O  O31  1  0.886876  0.541013  0.647060  1
  O  O32  1  0.537278  0.645451  0.890178  1
