# generated using pymatgen
data_Ho4GaCu3Si3Ni
_symmetry_space_group_name_H-M   'P 1'
_cell_length_a   4.21037200
_cell_length_b   6.90547847
_cell_length_c   7.23392336
_cell_angle_alpha   90.05400132
_cell_angle_beta   90.00000000
_cell_angle_gamma   90.00000000
_symmetry_Int_Tables_number   1
_chemical_formula_structural   Ho4GaCu3Si3Ni
_chemical_formula_sum   'Ho4 Ga1 Cu3 Si3 Ni1'
_cell_volume   210.32357503
_cell_formula_units_Z   1
loop_
 _symmetry_equiv_pos_site_id
 _symmetry_equiv_pos_as_xyz
  1  'x, y, z'
loop_
 _atom_site_type_symbol
 _atom_site_label
 _atom_site_symmetry_multiplicity
 _atom_site_fract_x
 _atom_site_fract_y
 _atom_site_fract_z
 _atom_site_occupancy
  Ho  Ho0  1  0.750000  0.009294  0.291150  1
  Ho  Ho1  1  0.250000  0.000712  0.708699  1
  Ho  Ho2  1  0.250000  0.493585  0.793776  1
  Ho  Ho3  1  0.750000  0.501149  0.208036  1
  Ga  Ga4  1  0.750000  0.698027  0.589365  1
  Cu  Cu5  1  0.750000  0.813560  0.925845  1
  Cu  Cu6  1  0.250000  0.184659  0.080812  1
  Cu  Cu7  1  0.250000  0.691064  0.413706  1
  Si  Si8  1  0.250000  0.305108  0.417980  1
  Si  Si9  1  0.250000  0.795589  0.092720  1
  Si  Si10  1  0.750000  0.211055  0.901611  1
  Ni  Ni11  1  0.750000  0.296199  0.576301  1
