# generated using pymatgen
data_La14CuIr2Rh3
_symmetry_space_group_name_H-M   'P 1'
_cell_length_a   6.55121288
_cell_length_b   10.21891623
_cell_length_c   10.21891504
_cell_angle_alpha   119.85218738
_cell_angle_beta   89.94303914
_cell_angle_gamma   90.05696318
_symmetry_Int_Tables_number   1
_chemical_formula_structural   La14CuIr2Rh3
_chemical_formula_sum   'La14 Cu1 Ir2 Rh3'
_cell_volume   593.34409282
_cell_formula_units_Z   1
loop_
 _symmetry_equiv_pos_site_id
 _symmetry_equiv_pos_as_xyz
  1  'x, y, z'
loop_
 _atom_site_type_symbol
 _atom_site_label
 _atom_site_symmetry_multiplicity
 _atom_site_fract_x
 _atom_site_fract_y
 _atom_site_fract_z
 _atom_site_occupancy
  La  La0  1  0.477712  0.333811  0.666189  1
  La  La1  1  0.971757  0.664528  0.335472  1
  La  La2  1  0.244989  0.123800  0.876200  1
  La  La3  1  0.242795  0.743486  0.863847  1
  La  La4  1  0.242795  0.136153  0.256514  1
  La  La5  1  0.731409  0.875248  0.124752  1
  La  La6  1  0.742134  0.249115  0.126628  1
  La  La7  1  0.742134  0.873372  0.750885  1
  La  La8  1  0.439009  0.541123  0.458877  1
  La  La9  1  0.441945  0.929487  0.469164  1
  La  La10  1  0.441945  0.530836  0.070513  1
  La  La11  1  0.933131  0.460818  0.539182  1
  La  La12  1  0.940310  0.076259  0.540115  1
  La  La13  1  0.940310  0.459885  0.923741  1
  Cu  Cu14  1  0.192110  0.812675  0.187325  1
  Ir  Ir15  1  0.695771  0.625385  0.815008  1
  Ir  Ir16  1  0.695771  0.184992  0.374615  1
  Rh  Rh17  1  0.196547  0.377232  0.185907  1
  Rh  Rh18  1  0.196547  0.814093  0.622768  1
  Rh  Rh19  1  0.692881  0.187703  0.812297  1
