# generated using pymatgen
data_Sm8Er12Si15Ge
_symmetry_space_group_name_H-M   'P 1'
_cell_length_a   7.42673213
_cell_length_b   7.71704541
_cell_length_c   14.64740238
_cell_angle_alpha   90.04196477
_cell_angle_beta   89.73310701
_cell_angle_gamma   90.02647297
_symmetry_Int_Tables_number   1
_chemical_formula_structural   Sm8Er12Si15Ge
_chemical_formula_sum   'Sm8 Er12 Si15 Ge1'
_cell_volume   839.46878929
_cell_formula_units_Z   1
loop_
 _symmetry_equiv_pos_site_id
 _symmetry_equiv_pos_as_xyz
  1  'x, y, z'
loop_
 _atom_site_type_symbol
 _atom_site_label
 _atom_site_symmetry_multiplicity
 _atom_site_fract_x
 _atom_site_fract_y
 _atom_site_fract_z
 _atom_site_occupancy
  Sm  Sm0  1  0.021027  0.179800  0.097819  1
  Sm  Sm1  1  0.978905  0.820507  0.902405  1
  Sm  Sm2  1  0.479297  0.679906  0.902177  1
  Sm  Sm3  1  0.979545  0.821158  0.597918  1
  Sm  Sm4  1  0.520772  0.320552  0.097961  1
  Sm  Sm5  1  0.019156  0.178558  0.401710  1
  Sm  Sm6  1  0.520229  0.320055  0.401427  1
  Sm  Sm7  1  0.482615  0.680793  0.598366  1
  Er  Er8  1  0.155053  0.510979  0.751307  1
  Er  Er9  1  0.843863  0.488738  0.250262  1
  Er  Er10  1  0.344437  0.010677  0.250013  1
  Er  Er11  1  0.655422  0.989250  0.750054  1
  Er  Er12  1  0.325882  0.175947  0.624404  1
  Er  Er13  1  0.675527  0.822328  0.376199  1
  Er  Er14  1  0.174235  0.679697  0.376545  1
  Er  Er15  1  0.677053  0.821161  0.122845  1
  Er  Er16  1  0.823912  0.321690  0.622997  1
  Er  Er17  1  0.322802  0.178662  0.876937  1
  Er  Er18  1  0.823042  0.321071  0.877029  1
  Er  Er19  1  0.176869  0.678740  0.122781  1
  Si  Si20  1  0.028470  0.110647  0.750209  1
  Si  Si21  1  0.971145  0.890056  0.249363  1
  Si  Si22  1  0.470291  0.610740  0.249609  1
  Si  Si23  1  0.528966  0.389409  0.750391  1
  Si  Si24  1  0.274073  0.875179  0.750421  1
  Si  Si25  1  0.725736  0.124065  0.249489  1
  Si  Si26  1  0.225433  0.376133  0.249931  1
  Si  Si27  1  0.774807  0.624181  0.750061  1
  Si  Si28  1  0.844080  0.532441  0.459483  1
  Si  Si29  1  0.349501  0.968652  0.460427  1
  Si  Si30  1  0.851267  0.530760  0.039806  1
  Si  Si31  1  0.650723  0.031750  0.539336  1
  Si  Si32  1  0.148460  0.469169  0.960313  1
  Si  Si33  1  0.648313  0.031049  0.960287  1
  Si  Si34  1  0.351338  0.969137  0.039856  1
  Ge  Ge35  1  0.157754  0.466364  0.539860  1
