# generated using pymatgen
data_Ho3Tm7Si5Sb
_symmetry_space_group_name_H-M   'P 1'
_cell_length_a   8.43492100
_cell_length_b   8.44157760
_cell_length_c   6.29504200
_cell_angle_alpha   90.00000000
_cell_angle_beta   90.00000000
_cell_angle_gamma   120.27757385
_symmetry_Int_Tables_number   1
_chemical_formula_structural   Ho3Tm7Si5Sb
_chemical_formula_sum   'Ho3 Tm7 Si5 Sb1'
_cell_volume   387.09036604
_cell_formula_units_Z   1
loop_
 _symmetry_equiv_pos_site_id
 _symmetry_equiv_pos_as_xyz
  1  'x, y, z'
loop_
 _atom_site_type_symbol
 _atom_site_label
 _atom_site_symmetry_multiplicity
 _atom_site_fract_x
 _atom_site_fract_y
 _atom_site_fract_z
 _atom_site_occupancy
  Ho  Ho0  1  0.765995  0.765687  0.250000  1
  Ho  Ho1  1  0.240872  0.240837  0.750000  1
  Ho  Ho2  1  0.755556  0.998835  0.750000  1
  Tm  Tm3  1  0.674694  0.331270  0.503405  1
  Tm  Tm4  1  0.330952  0.674576  0.503370  1
  Tm  Tm5  1  0.330952  0.674576  0.996630  1
  Tm  Tm6  1  0.674694  0.331270  0.996595  1
  Tm  Tm7  1  0.240059  0.987849  0.250000  1
  Tm  Tm8  1  0.988029  0.240859  0.250000  1
  Tm  Tm9  1  0.998856  0.755228  0.750000  1
  Si  Si10  1  0.604006  0.999456  0.250000  1
  Si  Si11  1  0.999610  0.603827  0.250000  1
  Si  Si12  1  0.606333  0.605486  0.750000  1
  Si  Si13  1  0.393547  0.001507  0.750000  1
  Si  Si14  1  0.002300  0.395255  0.750000  1
  Sb  Sb15  1  0.393541  0.393485  0.250000  1
