# generated using pymatgen
data_Dy4TmIr3
_symmetry_space_group_name_H-M   'P 1'
_cell_length_a   10.87217300
_cell_length_b   10.87217300
_cell_length_c   6.35960400
_cell_angle_alpha   90.00000000
_cell_angle_beta   90.00000000
_cell_angle_gamma   90.00000000
_symmetry_Int_Tables_number   1
_chemical_formula_structural   Dy4TmIr3
_chemical_formula_sum   'Dy16 Tm4 Ir12'
_cell_volume   751.73155808
_cell_formula_units_Z   4
loop_
 _symmetry_equiv_pos_site_id
 _symmetry_equiv_pos_as_xyz
  1  'x, y, z'
loop_
 _atom_site_type_symbol
 _atom_site_label
 _atom_site_symmetry_multiplicity
 _atom_site_fract_x
 _atom_site_fract_y
 _atom_site_fract_z
 _atom_site_occupancy
  Dy  Dy0  1  0.290638  0.087718  0.377250  1
  Dy  Dy1  1  0.290638  0.912282  0.877250  1
  Dy  Dy2  1  0.709362  0.087718  0.877250  1
  Dy  Dy3  1  0.709362  0.912282  0.377250  1
  Dy  Dy4  1  0.587718  0.790638  0.877250  1
  Dy  Dy5  1  0.587718  0.209362  0.377250  1
  Dy  Dy6  1  0.412282  0.790638  0.377250  1
  Dy  Dy7  1  0.412282  0.209362  0.877250  1
  Dy  Dy8  1  0.209362  0.412282  0.622750  1
  Dy  Dy9  1  0.209362  0.587718  0.122750  1
  Dy  Dy10  1  0.790638  0.412282  0.122750  1
  Dy  Dy11  1  0.790638  0.587718  0.622750  1
  Dy  Dy12  1  0.912282  0.709362  0.122750  1
  Dy  Dy13  1  0.912282  0.290638  0.622750  1
  Dy  Dy14  1  0.087718  0.709362  0.622750  1
  Dy  Dy15  1  0.087718  0.290638  0.122750  1
  Tm  Tm16  1  0.000000  0.000000  0.500000  1
  Tm  Tm17  1  0.000000  0.000000  0.000000  1
  Tm  Tm18  1  0.500000  0.500000  0.000000  1
  Tm  Tm19  1  0.500000  0.500000  0.500000  1
  Ir  Ir20  1  0.847175  0.152825  0.250000  1
  Ir  Ir21  1  0.847175  0.847175  0.750000  1
  Ir  Ir22  1  0.152825  0.152825  0.750000  1
  Ir  Ir23  1  0.152825  0.847175  0.250000  1
  Ir  Ir24  1  0.652825  0.347175  0.750000  1
  Ir  Ir25  1  0.652825  0.652825  0.250000  1
  Ir  Ir26  1  0.347175  0.347175  0.250000  1
  Ir  Ir27  1  0.347175  0.652825  0.750000  1
  Ir  Ir28  1  0.500000  0.000000  0.121493  1
  Ir  Ir29  1  0.500000  0.000000  0.621493  1
  Ir  Ir30  1  0.000000  0.500000  0.878507  1
  Ir  Ir31  1  0.000000  0.500000  0.378507  1
