# generated using pymatgen
data_Ac2AsI2
_symmetry_space_group_name_H-M   'P 1'
_cell_length_a   4.58910600
_cell_length_b   4.58910617
_cell_length_c   11.96364200
_cell_angle_alpha   90.00000000
_cell_angle_beta   90.00000000
_cell_angle_gamma   120.00001316
_symmetry_Int_Tables_number   1
_chemical_formula_structural   Ac2AsI2
_chemical_formula_sum   'Ac2 As1 I2'
_cell_volume   218.19770467
_cell_formula_units_Z   1
loop_
 _symmetry_equiv_pos_site_id
 _symmetry_equiv_pos_as_xyz
  1  'x, y, z'
loop_
 _atom_site_type_symbol
 _atom_site_label
 _atom_site_symmetry_multiplicity
 _atom_site_fract_x
 _atom_site_fract_y
 _atom_site_fract_z
 _atom_site_occupancy
  Ac  Ac0  1  0.333333  0.666667  0.143349  1
  Ac  Ac1  1  0.666667  0.333333  0.856651  1
  As  As2  1  0.000000  0.000000  0.000000  1
  I  I3  1  0.333333  0.666667  0.676509  1
  I  I4  1  0.666667  0.333333  0.323491  1
