# generated using pymatgen
data_Sc2MnAlOs2
_symmetry_space_group_name_H-M   'P 1'
_cell_length_a   5.22637284
_cell_length_b   5.20119400
_cell_length_c   8.30900400
_cell_angle_alpha   90.00000000
_cell_angle_beta   90.00000000
_cell_angle_gamma   119.84079063
_symmetry_Int_Tables_number   1
_chemical_formula_structural   Sc2MnAlOs2
_chemical_formula_sum   'Sc4 Mn2 Al2 Os4'
_cell_volume   195.91944697
_cell_formula_units_Z   2
loop_
 _symmetry_equiv_pos_site_id
 _symmetry_equiv_pos_as_xyz
  1  'x, y, z'
loop_
 _atom_site_type_symbol
 _atom_site_label
 _atom_site_symmetry_multiplicity
 _atom_site_fract_x
 _atom_site_fract_y
 _atom_site_fract_z
 _atom_site_occupancy
  Sc  Sc0  1  0.335164  0.674660  0.062597  1
  Sc  Sc1  1  0.664836  0.339495  0.562597  1
  Sc  Sc2  1  0.335164  0.674660  0.437403  1
  Sc  Sc3  1  0.664836  0.339495  0.937403  1
  Mn  Mn4  1  0.000000  0.979880  0.500000  1
  Mn  Mn5  1  0.000000  0.979880  0.000000  1
  Al  Al6  1  0.839953  0.172636  0.250000  1
  Al  Al7  1  0.160047  0.332684  0.750000  1
  Os  Os8  1  0.829547  0.662476  0.250000  1
  Os  Os9  1  0.170453  0.832931  0.750000  1
  Os  Os10  1  0.653597  0.832401  0.750000  1
  Os  Os11  1  0.346403  0.178803  0.250000  1
