# generated using pymatgen
data_Pr3Y2P12Ru17Pt2
_symmetry_space_group_name_H-M   'P 1'
_cell_length_a   12.71807700
_cell_length_b   12.60902705
_cell_length_c   4.02170400
_cell_angle_alpha   90.00000000
_cell_angle_beta   90.00000000
_cell_angle_gamma   120.28650425
_symmetry_Int_Tables_number   1
_chemical_formula_structural   Pr3Y2P12Ru17Pt2
_chemical_formula_sum   'Pr3 Y2 P12 Ru17 Pt2'
_cell_volume   556.90702564
_cell_formula_units_Z   1
loop_
 _symmetry_equiv_pos_site_id
 _symmetry_equiv_pos_as_xyz
  1  'x, y, z'
loop_
 _atom_site_type_symbol
 _atom_site_label
 _atom_site_symmetry_multiplicity
 _atom_site_fract_x
 _atom_site_fract_y
 _atom_site_fract_z
 _atom_site_occupancy
  Pr  Pr0  1  0.001928  0.183848  0.500000  1
  Pr  Pr1  1  0.818080  0.816152  0.500000  1
  Pr  Pr2  1  0.184797  0.000000  0.500000  1
  Y  Y3  1  0.664228  0.327290  0.000000  1
  Y  Y4  1  0.336937  0.672710  0.000000  1
  P  P5  1  0.998618  0.808637  0.000000  1
  P  P6  1  0.189980  0.191363  0.000000  1
  P  P7  1  0.813417  0.000000  0.000000  1
  P  P8  1  0.694317  0.172125  0.500000  1
  P  P9  1  0.813916  0.515215  0.500000  1
  P  P10  1  0.478529  0.297765  0.500000  1
  P  P11  1  0.180764  0.702235  0.500000  1
  P  P12  1  0.522192  0.827875  0.500000  1
  P  P13  1  0.298700  0.484785  0.500000  1
  P  P14  1  0.000227  0.367374  0.000000  1
  P  P15  1  0.632853  0.632626  0.000000  1
  P  P16  1  0.375589  0.000000  0.000000  1
  Ru  Ru17  1  0.554766  0.000000  0.000000  1
  Ru  Ru18  1  0.997426  0.705050  0.500000  1
  Ru  Ru19  1  0.292375  0.294950  0.500000  1
  Ru  Ru20  1  0.714349  0.000000  0.500000  1
  Ru  Ru21  1  0.805566  0.185446  0.000000  1
  Ru  Ru22  1  0.812258  0.613993  0.000000  1
  Ru  Ru23  1  0.380685  0.196625  0.000000  1
  Ru  Ru24  1  0.184060  0.803375  0.000000  1
  Ru  Ru25  1  0.620121  0.814554  0.000000  1
  Ru  Ru26  1  0.198265  0.386007  0.000000  1
  Ru  Ru27  1  0.870569  0.367114  0.500000  1
  Ru  Ru28  1  0.627068  0.504703  0.500000  1
  Ru  Ru29  1  0.493285  0.123750  0.500000  1
  Ru  Ru30  1  0.369534  0.876250  0.500000  1
  Ru  Ru31  1  0.503455  0.632886  0.500000  1
  Ru  Ru32  1  0.122364  0.495297  0.500000  1
  Ru  Ru33  1  0.002496  0.000000  0.000000  1
  Pt  Pt34  1  0.997904  0.549520  0.000000  1
  Pt  Pt35  1  0.448384  0.450480  0.000000  1
