# generated using pymatgen
data_Ho2CO5
_symmetry_space_group_name_H-M   'P 1'
_cell_length_a   3.90103384
_cell_length_b   3.90103382
_cell_length_c   15.10977900
_cell_angle_alpha   90.00000000
_cell_angle_beta   90.00000000
_cell_angle_gamma   121.96135412
_symmetry_Int_Tables_number   1
_chemical_formula_structural   Ho2CO5
_chemical_formula_sum   'Ho4 C2 O10'
_cell_volume   195.08367820
_cell_formula_units_Z   2
loop_
 _symmetry_equiv_pos_site_id
 _symmetry_equiv_pos_as_xyz
  1  'x, y, z'
loop_
 _atom_site_type_symbol
 _atom_site_label
 _atom_site_symmetry_multiplicity
 _atom_site_fract_x
 _atom_site_fract_y
 _atom_site_fract_z
 _atom_site_occupancy
  Ho  Ho0  1  0.336605  0.663395  0.907185  1
  Ho  Ho1  1  0.663395  0.336605  0.092815  1
  Ho  Ho2  1  0.663395  0.336605  0.407185  1
  Ho  Ho3  1  0.336605  0.663395  0.592815  1
  C  C4  1  0.078822  0.921178  0.750000  1
  C  C5  1  0.921178  0.078822  0.250000  1
  O  O6  1  0.990273  0.009727  0.826352  1
  O  O7  1  0.009727  0.990273  0.173648  1
  O  O8  1  0.009727  0.990273  0.326352  1
  O  O9  1  0.990273  0.009727  0.673648  1
  O  O10  1  0.334300  0.665700  0.442581  1
  O  O11  1  0.665700  0.334300  0.557419  1
  O  O12  1  0.665700  0.334300  0.942581  1
  O  O13  1  0.334300  0.665700  0.057419  1
  O  O14  1  0.266299  0.733701  0.750000  1
  O  O15  1  0.733701  0.266299  0.250000  1
