# generated using pymatgen
data_Nd4CuOsRu6
_symmetry_space_group_name_H-M   'P 1'
_cell_length_a   5.32136700
_cell_length_b   5.57583856
_cell_length_c   9.10848000
_cell_angle_alpha   90.00000000
_cell_angle_beta   90.00000000
_cell_angle_gamma   123.47108931
_symmetry_Int_Tables_number   1
_chemical_formula_structural   Nd4CuOsRu6
_chemical_formula_sum   'Nd4 Cu1 Os1 Ru6'
_cell_volume   225.43994379
_cell_formula_units_Z   1
loop_
 _symmetry_equiv_pos_site_id
 _symmetry_equiv_pos_as_xyz
  1  'x, y, z'
loop_
 _atom_site_type_symbol
 _atom_site_label
 _atom_site_symmetry_multiplicity
 _atom_site_fract_x
 _atom_site_fract_y
 _atom_site_fract_z
 _atom_site_occupancy
  Nd  Nd0  1  0.333198  0.663233  0.435196  1
  Nd  Nd1  1  0.663485  0.330187  0.565146  1
  Nd  Nd2  1  0.663485  0.330187  0.934854  1
  Nd  Nd3  1  0.333198  0.663233  0.064804  1
  Cu  Cu4  1  0.830769  0.166431  0.250000  1
  Os  Os5  1  0.668202  0.835635  0.750000  1
  Ru  Ru6  1  0.994047  0.986941  0.500259  1
  Ru  Ru7  1  0.994047  0.986941  0.999741  1
  Ru  Ru8  1  0.825910  0.673453  0.250000  1
  Ru  Ru9  1  0.340908  0.181375  0.250000  1
  Ru  Ru10  1  0.174536  0.835848  0.750000  1
  Ru  Ru11  1  0.178211  0.346533  0.750000  1
