# generated using pymatgen
data_Dy8Mg3Sc9Si15Au
_symmetry_space_group_name_H-M   'P 1'
_cell_length_a   7.02631249
_cell_length_b   7.38106445
_cell_length_c   14.09182893
_cell_angle_alpha   89.96494278
_cell_angle_beta   89.77837562
_cell_angle_gamma   90.20444258
_symmetry_Int_Tables_number   1
_chemical_formula_structural   Dy8Mg3Sc9Si15Au
_chemical_formula_sum   'Dy8 Mg3 Sc9 Si15 Au1'
_cell_volume   730.81545306
_cell_formula_units_Z   1
loop_
 _symmetry_equiv_pos_site_id
 _symmetry_equiv_pos_as_xyz
  1  'x, y, z'
loop_
 _atom_site_type_symbol
 _atom_site_label
 _atom_site_symmetry_multiplicity
 _atom_site_fract_x
 _atom_site_fract_y
 _atom_site_fract_z
 _atom_site_occupancy
  Dy  Dy0  1  0.014462  0.178695  0.097082  1
  Dy  Dy1  1  0.990065  0.820527  0.903948  1
  Dy  Dy2  1  0.486660  0.673731  0.904485  1
  Dy  Dy3  1  0.989999  0.823000  0.597596  1
  Dy  Dy4  1  0.511573  0.322457  0.096383  1
  Dy  Dy5  1  0.012308  0.178093  0.399624  1
  Dy  Dy6  1  0.510895  0.320735  0.400399  1
  Dy  Dy7  1  0.489529  0.673746  0.599180  1
  Mg  Mg8  1  0.159816  0.504925  0.749766  1
  Mg  Mg9  1  0.838957  0.496437  0.249813  1
  Mg  Mg10  1  0.341007  0.003822  0.248843  1
  Sc  Sc11  1  0.662948  0.996919  0.751730  1
  Sc  Sc12  1  0.336061  0.180094  0.626088  1
  Sc  Sc13  1  0.666675  0.821432  0.373687  1
  Sc  Sc14  1  0.167079  0.674680  0.373582  1
  Sc  Sc15  1  0.669350  0.822010  0.124443  1
  Sc  Sc16  1  0.830622  0.326590  0.624489  1
  Sc  Sc17  1  0.326609  0.181041  0.876305  1
  Sc  Sc18  1  0.832389  0.322473  0.876450  1
  Sc  Sc19  1  0.169660  0.678852  0.124481  1
  Si  Si20  1  0.031524  0.106947  0.750052  1
  Si  Si21  1  0.964366  0.892475  0.249352  1
  Si  Si22  1  0.462999  0.610465  0.248649  1
  Si  Si23  1  0.540905  0.384986  0.752686  1
  Si  Si24  1  0.288261  0.882977  0.751523  1
  Si  Si25  1  0.718500  0.122675  0.248734  1
  Si  Si26  1  0.218637  0.379324  0.248210  1
  Si  Si27  1  0.779890  0.628231  0.752042  1
  Si  Si28  1  0.830378  0.539143  0.463333  1
  Si  Si29  1  0.340912  0.960613  0.465556  1
  Si  Si30  1  0.839559  0.537772  0.034502  1
  Si  Si31  1  0.656046  0.033318  0.536873  1
  Si  Si32  1  0.158851  0.462136  0.966902  1
  Si  Si33  1  0.656910  0.032546  0.961387  1
  Si  Si34  1  0.341710  0.963861  0.034977  1
  Au  Au35  1  0.163888  0.462275  0.536849  1
