# generated using pymatgen
data_CsK2Rb(ZnI4)2
_symmetry_space_group_name_H-M   'P 1'
_cell_length_a   8.09439677
_cell_length_b   8.39265886
_cell_length_c   10.26212198
_cell_angle_alpha   89.92742281
_cell_angle_beta   108.31834980
_cell_angle_gamma   90.04420129
_symmetry_Int_Tables_number   1
_chemical_formula_structural   CsK2Rb(ZnI4)2
_chemical_formula_sum   'Cs1 K2 Rb1 Zn2 I8'
_cell_volume   661.81363150
_cell_formula_units_Z   1
loop_
 _symmetry_equiv_pos_site_id
 _symmetry_equiv_pos_as_xyz
  1  'x, y, z'
loop_
 _atom_site_type_symbol
 _atom_site_label
 _atom_site_symmetry_multiplicity
 _atom_site_fract_x
 _atom_site_fract_y
 _atom_site_fract_z
 _atom_site_occupancy
  Cs  Cs0  1  0.234556  0.740061  0.433368  1
  K  K1  1  0.280301  0.738363  0.949522  1
  K  K2  1  0.719945  0.238386  0.050388  1
  Rb  Rb3  1  0.760777  0.238855  0.565936  1
  Zn  Zn4  1  0.719137  0.756797  0.806732  1
  Zn  Zn5  1  0.279566  0.256723  0.192878  1
  I  I6  1  0.517553  0.500153  0.757007  1
  I  I7  1  0.486996  0.003684  0.244052  1
  I  I8  1  0.507574  0.496223  0.251795  1
  I  I9  1  0.497112  0.000264  0.749176  1
  I  I10  1  0.903368  0.774850  0.067389  1
  I  I11  1  0.095241  0.274755  0.931176  1
  I  I12  1  0.910839  0.765857  0.640927  1
  I  I13  1  0.087036  0.264231  0.359653  1
