# generated using pymatgen
data_Sc8C3N
_symmetry_space_group_name_H-M   'P 1'
_cell_length_a   5.72384013
_cell_length_b   6.66107592
_cell_length_c   6.62021048
_cell_angle_alpha   119.89247559
_cell_angle_beta   90.03260856
_cell_angle_gamma   106.44360372
_symmetry_Int_Tables_number   1
_chemical_formula_structural   Sc8C3N
_chemical_formula_sum   'Sc8 C3 N1'
_cell_volume   206.81056127
_cell_formula_units_Z   1
loop_
 _symmetry_equiv_pos_site_id
 _symmetry_equiv_pos_as_xyz
  1  'x, y, z'
loop_
 _atom_site_type_symbol
 _atom_site_label
 _atom_site_symmetry_multiplicity
 _atom_site_fract_x
 _atom_site_fract_y
 _atom_site_fract_z
 _atom_site_occupancy
  Sc  Sc0  1  0.403670  0.587785  0.730174  1
  Sc  Sc1  1  0.903011  0.590589  0.982844  1
  Sc  Sc2  1  0.399644  0.588935  0.230555  1
  Sc  Sc3  1  0.383024  0.041566  0.209261  1
  Sc  Sc4  1  0.886498  0.043257  0.458964  1
  Sc  Sc5  1  0.903131  0.590371  0.479895  1
  Sc  Sc6  1  0.883040  0.044122  0.959304  1
  Sc  Sc7  1  0.383270  0.041267  0.706509  1
  C  C8  1  0.643310  0.815900  0.591163  1
  C  C9  1  0.143307  0.815816  0.844594  1
  C  C10  1  0.643280  0.816316  0.098432  1
  N  N11  1  0.143089  0.815996  0.344660  1
