# generated using pymatgen
data_YZr3Ta2(B2Ru5)2
_symmetry_space_group_name_H-M   'P 1'
_cell_length_a   9.54148997
_cell_length_b   9.54149037
_cell_length_c   3.12224600
_cell_angle_alpha   90.00000000
_cell_angle_beta   90.00000000
_cell_angle_gamma   89.82591756
_symmetry_Int_Tables_number   1
_chemical_formula_structural   YZr3Ta2(B2Ru5)2
_chemical_formula_sum   'Y1 Zr3 Ta2 B4 Ru10'
_cell_volume   284.24807205
_cell_formula_units_Z   1
loop_
 _symmetry_equiv_pos_site_id
 _symmetry_equiv_pos_as_xyz
  1  'x, y, z'
loop_
 _atom_site_type_symbol
 _atom_site_label
 _atom_site_symmetry_multiplicity
 _atom_site_fract_x
 _atom_site_fract_y
 _atom_site_fract_z
 _atom_site_occupancy
  Y  Y0  1  0.675107  0.175107  0.000000  1
  Zr  Zr1  1  0.824755  0.675197  0.000000  1
  Zr  Zr2  1  0.175197  0.324755  0.000000  1
  Zr  Zr3  1  0.323996  0.823996  0.000000  1
  Ta  Ta4  1  0.500673  0.498737  0.000000  1
  Ta  Ta5  1  0.998737  0.000673  0.000000  1
  B  B6  1  0.619532  0.876371  0.000000  1
  B  B7  1  0.376371  0.119532  0.000000  1
  B  B8  1  0.122969  0.622969  0.000000  1
  B  B9  1  0.880798  0.380798  0.000000  1
  Ru  Ru10  1  0.570096  0.715888  0.500000  1
  Ru  Ru11  1  0.421680  0.282189  0.500000  1
  Ru  Ru12  1  0.072441  0.783255  0.500000  1
  Ru  Ru13  1  0.936734  0.222009  0.500000  1
  Ru  Ru14  1  0.283255  0.572441  0.500000  1
  Ru  Ru15  1  0.722009  0.436734  0.500000  1
  Ru  Ru16  1  0.215888  0.070096  0.500000  1
  Ru  Ru17  1  0.782189  0.921680  0.500000  1
  Ru  Ru18  1  0.494668  0.994668  0.500000  1
  Ru  Ru19  1  0.002910  0.502910  0.500000  1
