# generated using pymatgen
data_PrNd9(Sn3O)2
_symmetry_space_group_name_H-M   'P 1'
_cell_length_a   9.38370282
_cell_length_b   9.38375480
_cell_length_c   9.38372736
_cell_angle_alpha   126.29115567
_cell_angle_beta   126.29112646
_cell_angle_gamma   79.41026129
_symmetry_Int_Tables_number   1
_chemical_formula_structural   PrNd9(Sn3O)2
_chemical_formula_sum   'Pr1 Nd9 Sn6 O2'
_cell_volume   518.86536573
_cell_formula_units_Z   1
loop_
 _symmetry_equiv_pos_site_id
 _symmetry_equiv_pos_as_xyz
  1  'x, y, z'
loop_
 _atom_site_type_symbol
 _atom_site_label
 _atom_site_symmetry_multiplicity
 _atom_site_fract_x
 _atom_site_fract_y
 _atom_site_fract_z
 _atom_site_occupancy
  Pr  Pr0  1  0.003388  0.003389  0.000000  1
  Nd  Nd1  1  0.498488  0.303810  0.500136  1
  Nd  Nd2  1  0.803674  0.998351  0.499864  1
  Nd  Nd3  1  0.998352  0.498487  0.194678  1
  Nd  Nd4  1  0.303810  0.803674  0.805322  1
  Nd  Nd5  1  0.503331  0.698253  0.499865  1
  Nd  Nd6  1  0.198388  0.003466  0.500135  1
  Nd  Nd7  1  0.003465  0.503330  0.805074  1
  Nd  Nd8  1  0.698254  0.198389  0.194923  1
  Nd  Nd9  1  0.503376  0.503376  0.000001  1
  Sn  Sn10  1  0.141525  0.360380  0.500408  1
  Sn  Sn11  1  0.859973  0.641118  0.499593  1
  Sn  Sn12  1  0.641119  0.141526  0.781148  1
  Sn  Sn13  1  0.360378  0.859971  0.218853  1
  Sn  Sn14  1  0.751797  0.751797  0.000000  1
  Sn  Sn15  1  0.252016  0.252016  0.000002  1
  O  O16  1  0.750752  0.250753  0.499999  1
  O  O17  1  0.250756  0.750756  0.500001  1
