# generated using pymatgen
data_CaCe(NiP)2
_symmetry_space_group_name_H-M   'P 1'
_cell_length_a   3.92795600
_cell_length_b   3.92795454
_cell_length_c   16.11089300
_cell_angle_alpha   90.00000000
_cell_angle_beta   90.00000000
_cell_angle_gamma   120.00001226
_symmetry_Int_Tables_number   1
_chemical_formula_structural   CaCe(NiP)2
_chemical_formula_sum   'Ca2 Ce2 Ni4 P4'
_cell_volume   215.26987516
_cell_formula_units_Z   2
loop_
 _symmetry_equiv_pos_site_id
 _symmetry_equiv_pos_as_xyz
  1  'x, y, z'
loop_
 _atom_site_type_symbol
 _atom_site_label
 _atom_site_symmetry_multiplicity
 _atom_site_fract_x
 _atom_site_fract_y
 _atom_site_fract_z
 _atom_site_occupancy
  Ca  Ca0  1  0.000000  0.000000  0.500353  1
  Ca  Ca1  1  0.000000  0.000000  0.249980  1
  Ce  Ce2  1  0.000000  0.000000  0.000410  1
  Ce  Ce3  1  0.000000  0.000000  0.749147  1
  Ni  Ni4  1  0.333333  0.666667  0.373238  1
  Ni  Ni5  1  0.666667  0.333333  0.629948  1
  Ni  Ni6  1  0.666667  0.333333  0.876750  1
  Ni  Ni7  1  0.333333  0.666667  0.119389  1
  P  P8  1  0.333333  0.666667  0.873971  1
  P  P9  1  0.666667  0.333333  0.118790  1
  P  P10  1  0.666667  0.333333  0.377453  1
  P  P11  1  0.333333  0.666667  0.630572  1
