# generated using pymatgen
data_Zr5Mn2Co14(P4W)3
_symmetry_space_group_name_H-M   'P 1'
_cell_length_a   11.96625506
_cell_length_b   11.94670003
_cell_length_c   3.66146100
_cell_angle_alpha   90.00000000
_cell_angle_beta   90.00000000
_cell_angle_gamma   119.97217810
_symmetry_Int_Tables_number   1
_chemical_formula_structural   Zr5Mn2Co14(P4W)3
_chemical_formula_sum   'Zr5 Mn2 Co14 P12 W3'
_cell_volume   453.43281417
_cell_formula_units_Z   1
loop_
 _symmetry_equiv_pos_site_id
 _symmetry_equiv_pos_as_xyz
  1  'x, y, z'
loop_
 _atom_site_type_symbol
 _atom_site_label
 _atom_site_symmetry_multiplicity
 _atom_site_fract_x
 _atom_site_fract_y
 _atom_site_fract_z
 _atom_site_occupancy
  Zr  Zr0  1  0.666680  0.334025  0.000000  1
  Zr  Zr1  1  0.333599  0.668491  0.000000  1
  Zr  Zr2  1  0.819601  0.819543  0.500000  1
  Zr  Zr3  1  0.180048  0.000376  0.500000  1
  Zr  Zr4  1  0.000551  0.180263  0.500000  1
  Mn  Mn5  1  0.200092  0.375870  0.000000  1
  Mn  Mn6  1  0.123417  0.478120  0.500000  1
  Co  Co7  1  0.178610  0.805630  0.000000  1
  Co  Co8  1  0.821072  0.626133  0.000000  1
  Co  Co9  1  0.803249  0.177658  0.000000  1
  Co  Co10  1  0.373624  0.194643  0.000000  1
  Co  Co11  1  0.356122  0.872675  0.500000  1
  Co  Co12  1  0.517176  0.645253  0.500000  1
  Co  Co13  1  0.644518  0.516226  0.500000  1
  Co  Co14  1  0.867951  0.356019  0.500000  1
  Co  Co15  1  0.484817  0.129630  0.500000  1
  Co  Co16  1  0.999320  0.998907  0.000000  1
  Co  Co17  1  0.719372  0.999481  0.500000  1
  Co  Co18  1  0.000342  0.720488  0.500000  1
  Co  Co19  1  0.626773  0.822529  0.000000  1
  Co  Co20  1  0.282698  0.277944  0.500000  1
  P  P21  1  0.644117  0.644070  0.000000  1
  P  P22  1  0.355559  0.999661  0.000000  1
  P  P23  1  0.998423  0.352656  0.000000  1
  P  P24  1  0.482263  0.314316  0.500000  1
  P  P25  1  0.685819  0.167251  0.500000  1
  P  P26  1  0.832116  0.520302  0.500000  1
  P  P27  1  0.518750  0.832546  0.500000  1
  P  P28  1  0.168401  0.687757  0.500000  1
  P  P29  1  0.824225  0.000213  0.000000  1
  P  P30  1  0.000116  0.823679  0.000000  1
  P  P31  1  0.315589  0.482169  0.500000  1
  P  P32  1  0.174997  0.175964  0.000000  1
  W  W33  1  0.447878  0.446785  0.000000  1
  W  W34  1  0.551354  0.999796  0.000000  1
  W  W35  1  0.000764  0.552933  0.000000  1
