# generated using pymatgen
data_Re5TcNi2
_symmetry_space_group_name_H-M   'P 1'
_cell_length_a   5.42086055
_cell_length_b   5.40626143
_cell_length_c   4.37320700
_cell_angle_alpha   90.00000000
_cell_angle_beta   90.00000000
_cell_angle_gamma   119.91097821
_symmetry_Int_Tables_number   1
_chemical_formula_structural   Re5TcNi2
_chemical_formula_sum   'Re5 Tc1 Ni2'
_cell_volume   111.09252213
_cell_formula_units_Z   1
loop_
 _symmetry_equiv_pos_site_id
 _symmetry_equiv_pos_as_xyz
  1  'x, y, z'
loop_
 _atom_site_type_symbol
 _atom_site_label
 _atom_site_symmetry_multiplicity
 _atom_site_fract_x
 _atom_site_fract_y
 _atom_site_fract_z
 _atom_site_occupancy
  Re  Re0  1  0.833012  0.664462  0.750000  1
  Re  Re1  1  0.168003  0.833330  0.250000  1
  Re  Re2  1  0.664788  0.832394  0.250000  1
  Re  Re3  1  0.168003  0.334672  0.250000  1
  Re  Re4  1  0.833012  0.168551  0.750000  1
  Tc  Tc5  1  0.335442  0.167721  0.750000  1
  Ni  Ni6  1  0.664712  0.332355  0.250000  1
  Ni  Ni7  1  0.333028  0.666514  0.750000  1
