# generated using pymatgen
data_CaTb2Ho(Ga2Ag)4
_symmetry_space_group_name_H-M   'P 1'
_cell_length_a   4.38177500
_cell_length_b   7.00690664
_cell_length_c   10.31127627
_cell_angle_alpha   89.60013080
_cell_angle_beta   90.00000000
_cell_angle_gamma   90.00000000
_symmetry_Int_Tables_number   1
_chemical_formula_structural   CaTb2Ho(Ga2Ag)4
_chemical_formula_sum   'Ca1 Tb2 Ho1 Ga8 Ag4'
_cell_volume   316.57619176
_cell_formula_units_Z   1
loop_
 _symmetry_equiv_pos_site_id
 _symmetry_equiv_pos_as_xyz
  1  'x, y, z'
loop_
 _atom_site_type_symbol
 _atom_site_label
 _atom_site_symmetry_multiplicity
 _atom_site_fract_x
 _atom_site_fract_y
 _atom_site_fract_z
 _atom_site_occupancy
  Ca  Ca0  1  0.250000  0.776848  0.827315  1
  Tb  Tb1  1  0.750000  0.721497  0.328225  1
  Tb  Tb2  1  0.250000  0.280682  0.672630  1
  Ho  Ho3  1  0.750000  0.220213  0.171430  1
  Ga  Ga4  1  0.250000  0.928498  0.156061  1
  Ga  Ga5  1  0.750000  0.074651  0.849228  1
  Ga  Ga6  1  0.750000  0.571422  0.649466  1
  Ga  Ga7  1  0.250000  0.425199  0.344965  1
  Ga  Ga8  1  0.250000  0.702334  0.534696  1
  Ga  Ga9  1  0.750000  0.293195  0.461819  1
  Ga  Ga10  1  0.750000  0.797461  0.037486  1
  Ga  Ga11  1  0.250000  0.205108  0.965053  1
  Ag  Ag12  1  0.250000  0.544357  0.098263  1
  Ag  Ag13  1  0.750000  0.457408  0.903061  1
  Ag  Ag14  1  0.750000  0.957063  0.597426  1
  Ag  Ag15  1  0.250000  0.044062  0.402878  1
