# generated using pymatgen
data_Tm9Lu3In2Fe2Ru
_symmetry_space_group_name_H-M   'P 1'
_cell_length_a   8.24142594
_cell_length_b   8.23929262
_cell_length_c   8.23943416
_cell_angle_alpha   108.58017700
_cell_angle_beta   108.56524519
_cell_angle_gamma   111.27263403
_symmetry_Int_Tables_number   1
_chemical_formula_structural   Tm9Lu3In2Fe2Ru
_chemical_formula_sum   'Tm9 Lu3 In2 Fe2 Ru1'
_cell_volume   430.42875398
_cell_formula_units_Z   1
loop_
 _symmetry_equiv_pos_site_id
 _symmetry_equiv_pos_as_xyz
  1  'x, y, z'
loop_
 _atom_site_type_symbol
 _atom_site_label
 _atom_site_symmetry_multiplicity
 _atom_site_fract_x
 _atom_site_fract_y
 _atom_site_fract_z
 _atom_site_occupancy
  Tm  Tm0  1  0.307695  0.307675  0.615116  1
  Tm  Tm1  1  0.692405  0.692243  0.384729  1
  Tm  Tm2  1  0.692405  0.307676  0.000159  1
  Tm  Tm3  1  0.307697  0.692585  0.000024  1
  Tm  Tm4  1  0.193106  0.431093  0.238223  1
  Tm  Tm5  1  0.806952  0.569121  0.762050  1
  Tm  Tm6  1  0.193107  0.954886  0.762012  1
  Tm  Tm7  1  0.954567  0.192742  0.761826  1
  Tm  Tm8  1  0.806952  0.044898  0.237834  1
  Lu  Lu9  1  0.045236  0.807364  0.237868  1
  Lu  Lu10  1  0.430592  0.192635  0.237955  1
  Lu  Lu11  1  0.569304  0.807212  0.762089  1
  In  In12  1  0.000019  0.500012  0.500009  1
  In  In13  1  0.499729  0.999873  0.499853  1
  Fe  Fe14  1  0.383643  0.383568  0.000077  1
  Fe  Fe15  1  0.616571  0.616565  0.000010  1
  Ru  Ru16  1  0.000019  0.999852  0.000167  1
