# generated using pymatgen
data_As2OsCl13
_symmetry_space_group_name_H-M   'P 1'
_cell_length_a   9.82768492
_cell_length_b   9.82768513
_cell_length_c   12.08955600
_cell_angle_alpha   90.00000000
_cell_angle_beta   90.00000000
_cell_angle_gamma   113.53047819
_symmetry_Int_Tables_number   1
_chemical_formula_structural   As2OsCl13
_chemical_formula_sum   'As4 Os2 Cl26'
_cell_volume   1070.55768123
_cell_formula_units_Z   2
loop_
 _symmetry_equiv_pos_site_id
 _symmetry_equiv_pos_as_xyz
  1  'x, y, z'
loop_
 _atom_site_type_symbol
 _atom_site_label
 _atom_site_symmetry_multiplicity
 _atom_site_fract_x
 _atom_site_fract_y
 _atom_site_fract_z
 _atom_site_occupancy
  As  As0  1  0.554065  0.445935  0.850910  1
  As  As1  1  0.857693  0.142307  0.536204  1
  As  As2  1  0.445935  0.554065  0.350910  1
  As  As3  1  0.142307  0.857693  0.036204  1
  Os  Os4  1  0.789135  0.210865  0.001064  1
  Os  Os5  1  0.210865  0.789135  0.501064  1
  Cl  Cl6  1  0.075627  0.242276  0.598924  1
  Cl  Cl7  1  0.311379  0.374919  0.871555  1
  Cl  Cl8  1  0.330297  0.669703  0.602730  1
  Cl  Cl9  1  0.669703  0.330297  0.102730  1
  Cl  Cl10  1  0.092962  0.907038  0.395837  1
  Cl  Cl11  1  0.907038  0.092962  0.895837  1
  Cl  Cl12  1  0.307891  0.994426  0.615306  1
  Cl  Cl13  1  0.692109  0.005574  0.115306  1
  Cl  Cl14  1  0.005574  0.692109  0.615306  1
  Cl  Cl15  1  0.994426  0.307891  0.115306  1
  Cl  Cl16  1  0.418548  0.886956  0.386755  1
  Cl  Cl17  1  0.581452  0.113044  0.886755  1
  Cl  Cl18  1  0.113044  0.581452  0.386755  1
  Cl  Cl19  1  0.886956  0.418548  0.886755  1
  Cl  Cl20  1  0.625081  0.688621  0.871555  1
  Cl  Cl21  1  0.242276  0.075627  0.098924  1
  Cl  Cl22  1  0.757724  0.924373  0.598924  1
  Cl  Cl23  1  0.924373  0.757724  0.098924  1
  Cl  Cl24  1  0.735613  0.264387  0.590678  1
  Cl  Cl25  1  0.264387  0.735613  0.090678  1
  Cl  Cl26  1  0.860195  0.139805  0.360941  1
  Cl  Cl27  1  0.139805  0.860195  0.860941  1
  Cl  Cl28  1  0.557767  0.442233  0.665357  1
  Cl  Cl29  1  0.442233  0.557767  0.165357  1
  Cl  Cl30  1  0.374919  0.311379  0.371555  1
  Cl  Cl31  1  0.688621  0.625081  0.371555  1
