# generated using pymatgen
data_Ho5Er(CrB7)2
_symmetry_space_group_name_H-M   'P 1'
_cell_length_a   8.06778391
_cell_length_b   8.06778378
_cell_length_c   9.32142600
_cell_angle_alpha   90.00000000
_cell_angle_beta   90.00000000
_cell_angle_gamma   24.53749304
_symmetry_Int_Tables_number   1
_chemical_formula_structural   Ho5Er(CrB7)2
_chemical_formula_sum   'Ho5 Er1 Cr2 B14'
_cell_volume   251.96538719
_cell_formula_units_Z   1
loop_
 _symmetry_equiv_pos_site_id
 _symmetry_equiv_pos_as_xyz
  1  'x, y, z'
loop_
 _atom_site_type_symbol
 _atom_site_label
 _atom_site_symmetry_multiplicity
 _atom_site_fract_x
 _atom_site_fract_y
 _atom_site_fract_z
 _atom_site_occupancy
  Ho  Ho0  1  0.104789  0.104789  0.059825  1
  Ho  Ho1  1  0.895110  0.895110  0.560227  1
  Ho  Ho2  1  0.895110  0.895110  0.939774  1
  Ho  Ho3  1  0.104789  0.104789  0.440174  1
  Ho  Ho4  1  0.758911  0.758911  0.250000  1
  Er  Er5  1  0.240770  0.240770  0.749999  1
  Cr  Cr6  1  0.946719  0.946719  0.250000  1
  Cr  Cr7  1  0.053336  0.053336  0.749999  1
  B  B8  1  0.540970  0.540970  0.250000  1
  B  B9  1  0.459153  0.459153  0.749999  1
  B  B10  1  0.272778  0.272778  0.031137  1
  B  B11  1  0.727312  0.727312  0.532381  1
  B  B12  1  0.727312  0.727312  0.967619  1
  B  B13  1  0.272778  0.272778  0.468864  1
  B  B14  1  0.368894  0.368894  0.348832  1
  B  B15  1  0.631173  0.631173  0.848595  1
  B  B16  1  0.631173  0.631173  0.651406  1
  B  B17  1  0.368894  0.368894  0.151167  1
  B  B18  1  0.478777  0.478777  0.403826  1
  B  B19  1  0.521236  0.521236  0.903816  1
  B  B20  1  0.521236  0.521236  0.596184  1
  B  B21  1  0.478777  0.478777  0.096175  1
