# generated using pymatgen
data_La5CoAu2
_symmetry_space_group_name_H-M   'P 1'
_cell_length_a   8.93799900
_cell_length_b   8.37419600
_cell_length_c   12.34384300
_cell_angle_alpha   90.00000000
_cell_angle_beta   90.00000000
_cell_angle_gamma   90.00000000
_symmetry_Int_Tables_number   1
_chemical_formula_structural   La5CoAu2
_chemical_formula_sum   'La20 Co4 Au8'
_cell_volume   923.91881755
_cell_formula_units_Z   4
loop_
 _symmetry_equiv_pos_site_id
 _symmetry_equiv_pos_as_xyz
  1  'x, y, z'
loop_
 _atom_site_type_symbol
 _atom_site_label
 _atom_site_symmetry_multiplicity
 _atom_site_fract_x
 _atom_site_fract_y
 _atom_site_fract_z
 _atom_site_occupancy
  La  La0  1  0.159504  0.750000  0.205673  1
  La  La1  1  0.659504  0.250000  0.294327  1
  La  La2  1  0.840496  0.250000  0.794327  1
  La  La3  1  0.340496  0.750000  0.705673  1
  La  La4  1  0.451637  0.750000  0.006148  1
  La  La5  1  0.951637  0.250000  0.493852  1
  La  La6  1  0.548363  0.250000  0.993852  1
  La  La7  1  0.048363  0.750000  0.506148  1
  La  La8  1  0.615120  0.750000  0.303006  1
  La  La9  1  0.115120  0.250000  0.196994  1
  La  La10  1  0.384880  0.250000  0.696994  1
  La  La11  1  0.884880  0.750000  0.803006  1
  La  La12  1  0.826238  0.964524  0.075011  1
  La  La13  1  0.326238  0.035476  0.424989  1
  La  La14  1  0.173762  0.464524  0.924989  1
  La  La15  1  0.673762  0.535476  0.575011  1
  La  La16  1  0.173762  0.035476  0.924989  1
  La  La17  1  0.673762  0.964524  0.575011  1
  La  La18  1  0.826238  0.535476  0.075011  1
  La  La19  1  0.326238  0.464524  0.424989  1
  Co  Co20  1  0.438333  0.750000  0.488800  1
  Co  Co21  1  0.938333  0.250000  0.011200  1
  Co  Co22  1  0.561667  0.250000  0.511200  1
  Co  Co23  1  0.061667  0.750000  0.988800  1
  Au  Au24  1  0.924737  0.974630  0.326587  1
  Au  Au25  1  0.424737  0.025370  0.173413  1
  Au  Au26  1  0.075263  0.474630  0.673413  1
  Au  Au27  1  0.575263  0.525370  0.826587  1
  Au  Au28  1  0.075263  0.025370  0.673413  1
  Au  Au29  1  0.575263  0.974630  0.826587  1
  Au  Au30  1  0.924737  0.525370  0.326587  1
  Au  Au31  1  0.424737  0.474630  0.173413  1
