# generated using pymatgen
data_Tm7Sc(OsI4)2
_symmetry_space_group_name_H-M   'P 1'
_cell_length_a   11.29678885
_cell_length_b   11.25418112
_cell_length_c   6.07062095
_cell_angle_alpha   89.55754697
_cell_angle_beta   89.23960241
_cell_angle_gamma   88.95748171
_symmetry_Int_Tables_number   1
_chemical_formula_structural   Tm7Sc(OsI4)2
_chemical_formula_sum   'Tm7 Sc1 Os2 I8'
_cell_volume   771.57780565
_cell_formula_units_Z   1
loop_
 _symmetry_equiv_pos_site_id
 _symmetry_equiv_pos_as_xyz
  1  'x, y, z'
loop_
 _atom_site_type_symbol
 _atom_site_label
 _atom_site_symmetry_multiplicity
 _atom_site_fract_x
 _atom_site_fract_y
 _atom_site_fract_z
 _atom_site_occupancy
  Tm  Tm0  1  0.804004  0.082468  0.004186  1
  Tm  Tm1  1  0.084806  0.804017  0.501509  1
  Tm  Tm2  1  0.918559  0.196117  0.497373  1
  Tm  Tm3  1  0.806361  0.920903  0.505787  1
  Tm  Tm4  1  0.195922  0.076606  0.493244  1
  Tm  Tm5  1  0.078764  0.194533  0.994273  1
  Tm  Tm6  1  0.921832  0.805176  0.004834  1
  Sc  Sc7  1  0.184266  0.922309  0.994120  1
  Os  Os8  1  0.000557  0.999717  0.248807  1
  Os  Os9  1  0.000076  0.000108  0.750167  1
  I  I10  1  0.355015  0.848830  0.512225  1
  I  I11  1  0.645097  0.151219  0.491870  1
  I  I12  1  0.154240  0.651993  0.993318  1
  I  I13  1  0.849476  0.356443  0.008202  1
  I  I14  1  0.348925  0.136313  0.996405  1
  I  I15  1  0.648528  0.854537  0.003679  1
  I  I16  1  0.857215  0.646778  0.503532  1
  I  I17  1  0.146357  0.351931  0.496469  1
