# generated using pymatgen
data_LiTa9B20
_symmetry_space_group_name_H-M   'P 1'
_cell_length_a   6.18392293
_cell_length_b   7.02488405
_cell_length_c   7.31158778
_cell_angle_alpha   93.45203871
_cell_angle_beta   102.09888552
_cell_angle_gamma   116.19372068
_symmetry_Int_Tables_number   1
_chemical_formula_structural   LiTa9B20
_chemical_formula_sum   'Li1 Ta9 B20'
_cell_volume   274.42156979
_cell_formula_units_Z   1
loop_
 _symmetry_equiv_pos_site_id
 _symmetry_equiv_pos_as_xyz
  1  'x, y, z'
loop_
 _atom_site_type_symbol
 _atom_site_label
 _atom_site_symmetry_multiplicity
 _atom_site_fract_x
 _atom_site_fract_y
 _atom_site_fract_z
 _atom_site_occupancy
  Li  Li0  1  0.000000  0.000000  0.000000  1
  Ta  Ta1  1  0.500000  0.000000  0.000000  1
  Ta  Ta2  1  0.499335  0.799655  0.399988  1
  Ta  Ta3  1  0.999120  0.396584  0.199639  1
  Ta  Ta4  1  0.500665  0.200345  0.600012  1
  Ta  Ta5  1  0.999233  0.796275  0.398694  1
  Ta  Ta6  1  0.502420  0.601154  0.800661  1
  Ta  Ta7  1  0.497580  0.398846  0.199339  1
  Ta  Ta8  1  0.000767  0.203725  0.601306  1
  Ta  Ta9  1  0.000880  0.603416  0.800361  1
  B  B10  1  0.329563  0.230239  0.868730  1
  B  B11  1  0.333502  0.633277  0.066858  1
  B  B12  1  0.164913  0.362526  0.935897  1
  B  B13  1  0.329514  0.032836  0.263127  1
  B  B14  1  0.164976  0.769548  0.130947  1
  B  B15  1  0.835024  0.230452  0.869053  1
  B  B16  1  0.165027  0.164473  0.329371  1
  B  B17  1  0.835087  0.637474  0.064103  1
  B  B18  1  0.332891  0.432194  0.465468  1
  B  B19  1  0.666498  0.366723  0.933142  1
  B  B20  1  0.834717  0.032871  0.262784  1
  B  B21  1  0.670437  0.769761  0.131270  1
  B  B22  1  0.334403  0.834834  0.666996  1
  B  B23  1  0.167503  0.567407  0.533586  1
  B  B24  1  0.665597  0.165166  0.333004  1
  B  B25  1  0.832497  0.432593  0.466414  1
  B  B26  1  0.165283  0.967129  0.737216  1
  B  B27  1  0.834973  0.835527  0.670629  1
  B  B28  1  0.667109  0.567806  0.534532  1
  B  B29  1  0.670486  0.967164  0.736873  1
