# generated using pymatgen
data_Ac2B4O9
_symmetry_space_group_name_H-M   'P 1'
_cell_length_a   6.50488209
_cell_length_b   6.93942013
_cell_length_c   7.89708228
_cell_angle_alpha   101.39227316
_cell_angle_beta   96.05567138
_cell_angle_gamma   102.37860523
_symmetry_Int_Tables_number   1
_chemical_formula_structural   Ac2B4O9
_chemical_formula_sum   'Ac4 B8 O18'
_cell_volume   337.23489778
_cell_formula_units_Z   2
loop_
 _symmetry_equiv_pos_site_id
 _symmetry_equiv_pos_as_xyz
  1  'x, y, z'
loop_
 _atom_site_type_symbol
 _atom_site_label
 _atom_site_symmetry_multiplicity
 _atom_site_fract_x
 _atom_site_fract_y
 _atom_site_fract_z
 _atom_site_occupancy
  Ac  Ac0  1  0.115272  0.321269  0.646098  1
  Ac  Ac1  1  0.461744  0.905901  0.720811  1
  Ac  Ac2  1  0.538256  0.094099  0.279189  1
  Ac  Ac3  1  0.884728  0.678731  0.353902  1
  B  B4  1  0.007090  0.836973  0.821643  1
  B  B5  1  0.280477  0.663885  0.020807  1
  B  B6  1  0.369997  0.640718  0.339620  1
  B  B7  1  0.337929  0.337694  0.077611  1
  B  B8  1  0.662071  0.662306  0.922389  1
  B  B9  1  0.630003  0.359282  0.660380  1
  B  B10  1  0.719523  0.336115  0.979193  1
  B  B11  1  0.992910  0.163027  0.178357  1
  O  O12  1  0.058163  0.934787  0.689634  1
  O  O13  1  0.149928  0.725457  0.875168  1
  O  O14  1  0.236832  0.445012  0.968732  1
  O  O15  1  0.226259  0.594538  0.465352  1
  O  O16  1  0.245586  0.729294  0.201848  1
  O  O17  1  0.181554  0.161262  0.113741  1
  O  O18  1  0.438506  0.195669  0.572637  1
  O  O19  1  0.492309  0.233141  0.990224  1
  O  O20  1  0.552398  0.532327  0.752303  1
  O  O21  1  0.447602  0.467673  0.247697  1
  O  O22  1  0.507691  0.766859  0.009776  1
  O  O23  1  0.561494  0.804331  0.427363  1
  O  O24  1  0.818446  0.838738  0.886259  1
  O  O25  1  0.754414  0.270706  0.798152  1
  O  O26  1  0.773741  0.405462  0.534648  1
  O  O27  1  0.763168  0.554988  0.031268  1
  O  O28  1  0.850072  0.274543  0.124832  1
  O  O29  1  0.941837  0.065213  0.310366  1
