# generated using pymatgen
data_TbHo(MnAl5)4
_symmetry_space_group_name_H-M   'P 1'
_cell_length_a   6.79724118
_cell_length_b   6.79749595
_cell_length_c   9.05146503
_cell_angle_alpha   89.99107929
_cell_angle_beta   89.99668679
_cell_angle_gamma   97.34063875
_symmetry_Int_Tables_number   1
_chemical_formula_structural   TbHo(MnAl5)4
_chemical_formula_sum   'Tb1 Ho1 Mn4 Al20'
_cell_volume   414.78820166
_cell_formula_units_Z   1
loop_
 _symmetry_equiv_pos_site_id
 _symmetry_equiv_pos_as_xyz
  1  'x, y, z'
loop_
 _atom_site_type_symbol
 _atom_site_label
 _atom_site_symmetry_multiplicity
 _atom_site_fract_x
 _atom_site_fract_y
 _atom_site_fract_z
 _atom_site_occupancy
  Tb  Tb0  1  0.125946  0.874061  0.249989  1
  Ho  Ho1  1  0.873443  0.126550  0.750013  1
  Mn  Mn2  1  0.500071  0.000240  0.999862  1
  Mn  Mn3  1  0.999745  0.499892  0.999866  1
  Mn  Mn4  1  0.500071  0.000249  0.500124  1
  Mn  Mn5  1  0.999752  0.499914  0.500136  1
  Al  Al6  1  0.413413  0.134101  0.750027  1
  Al  Al7  1  0.133003  0.412081  0.250016  1
  Al  Al8  1  0.587909  0.867019  0.249967  1
  Al  Al9  1  0.865884  0.586603  0.749991  1
  Al  Al10  1  0.523893  0.782160  0.750029  1
  Al  Al11  1  0.781490  0.523710  0.250034  1
  Al  Al12  1  0.476295  0.218492  0.249974  1
  Al  Al13  1  0.217867  0.476107  0.749966  1
  Al  Al14  1  0.843492  0.156543  0.403551  1
  Al  Al15  1  0.156989  0.842980  0.597028  1
  Al  Al16  1  0.843432  0.156501  0.096452  1
  Al  Al17  1  0.157046  0.843023  0.902972  1
  Al  Al18  1  0.626102  0.373849  0.955081  1
  Al  Al19  1  0.374187  0.625870  0.046406  1
  Al  Al20  1  0.626131  0.373889  0.544922  1
  Al  Al21  1  0.374159  0.625829  0.453590  1
  Al  Al22  1  0.770771  0.771007  0.999554  1
  Al  Al23  1  0.770816  0.770947  0.500371  1
  Al  Al24  1  0.229081  0.229173  0.999641  1
  Al  Al25  1  0.229010  0.229208  0.500436  1
