# generated using pymatgen
data_Sm4Lu6Sn7Hg
_symmetry_space_group_name_H-M   'P 1'
_cell_length_a   7.86122600
_cell_length_b   8.24878000
_cell_length_c   15.31054300
_cell_angle_alpha   90.00000000
_cell_angle_beta   90.00000000
_cell_angle_gamma   90.00000000
_symmetry_Int_Tables_number   1
_chemical_formula_structural   Sm4Lu6Sn7Hg
_chemical_formula_sum   'Sm8 Lu12 Sn14 Hg2'
_cell_volume   992.82018056
_cell_formula_units_Z   2
loop_
 _symmetry_equiv_pos_site_id
 _symmetry_equiv_pos_as_xyz
  1  'x, y, z'
loop_
 _atom_site_type_symbol
 _atom_site_label
 _atom_site_symmetry_multiplicity
 _atom_site_fract_x
 _atom_site_fract_y
 _atom_site_fract_z
 _atom_site_occupancy
  Sm  Sm0  1  0.509033  0.316525  0.906828  1
  Sm  Sm1  1  0.009033  0.183475  0.593172  1
  Sm  Sm2  1  0.489363  0.678606  0.404088  1
  Sm  Sm3  1  0.989363  0.821394  0.095912  1
  Sm  Sm4  1  0.489363  0.678606  0.095912  1
  Sm  Sm5  1  0.989363  0.821394  0.404088  1
  Sm  Sm6  1  0.509033  0.316525  0.593172  1
  Sm  Sm7  1  0.009033  0.183475  0.906828  1
  Lu  Lu8  1  0.346358  0.833342  0.873511  1
  Lu  Lu9  1  0.846358  0.666658  0.626489  1
  Lu  Lu10  1  0.653165  0.163461  0.374068  1
  Lu  Lu11  1  0.153165  0.336539  0.125932  1
  Lu  Lu12  1  0.653165  0.163461  0.125932  1
  Lu  Lu13  1  0.153165  0.336539  0.374068  1
  Lu  Lu14  1  0.346358  0.833342  0.626489  1
  Lu  Lu15  1  0.846358  0.666658  0.873511  1
  Lu  Lu16  1  0.188840  0.500498  0.750000  1
  Lu  Lu17  1  0.688840  0.999502  0.750000  1
  Lu  Lu18  1  0.818221  0.500033  0.250000  1
  Lu  Lu19  1  0.318221  0.999967  0.250000  1
  Sn  Sn20  1  0.312487  0.040413  0.040413  1
  Sn  Sn21  1  0.812487  0.459587  0.459587  1
  Sn  Sn22  1  0.689492  0.960991  0.541842  1
  Sn  Sn23  1  0.189492  0.539009  0.958158  1
  Sn  Sn24  1  0.689492  0.960991  0.958158  1
  Sn  Sn25  1  0.189492  0.539009  0.541842  1
  Sn  Sn26  1  0.312487  0.040413  0.459587  1
  Sn  Sn27  1  0.812487  0.459587  0.040413  1
  Sn  Sn28  1  0.457507  0.377085  0.250000  1
  Sn  Sn29  1  0.957507  0.122915  0.250000  1
  Sn  Sn30  1  0.310055  0.139060  0.750000  1
  Sn  Sn31  1  0.810055  0.360940  0.750000  1
  Sn  Sn32  1  0.680472  0.851691  0.250000  1
  Sn  Sn33  1  0.180472  0.648309  0.250000  1
  Hg  Hg34  1  0.545112  0.622320  0.750000  1
  Hg  Hg35  1  0.045112  0.877680  0.750000  1
