# generated using pymatgen
data_AcIn4Pd
_symmetry_space_group_name_H-M   'P 1'
_cell_length_a   9.02614201
_cell_length_b   9.02614202
_cell_length_c   7.58792800
_cell_angle_alpha   90.00000000
_cell_angle_beta   90.00000000
_cell_angle_gamma   149.98750716
_symmetry_Int_Tables_number   1
_chemical_formula_structural   AcIn4Pd
_chemical_formula_sum   'Ac2 In8 Pd2'
_cell_volume   309.21567656
_cell_formula_units_Z   2
loop_
 _symmetry_equiv_pos_site_id
 _symmetry_equiv_pos_as_xyz
  1  'x, y, z'
loop_
 _atom_site_type_symbol
 _atom_site_label
 _atom_site_symmetry_multiplicity
 _atom_site_fract_x
 _atom_site_fract_y
 _atom_site_fract_z
 _atom_site_occupancy
  Ac  Ac0  1  0.120670  0.879330  0.750000  1
  Ac  Ac1  1  0.879330  0.120670  0.250000  1
  In  In2  1  0.315537  0.684463  0.946873  1
  In  In3  1  0.684463  0.315537  0.053127  1
  In  In4  1  0.315537  0.684463  0.553127  1
  In  In5  1  0.500000  0.500000  0.000000  1
  In  In6  1  0.684463  0.315537  0.446873  1
  In  In7  1  0.500000  0.500000  0.500000  1
  In  In8  1  0.071222  0.928778  0.250000  1
  In  In9  1  0.928778  0.071222  0.750000  1
  Pd  Pd10  1  0.773226  0.226774  0.750000  1
  Pd  Pd11  1  0.226774  0.773226  0.250000  1
