# generated using pymatgen
data_Sm6OsO12
_symmetry_space_group_name_H-M   'P 1'
_cell_length_a   6.62803432
_cell_length_b   6.62803483
_cell_length_c   6.62803501
_cell_angle_alpha   98.58019627
_cell_angle_beta   98.58020145
_cell_angle_gamma   98.58019866
_symmetry_Int_Tables_number   1
_chemical_formula_structural   Sm6OsO12
_chemical_formula_sum   'Sm6 Os1 O12'
_cell_volume   280.28268483
_cell_formula_units_Z   1
loop_
 _symmetry_equiv_pos_site_id
 _symmetry_equiv_pos_as_xyz
  1  'x, y, z'
loop_
 _atom_site_type_symbol
 _atom_site_label
 _atom_site_symmetry_multiplicity
 _atom_site_fract_x
 _atom_site_fract_y
 _atom_site_fract_z
 _atom_site_occupancy
  Sm  Sm0  1  0.611389  0.310859  0.144231  1
  Sm  Sm1  1  0.144230  0.611390  0.310859  1
  Sm  Sm2  1  0.689140  0.855769  0.388610  1
  Sm  Sm3  1  0.310859  0.144230  0.611389  1
  Sm  Sm4  1  0.855770  0.388610  0.689141  1
  Sm  Sm5  1  0.388610  0.689141  0.855769  1
  Os  Os6  1  0.000000  0.000000  0.000000  1
  O  O7  1  0.708349  0.930883  0.033152  1
  O  O8  1  0.966848  0.291650  0.069116  1
  O  O9  1  0.437584  0.591636  0.177279  1
  O  O10  1  0.069116  0.966848  0.291651  1
  O  O11  1  0.822720  0.562417  0.408364  1
  O  O12  1  0.591636  0.177279  0.437583  1
  O  O13  1  0.408364  0.822720  0.562416  1
  O  O14  1  0.177279  0.437583  0.591636  1
  O  O15  1  0.930884  0.033152  0.708349  1
  O  O16  1  0.562416  0.408364  0.822721  1
  O  O17  1  0.033152  0.708349  0.930884  1
  O  O18  1  0.291650  0.069116  0.966847  1
