# generated using pymatgen
data_Ca11Pr9Sn16
_symmetry_space_group_name_H-M   'P 1'
_cell_length_a   8.00833941
_cell_length_b   8.58203697
_cell_length_c   16.18336745
_cell_angle_alpha   89.97644510
_cell_angle_beta   89.99126213
_cell_angle_gamma   90.13312261
_symmetry_Int_Tables_number   1
_chemical_formula_structural   Ca11Pr9Sn16
_chemical_formula_sum   'Ca11 Pr9 Sn16'
_cell_volume   1112.24518272
_cell_formula_units_Z   1
loop_
 _symmetry_equiv_pos_site_id
 _symmetry_equiv_pos_as_xyz
  1  'x, y, z'
loop_
 _atom_site_type_symbol
 _atom_site_label
 _atom_site_symmetry_multiplicity
 _atom_site_fract_x
 _atom_site_fract_y
 _atom_site_fract_z
 _atom_site_occupancy
  Ca  Ca0  1  0.332328  0.827150  0.877917  1
  Ca  Ca1  1  0.832163  0.672439  0.622415  1
  Ca  Ca2  1  0.667914  0.172139  0.376645  1
  Ca  Ca3  1  0.169616  0.327932  0.123924  1
  Ca  Ca4  1  0.666951  0.172293  0.124034  1
  Ca  Ca5  1  0.167913  0.327956  0.376691  1
  Ca  Ca6  1  0.331302  0.827221  0.622500  1
  Ca  Ca7  1  0.162158  0.499419  0.748649  1
  Ca  Ca8  1  0.660080  0.999681  0.748263  1
  Ca  Ca9  1  0.838529  0.497797  0.250244  1
  Ca  Ca10  1  0.338048  0.003269  0.250512  1
  Pr  Pr11  1  0.834361  0.675766  0.875486  1
  Pr  Pr12  1  0.492166  0.311680  0.905543  1
  Pr  Pr13  1  0.993361  0.186437  0.595447  1
  Pr  Pr14  1  0.506876  0.687499  0.403489  1
  Pr  Pr15  1  0.009316  0.813329  0.098248  1
  Pr  Pr16  1  0.506900  0.686895  0.097788  1
  Pr  Pr17  1  0.006498  0.812487  0.403007  1
  Pr  Pr18  1  0.492183  0.312924  0.593921  1
  Pr  Pr19  1  0.993741  0.184533  0.903733  1
  Sn  Sn20  1  0.328352  0.034764  0.039013  1
  Sn  Sn21  1  0.828883  0.465924  0.460945  1
  Sn  Sn22  1  0.671177  0.965728  0.538534  1
  Sn  Sn23  1  0.170190  0.532117  0.960829  1
  Sn  Sn24  1  0.671647  0.965246  0.961748  1
  Sn  Sn25  1  0.169916  0.533557  0.538585  1
  Sn  Sn26  1  0.327951  0.034196  0.461167  1
  Sn  Sn27  1  0.829016  0.465475  0.038733  1
  Sn  Sn28  1  0.533504  0.602166  0.750707  1
  Sn  Sn29  1  0.034700  0.898881  0.750256  1
  Sn  Sn30  1  0.466316  0.399033  0.250747  1
  Sn  Sn31  1  0.965961  0.102303  0.250013  1
  Sn  Sn32  1  0.288445  0.142479  0.749543  1
  Sn  Sn33  1  0.786419  0.358242  0.750860  1
  Sn  Sn34  1  0.711894  0.858312  0.249757  1
  Sn  Sn35  1  0.213222  0.642730  0.250106  1
