# generated using pymatgen
data_Y4Tc6IrRu
_symmetry_space_group_name_H-M   'P 1'
_cell_length_a   5.25765400
_cell_length_b   5.25765456
_cell_length_c   9.28502900
_cell_angle_alpha   90.00000000
_cell_angle_beta   90.00000000
_cell_angle_gamma   120.00000905
_symmetry_Int_Tables_number   1
_chemical_formula_structural   Y4Tc6IrRu
_chemical_formula_sum   'Y4 Tc6 Ir1 Ru1'
_cell_volume   222.27873046
_cell_formula_units_Z   1
loop_
 _symmetry_equiv_pos_site_id
 _symmetry_equiv_pos_as_xyz
  1  'x, y, z'
loop_
 _atom_site_type_symbol
 _atom_site_label
 _atom_site_symmetry_multiplicity
 _atom_site_fract_x
 _atom_site_fract_y
 _atom_site_fract_z
 _atom_site_occupancy
  Y  Y0  1  0.333333  0.666667  0.436948  1
  Y  Y1  1  0.666667  0.333333  0.563052  1
  Y  Y2  1  0.666667  0.333333  0.935802  1
  Y  Y3  1  0.333333  0.666667  0.064198  1
  Tc  Tc4  1  0.829434  0.170566  0.249711  1
  Tc  Tc5  1  0.829434  0.658867  0.249711  1
  Tc  Tc6  1  0.341133  0.170566  0.249711  1
  Tc  Tc7  1  0.170566  0.829434  0.750289  1
  Tc  Tc8  1  0.170566  0.341133  0.750289  1
  Tc  Tc9  1  0.658867  0.829434  0.750289  1
  Ir  Ir10  1  0.000000  0.000000  0.500000  1
  Ru  Ru11  1  0.000000  0.000000  0.000000  1
