# generated using pymatgen
data_MgSc2(TaRu2)3
_symmetry_space_group_name_H-M   'P 1'
_cell_length_a   4.48945700
_cell_length_b   6.33646700
_cell_length_c   13.45891200
_cell_angle_alpha   89.99996063
_cell_angle_beta   90.00053195
_cell_angle_gamma   89.99973674
_symmetry_Int_Tables_number   1
_chemical_formula_structural   MgSc2(TaRu2)3
_chemical_formula_sum   'Mg2 Sc4 Ta6 Ru12'
_cell_volume   382.86965522
_cell_formula_units_Z   2
loop_
 _symmetry_equiv_pos_site_id
 _symmetry_equiv_pos_as_xyz
  1  'x, y, z'
loop_
 _atom_site_type_symbol
 _atom_site_label
 _atom_site_symmetry_multiplicity
 _atom_site_fract_x
 _atom_site_fract_y
 _atom_site_fract_z
 _atom_site_occupancy
  Mg  Mg0  1  0.000121  0.000001  0.666946  1
  Mg  Mg1  1  0.500111  0.500004  0.833055  1
  Sc  Sc2  1  0.000005  0.000006  0.997916  1
  Sc  Sc3  1  0.499875  0.499991  0.165400  1
  Sc  Sc4  1  0.999882  0.999995  0.334601  1
  Sc  Sc5  1  0.499992  0.499991  0.502085  1
  Ta  Ta6  1  0.999982  0.500003  0.994015  1
  Ta  Ta7  1  0.499888  0.999997  0.165683  1
  Ta  Ta8  1  0.999883  0.500001  0.334319  1
  Ta  Ta9  1  0.499981  0.999999  0.505985  1
  Ta  Ta10  1  0.000125  0.500001  0.671961  1
  Ta  Ta11  1  0.500119  0.999998  0.828038  1
  Ru  Ru12  1  0.499996  0.248557  0.000581  1
  Ru  Ru13  1  0.499997  0.751446  0.000581  1
  Ru  Ru14  1  0.999907  0.249990  0.166668  1
  Ru  Ru15  1  0.999906  0.750008  0.166669  1
  Ru  Ru16  1  0.499898  0.250008  0.333333  1
  Ru  Ru17  1  0.499899  0.749991  0.333333  1
  Ru  Ru18  1  0.999998  0.251448  0.499411  1
  Ru  Ru19  1  0.999996  0.748554  0.499412  1
  Ru  Ru20  1  0.500115  0.250266  0.665955  1
  Ru  Ru21  1  0.500113  0.749737  0.665956  1
  Ru  Ru22  1  0.000101  0.249733  0.834047  1
  Ru  Ru23  1  0.000098  0.750264  0.834047  1
