# generated using pymatgen
data_Tm12IrOs2Pt
_symmetry_space_group_name_H-M   'P 1'
_cell_length_a   7.22528942
_cell_length_b   8.93924100
_cell_length_c   6.35898871
_cell_angle_alpha   90.00000000
_cell_angle_beta   89.64711982
_cell_angle_gamma   90.00000000
_symmetry_Int_Tables_number   1
_chemical_formula_structural   Tm12IrOs2Pt
_chemical_formula_sum   'Tm12 Ir1 Os2 Pt1'
_cell_volume   410.71041024
_cell_formula_units_Z   1
loop_
 _symmetry_equiv_pos_site_id
 _symmetry_equiv_pos_as_xyz
  1  'x, y, z'
loop_
 _atom_site_type_symbol
 _atom_site_label
 _atom_site_symmetry_multiplicity
 _atom_site_fract_x
 _atom_site_fract_y
 _atom_site_fract_z
 _atom_site_occupancy
  Tm  Tm0  1  0.029904  0.250000  0.620104  1
  Tm  Tm1  1  0.966506  0.750000  0.382126  1
  Tm  Tm2  1  0.463907  0.750000  0.124036  1
  Tm  Tm3  1  0.537264  0.250000  0.879401  1
  Tm  Tm4  1  0.172185  0.057636  0.166552  1
  Tm  Tm5  1  0.824484  0.939788  0.829147  1
  Tm  Tm6  1  0.321291  0.936093  0.678509  1
  Tm  Tm7  1  0.824484  0.560212  0.829147  1
  Tm  Tm8  1  0.682772  0.058994  0.322895  1
  Tm  Tm9  1  0.172185  0.442364  0.166552  1
  Tm  Tm10  1  0.682772  0.441006  0.322895  1
  Tm  Tm11  1  0.321291  0.563907  0.678509  1
  Ir  Ir12  1  0.612919  0.750000  0.536706  1
  Os  Os13  1  0.113489  0.750000  0.969698  1
  Os  Os14  1  0.885693  0.250000  0.034056  1
  Pt  Pt15  1  0.388853  0.250000  0.459666  1
