# generated using pymatgen
data_LaZr3(Al3Ir)6
_symmetry_space_group_name_H-M   'P 1'
_cell_length_a   7.53119680
_cell_length_b   7.51769702
_cell_length_c   9.36969900
_cell_angle_alpha   90.00000000
_cell_angle_beta   90.00000000
_cell_angle_gamma   119.72953433
_symmetry_Int_Tables_number   1
_chemical_formula_structural   LaZr3(Al3Ir)6
_chemical_formula_sum   'La1 Zr3 Al18 Ir6'
_cell_volume   460.66187276
_cell_formula_units_Z   1
loop_
 _symmetry_equiv_pos_site_id
 _symmetry_equiv_pos_as_xyz
  1  'x, y, z'
loop_
 _atom_site_type_symbol
 _atom_site_label
 _atom_site_symmetry_multiplicity
 _atom_site_fract_x
 _atom_site_fract_y
 _atom_site_fract_z
 _atom_site_occupancy
  La  La0  1  0.329920  0.005879  0.750000  1
  Zr  Zr1  1  0.993943  0.670968  0.250000  1
  Zr  Zr2  1  0.005283  0.329938  0.750000  1
  Zr  Zr3  1  0.671916  0.994685  0.250000  1
  Al  Al4  1  0.121719  0.124119  0.250000  1
  Al  Al5  1  0.867588  0.874721  0.750000  1
  Al  Al6  1  0.997558  0.334613  0.076989  1
  Al  Al7  1  0.997625  0.660780  0.929556  1
  Al  Al8  1  0.997625  0.660780  0.570444  1
  Al  Al9  1  0.335111  0.998267  0.417097  1
  Al  Al10  1  0.997558  0.334613  0.423011  1
  Al  Al11  1  0.669929  0.001653  0.570609  1
  Al  Al12  1  0.669929  0.001653  0.929391  1
  Al  Al13  1  0.335111  0.998267  0.082903  1
  Al  Al14  1  0.331410  0.335429  0.549563  1
  Al  Al15  1  0.668338  0.668319  0.440295  1
  Al  Al16  1  0.668338  0.668319  0.059705  1
  Al  Al17  1  0.331410  0.335429  0.950437  1
  Al  Al18  1  0.338373  0.552954  0.250000  1
  Al  Al19  1  0.670663  0.457326  0.750000  1
  Al  Al20  1  0.554471  0.340810  0.250000  1
  Al  Al21  1  0.447037  0.651440  0.750000  1
  Ir  Ir22  1  0.672819  0.328726  0.002333  1
  Ir  Ir23  1  0.328603  0.672715  0.002556  1
  Ir  Ir24  1  0.328603  0.672715  0.497444  1
  Ir  Ir25  1  0.672819  0.328726  0.497667  1
  Ir  Ir26  1  0.998151  0.998076  0.002598  1
  Ir  Ir27  1  0.998151  0.998076  0.497402  1
