# generated using pymatgen
data_DyEr3MoI4
_symmetry_space_group_name_H-M   'P 1'
_cell_length_a   11.39020014
_cell_length_b   11.40009374
_cell_length_c   5.94227022
_cell_angle_alpha   90.37610476
_cell_angle_beta   90.29938701
_cell_angle_gamma   89.98003704
_symmetry_Int_Tables_number   1
_chemical_formula_structural   DyEr3MoI4
_chemical_formula_sum   'Dy2 Er6 Mo2 I8'
_cell_volume   771.57272632
_cell_formula_units_Z   2
loop_
 _symmetry_equiv_pos_site_id
 _symmetry_equiv_pos_as_xyz
  1  'x, y, z'
loop_
 _atom_site_type_symbol
 _atom_site_label
 _atom_site_symmetry_multiplicity
 _atom_site_fract_x
 _atom_site_fract_y
 _atom_site_fract_z
 _atom_site_occupancy
  Dy  Dy0  1  0.206080  0.915325  0.001610  1
  Dy  Dy1  1  0.793920  0.084675  0.998390  1
  Er  Er2  1  0.083319  0.796866  0.497290  1
  Er  Er3  1  0.916681  0.203134  0.502710  1
  Er  Er4  1  0.796985  0.916201  0.497048  1
  Er  Er5  1  0.203015  0.083799  0.502952  1
  Er  Er6  1  0.083495  0.203017  0.003328  1
  Er  Er7  1  0.916505  0.796983  0.996672  1
  Mo  Mo8  1  0.999841  0.000150  0.250216  1
  Mo  Mo9  1  0.000159  0.999850  0.749784  1
  I  I10  1  0.357588  0.849950  0.497630  1
  I  I11  1  0.642412  0.150050  0.502370  1
  I  I12  1  0.148817  0.641616  0.003235  1
  I  I13  1  0.851183  0.358384  0.996765  1
  I  I14  1  0.357428  0.151794  0.010409  1
  I  I15  1  0.642572  0.848206  0.989591  1
  I  I16  1  0.849994  0.642945  0.489490  1
  I  I17  1  0.150006  0.357055  0.510510  1
