# generated using pymatgen
data_Tb5Nd15(Bi2Te)4
_symmetry_space_group_name_H-M   'P 1'
_cell_length_a   8.42784444
_cell_length_b   9.71848376
_cell_length_c   12.28501569
_cell_angle_alpha   90.01731565
_cell_angle_beta   89.94309453
_cell_angle_gamma   89.93336411
_symmetry_Int_Tables_number   1
_chemical_formula_structural   Tb5Nd15(Bi2Te)4
_chemical_formula_sum   'Tb5 Nd15 Bi8 Te4'
_cell_volume   1006.21366620
_cell_formula_units_Z   1
loop_
 _symmetry_equiv_pos_site_id
 _symmetry_equiv_pos_as_xyz
  1  'x, y, z'
loop_
 _atom_site_type_symbol
 _atom_site_label
 _atom_site_symmetry_multiplicity
 _atom_site_fract_x
 _atom_site_fract_y
 _atom_site_fract_z
 _atom_site_occupancy
  Tb  Tb0  1  0.809154  0.440770  0.557865  1
  Tb  Tb1  1  0.311045  0.440128  0.942636  1
  Tb  Tb2  1  0.811166  0.060232  0.557077  1
  Tb  Tb3  1  0.688926  0.940071  0.057183  1
  Tb  Tb4  1  0.189461  0.560159  0.442967  1
  Nd  Nd5  1  0.353098  0.750002  0.212101  1
  Nd  Nd6  1  0.853357  0.750914  0.288077  1
  Nd  Nd7  1  0.647981  0.250148  0.787182  1
  Nd  Nd8  1  0.146451  0.250847  0.711818  1
  Nd  Nd9  1  0.691979  0.557178  0.057959  1
  Nd  Nd10  1  0.189743  0.942378  0.442420  1
  Nd  Nd11  1  0.308412  0.057572  0.941982  1
  Nd  Nd12  1  0.477001  0.250134  0.487666  1
  Nd  Nd13  1  0.976735  0.250183  0.012508  1
  Nd  Nd14  1  0.523060  0.750390  0.512845  1
  Nd  Nd15  1  0.023247  0.750030  0.986731  1
  Nd  Nd16  1  0.320795  0.251311  0.220350  1
  Nd  Nd17  1  0.820924  0.249452  0.280580  1
  Nd  Nd18  1  0.679531  0.750806  0.779410  1
  Nd  Nd19  1  0.179630  0.749206  0.719970  1
  Bi  Bi20  1  0.570318  0.995014  0.324893  1
  Bi  Bi21  1  0.069963  0.505478  0.175344  1
  Bi  Bi22  1  0.431430  0.494667  0.674787  1
  Bi  Bi23  1  0.929787  0.005327  0.824269  1
  Bi  Bi24  1  0.432562  0.005683  0.674557  1
  Bi  Bi25  1  0.931880  0.494797  0.824008  1
  Bi  Bi26  1  0.568351  0.505416  0.326740  1
  Bi  Bi27  1  0.067479  0.995053  0.174530  1
  Te  Te28  1  0.411165  0.746430  0.958733  1
  Te  Te29  1  0.909094  0.748427  0.542204  1
  Te  Te30  1  0.588847  0.246548  0.040945  1
  Te  Te31  1  0.087428  0.255249  0.459664  1
