# generated using pymatgen
data_TbPa3Ge6Os7
_symmetry_space_group_name_H-M   'P 1'
_cell_length_a   7.29374359
_cell_length_b   7.29374427
_cell_length_c   7.29374386
_cell_angle_alpha   109.56909449
_cell_angle_beta   109.56909168
_cell_angle_gamma   109.56908704
_symmetry_Int_Tables_number   1
_chemical_formula_structural   TbPa3Ge6Os7
_chemical_formula_sum   'Tb1 Pa3 Ge6 Os7'
_cell_volume   297.60889852
_cell_formula_units_Z   1
loop_
 _symmetry_equiv_pos_site_id
 _symmetry_equiv_pos_as_xyz
  1  'x, y, z'
loop_
 _atom_site_type_symbol
 _atom_site_label
 _atom_site_symmetry_multiplicity
 _atom_site_fract_x
 _atom_site_fract_y
 _atom_site_fract_z
 _atom_site_occupancy
  Tb  Tb0  1  0.500000  0.500000  0.500000  1
  Pa  Pa1  1  0.000000  0.000000  0.500000  1
  Pa  Pa2  1  0.000000  0.500000  0.000000  1
  Pa  Pa3  1  0.500000  0.000000  0.000000  1
  Ge  Ge4  1  0.686067  0.686067  0.996195  1
  Ge  Ge5  1  0.313933  0.003805  0.313933  1
  Ge  Ge6  1  0.003805  0.313933  0.313933  1
  Ge  Ge7  1  0.313933  0.313933  0.003805  1
  Ge  Ge8  1  0.686067  0.996195  0.686067  1
  Ge  Ge9  1  0.996195  0.686067  0.686067  1
  Os  Os10  1  0.753033  0.246967  0.500000  1
  Os  Os11  1  0.753033  0.500000  0.246967  1
  Os  Os12  1  0.500000  0.246967  0.753033  1
  Os  Os13  1  0.246967  0.500000  0.753033  1
  Os  Os14  1  0.246967  0.753033  0.500000  1
  Os  Os15  1  0.500000  0.753033  0.246967  1
  Os  Os16  1  0.000000  0.000000  0.000000  1
