# generated using pymatgen
data_Ho3Er2Bi3O14
_symmetry_space_group_name_H-M   'P 1'
_cell_length_a   6.56083728
_cell_length_b   6.57864885
_cell_length_c   7.70660044
_cell_angle_alpha   106.81507694
_cell_angle_beta   89.65920026
_cell_angle_gamma   98.80396052
_symmetry_Int_Tables_number   1
_chemical_formula_structural   Ho3Er2Bi3O14
_chemical_formula_sum   'Ho3 Er2 Bi3 O14'
_cell_volume   314.39606303
_cell_formula_units_Z   1
loop_
 _symmetry_equiv_pos_site_id
 _symmetry_equiv_pos_as_xyz
  1  'x, y, z'
loop_
 _atom_site_type_symbol
 _atom_site_label
 _atom_site_symmetry_multiplicity
 _atom_site_fract_x
 _atom_site_fract_y
 _atom_site_fract_z
 _atom_site_occupancy
  Ho  Ho0  1  0.272212  0.536501  0.882776  1
  Ho  Ho1  1  0.735103  0.461098  0.112606  1
  Ho  Ho2  1  0.737155  0.473298  0.616722  1
  Er  Er3  1  0.463471  0.006506  0.252334  1
  Er  Er4  1  0.537407  0.997186  0.750174  1
  Bi  Bi5  1  0.994862  0.999818  0.500827  1
  Bi  Bi6  1  0.999712  0.997861  0.998361  1
  Bi  Bi7  1  0.278400  0.530474  0.386918  1
  O  O8  1  0.455439  0.654210  0.163659  1
  O  O9  1  0.553210  0.349287  0.833884  1
  O  O10  1  0.303199  0.919382  0.949258  1
  O  O11  1  0.698046  0.079548  0.051204  1
  O  O12  1  0.299828  0.929760  0.516561  1
  O  O13  1  0.697841  0.085296  0.489991  1
  O  O14  1  0.548608  0.360136  0.342431  1
  O  O15  1  0.462794  0.639769  0.659445  1
  O  O16  1  0.925690  0.661204  0.951121  1
  O  O17  1  0.072251  0.331027  0.034624  1
  O  O18  1  0.067180  0.343625  0.629255  1
  O  O19  1  0.902423  0.661872  0.381103  1
  O  O20  1  0.868732  0.905742  0.727166  1
  O  O21  1  0.126437  0.076400  0.269581  1
