# generated using pymatgen
data_TmLu3Al18ZnRh5
_symmetry_space_group_name_H-M   'P 1'
_cell_length_a   7.55760988
_cell_length_b   7.55776782
_cell_length_c   9.38322003
_cell_angle_alpha   90.01662257
_cell_angle_beta   90.03064804
_cell_angle_gamma   119.45389995
_symmetry_Int_Tables_number   1
_chemical_formula_structural   TmLu3Al18ZnRh5
_chemical_formula_sum   'Tm1 Lu3 Al18 Zn1 Rh5'
_cell_volume   466.68522996
_cell_formula_units_Z   1
loop_
 _symmetry_equiv_pos_site_id
 _symmetry_equiv_pos_as_xyz
  1  'x, y, z'
loop_
 _atom_site_type_symbol
 _atom_site_label
 _atom_site_symmetry_multiplicity
 _atom_site_fract_x
 _atom_site_fract_y
 _atom_site_fract_z
 _atom_site_occupancy
  Tm  Tm0  1  0.995140  0.676403  0.249568  1
  Lu  Lu1  1  0.004839  0.323549  0.750347  1
  Lu  Lu2  1  0.676392  0.995167  0.249651  1
  Lu  Lu3  1  0.323600  0.004843  0.750349  1
  Al  Al4  1  0.134489  0.134545  0.256137  1
  Al  Al5  1  0.865558  0.865571  0.743872  1
  Al  Al6  1  0.000966  0.344331  0.080653  1
  Al  Al7  1  0.999051  0.655551  0.919200  1
  Al  Al8  1  0.001680  0.663794  0.574087  1
  Al  Al9  1  0.336328  0.998436  0.426083  1
  Al  Al10  1  0.998328  0.336119  0.426059  1
  Al  Al11  1  0.663779  0.001670  0.573994  1
  Al  Al12  1  0.655567  0.999044  0.919277  1
  Al  Al13  1  0.344557  0.001051  0.080661  1
  Al  Al14  1  0.331839  0.331844  0.552451  1
  Al  Al15  1  0.668063  0.668160  0.447619  1
  Al  Al16  1  0.659698  0.659792  0.058216  1
  Al  Al17  1  0.340192  0.340208  0.941717  1
  Al  Al18  1  0.339371  0.553375  0.251379  1
  Al  Al19  1  0.660678  0.446592  0.748619  1
  Al  Al20  1  0.553289  0.339240  0.251377  1
  Al  Al21  1  0.446589  0.660678  0.748623  1
  Zn  Zn22  1  0.999993  0.000017  0.000000  1
  Rh  Rh23  1  0.672495  0.327428  0.999958  1
  Rh  Rh24  1  0.327510  0.672540  0.999961  1
  Rh  Rh25  1  0.328137  0.671874  0.500039  1
  Rh  Rh26  1  0.671859  0.328085  0.500048  1
  Rh  Rh27  1  0.000014  0.000094  0.500056  1
