# generated using pymatgen
data_Ho12Co4BiRu
_symmetry_space_group_name_H-M   'P 1'
_cell_length_a   8.29187131
_cell_length_b   8.29164389
_cell_length_c   8.29187237
_cell_angle_alpha   111.07210320
_cell_angle_beta   110.62206432
_cell_angle_gamma   106.75459551
_symmetry_Int_Tables_number   1
_chemical_formula_structural   Ho12Co4BiRu
_chemical_formula_sum   'Ho12 Co4 Bi1 Ru1'
_cell_volume   438.10924890
_cell_formula_units_Z   1
loop_
 _symmetry_equiv_pos_site_id
 _symmetry_equiv_pos_as_xyz
  1  'x, y, z'
loop_
 _atom_site_type_symbol
 _atom_site_label
 _atom_site_symmetry_multiplicity
 _atom_site_fract_x
 _atom_site_fract_y
 _atom_site_fract_z
 _atom_site_occupancy
  Ho  Ho0  1  0.817536  0.714595  0.532126  1
  Ho  Ho1  1  0.182464  0.285405  0.467874  1
  Ho  Ho2  1  0.182470  0.714595  0.897059  1
  Ho  Ho3  1  0.817530  0.285405  0.102941  1
  Ho  Ho4  1  0.688335  0.380237  0.691902  1
  Ho  Ho5  1  0.311665  0.619763  0.308098  1
  Ho  Ho6  1  0.688348  0.996433  0.308085  1
  Ho  Ho7  1  0.311652  0.003567  0.691915  1
  Ho  Ho8  1  0.592851  0.788954  0.803909  1
  Ho  Ho9  1  0.407149  0.211046  0.196091  1
  Ho  Ho10  1  0.985045  0.788954  0.196103  1
  Ho  Ho11  1  0.014955  0.211046  0.803897  1
  Co  Co12  1  0.624466  0.000000  0.624466  1
  Co  Co13  1  0.375534  0.000000  0.375534  1
  Co  Co14  1  0.111438  0.611443  0.500005  1
  Co  Co15  1  0.888562  0.388557  0.499995  1
  Bi  Bi16  1  0.500000  0.500000  0.000000  1
  Ru  Ru17  1  0.000000  0.000000  0.000000  1
