# generated using pymatgen
data_MoSe3Br5
_symmetry_space_group_name_H-M   'P 1'
_cell_length_a   10.43913937
_cell_length_b   10.81072745
_cell_length_c   15.01353084
_cell_angle_alpha   71.67154722
_cell_angle_beta   69.29349418
_cell_angle_gamma   61.23135978
_symmetry_Int_Tables_number   1
_chemical_formula_structural   MoSe3Br5
_chemical_formula_sum   'Mo4 Se12 Br20'
_cell_volume   1367.59392841
_cell_formula_units_Z   4
loop_
 _symmetry_equiv_pos_site_id
 _symmetry_equiv_pos_as_xyz
  1  'x, y, z'
loop_
 _atom_site_type_symbol
 _atom_site_label
 _atom_site_symmetry_multiplicity
 _atom_site_fract_x
 _atom_site_fract_y
 _atom_site_fract_z
 _atom_site_occupancy
  Mo  Mo0  1  0.621487  0.404457  0.739531  1
  Mo  Mo1  1  0.378512  0.595544  0.260468  1
  Mo  Mo2  1  0.765376  0.095492  0.760311  1
  Mo  Mo3  1  0.234624  0.904508  0.239688  1
  Se  Se4  1  0.761748  0.561424  0.737978  1
  Se  Se5  1  0.238252  0.438576  0.262021  1
  Se  Se6  1  0.060613  0.938998  0.761386  1
  Se  Se7  1  0.939387  0.061002  0.238614  1
  Se  Se8  1  0.875409  0.263831  0.628105  1
  Se  Se9  1  0.124591  0.736170  0.371895  1
  Se  Se10  1  0.765701  0.236656  0.871485  1
  Se  Se11  1  0.234300  0.763344  0.128514  1
  Se  Se12  1  0.656958  0.267280  0.616945  1
  Se  Se13  1  0.343042  0.732719  0.383056  1
  Se  Se14  1  0.539779  0.232023  0.883182  1
  Se  Se15  1  0.460220  0.767978  0.116818  1
  Br  Br16  1  0.550624  0.022312  0.773455  1
  Br  Br17  1  0.449375  0.977689  0.226546  1
  Br  Br18  1  0.015854  0.481008  0.631394  1
  Br  Br19  1  0.984147  0.518994  0.368606  1
  Br  Br20  1  0.854600  0.486984  0.883930  1
  Br  Br21  1  0.145401  0.513017  0.116070  1
  Br  Br22  1  0.617478  0.625996  0.596896  1
  Br  Br23  1  0.382522  0.374005  0.403105  1
  Br  Br24  1  0.838109  0.873881  0.902798  1
  Br  Br25  1  0.161892  0.126119  0.097201  1
  Br  Br26  1  0.125855  0.018429  0.868502  1
  Br  Br27  1  0.874145  0.981570  0.131498  1
  Br  Br28  1  0.226759  0.014507  0.615476  1
  Br  Br29  1  0.773240  0.985494  0.384525  1
  Br  Br30  1  0.928811  0.895675  0.651662  1
  Br  Br31  1  0.071188  0.104325  0.348338  1
  Br  Br32  1  0.475067  0.604507  0.847907  1
  Br  Br33  1  0.524933  0.395494  0.152093  1
  Br  Br34  1  0.346672  0.476849  0.727304  1
  Br  Br35  1  0.653328  0.523151  0.272697  1
