# generated using pymatgen
data_K2HfZn3As4
_symmetry_space_group_name_H-M   'P 1'
_cell_length_a   7.77809337
_cell_length_b   7.77809423
_cell_length_c   5.97453600
_cell_angle_alpha   90.00000000
_cell_angle_beta   90.00000000
_cell_angle_gamma   134.76941402
_symmetry_Int_Tables_number   1
_chemical_formula_structural   K2HfZn3As4
_chemical_formula_sum   'K2 Hf1 Zn3 As4'
_cell_volume   256.61162875
_cell_formula_units_Z   1
loop_
 _symmetry_equiv_pos_site_id
 _symmetry_equiv_pos_as_xyz
  1  'x, y, z'
loop_
 _atom_site_type_symbol
 _atom_site_label
 _atom_site_symmetry_multiplicity
 _atom_site_fract_x
 _atom_site_fract_y
 _atom_site_fract_z
 _atom_site_occupancy
  K  K0  1  0.500000  0.000000  0.250183  1
  K  K1  1  0.000000  0.500000  0.749817  1
  Hf  Hf2  1  0.000000  0.000000  0.000000  1
  Zn  Zn3  1  0.500000  0.500000  0.500000  1
  Zn  Zn4  1  0.500000  0.500000  0.000000  1
  Zn  Zn5  1  0.000000  0.000000  0.500000  1
  As  As6  1  0.644264  0.855948  0.750205  1
  As  As7  1  0.144052  0.355736  0.249795  1
  As  As8  1  0.855948  0.644264  0.249795  1
  As  As9  1  0.355736  0.144052  0.750205  1
