# generated using pymatgen
data_YScPa2(Al3Ir)6
_symmetry_space_group_name_H-M   'P 1'
_cell_length_a   7.58537534
_cell_length_b   7.59727611
_cell_length_c   9.35052000
_cell_angle_alpha   90.00000000
_cell_angle_beta   90.00000000
_cell_angle_gamma   119.72593204
_symmetry_Int_Tables_number   1
_chemical_formula_structural   YScPa2(Al3Ir)6
_chemical_formula_sum   'Y1 Sc1 Pa2 Al18 Ir6'
_cell_volume   467.94429364
_cell_formula_units_Z   1
loop_
 _symmetry_equiv_pos_site_id
 _symmetry_equiv_pos_as_xyz
  1  'x, y, z'
loop_
 _atom_site_type_symbol
 _atom_site_label
 _atom_site_symmetry_multiplicity
 _atom_site_fract_x
 _atom_site_fract_y
 _atom_site_fract_z
 _atom_site_occupancy
  Y  Y0  1  0.330941  0.006736  0.750000  1
  Sc  Sc1  1  0.670094  0.993233  0.250000  1
  Pa  Pa2  1  0.997788  0.671256  0.250000  1
  Pa  Pa3  1  0.002270  0.328761  0.750000  1
  Al  Al4  1  0.127929  0.126164  0.250000  1
  Al  Al5  1  0.868043  0.872454  0.750000  1
  Al  Al6  1  0.996920  0.328244  0.080461  1
  Al  Al7  1  0.999198  0.668421  0.922614  1
  Al  Al8  1  0.999198  0.668421  0.577386  1
  Al  Al9  1  0.341455  0.002974  0.422591  1
  Al  Al10  1  0.996920  0.328244  0.419539  1
  Al  Al11  1  0.662154  0.996901  0.570810  1
  Al  Al12  1  0.662154  0.996901  0.929190  1
  Al  Al13  1  0.341455  0.002974  0.077409  1
  Al  Al14  1  0.335340  0.333427  0.552332  1
  Al  Al15  1  0.664854  0.669397  0.443944  1
  Al  Al16  1  0.664854  0.669397  0.056056  1
  Al  Al17  1  0.335340  0.333427  0.947668  1
  Al  Al18  1  0.343505  0.552074  0.250000  1
  Al  Al19  1  0.659024  0.452527  0.750000  1
  Al  Al20  1  0.549415  0.339425  0.250000  1
  Al  Al21  1  0.452397  0.659814  0.750000  1
  Ir  Ir22  1  0.676237  0.330303  0.000220  1
  Ir  Ir23  1  0.323276  0.669679  0.000784  1
  Ir  Ir24  1  0.323276  0.669679  0.499216  1
  Ir  Ir25  1  0.676237  0.330303  0.499780  1
  Ir  Ir26  1  0.999863  0.999432  0.000708  1
  Ir  Ir27  1  0.999863  0.999432  0.499292  1
