# generated using pymatgen
data_Na8Zr3NbBr24
_symmetry_space_group_name_H-M   'P 1'
_cell_length_a   7.16802700
_cell_length_b   7.16802770
_cell_length_c   27.35915700
_cell_angle_alpha   90.00000000
_cell_angle_beta   90.00000000
_cell_angle_gamma   120.00000137
_symmetry_Int_Tables_number   1
_chemical_formula_structural   Na8Zr3NbBr24
_chemical_formula_sum   'Na8 Zr3 Nb1 Br24'
_cell_volume   1217.39817104
_cell_formula_units_Z   1
loop_
 _symmetry_equiv_pos_site_id
 _symmetry_equiv_pos_as_xyz
  1  'x, y, z'
loop_
 _atom_site_type_symbol
 _atom_site_label
 _atom_site_symmetry_multiplicity
 _atom_site_fract_x
 _atom_site_fract_y
 _atom_site_fract_z
 _atom_site_occupancy
  Na  Na0  1  0.000000  0.000000  0.250136  1
  Na  Na1  1  0.000000  0.000000  0.749864  1
  Na  Na2  1  0.333333  0.666667  0.000280  1
  Na  Na3  1  0.333333  0.666667  0.499624  1
  Na  Na4  1  0.333333  0.666667  0.250035  1
  Na  Na5  1  0.666667  0.333333  0.749965  1
  Na  Na6  1  0.666667  0.333333  0.999720  1
  Na  Na7  1  0.666667  0.333333  0.500376  1
  Zr  Zr8  1  0.000000  0.000000  0.500000  1
  Zr  Zr9  1  0.333333  0.666667  0.749716  1
  Zr  Zr10  1  0.666667  0.333333  0.250284  1
  Nb  Nb11  1  0.000000  0.000000  0.000000  1
  Br  Br12  1  0.366798  0.033165  0.307342  1
  Br  Br13  1  0.333662  0.966699  0.806930  1
  Br  Br14  1  0.999465  0.293513  0.056104  1
  Br  Br15  1  0.000103  0.300058  0.557111  1
  Br  Br16  1  0.966835  0.333634  0.307342  1
  Br  Br17  1  0.033301  0.366960  0.806930  1
  Br  Br18  1  0.366960  0.333662  0.193070  1
  Br  Br19  1  0.333634  0.366798  0.692658  1
  Br  Br20  1  0.300058  0.299955  0.442889  1
  Br  Br21  1  0.293513  0.294048  0.943896  1
  Br  Br22  1  0.700045  0.000103  0.442889  1
  Br  Br23  1  0.294048  0.000535  0.056104  1
  Br  Br24  1  0.299955  0.999897  0.557111  1
  Br  Br25  1  0.706487  0.705952  0.056104  1
  Br  Br26  1  0.699942  0.700045  0.557111  1
  Br  Br27  1  0.666366  0.633202  0.307342  1
  Br  Br28  1  0.633040  0.666338  0.806930  1
  Br  Br29  1  0.966699  0.633040  0.193070  1
  Br  Br30  1  0.033165  0.666366  0.692658  1
  Br  Br31  1  0.999897  0.699942  0.442889  1
  Br  Br32  1  0.000535  0.706487  0.943896  1
  Br  Br33  1  0.705952  0.999465  0.943896  1
  Br  Br34  1  0.666338  0.033301  0.193070  1
  Br  Br35  1  0.633202  0.966835  0.692658  1
