# generated using pymatgen
data_Pr8ReTc3C8
_symmetry_space_group_name_H-M   'P 1'
_cell_length_a   5.41489300
_cell_length_b   6.75100601
_cell_length_c   10.30141202
_cell_angle_alpha   90.00740722
_cell_angle_beta   90.00000000
_cell_angle_gamma   90.00000000
_symmetry_Int_Tables_number   1
_chemical_formula_structural   Pr8ReTc3C8
_chemical_formula_sum   'Pr8 Re1 Tc3 C8'
_cell_volume   376.57815933
_cell_formula_units_Z   1
loop_
 _symmetry_equiv_pos_site_id
 _symmetry_equiv_pos_as_xyz
  1  'x, y, z'
loop_
 _atom_site_type_symbol
 _atom_site_label
 _atom_site_symmetry_multiplicity
 _atom_site_fract_x
 _atom_site_fract_y
 _atom_site_fract_z
 _atom_site_occupancy
  Pr  Pr0  1  0.750000  0.524981  0.787009  1
  Pr  Pr1  1  0.250000  0.974367  0.287378  1
  Pr  Pr2  1  0.750000  0.687574  0.449214  1
  Pr  Pr3  1  0.250000  0.811725  0.948961  1
  Pr  Pr4  1  0.750000  0.189153  0.051594  1
  Pr  Pr5  1  0.250000  0.311912  0.551392  1
  Pr  Pr6  1  0.250000  0.473878  0.213773  1
  Pr  Pr7  1  0.750000  0.025391  0.713202  1
  Re  Re8  1  0.750000  0.730286  0.143244  1
  Tc  Tc9  1  0.250000  0.269656  0.856536  1
  Tc  Tc10  1  0.250000  0.769668  0.643788  1
  Tc  Tc11  1  0.750000  0.230778  0.356443  1
  C  C12  1  0.250000  0.688691  0.465997  1
  C  C13  1  0.250000  0.533409  0.757226  1
  C  C14  1  0.750000  0.468178  0.241832  1
  C  C15  1  0.750000  0.811115  0.964619  1
  C  C16  1  0.250000  0.033051  0.743110  1
  C  C17  1  0.250000  0.188710  0.034109  1
  C  C18  1  0.750000  0.311317  0.534064  1
  C  C19  1  0.750000  0.966159  0.256509  1
