# generated using pymatgen
data_Nd3Zr2Sn3H
_symmetry_space_group_name_H-M   'P 1'
_cell_length_a   9.05962800
_cell_length_b   9.05962716
_cell_length_c   6.14983100
_cell_angle_alpha   90.00000000
_cell_angle_beta   90.00000000
_cell_angle_gamma   119.99976304
_symmetry_Int_Tables_number   1
_chemical_formula_structural   Nd3Zr2Sn3H
_chemical_formula_sum   'Nd6 Zr4 Sn6 H2'
_cell_volume   437.13495959
_cell_formula_units_Z   2
loop_
 _symmetry_equiv_pos_site_id
 _symmetry_equiv_pos_as_xyz
  1  'x, y, z'
loop_
 _atom_site_type_symbol
 _atom_site_label
 _atom_site_symmetry_multiplicity
 _atom_site_fract_x
 _atom_site_fract_y
 _atom_site_fract_z
 _atom_site_occupancy
  Nd  Nd0  1  0.245733  0.999979  0.249999  1
  Nd  Nd1  1  0.999979  0.245733  0.249999  1
  Nd  Nd2  1  0.754253  0.754253  0.250004  1
  Nd  Nd3  1  0.754266  0.000021  0.749999  1
  Nd  Nd4  1  0.000021  0.754266  0.749999  1
  Nd  Nd5  1  0.245747  0.245747  0.750003  1
  Zr  Zr6  1  0.666664  0.333333  0.000000  1
  Zr  Zr7  1  0.333333  0.666664  0.000000  1
  Zr  Zr8  1  0.666663  0.333334  0.500000  1
  Zr  Zr9  1  0.333334  0.666663  0.500000  1
  Sn  Sn10  1  0.598676  0.999996  0.249999  1
  Sn  Sn11  1  0.999996  0.598676  0.249999  1
  Sn  Sn12  1  0.401306  0.401306  0.250003  1
  Sn  Sn13  1  0.401324  0.000004  0.750001  1
  Sn  Sn14  1  0.000004  0.401324  0.750001  1
  Sn  Sn15  1  0.598692  0.598692  0.750001  1
  H  H16  1  0.000000  0.000000  0.000000  1
  H  H17  1  0.000000  0.000000  0.500002  1
