# generated using pymatgen
data_Cs3Rb3TaAs4
_symmetry_space_group_name_H-M   'P 1'
_cell_length_a   11.14321311
_cell_length_b   11.14321436
_cell_length_c   8.65119595
_cell_angle_alpha   90.14037047
_cell_angle_beta   90.14037764
_cell_angle_gamma   119.85661438
_symmetry_Int_Tables_number   1
_chemical_formula_structural   Cs3Rb3TaAs4
_chemical_formula_sum   'Cs6 Rb6 Ta2 As8'
_cell_volume   931.64013384
_cell_formula_units_Z   2
loop_
 _symmetry_equiv_pos_site_id
 _symmetry_equiv_pos_as_xyz
  1  'x, y, z'
loop_
 _atom_site_type_symbol
 _atom_site_label
 _atom_site_symmetry_multiplicity
 _atom_site_fract_x
 _atom_site_fract_y
 _atom_site_fract_z
 _atom_site_occupancy
  Cs  Cs0  1  0.853854  0.143212  0.686006  1
  Cs  Cs1  1  0.295459  0.146031  0.687006  1
  Cs  Cs2  1  0.856276  0.713744  0.686443  1
  Cs  Cs3  1  0.143212  0.853854  0.186006  1
  Cs  Cs4  1  0.713744  0.856276  0.186443  1
  Cs  Cs5  1  0.146031  0.295459  0.187006  1
  Rb  Rb6  1  0.468647  0.532848  0.498812  1
  Rb  Rb7  1  0.061954  0.531644  0.501337  1
  Rb  Rb8  1  0.532848  0.468647  0.998812  1
  Rb  Rb9  1  0.531644  0.061954  0.001337  1
  Rb  Rb10  1  0.465579  0.931380  0.497668  1
  Rb  Rb11  1  0.931380  0.465579  0.997668  1
  Ta  Ta12  1  0.666229  0.333318  0.388065  1
  Ta  Ta13  1  0.333318  0.666229  0.888065  1
  As  As14  1  0.668706  0.335084  0.676876  1
  As  As15  1  0.335084  0.668706  0.176876  1
  As  As16  1  0.788844  0.208490  0.297764  1
  As  As17  1  0.419396  0.209186  0.296093  1
  As  As18  1  0.789946  0.580171  0.298220  1
  As  As19  1  0.208490  0.788844  0.797764  1
  As  As20  1  0.580171  0.789946  0.798220  1
  As  As21  1  0.209186  0.419396  0.796093  1
