# generated using pymatgen
data_ErSc4Bi3
_symmetry_space_group_name_H-M   'P 1'
_cell_length_a   7.88003400
_cell_length_b   9.05870900
_cell_length_c   11.53647700
_cell_angle_alpha   90.00000000
_cell_angle_beta   90.00000000
_cell_angle_gamma   90.00000000
_symmetry_Int_Tables_number   1
_chemical_formula_structural   ErSc4Bi3
_chemical_formula_sum   'Er4 Sc16 Bi12'
_cell_volume   823.50758685
_cell_formula_units_Z   4
loop_
 _symmetry_equiv_pos_site_id
 _symmetry_equiv_pos_as_xyz
  1  'x, y, z'
loop_
 _atom_site_type_symbol
 _atom_site_label
 _atom_site_symmetry_multiplicity
 _atom_site_fract_x
 _atom_site_fract_y
 _atom_site_fract_z
 _atom_site_occupancy
  Er  Er0  1  0.314815  0.250000  0.218234  1
  Er  Er1  1  0.814815  0.250000  0.281766  1
  Er  Er2  1  0.685185  0.750000  0.781766  1
  Er  Er3  1  0.185185  0.750000  0.718234  1
  Sc  Sc4  1  0.349626  0.750000  0.219628  1
  Sc  Sc5  1  0.849626  0.750000  0.280372  1
  Sc  Sc6  1  0.650374  0.250000  0.780372  1
  Sc  Sc7  1  0.150374  0.250000  0.719628  1
  Sc  Sc8  1  0.693056  0.568052  0.061225  1
  Sc  Sc9  1  0.193056  0.931948  0.438775  1
  Sc  Sc10  1  0.306944  0.068052  0.938775  1
  Sc  Sc11  1  0.806944  0.431948  0.561225  1
  Sc  Sc12  1  0.306944  0.431948  0.938775  1
  Sc  Sc13  1  0.806944  0.068052  0.561225  1
  Sc  Sc14  1  0.693056  0.931948  0.061225  1
  Sc  Sc15  1  0.193056  0.568052  0.438775  1
  Sc  Sc16  1  0.481532  0.250000  0.489276  1
  Sc  Sc17  1  0.981532  0.250000  0.010724  1
  Sc  Sc18  1  0.518468  0.750000  0.510724  1
  Sc  Sc19  1  0.018468  0.750000  0.989276  1
  Bi  Bi20  1  0.401700  0.750000  0.965219  1
  Bi  Bi21  1  0.901700  0.750000  0.534781  1
  Bi  Bi22  1  0.598300  0.250000  0.034781  1
  Bi  Bi23  1  0.098300  0.250000  0.465219  1
  Bi  Bi24  1  0.563465  0.990757  0.327472  1
  Bi  Bi25  1  0.063465  0.509243  0.172528  1
  Bi  Bi26  1  0.436535  0.490757  0.672528  1
  Bi  Bi27  1  0.936535  0.009243  0.827472  1
  Bi  Bi28  1  0.436535  0.009243  0.672528  1
  Bi  Bi29  1  0.936535  0.490757  0.827472  1
  Bi  Bi30  1  0.563465  0.509243  0.327472  1
  Bi  Bi31  1  0.063465  0.990757  0.172528  1
