# generated using pymatgen
data_Sb12Os2RuRh
_symmetry_space_group_name_H-M   'P 1'
_cell_length_a   8.14756422
_cell_length_b   8.11086835
_cell_length_c   8.17980287
_cell_angle_alpha   109.52281147
_cell_angle_beta   109.67695128
_cell_angle_gamma   109.42801411
_symmetry_Int_Tables_number   1
_chemical_formula_structural   Sb12Os2RuRh
_chemical_formula_sum   'Sb12 Os2 Ru1 Rh1'
_cell_volume   415.01289240
_cell_formula_units_Z   1
loop_
 _symmetry_equiv_pos_site_id
 _symmetry_equiv_pos_as_xyz
  1  'x, y, z'
loop_
 _atom_site_type_symbol
 _atom_site_label
 _atom_site_symmetry_multiplicity
 _atom_site_fract_x
 _atom_site_fract_y
 _atom_site_fract_z
 _atom_site_occupancy
  Sb  Sb0  1  0.157072  0.815399  0.661318  1
  Sb  Sb1  1  0.842928  0.184601  0.338682  1
  Sb  Sb2  1  0.845971  0.511136  0.666488  1
  Sb  Sb3  1  0.154029  0.488864  0.333512  1
  Sb  Sb4  1  0.816786  0.660208  0.153626  1
  Sb  Sb5  1  0.183214  0.339792  0.846374  1
  Sb  Sb6  1  0.510392  0.665005  0.843928  1
  Sb  Sb7  1  0.489608  0.334995  0.156072  1
  Sb  Sb8  1  0.664708  0.153320  0.821182  1
  Sb  Sb9  1  0.335292  0.846680  0.178818  1
  Sb  Sb10  1  0.661495  0.844979  0.507392  1
  Sb  Sb11  1  0.338505  0.155021  0.492608  1
  Os  Os12  1  0.000000  0.500000  0.000000  1
  Os  Os13  1  0.500000  0.500000  0.500000  1
  Ru  Ru14  1  0.500000  0.000000  0.000000  1
  Rh  Rh15  1  0.000000  0.000000  0.500000  1
