# generated using pymatgen
data_Pr2Nd3IrOs
_symmetry_space_group_name_H-M   'P 1'
_cell_length_a   8.96442454
_cell_length_b   8.96442292
_cell_length_c   7.41705422
_cell_angle_alpha   83.55469582
_cell_angle_beta   83.55469465
_cell_angle_gamma   43.75526542
_symmetry_Int_Tables_number   1
_chemical_formula_structural   Pr2Nd3IrOs
_chemical_formula_sum   'Pr4 Nd6 Ir2 Os2'
_cell_volume   409.18274391
_cell_formula_units_Z   2
loop_
 _symmetry_equiv_pos_site_id
 _symmetry_equiv_pos_as_xyz
  1  'x, y, z'
loop_
 _atom_site_type_symbol
 _atom_site_label
 _atom_site_symmetry_multiplicity
 _atom_site_fract_x
 _atom_site_fract_y
 _atom_site_fract_z
 _atom_site_occupancy
  Pr  Pr0  1  0.021303  0.795220  0.916170  1
  Pr  Pr1  1  0.204780  0.978697  0.583830  1
  Pr  Pr2  1  0.982874  0.202533  0.080931  1
  Pr  Pr3  1  0.797467  0.017126  0.419069  1
  Nd  Nd4  1  0.351487  0.212046  0.816714  1
  Nd  Nd5  1  0.787954  0.648513  0.683286  1
  Nd  Nd6  1  0.645344  0.787823  0.182117  1
  Nd  Nd7  1  0.212177  0.354656  0.317883  1
  Nd  Nd8  1  0.567233  0.432767  0.750000  1
  Nd  Nd9  1  0.431639  0.568361  0.250000  1
  Ir  Ir10  1  0.822124  0.402385  0.425406  1
  Ir  Ir11  1  0.597615  0.177876  0.074594  1
  Os  Os12  1  0.177855  0.599849  0.572239  1
  Os  Os13  1  0.400151  0.822145  0.927761  1
