# generated using pymatgen
data_Ca3PrTh4(SiPd)8
_symmetry_space_group_name_H-M   'P 1'
_cell_length_a   5.85931997
_cell_length_b   7.87759961
_cell_length_c   10.73094815
_cell_angle_alpha   88.02598444
_cell_angle_beta   90.17727583
_cell_angle_gamma   90.18299380
_symmetry_Int_Tables_number   1
_chemical_formula_structural   Ca3PrTh4(SiPd)8
_chemical_formula_sum   'Ca3 Pr1 Th4 Si8 Pd8'
_cell_volume   495.01374290
_cell_formula_units_Z   1
loop_
 _symmetry_equiv_pos_site_id
 _symmetry_equiv_pos_as_xyz
  1  'x, y, z'
loop_
 _atom_site_type_symbol
 _atom_site_label
 _atom_site_symmetry_multiplicity
 _atom_site_fract_x
 _atom_site_fract_y
 _atom_site_fract_z
 _atom_site_occupancy
  Ca  Ca0  1  0.132159  0.468577  0.139563  1
  Ca  Ca1  1  0.636357  0.032414  0.857056  1
  Ca  Ca2  1  0.867261  0.532393  0.860221  1
  Pr  Pr3  1  0.367734  0.969374  0.138189  1
  Th  Th4  1  0.628347  0.324446  0.367245  1
  Th  Th5  1  0.126651  0.175827  0.633837  1
  Th  Th6  1  0.373184  0.676008  0.634291  1
  Th  Th7  1  0.871793  0.824459  0.369252  1
  Si  Si8  1  0.636559  0.035652  0.575594  1
  Si  Si9  1  0.133894  0.463915  0.424794  1
  Si  Si10  1  0.365821  0.965273  0.424874  1
  Si  Si11  1  0.866411  0.535428  0.576028  1
  Si  Si12  1  0.856231  0.123986  0.146111  1
  Si  Si13  1  0.359358  0.377075  0.854119  1
  Si  Si14  1  0.142209  0.874344  0.855994  1
  Si  Si15  1  0.640229  0.622120  0.144980  1
  Pd  Pd16  1  0.897916  0.838253  0.051902  1
  Pd  Pd17  1  0.402946  0.660187  0.946261  1
  Pd  Pd18  1  0.097237  0.163422  0.944601  1
  Pd  Pd19  1  0.598169  0.338186  0.051623  1
  Pd  Pd20  1  0.898455  0.820791  0.667305  1
  Pd  Pd21  1  0.396794  0.677708  0.334836  1
  Pd  Pd22  1  0.101819  0.179249  0.334383  1
  Pd  Pd23  1  0.602463  0.320914  0.666943  1
