# generated using pymatgen
data_Dy3Ho5Sc11Si16Hg
_symmetry_space_group_name_H-M   'P 1'
_cell_length_a   7.04319029
_cell_length_b   7.39316371
_cell_length_c   14.01416504
_cell_angle_alpha   90.03019704
_cell_angle_beta   90.03241848
_cell_angle_gamma   89.89396303
_symmetry_Int_Tables_number   1
_chemical_formula_structural   Dy3Ho5Sc11Si16Hg
_chemical_formula_sum   'Dy3 Ho5 Sc11 Si16 Hg1'
_cell_volume   729.73655181
_cell_formula_units_Z   1
loop_
 _symmetry_equiv_pos_site_id
 _symmetry_equiv_pos_as_xyz
  1  'x, y, z'
loop_
 _atom_site_type_symbol
 _atom_site_label
 _atom_site_symmetry_multiplicity
 _atom_site_fract_x
 _atom_site_fract_y
 _atom_site_fract_z
 _atom_site_occupancy
  Dy  Dy0  1  0.010247  0.174476  0.096604  1
  Dy  Dy1  1  0.990870  0.817497  0.901936  1
  Dy  Dy2  1  0.484966  0.673525  0.902117  1
  Ho  Ho3  1  0.990726  0.817447  0.598114  1
  Ho  Ho4  1  0.510968  0.323760  0.096881  1
  Ho  Ho5  1  0.010395  0.174543  0.403383  1
  Ho  Ho6  1  0.510945  0.323692  0.403195  1
  Ho  Ho7  1  0.485007  0.673697  0.597955  1
  Sc  Sc8  1  0.838200  0.497502  0.250039  1
  Sc  Sc9  1  0.339339  0.003432  0.250034  1
  Sc  Sc10  1  0.657844  0.997450  0.749927  1
  Sc  Sc11  1  0.326003  0.182708  0.625817  1
  Sc  Sc12  1  0.670836  0.823846  0.375127  1
  Sc  Sc13  1  0.169766  0.679971  0.373534  1
  Sc  Sc14  1  0.670802  0.823819  0.124952  1
  Sc  Sc15  1  0.837178  0.325306  0.625769  1
  Sc  Sc16  1  0.326012  0.182695  0.874115  1
  Sc  Sc17  1  0.837228  0.325316  0.874165  1
  Sc  Sc18  1  0.169854  0.679830  0.126527  1
  Si  Si19  1  0.027864  0.095271  0.749880  1
  Si  Si20  1  0.967962  0.887706  0.250091  1
  Si  Si21  1  0.467050  0.616480  0.250022  1
  Si  Si22  1  0.543601  0.380095  0.749915  1
  Si  Si23  1  0.291277  0.887301  0.749797  1
  Si  Si24  1  0.713251  0.128877  0.250122  1
  Si  Si25  1  0.213082  0.372685  0.250106  1
  Si  Si26  1  0.770216  0.631478  0.749750  1
  Si  Si27  1  0.162593  0.459383  0.528949  1
  Si  Si28  1  0.841753  0.536241  0.462109  1
  Si  Si29  1  0.343530  0.966185  0.462204  1
  Si  Si30  1  0.841670  0.536180  0.037921  1
  Si  Si31  1  0.658045  0.033209  0.540493  1
  Si  Si32  1  0.162426  0.459265  0.971122  1
  Si  Si33  1  0.657764  0.033541  0.959556  1
  Si  Si34  1  0.343858  0.966252  0.037821  1
  Hg  Hg35  1  0.156872  0.509338  0.749950  1
