# generated using pymatgen
data_Pa2SnRh5
_symmetry_space_group_name_H-M   'P 1'
_cell_length_a   5.88718437
_cell_length_b   5.88718404
_cell_length_c   8.35133900
_cell_angle_alpha   90.00000000
_cell_angle_beta   90.00000000
_cell_angle_gamma   98.10416401
_symmetry_Int_Tables_number   1
_chemical_formula_structural   Pa2SnRh5
_chemical_formula_sum   'Pa4 Sn2 Rh10'
_cell_volume   286.55793724
_cell_formula_units_Z   2
loop_
 _symmetry_equiv_pos_site_id
 _symmetry_equiv_pos_as_xyz
  1  'x, y, z'
loop_
 _atom_site_type_symbol
 _atom_site_label
 _atom_site_symmetry_multiplicity
 _atom_site_fract_x
 _atom_site_fract_y
 _atom_site_fract_z
 _atom_site_occupancy
  Pa  Pa0  1  0.787495  0.212505  0.500000  1
  Pa  Pa1  1  0.212505  0.787495  0.000000  1
  Pa  Pa2  1  0.212505  0.787495  0.500000  1
  Pa  Pa3  1  0.787495  0.212505  0.000000  1
  Sn  Sn4  1  0.502441  0.502441  0.750000  1
  Sn  Sn5  1  0.497559  0.497559  0.250000  1
  Rh  Rh6  1  0.729818  0.729818  0.001207  1
  Rh  Rh7  1  0.729818  0.729818  0.498793  1
  Rh  Rh8  1  0.270182  0.270182  0.998793  1
  Rh  Rh9  1  0.270182  0.270182  0.501207  1
  Rh  Rh10  1  0.500177  0.000687  0.750000  1
  Rh  Rh11  1  0.499823  0.999313  0.250000  1
  Rh  Rh12  1  0.000437  0.000437  0.250000  1
  Rh  Rh13  1  0.999563  0.999563  0.750000  1
  Rh  Rh14  1  0.000687  0.500177  0.750000  1
  Rh  Rh15  1  0.999313  0.499823  0.250000  1
