# generated using pymatgen
data_Sc3Al12Fe3Au
_symmetry_space_group_name_H-M   'P 1'
_cell_length_a   8.62653213
_cell_length_b   8.62653301
_cell_length_c   9.19875000
_cell_angle_alpha   90.00000000
_cell_angle_beta   90.00000000
_cell_angle_gamma   120.09766148
_symmetry_Int_Tables_number   1
_chemical_formula_structural   Sc3Al12Fe3Au
_chemical_formula_sum   'Sc6 Al24 Fe6 Au2'
_cell_volume   592.24819932
_cell_formula_units_Z   2
loop_
 _symmetry_equiv_pos_site_id
 _symmetry_equiv_pos_as_xyz
  1  'x, y, z'
loop_
 _atom_site_type_symbol
 _atom_site_label
 _atom_site_symmetry_multiplicity
 _atom_site_fract_x
 _atom_site_fract_y
 _atom_site_fract_z
 _atom_site_occupancy
  Sc  Sc0  1  0.805064  0.194936  0.750000  1
  Sc  Sc1  1  0.194936  0.805064  0.250000  1
  Sc  Sc2  1  0.387104  0.188362  0.750000  1
  Sc  Sc3  1  0.612896  0.811638  0.250000  1
  Sc  Sc4  1  0.811638  0.612896  0.750000  1
  Sc  Sc5  1  0.188362  0.387104  0.250000  1
  Al  Al6  1  0.674905  0.325095  0.970059  1
  Al  Al7  1  0.325095  0.674905  0.029941  1
  Al  Al8  1  0.325095  0.674905  0.470059  1
  Al  Al9  1  0.674905  0.325095  0.529941  1
  Al  Al10  1  0.838242  0.161758  0.421176  1
  Al  Al11  1  0.161758  0.838242  0.578824  1
  Al  Al12  1  0.317978  0.145612  0.422894  1
  Al  Al13  1  0.161758  0.838242  0.921176  1
  Al  Al14  1  0.682022  0.854388  0.577106  1
  Al  Al15  1  0.838242  0.161758  0.078824  1
  Al  Al16  1  0.854388  0.682022  0.422894  1
  Al  Al17  1  0.682022  0.854388  0.922894  1
  Al  Al18  1  0.145612  0.317978  0.577106  1
  Al  Al19  1  0.317978  0.145612  0.077106  1
  Al  Al20  1  0.145612  0.317978  0.922894  1
  Al  Al21  1  0.854388  0.682022  0.077106  1
  Al  Al22  1  0.432152  0.567848  0.750000  1
  Al  Al23  1  0.567848  0.432152  0.250000  1
  Al  Al24  1  0.108998  0.555344  0.750000  1
  Al  Al25  1  0.891002  0.444656  0.250000  1
  Al  Al26  1  0.444656  0.891002  0.750000  1
  Al  Al27  1  0.555344  0.108998  0.250000  1
  Al  Al28  1  0.001134  0.998866  0.750000  1
  Al  Al29  1  0.998866  0.001134  0.250000  1
  Fe  Fe30  1  0.000000  0.500000  0.000000  1
  Fe  Fe31  1  0.500000  0.000000  0.000000  1
  Fe  Fe32  1  0.000000  0.500000  0.500000  1
  Fe  Fe33  1  0.500000  0.000000  0.500000  1
  Fe  Fe34  1  0.000000  0.000000  0.000000  1
  Fe  Fe35  1  0.000000  0.000000  0.500000  1
  Au  Au36  1  0.500000  0.500000  0.000000  1
  Au  Au37  1  0.500000  0.500000  0.500000  1
