# generated using pymatgen
data_Te7OsI6
_symmetry_space_group_name_H-M   'P 1'
_cell_length_a   10.71613319
_cell_length_b   10.75688726
_cell_length_c   11.98181478
_cell_angle_alpha   102.17411078
_cell_angle_beta   103.57122663
_cell_angle_gamma   111.18922779
_symmetry_Int_Tables_number   1
_chemical_formula_structural   Te7OsI6
_chemical_formula_sum   'Te14 Os2 I12'
_cell_volume   1183.33995268
_cell_formula_units_Z   2
loop_
 _symmetry_equiv_pos_site_id
 _symmetry_equiv_pos_as_xyz
  1  'x, y, z'
loop_
 _atom_site_type_symbol
 _atom_site_label
 _atom_site_symmetry_multiplicity
 _atom_site_fract_x
 _atom_site_fract_y
 _atom_site_fract_z
 _atom_site_occupancy
  Te  Te0  1  0.923875  0.006881  0.713534  1
  Te  Te1  1  0.076125  0.993119  0.286466  1
  Te  Te2  1  0.171065  0.257725  0.867752  1
  Te  Te3  1  0.828935  0.742275  0.132248  1
  Te  Te4  1  0.763383  0.115322  0.830338  1
  Te  Te5  1  0.236617  0.884678  0.169662  1
  Te  Te6  1  0.019048  0.321280  0.020109  1
  Te  Te7  1  0.980952  0.678720  0.979891  1
  Te  Te8  1  0.188588  0.065069  0.017380  1
  Te  Te9  1  0.811412  0.934931  0.982620  1
  Te  Te10  1  0.723946  0.628428  0.684126  1
  Te  Te11  1  0.276054  0.371572  0.315874  1
  Te  Te12  1  0.088243  0.752653  0.717678  1
  Te  Te13  1  0.911757  0.247347  0.282322  1
  Os  Os14  1  0.951267  0.839270  0.844083  1
  Os  Os15  1  0.048733  0.160730  0.155917  1
  I  I16  1  0.539469  0.773090  0.631315  1
  I  I17  1  0.460531  0.226910  0.368685  1
  I  I18  1  0.842793  0.684914  0.473265  1
  I  I19  1  0.157207  0.315086  0.526735  1
  I  I20  1  0.886016  0.431136  0.677527  1
  I  I21  1  0.113984  0.568864  0.322473  1
  I  I22  1  0.590590  0.499819  0.849314  1
  I  I23  1  0.409410  0.500181  0.150686  1
  I  I24  1  0.270379  0.022067  0.696514  1
  I  I25  1  0.729621  0.977933  0.303486  1
  I  I26  1  0.310971  0.748471  0.915364  1
  I  I27  1  0.689029  0.251529  0.084636  1
