# generated using pymatgen
data_LiHo3Tm13Co4Hg3
_symmetry_space_group_name_H-M   'P 1'
_cell_length_a   9.34109960
_cell_length_b   9.33401656
_cell_length_c   9.35836971
_cell_angle_alpha   60.18427867
_cell_angle_beta   60.15523822
_cell_angle_gamma   60.05805942
_symmetry_Int_Tables_number   1
_chemical_formula_structural   LiHo3Tm13Co4Hg3
_chemical_formula_sum   'Li1 Ho3 Tm13 Co4 Hg3'
_cell_volume   578.69867664
_cell_formula_units_Z   1
loop_
 _symmetry_equiv_pos_site_id
 _symmetry_equiv_pos_as_xyz
  1  'x, y, z'
loop_
 _atom_site_type_symbol
 _atom_site_label
 _atom_site_symmetry_multiplicity
 _atom_site_fract_x
 _atom_site_fract_y
 _atom_site_fract_z
 _atom_site_occupancy
  Li  Li0  1  0.568365  0.568525  0.294561  1
  Ho  Ho1  1  0.561004  0.560675  0.938853  1
  Ho  Ho2  1  0.186693  0.813590  0.186780  1
  Ho  Ho3  1  0.961764  0.345186  0.346831  1
  Tm  Tm4  1  0.936395  0.937247  0.563569  1
  Tm  Tm5  1  0.813718  0.185373  0.186835  1
  Tm  Tm6  1  0.936884  0.563076  0.562825  1
  Tm  Tm7  1  0.939745  0.561721  0.937455  1
  Tm  Tm8  1  0.813281  0.814193  0.186629  1
  Tm  Tm9  1  0.345136  0.343428  0.348316  1
  Tm  Tm10  1  0.560862  0.941023  0.938449  1
  Tm  Tm11  1  0.562121  0.937556  0.563335  1
  Tm  Tm12  1  0.189207  0.811607  0.809495  1
  Tm  Tm13  1  0.189557  0.190142  0.809481  1
  Tm  Tm14  1  0.348836  0.350228  0.950431  1
  Tm  Tm15  1  0.345108  0.962153  0.348432  1
  Tm  Tm16  1  0.811675  0.189185  0.810056  1
  Co  Co17  1  0.575686  0.143553  0.135492  1
  Co  Co18  1  0.145556  0.142509  0.135871  1
  Co  Co19  1  0.144901  0.576017  0.135862  1
  Co  Co20  1  0.141909  0.140304  0.577315  1
  Hg  Hg21  1  0.248420  0.586576  0.578549  1
  Hg  Hg22  1  0.586626  0.587105  0.576979  1
  Hg  Hg23  1  0.586553  0.249034  0.577604  1
