# generated using pymatgen
data_Hf18BeAl2FeRe6
_symmetry_space_group_name_H-M   'P 1'
_cell_length_a   8.43275400
_cell_length_b   8.58253656
_cell_length_c   8.58253600
_cell_angle_alpha   119.99872741
_cell_angle_beta   90.00000000
_cell_angle_gamma   90.00000000
_symmetry_Int_Tables_number   1
_chemical_formula_structural   Hf18BeAl2FeRe6
_chemical_formula_sum   'Hf18 Be1 Al2 Fe1 Re6'
_cell_volume   537.94382673
_cell_formula_units_Z   1
loop_
 _symmetry_equiv_pos_site_id
 _symmetry_equiv_pos_as_xyz
  1  'x, y, z'
loop_
 _atom_site_type_symbol
 _atom_site_label
 _atom_site_symmetry_multiplicity
 _atom_site_fract_x
 _atom_site_fract_y
 _atom_site_fract_z
 _atom_site_occupancy
  Hf  Hf0  1  0.556085  0.803597  0.607186  1
  Hf  Hf1  1  0.556093  0.803588  0.196412  1
  Hf  Hf2  1  0.556085  0.392814  0.196403  1
  Hf  Hf3  1  0.440585  0.199741  0.399490  1
  Hf  Hf4  1  0.440569  0.199749  0.800251  1
  Hf  Hf5  1  0.440585  0.600510  0.800259  1
  Hf  Hf6  1  0.059415  0.199741  0.399490  1
  Hf  Hf7  1  0.059431  0.199749  0.800251  1
  Hf  Hf8  1  0.059415  0.600510  0.800259  1
  Hf  Hf9  1  0.943915  0.803597  0.607186  1
  Hf  Hf10  1  0.943907  0.803588  0.196412  1
  Hf  Hf11  1  0.943915  0.392814  0.196403  1
  Hf  Hf12  1  0.750000  0.459105  0.918226  1
  Hf  Hf13  1  0.750000  0.459095  0.540905  1
  Hf  Hf14  1  0.750000  0.081774  0.540894  1
  Hf  Hf15  1  0.250000  0.541948  0.083867  1
  Hf  Hf16  1  0.250000  0.541944  0.458056  1
  Hf  Hf17  1  0.250000  0.916133  0.458051  1
  Be  Be18  1  0.750000  0.666645  0.333355  1
  Al  Al19  1  0.497591  0.999999  0.000001  1
  Al  Al20  1  0.002409  0.999999  0.000001  1
  Fe  Fe21  1  0.250000  0.333353  0.666647  1
  Re  Re22  1  0.750000  0.112264  0.224524  1
  Re  Re23  1  0.750000  0.112252  0.887748  1
  Re  Re24  1  0.750000  0.775476  0.887736  1
  Re  Re25  1  0.250000  0.885032  0.770056  1
  Re  Re26  1  0.250000  0.885039  0.114961  1
  Re  Re27  1  0.250000  0.229944  0.114968  1
