# generated using pymatgen
data_La2FeCo5(Ni2P3)2
_symmetry_space_group_name_H-M   'P 1'
_cell_length_a   6.09715938
_cell_length_b   6.09715969
_cell_length_c   11.41139753
_cell_angle_alpha   90.22179791
_cell_angle_beta   89.77820246
_cell_angle_gamma   145.51403607
_symmetry_Int_Tables_number   1
_chemical_formula_structural   La2FeCo5(Ni2P3)2
_chemical_formula_sum   'La2 Fe1 Co5 Ni4 P6'
_cell_volume   240.19478293
_cell_formula_units_Z   1
loop_
 _symmetry_equiv_pos_site_id
 _symmetry_equiv_pos_as_xyz
  1  'x, y, z'
loop_
 _atom_site_type_symbol
 _atom_site_label
 _atom_site_symmetry_multiplicity
 _atom_site_fract_x
 _atom_site_fract_y
 _atom_site_fract_z
 _atom_site_occupancy
  La  La0  1  0.339408  0.660592  0.250914  1
  La  La1  1  0.662553  0.337447  0.748926  1
  Fe  Fe2  1  0.695613  0.304387  0.435459  1
  Co  Co3  1  0.302620  0.697380  0.569899  1
  Co  Co4  1  0.301928  0.698072  0.931026  1
  Co  Co5  1  0.695981  0.304019  0.065591  1
  Co  Co6  1  0.949958  0.050042  0.641323  1
  Co  Co7  1  0.949849  0.050151  0.858836  1
  Ni  Ni8  1  0.052117  0.947883  0.143593  1
  Ni  Ni9  1  0.050853  0.949147  0.355351  1
  Ni  Ni10  1  0.496595  0.503405  0.496608  1
  Ni  Ni11  1  0.496977  0.503023  0.003135  1
  P  P12  1  0.619000  0.381000  0.251950  1
  P  P13  1  0.392562  0.607438  0.749252  1
  P  P14  1  0.120937  0.879063  0.536996  1
  P  P15  1  0.876605  0.123395  0.465460  1
  P  P16  1  0.877152  0.122848  0.034756  1
  P  P17  1  0.119290  0.880710  0.960925  1
