# generated using pymatgen
data_CaTaReB6
_symmetry_space_group_name_H-M   'P 1'
_cell_length_a   3.53634600
_cell_length_b   8.94761400
_cell_length_c   11.31481900
_cell_angle_alpha   90.00000000
_cell_angle_beta   90.00000000
_cell_angle_gamma   90.00000000
_symmetry_Int_Tables_number   1
_chemical_formula_structural   CaTaReB6
_chemical_formula_sum   'Ca4 Ta4 Re4 B24'
_cell_volume   358.02190716
_cell_formula_units_Z   4
loop_
 _symmetry_equiv_pos_site_id
 _symmetry_equiv_pos_as_xyz
  1  'x, y, z'
loop_
 _atom_site_type_symbol
 _atom_site_label
 _atom_site_symmetry_multiplicity
 _atom_site_fract_x
 _atom_site_fract_y
 _atom_site_fract_z
 _atom_site_occupancy
  Ca  Ca0  1  0.000000  0.322449  0.414811  1
  Ca  Ca1  1  0.000000  0.677551  0.585189  1
  Ca  Ca2  1  0.000000  0.822449  0.085189  1
  Ca  Ca3  1  0.000000  0.177551  0.914811  1
  Ta  Ta4  1  0.000000  0.946987  0.373236  1
  Ta  Ta5  1  0.000000  0.053013  0.626764  1
  Ta  Ta6  1  0.000000  0.446987  0.126764  1
  Ta  Ta7  1  0.000000  0.553013  0.873236  1
  Re  Re8  1  0.000000  0.644791  0.315531  1
  Re  Re9  1  0.000000  0.355209  0.684469  1
  Re  Re10  1  0.000000  0.144791  0.184469  1
  Re  Re11  1  0.000000  0.855209  0.815531  1
  B  B12  1  0.500000  0.554638  0.433040  1
  B  B13  1  0.500000  0.445362  0.566960  1
  B  B14  1  0.500000  0.054638  0.066960  1
  B  B15  1  0.500000  0.945362  0.933040  1
  B  B16  1  0.500000  0.755092  0.417314  1
  B  B17  1  0.500000  0.244908  0.582686  1
  B  B18  1  0.500000  0.255092  0.082686  1
  B  B19  1  0.500000  0.744908  0.917314  1
  B  B20  1  0.500000  0.798248  0.263175  1
  B  B21  1  0.500000  0.201752  0.736825  1
  B  B22  1  0.500000  0.298248  0.236825  1
  B  B23  1  0.500000  0.701752  0.763175  1
  B  B24  1  0.500000  0.630777  0.180613  1
  B  B25  1  0.500000  0.369223  0.819387  1
  B  B26  1  0.500000  0.130777  0.319387  1
  B  B27  1  0.500000  0.869223  0.680613  1
  B  B28  1  0.500000  0.982686  0.213887  1
  B  B29  1  0.500000  0.017314  0.786113  1
  B  B30  1  0.500000  0.482686  0.286113  1
  B  B31  1  0.500000  0.517314  0.713887  1
  B  B32  1  0.500000  0.598441  0.025785  1
  B  B33  1  0.500000  0.401559  0.974215  1
  B  B34  1  0.500000  0.098441  0.474215  1
  B  B35  1  0.500000  0.901559  0.525785  1
