# generated using pymatgen
data_La4Ho4Sc11Si16Mo
_symmetry_space_group_name_H-M   'P 1'
_cell_length_a   7.20302798
_cell_length_b   7.43865387
_cell_length_c   14.05180830
_cell_angle_alpha   90.25128442
_cell_angle_beta   89.66090491
_cell_angle_gamma   89.75121712
_symmetry_Int_Tables_number   1
_chemical_formula_structural   La4Ho4Sc11Si16Mo
_chemical_formula_sum   'La4 Ho4 Sc11 Si16 Mo1'
_cell_volume   752.87996980
_cell_formula_units_Z   1
loop_
 _symmetry_equiv_pos_site_id
 _symmetry_equiv_pos_as_xyz
  1  'x, y, z'
loop_
 _atom_site_type_symbol
 _atom_site_label
 _atom_site_symmetry_multiplicity
 _atom_site_fract_x
 _atom_site_fract_y
 _atom_site_fract_z
 _atom_site_occupancy
  La  La0  1  0.010993  0.170167  0.098462  1
  La  La1  1  0.989675  0.829321  0.899695  1
  La  La2  1  0.487972  0.673302  0.900908  1
  La  La3  1  0.991701  0.831229  0.591963  1
  Ho  Ho4  1  0.512246  0.324145  0.100852  1
  Ho  Ho5  1  0.012999  0.177649  0.400641  1
  Ho  Ho6  1  0.506085  0.322796  0.409624  1
  Ho  Ho7  1  0.487958  0.675547  0.595095  1
  Sc  Sc8  1  0.166192  0.489702  0.741472  1
  Sc  Sc9  1  0.836375  0.497311  0.254197  1
  Sc  Sc10  1  0.337619  0.002170  0.254614  1
  Sc  Sc11  1  0.656940  0.006545  0.745044  1
  Sc  Sc12  1  0.662642  0.825929  0.378591  1
  Sc  Sc13  1  0.170348  0.674433  0.378791  1
  Sc  Sc14  1  0.668522  0.824718  0.128430  1
  Sc  Sc15  1  0.832981  0.324349  0.620381  1
  Sc  Sc16  1  0.335128  0.178125  0.873778  1
  Sc  Sc17  1  0.828927  0.324836  0.870248  1
  Sc  Sc18  1  0.170982  0.673884  0.128646  1
  Si  Si19  1  0.045762  0.128521  0.743560  1
  Si  Si20  1  0.963863  0.878418  0.255178  1
  Si  Si21  1  0.467377  0.618029  0.252367  1
  Si  Si22  1  0.531300  0.370338  0.742711  1
  Si  Si23  1  0.291654  0.891148  0.742691  1
  Si  Si24  1  0.706738  0.125538  0.254683  1
  Si  Si25  1  0.217785  0.375928  0.253623  1
  Si  Si26  1  0.782236  0.615376  0.743122  1
  Si  Si27  1  0.180074  0.446630  0.540016  1
  Si  Si28  1  0.838714  0.525772  0.456856  1
  Si  Si29  1  0.337849  0.972673  0.467366  1
  Si  Si30  1  0.843867  0.535140  0.041309  1
  Si  Si31  1  0.638982  0.037196  0.545022  1
  Si  Si32  1  0.148935  0.462075  0.961020  1
  Si  Si33  1  0.653056  0.045013  0.961421  1
  Si  Si34  1  0.351213  0.967233  0.041744  1
  Mo  Mo35  1  0.334308  0.178813  0.625881  1
