# generated using pymatgen
data_Yb10NiIr3
_symmetry_space_group_name_H-M   'P 1'
_cell_length_a   8.45489098
_cell_length_b   8.43517346
_cell_length_c   7.56174200
_cell_angle_alpha   82.87107153
_cell_angle_beta   82.98353178
_cell_angle_gamma   44.17680658
_symmetry_Int_Tables_number   1
_chemical_formula_structural   Yb10NiIr3
_chemical_formula_sum   'Yb10 Ni1 Ir3'
_cell_volume   372.48489045
_cell_formula_units_Z   1
loop_
 _symmetry_equiv_pos_site_id
 _symmetry_equiv_pos_as_xyz
  1  'x, y, z'
loop_
 _atom_site_type_symbol
 _atom_site_label
 _atom_site_symmetry_multiplicity
 _atom_site_fract_x
 _atom_site_fract_y
 _atom_site_fract_z
 _atom_site_occupancy
  Yb  Yb0  1  0.034988  0.794064  0.919258  1
  Yb  Yb1  1  0.208000  0.965462  0.578994  1
  Yb  Yb2  1  0.969903  0.209068  0.079114  1
  Yb  Yb3  1  0.793891  0.034946  0.421229  1
  Yb  Yb4  1  0.364351  0.198736  0.821126  1
  Yb  Yb5  1  0.799341  0.636402  0.677296  1
  Yb  Yb6  1  0.635871  0.797042  0.177447  1
  Yb  Yb7  1  0.195351  0.366377  0.325377  1
  Yb  Yb8  1  0.576200  0.425476  0.746959  1
  Yb  Yb9  1  0.423907  0.576195  0.251394  1
  Ni  Ni10  1  0.602274  0.176461  0.081474  1
  Ir  Ir11  1  0.178534  0.602165  0.581211  1
  Ir  Ir12  1  0.395782  0.821437  0.921038  1
  Ir  Ir13  1  0.821608  0.396169  0.418080  1
