# generated using pymatgen
data_Ho4Tm2Fe9(Co3P4)3
_symmetry_space_group_name_H-M   'P 1'
_cell_length_a   3.68428000
_cell_length_b   10.47286999
_cell_length_c   12.06321013
_cell_angle_alpha   90.06940405
_cell_angle_beta   90.00000000
_cell_angle_gamma   90.00000000
_symmetry_Int_Tables_number   1
_chemical_formula_structural   Ho4Tm2Fe9(Co3P4)3
_chemical_formula_sum   'Ho4 Tm2 Fe9 Co9 P12'
_cell_volume   465.45844599
_cell_formula_units_Z   1
loop_
 _symmetry_equiv_pos_site_id
 _symmetry_equiv_pos_as_xyz
  1  'x, y, z'
loop_
 _atom_site_type_symbol
 _atom_site_label
 _atom_site_symmetry_multiplicity
 _atom_site_fract_x
 _atom_site_fract_y
 _atom_site_fract_z
 _atom_site_occupancy
  Ho  Ho0  1  0.000000  0.500765  0.524010  1
  Ho  Ho1  1  0.500000  0.001074  0.475957  1
  Ho  Ho2  1  0.000000  0.680680  0.795744  1
  Ho  Ho3  1  0.000000  0.318687  0.794930  1
  Tm  Tm4  1  0.500000  0.818791  0.204553  1
  Tm  Tm5  1  0.500000  0.181698  0.204725  1
  Fe  Fe6  1  0.000000  0.500122  0.987786  1
  Fe  Fe7  1  0.500000  0.999929  0.013295  1
  Fe  Fe8  1  0.500000  0.298584  0.429183  1
  Fe  Fe9  1  0.000000  0.201462  0.571178  1
  Fe  Fe10  1  0.000000  0.798066  0.570248  1
  Fe  Fe11  1  0.000000  0.619545  0.289987  1
  Fe  Fe12  1  0.000000  0.381480  0.288338  1
  Fe  Fe13  1  0.500000  0.500856  0.152357  1
  Fe  Fe14  1  0.000000  0.999739  0.844780  1
  Co  Co15  1  0.500000  0.701989  0.429445  1
  Co  Co16  1  0.500000  0.880172  0.711582  1
  Co  Co17  1  0.500000  0.118704  0.712098  1
  Co  Co18  1  0.500000  0.331380  0.993389  1
  Co  Co19  1  0.500000  0.668719  0.993558  1
  Co  Co20  1  0.000000  0.168051  0.007254  1
  Co  Co21  1  0.000000  0.831770  0.007603  1
  Co  Co22  1  0.500000  0.499823  0.699083  1
  Co  Co23  1  0.000000  0.999842  0.300185  1
  P  P24  1  0.500000  0.307206  0.613972  1
  P  P25  1  0.500000  0.692282  0.615611  1
  P  P26  1  0.000000  0.193465  0.383813  1
  P  P27  1  0.000000  0.808393  0.383467  1
  P  P28  1  0.500000  0.499845  0.883235  1
  P  P29  1  0.000000  0.000165  0.118437  1
  P  P30  1  0.500000  0.848776  0.893997  1
  P  P31  1  0.500000  0.151157  0.893972  1
  P  P32  1  0.000000  0.650854  0.108591  1
  P  P33  1  0.000000  0.348732  0.107824  1
  P  P34  1  0.500000  0.496806  0.339246  1
  P  P35  1  0.000000  0.000390  0.656568  1
