# generated using pymatgen
data_Dy3Cd5Ru
_symmetry_space_group_name_H-M   'P 1'
_cell_length_a   8.16233900
_cell_length_b   8.16234068
_cell_length_c   3.72058100
_cell_angle_alpha   90.00000000
_cell_angle_beta   90.00000000
_cell_angle_gamma   120.00000536
_symmetry_Int_Tables_number   1
_chemical_formula_structural   Dy3Cd5Ru
_chemical_formula_sum   'Dy3 Cd5 Ru1'
_cell_volume   214.66968425
_cell_formula_units_Z   1
loop_
 _symmetry_equiv_pos_site_id
 _symmetry_equiv_pos_as_xyz
  1  'x, y, z'
loop_
 _atom_site_type_symbol
 _atom_site_label
 _atom_site_symmetry_multiplicity
 _atom_site_fract_x
 _atom_site_fract_y
 _atom_site_fract_z
 _atom_site_occupancy
  Dy  Dy0  1  0.046453  0.425973  0.500000  1
  Dy  Dy1  1  0.574027  0.620480  0.500000  1
  Dy  Dy2  1  0.379520  0.953547  0.500000  1
  Cd  Cd3  1  0.995251  0.719259  0.000000  1
  Cd  Cd4  1  0.280741  0.275993  0.000000  1
  Cd  Cd5  1  0.724007  0.004749  0.000000  1
  Cd  Cd6  1  0.666667  0.333333  0.000000  1
  Cd  Cd7  1  0.000000  0.000000  0.500000  1
  Ru  Ru8  1  0.333333  0.666667  0.000000  1
