# generated using pymatgen
data_Pr8As14IrRh15
_symmetry_space_group_name_H-M   'P 1'
_cell_length_a   4.14352600
_cell_length_b   13.26614729
_cell_length_c   13.66671852
_cell_angle_alpha   81.54812002
_cell_angle_beta   90.00000000
_cell_angle_gamma   90.00000000
_symmetry_Int_Tables_number   1
_chemical_formula_structural   Pr8As14IrRh15
_chemical_formula_sum   'Pr8 As14 Ir1 Rh15'
_cell_volume   743.08200684
_cell_formula_units_Z   1
loop_
 _symmetry_equiv_pos_site_id
 _symmetry_equiv_pos_as_xyz
  1  'x, y, z'
loop_
 _atom_site_type_symbol
 _atom_site_label
 _atom_site_symmetry_multiplicity
 _atom_site_fract_x
 _atom_site_fract_y
 _atom_site_fract_z
 _atom_site_occupancy
  Pr  Pr0  1  0.250000  0.100284  0.791548  1
  Pr  Pr1  1  0.750000  0.900281  0.208302  1
  Pr  Pr2  1  0.250000  0.282904  0.101112  1
  Pr  Pr3  1  0.750000  0.716792  0.897991  1
  Pr  Pr4  1  0.250000  0.519000  0.292242  1
  Pr  Pr5  1  0.750000  0.480717  0.707392  1
  Pr  Pr6  1  0.250000  0.208894  0.437450  1
  Pr  Pr7  1  0.750000  0.791212  0.563015  1
  As  As8  1  0.250000  0.053458  0.100554  1
  As  As9  1  0.750000  0.946555  0.899558  1
  As  As10  1  0.250000  0.312461  0.688255  1
  As  As11  1  0.750000  0.688272  0.311664  1
  As  As12  1  0.250000  0.607186  0.565443  1
  As  As13  1  0.750000  0.392947  0.434554  1
  As  As14  1  0.250000  0.847523  0.720049  1
  As  As15  1  0.750000  0.152634  0.280063  1
  As  As16  1  0.750000  0.258293  0.919845  1
  As  As17  1  0.250000  0.742153  0.081078  1
  As  As18  1  0.750000  0.094304  0.586486  1
  As  As19  1  0.250000  0.905653  0.413623  1
  As  As20  1  0.750000  0.470611  0.128318  1
  As  As21  1  0.250000  0.528213  0.871430  1
  Ir  Ir22  1  0.750000  0.655258  0.139547  1
  Rh  Rh23  1  0.250000  0.988705  0.573812  1
  Rh  Rh24  1  0.750000  0.011416  0.426074  1
  Rh  Rh25  1  0.250000  0.665382  0.731759  1
  Rh  Rh26  1  0.750000  0.334530  0.268454  1
  Rh  Rh27  1  0.250000  0.553731  0.045643  1
  Rh  Rh28  1  0.750000  0.445935  0.953687  1
  Rh  Rh29  1  0.250000  0.054230  0.278951  1
  Rh  Rh30  1  0.750000  0.945688  0.721028  1
  Rh  Rh31  1  0.250000  0.425911  0.526897  1
  Rh  Rh32  1  0.750000  0.574265  0.472753  1
  Rh  Rh33  1  0.250000  0.917885  0.997401  1
  Rh  Rh34  1  0.750000  0.082660  0.003025  1
  Rh  Rh35  1  0.250000  0.722105  0.400207  1
  Rh  Rh36  1  0.750000  0.278064  0.599912  1
  Rh  Rh37  1  0.250000  0.343887  0.860881  1
