# generated using pymatgen
data_La3YbOsRu7
_symmetry_space_group_name_H-M   'P 1'
_cell_length_a   5.22905830
_cell_length_b   5.56035928
_cell_length_c   9.20333754
_cell_angle_alpha   90.00000175
_cell_angle_beta   90.20458015
_cell_angle_gamma   122.11894761
_symmetry_Int_Tables_number   1
_chemical_formula_structural   La3YbOsRu7
_chemical_formula_sum   'La3 Yb1 Os1 Ru7'
_cell_volume   226.63324820
_cell_formula_units_Z   1
loop_
 _symmetry_equiv_pos_site_id
 _symmetry_equiv_pos_as_xyz
  1  'x, y, z'
loop_
 _atom_site_type_symbol
 _atom_site_label
 _atom_site_symmetry_multiplicity
 _atom_site_fract_x
 _atom_site_fract_y
 _atom_site_fract_z
 _atom_site_occupancy
  La  La0  1  0.323652  0.661826  0.427955  1
  La  La1  1  0.660974  0.330487  0.566071  1
  La  La2  1  0.660389  0.330194  0.939011  1
  Yb  Yb3  1  0.328466  0.664233  0.067284  1
  Os  Os4  1  0.680512  0.840256  0.754359  1
  Ru  Ru5  1  0.973052  0.986526  0.501536  1
  Ru  Ru6  1  0.972969  0.986485  0.999655  1
  Ru  Ru7  1  0.836473  0.161021  0.246062  1
  Ru  Ru8  1  0.836473  0.675452  0.246062  1
  Ru  Ru9  1  0.358819  0.179409  0.246413  1
  Ru  Ru10  1  0.184110  0.833197  0.752796  1
  Ru  Ru11  1  0.184110  0.350915  0.752796  1
