# generated using pymatgen
data_Sc4Be4Ge2Ir3Rh7
_symmetry_space_group_name_H-M   'P 1'
_cell_length_a   9.47647325
_cell_length_b   9.48599125
_cell_length_c   3.11466100
_cell_angle_alpha   90.00000000
_cell_angle_beta   90.00000000
_cell_angle_gamma   89.94104981
_symmetry_Int_Tables_number   1
_chemical_formula_structural   Sc4Be4Ge2Ir3Rh7
_chemical_formula_sum   'Sc4 Be4 Ge2 Ir3 Rh7'
_cell_volume   279.98838546
_cell_formula_units_Z   1
loop_
 _symmetry_equiv_pos_site_id
 _symmetry_equiv_pos_as_xyz
  1  'x, y, z'
loop_
 _atom_site_type_symbol
 _atom_site_label
 _atom_site_symmetry_multiplicity
 _atom_site_fract_x
 _atom_site_fract_y
 _atom_site_fract_z
 _atom_site_occupancy
  Sc  Sc0  1  0.673994  0.175038  0.000000  1
  Sc  Sc1  1  0.325353  0.825654  0.000000  1
  Sc  Sc2  1  0.175094  0.325634  0.000000  1
  Sc  Sc3  1  0.825628  0.674632  0.000000  1
  Be  Be4  1  0.123804  0.623794  0.000000  1
  Be  Be5  1  0.876166  0.376089  0.000000  1
  Be  Be6  1  0.623905  0.876083  0.000000  1
  Be  Be7  1  0.375839  0.123493  0.000000  1
  Ge  Ge8  1  0.999949  0.999889  0.000000  1
  Ge  Ge9  1  0.500246  0.500595  0.000000  1
  Ir  Ir10  1  0.431179  0.291469  0.500000  1
  Ir  Ir11  1  0.500113  0.999589  0.500000  1
  Ir  Ir12  1  0.999627  0.500199  0.500000  1
  Rh  Rh13  1  0.207550  0.068648  0.500000  1
  Rh  Rh14  1  0.792403  0.931066  0.500000  1
  Rh  Rh15  1  0.069152  0.792287  0.500000  1
  Rh  Rh16  1  0.707929  0.431264  0.500000  1
  Rh  Rh17  1  0.931091  0.207659  0.500000  1
  Rh  Rh18  1  0.292070  0.569005  0.500000  1
  Rh  Rh19  1  0.568909  0.707912  0.500000  1
