# generated using pymatgen
data_EuCu(SeO3)2
_symmetry_space_group_name_H-M   'P 1'
_cell_length_a   4.68240895
_cell_length_b   4.68240896
_cell_length_c   14.86823000
_cell_angle_alpha   90.73373844
_cell_angle_beta   90.73373844
_cell_angle_gamma   66.71706099
_symmetry_Int_Tables_number   1
_chemical_formula_structural   EuCu(SeO3)2
_chemical_formula_sum   'Eu2 Cu2 Se4 O12'
_cell_volume   299.40316225
_cell_formula_units_Z   2
loop_
 _symmetry_equiv_pos_site_id
 _symmetry_equiv_pos_as_xyz
  1  'x, y, z'
loop_
 _atom_site_type_symbol
 _atom_site_label
 _atom_site_symmetry_multiplicity
 _atom_site_fract_x
 _atom_site_fract_y
 _atom_site_fract_z
 _atom_site_occupancy
  Eu  Eu0  1  0.943196  0.056805  0.250000  1
  Eu  Eu1  1  0.056804  0.943195  0.750000  1
  Cu  Cu2  1  0.000000  0.000000  0.000000  1
  Cu  Cu3  1  0.000001  0.000001  0.500000  1
  Se  Se4  1  0.357404  0.356293  0.097305  1
  Se  Se5  1  0.643707  0.642597  0.402695  1
  Se  Se6  1  0.356294  0.357404  0.597305  1
  Se  Se7  1  0.642596  0.643707  0.902695  1
  O  O8  1  0.735114  0.334533  0.089446  1
  O  O9  1  0.153325  0.751550  0.113437  1
  O  O10  1  0.373902  0.222337  0.205250  1
  O  O11  1  0.777664  0.626098  0.294750  1
  O  O12  1  0.248451  0.846675  0.386564  1
  O  O13  1  0.665467  0.264887  0.410554  1
  O  O14  1  0.334532  0.735113  0.589446  1
  O  O15  1  0.751549  0.153325  0.613437  1
  O  O16  1  0.222336  0.373902  0.705250  1
  O  O17  1  0.626097  0.777663  0.794751  1
  O  O18  1  0.846676  0.248451  0.886564  1
  O  O19  1  0.264887  0.665468  0.910554  1
