# generated using pymatgen
data_Li2Tm3ZnSi2Ag
_symmetry_space_group_name_H-M   'P 1'
_cell_length_a   6.99209300
_cell_length_b   6.99209501
_cell_length_c   4.15562200
_cell_angle_alpha   90.00000000
_cell_angle_beta   90.00000000
_cell_angle_gamma   119.42469704
_symmetry_Int_Tables_number   1
_chemical_formula_structural   Li2Tm3ZnSi2Ag
_chemical_formula_sum   'Li2 Tm3 Zn1 Si2 Ag1'
_cell_volume   176.95782454
_cell_formula_units_Z   1
loop_
 _symmetry_equiv_pos_site_id
 _symmetry_equiv_pos_as_xyz
  1  'x, y, z'
loop_
 _atom_site_type_symbol
 _atom_site_label
 _atom_site_symmetry_multiplicity
 _atom_site_fract_x
 _atom_site_fract_y
 _atom_site_fract_z
 _atom_site_occupancy
  Li  Li0  1  0.243815  0.999140  0.500000  1
  Li  Li1  1  0.999140  0.243815  0.500000  1
  Tm  Tm2  1  0.575631  0.002801  0.000000  1
  Tm  Tm3  1  0.002801  0.575631  0.000000  1
  Tm  Tm4  1  0.428049  0.428049  0.000000  1
  Zn  Zn5  1  0.748036  0.748036  0.500000  1
  Si  Si6  1  0.335354  0.667313  0.500000  1
  Si  Si7  1  0.667313  0.335354  0.500000  1
  Ag  Ag8  1  0.999862  0.999862  0.000000  1
