# generated using pymatgen
data_DyZr2ScIr2
_symmetry_space_group_name_H-M   'P 1'
_cell_length_a   4.51548800
_cell_length_b   6.95995700
_cell_length_c   8.25591500
_cell_angle_alpha   90.00000000
_cell_angle_beta   90.00000000
_cell_angle_gamma   90.00000000
_symmetry_Int_Tables_number   1
_chemical_formula_structural   DyZr2ScIr2
_chemical_formula_sum   'Dy2 Zr4 Sc2 Ir4'
_cell_volume   259.46361336
_cell_formula_units_Z   2
loop_
 _symmetry_equiv_pos_site_id
 _symmetry_equiv_pos_as_xyz
  1  'x, y, z'
loop_
 _atom_site_type_symbol
 _atom_site_label
 _atom_site_symmetry_multiplicity
 _atom_site_fract_x
 _atom_site_fract_y
 _atom_site_fract_z
 _atom_site_occupancy
  Dy  Dy0  1  0.250000  0.988337  0.324791  1
  Dy  Dy1  1  0.250000  0.488337  0.175209  1
  Zr  Zr2  1  0.250000  0.353485  0.585221  1
  Zr  Zr3  1  0.250000  0.853485  0.914779  1
  Zr  Zr4  1  0.750000  0.644239  0.431738  1
  Zr  Zr5  1  0.750000  0.144239  0.068262  1
  Sc  Sc6  1  0.750000  0.016287  0.674377  1
  Sc  Sc7  1  0.750000  0.516287  0.825623  1
  Ir  Ir8  1  0.250000  0.238920  0.904766  1
  Ir  Ir9  1  0.250000  0.738920  0.595234  1
  Ir  Ir10  1  0.750000  0.758730  0.086462  1
  Ir  Ir11  1  0.750000  0.258730  0.413538  1
