# generated using pymatgen
data_Dy4Ho3Sn23Ir6
_symmetry_space_group_name_H-M   'P 1'
_cell_length_a   9.85277600
_cell_length_b   9.85277523
_cell_length_c   10.08273100
_cell_angle_alpha   90.00000000
_cell_angle_beta   90.00000000
_cell_angle_gamma   119.99999588
_symmetry_Int_Tables_number   1
_chemical_formula_structural   Dy4Ho3Sn23Ir6
_chemical_formula_sum   'Dy4 Ho3 Sn23 Ir6'
_cell_volume   847.66844212
_cell_formula_units_Z   1
loop_
 _symmetry_equiv_pos_site_id
 _symmetry_equiv_pos_as_xyz
  1  'x, y, z'
loop_
 _atom_site_type_symbol
 _atom_site_label
 _atom_site_symmetry_multiplicity
 _atom_site_fract_x
 _atom_site_fract_y
 _atom_site_fract_z
 _atom_site_occupancy
  Dy  Dy0  1  0.000000  0.000000  0.000119  1
  Dy  Dy1  1  0.518850  0.481150  0.693126  1
  Dy  Dy2  1  0.518850  0.037699  0.693126  1
  Dy  Dy3  1  0.962301  0.481150  0.693126  1
  Ho  Ho4  1  0.036944  0.518472  0.306508  1
  Ho  Ho5  1  0.481528  0.963056  0.306508  1
  Ho  Ho6  1  0.481528  0.518472  0.306508  1
  Sn  Sn7  1  0.666667  0.333333  0.173195  1
  Sn  Sn8  1  0.666667  0.333333  0.876114  1
  Sn  Sn9  1  0.333333  0.666667  0.124900  1
  Sn  Sn10  1  0.352573  0.352540  0.000051  1
  Sn  Sn11  1  0.999967  0.647427  0.000051  1
  Sn  Sn12  1  0.647460  0.000033  0.000051  1
  Sn  Sn13  1  0.647460  0.647427  0.000051  1
  Sn  Sn14  1  0.333333  0.666667  0.827158  1
  Sn  Sn15  1  0.443967  0.221984  0.458453  1
  Sn  Sn16  1  0.222014  0.777986  0.540987  1
  Sn  Sn17  1  0.222014  0.444025  0.540987  1
  Sn  Sn18  1  0.555975  0.777986  0.540987  1
  Sn  Sn19  1  0.119219  0.880781  0.282919  1
  Sn  Sn20  1  0.778016  0.556033  0.458453  1
  Sn  Sn21  1  0.778016  0.221984  0.458453  1
  Sn  Sn22  1  0.352573  0.000033  0.000051  1
  Sn  Sn23  1  0.119219  0.238438  0.282919  1
  Sn  Sn24  1  0.761562  0.880781  0.282919  1
  Sn  Sn25  1  0.238036  0.119018  0.717167  1
  Sn  Sn26  1  0.880982  0.761964  0.717167  1
  Sn  Sn27  1  0.880982  0.119018  0.717167  1
  Sn  Sn28  1  0.000000  0.000000  0.499971  1
  Sn  Sn29  1  0.999967  0.352540  0.000051  1
  Ir  Ir30  1  0.169441  0.830559  0.800953  1
  Ir  Ir31  1  0.169441  0.338879  0.800953  1
  Ir  Ir32  1  0.661121  0.830559  0.800953  1
  Ir  Ir33  1  0.338916  0.169458  0.199301  1
  Ir  Ir34  1  0.830542  0.661084  0.199301  1
  Ir  Ir35  1  0.830542  0.169458  0.199301  1
