# generated using pymatgen
data_Dy20Ir5Os4Pt3
_symmetry_space_group_name_H-M   'P 1'
_cell_length_a   10.88590939
_cell_length_b   10.88590939
_cell_length_c   6.44767810
_cell_angle_alpha   90.01444988
_cell_angle_beta   90.01444988
_cell_angle_gamma   90.10190707
_symmetry_Int_Tables_number   1
_chemical_formula_structural   Dy20Ir5Os4Pt3
_chemical_formula_sum   'Dy20 Ir5 Os4 Pt3'
_cell_volume   764.06809104
_cell_formula_units_Z   1
loop_
 _symmetry_equiv_pos_site_id
 _symmetry_equiv_pos_as_xyz
  1  'x, y, z'
loop_
 _atom_site_type_symbol
 _atom_site_label
 _atom_site_symmetry_multiplicity
 _atom_site_fract_x
 _atom_site_fract_y
 _atom_site_fract_z
 _atom_site_occupancy
  Dy  Dy0  1  0.295768  0.085498  0.373509  1
  Dy  Dy1  1  0.295052  0.911008  0.878415  1
  Dy  Dy2  1  0.703317  0.087898  0.875001  1
  Dy  Dy3  1  0.702661  0.911776  0.374590  1
  Dy  Dy4  1  0.583977  0.793337  0.878514  1
  Dy  Dy5  1  0.583882  0.206592  0.378460  1
  Dy  Dy6  1  0.413039  0.793445  0.378436  1
  Dy  Dy7  1  0.415736  0.206657  0.878529  1
  Dy  Dy8  1  0.206663  0.416023  0.621486  1
  Dy  Dy9  1  0.206555  0.586961  0.121564  1
  Dy  Dy10  1  0.793408  0.416118  0.121540  1
  Dy  Dy11  1  0.793343  0.584264  0.621471  1
  Dy  Dy12  1  0.914502  0.704232  0.126491  1
  Dy  Dy13  1  0.912102  0.296683  0.624999  1
  Dy  Dy14  1  0.088992  0.704948  0.621585  1
  Dy  Dy15  1  0.088224  0.297339  0.125410  1
  Dy  Dy16  1  0.001426  0.998168  0.498689  1
  Dy  Dy17  1  0.001832  0.998574  0.001311  1
  Dy  Dy18  1  0.499870  0.500114  0.000293  1
  Dy  Dy19  1  0.499886  0.500130  0.499707  1
  Ir  Ir20  1  0.150454  0.849546  0.250000  1
  Ir  Ir21  1  0.652884  0.347116  0.750000  1
  Ir  Ir22  1  0.652933  0.652933  0.250051  1
  Ir  Ir23  1  0.347067  0.347067  0.249949  1
  Ir  Ir24  1  0.347772  0.652228  0.750000  1
  Os  Os25  1  0.500438  0.000063  0.124773  1
  Os  Os26  1  0.500393  0.000043  0.625652  1
  Os  Os27  1  0.999957  0.499607  0.874348  1
  Os  Os28  1  0.999937  0.499562  0.375227  1
  Pt  Pt29  1  0.848307  0.151693  0.250000  1
  Pt  Pt30  1  0.847578  0.847953  0.750134  1
  Pt  Pt31  1  0.152047  0.152422  0.749866  1
