# generated using pymatgen
data_Er5Lu11Co4Ag3Hg
_symmetry_space_group_name_H-M   'P 1'
_cell_length_a   9.27748655
_cell_length_b   9.28241532
_cell_length_c   9.28241521
_cell_angle_alpha   59.97578469
_cell_angle_beta   59.94304331
_cell_angle_gamma   59.94303496
_symmetry_Int_Tables_number   1
_chemical_formula_structural   Er5Lu11Co4Ag3Hg
_chemical_formula_sum   'Er5 Lu11 Co4 Ag3 Hg1'
_cell_volume   564.65537806
_cell_formula_units_Z   1
loop_
 _symmetry_equiv_pos_site_id
 _symmetry_equiv_pos_as_xyz
  1  'x, y, z'
loop_
 _atom_site_type_symbol
 _atom_site_label
 _atom_site_symmetry_multiplicity
 _atom_site_fract_x
 _atom_site_fract_y
 _atom_site_fract_z
 _atom_site_occupancy
  Er  Er0  1  0.809847  0.189554  0.189554  1
  Er  Er1  1  0.811173  0.188403  0.811315  1
  Er  Er2  1  0.186383  0.812086  0.188483  1
  Er  Er3  1  0.811173  0.811315  0.188403  1
  Er  Er4  1  0.186383  0.188483  0.812086  1
  Lu  Lu5  1  0.596990  0.598467  0.598467  1
  Lu  Lu6  1  0.596503  0.598448  0.207200  1
  Lu  Lu7  1  0.596503  0.207200  0.598448  1
  Lu  Lu8  1  0.208206  0.597312  0.597312  1
  Lu  Lu9  1  0.063238  0.437268  0.437268  1
  Lu  Lu10  1  0.436619  0.063034  0.063034  1
  Lu  Lu11  1  0.436645  0.062467  0.438217  1
  Lu  Lu12  1  0.063248  0.437795  0.062002  1
  Lu  Lu13  1  0.436645  0.438217  0.062467  1
  Lu  Lu14  1  0.063248  0.062002  0.437795  1
  Lu  Lu15  1  0.187068  0.811479  0.811479  1
  Co  Co16  1  0.393543  0.390794  0.390794  1
  Co  Co17  1  0.392730  0.392145  0.825055  1
  Co  Co18  1  0.392730  0.825055  0.392145  1
  Co  Co19  1  0.825630  0.391523  0.391523  1
  Ag  Ag20  1  0.833698  0.830973  0.830973  1
  Ag  Ag21  1  0.833250  0.830258  0.504165  1
  Ag  Ag22  1  0.833250  0.504165  0.830258  1
  Hg  Hg23  1  0.505304  0.831558  0.831558  1
