# generated using pymatgen
data_Yb3Ni(BrO3)8
_symmetry_space_group_name_H-M   'P 1'
_cell_length_a   5.81249754
_cell_length_b   11.09414710
_cell_length_c   11.17062134
_cell_angle_alpha   119.38874031
_cell_angle_beta   90.27790776
_cell_angle_gamma   90.05887551
_symmetry_Int_Tables_number   1
_chemical_formula_structural   Yb3Ni(BrO3)8
_chemical_formula_sum   'Yb3 Ni1 Br8 O24'
_cell_volume   627.62239769
_cell_formula_units_Z   1
loop_
 _symmetry_equiv_pos_site_id
 _symmetry_equiv_pos_as_xyz
  1  'x, y, z'
loop_
 _atom_site_type_symbol
 _atom_site_label
 _atom_site_symmetry_multiplicity
 _atom_site_fract_x
 _atom_site_fract_y
 _atom_site_fract_z
 _atom_site_occupancy
  Yb  Yb0  1  0.639847  0.237670  0.492067  1
  Yb  Yb1  1  0.140176  0.266455  0.007938  1
  Yb  Yb2  1  0.632129  0.733222  0.993988  1
  Ni  Ni3  1  0.147820  0.761086  0.508532  1
  Br  Br4  1  0.264445  0.430282  0.358315  1
  Br  Br5  1  0.779050  0.592699  0.646961  1
  Br  Br6  1  0.263611  0.911940  0.836317  1
  Br  Br7  1  0.762899  0.083120  0.144508  1
  Br  Br8  1  0.793541  0.067620  0.676844  1
  Br  Br9  1  0.275086  0.905374  0.320138  1
  Br  Br10  1  0.280008  0.413166  0.802440  1
  Br  Br11  1  0.791166  0.594248  0.210775  1
  O  O12  1  0.423463  0.872569  0.937867  1
  O  O13  1  0.926891  0.111340  0.037597  1
  O  O14  1  0.368170  0.806950  0.675874  1
  O  O15  1  0.860821  0.195559  0.302932  1
  O  O16  1  0.371128  0.324414  0.200513  1
  O  O17  1  0.874694  0.697950  0.808218  1
  O  O18  1  0.919621  0.202641  0.812516  1
  O  O19  1  0.412406  0.778711  0.184194  1
  O  O20  1  0.943451  0.926256  0.651884  1
  O  O21  1  0.412929  0.050834  0.349642  1
  O  O22  1  0.362047  0.070790  0.877269  1
  O  O23  1  0.853647  0.928604  0.120057  1
  O  O24  1  0.416918  0.277172  0.676489  1
  O  O25  1  0.940724  0.726571  0.338604  1
  O  O26  1  0.342335  0.404289  0.945170  1
  O  O27  1  0.848826  0.610923  0.072056  1
  O  O28  1  0.426018  0.553287  0.823567  1
  O  O29  1  0.926105  0.446981  0.177791  1
  O  O30  1  0.358470  0.589416  0.391660  1
  O  O31  1  0.866516  0.434464  0.614788  1
  O  O32  1  0.425802  0.395408  0.462671  1
  O  O33  1  0.947577  0.621799  0.540589  1
  O  O34  1  0.857736  0.093147  0.544153  1
  O  O35  1  0.353521  0.883049  0.455075  1
