# generated using pymatgen
data_YU(InPt5)3
_symmetry_space_group_name_H-M   'P 1'
_cell_length_a   4.10367100
_cell_length_b   4.10367100
_cell_length_c   20.32360200
_cell_angle_alpha   90.00000000
_cell_angle_beta   90.00000000
_cell_angle_gamma   90.00000000
_symmetry_Int_Tables_number   1
_chemical_formula_structural   YU(InPt5)3
_chemical_formula_sum   'Y1 U1 In3 Pt15'
_cell_volume   342.25180864
_cell_formula_units_Z   1
loop_
 _symmetry_equiv_pos_site_id
 _symmetry_equiv_pos_as_xyz
  1  'x, y, z'
loop_
 _atom_site_type_symbol
 _atom_site_label
 _atom_site_symmetry_multiplicity
 _atom_site_fract_x
 _atom_site_fract_y
 _atom_site_fract_z
 _atom_site_occupancy
  Y  Y0  1  0.000000  0.000000  0.795362  1
  U  U1  1  0.000000  0.000000  0.002891  1
  In  In2  1  0.000000  0.000000  0.206676  1
  In  In3  1  0.000000  0.000000  0.400476  1
  In  In4  1  0.000000  0.000000  0.596015  1
  Pt  Pt5  1  0.500000  0.500000  0.002789  1
  Pt  Pt6  1  0.500000  0.500000  0.202439  1
  Pt  Pt7  1  0.500000  0.500000  0.400178  1
  Pt  Pt8  1  0.500000  0.500000  0.596277  1
  Pt  Pt9  1  0.500000  0.500000  0.797381  1
  Pt  Pt10  1  0.500000  0.000000  0.101091  1
  Pt  Pt11  1  0.500000  0.000000  0.302558  1
  Pt  Pt12  1  0.500000  0.000000  0.498399  1
  Pt  Pt13  1  0.500000  0.000000  0.694633  1
  Pt  Pt14  1  0.500000  0.000000  0.903077  1
  Pt  Pt15  1  0.000000  0.500000  0.101091  1
  Pt  Pt16  1  0.000000  0.500000  0.302558  1
  Pt  Pt17  1  0.000000  0.500000  0.498399  1
  Pt  Pt18  1  0.000000  0.500000  0.694633  1
  Pt  Pt19  1  0.000000  0.500000  0.903077  1
