# generated using pymatgen
data_CsTm(NbCl3)6
_symmetry_space_group_name_H-M   'P 1'
_cell_length_a   10.30049796
_cell_length_b   10.30049777
_cell_length_c   10.30049707
_cell_angle_alpha   55.92900783
_cell_angle_beta   55.92900881
_cell_angle_gamma   55.92901124
_symmetry_Int_Tables_number   1
_chemical_formula_structural   CsTm(NbCl3)6
_chemical_formula_sum   'Cs1 Tm1 Nb6 Cl18'
_cell_volume   699.87961448
_cell_formula_units_Z   1
loop_
 _symmetry_equiv_pos_site_id
 _symmetry_equiv_pos_as_xyz
  1  'x, y, z'
loop_
 _atom_site_type_symbol
 _atom_site_label
 _atom_site_symmetry_multiplicity
 _atom_site_fract_x
 _atom_site_fract_y
 _atom_site_fract_z
 _atom_site_occupancy
  Cs  Cs0  1  0.223049  0.223049  0.223049  1
  Tm  Tm1  1  0.498810  0.498810  0.498810  1
  Nb  Nb2  1  0.808288  0.148503  0.905303  1
  Nb  Nb3  1  0.905303  0.808288  0.148503  1
  Nb  Nb4  1  0.148503  0.905303  0.808288  1
  Nb  Nb5  1  0.192921  0.851808  0.093198  1
  Nb  Nb6  1  0.093198  0.192921  0.851808  1
  Nb  Nb7  1  0.851808  0.093198  0.192921  1
  Cl  Cl8  1  0.878988  0.404167  0.720531  1
  Cl  Cl9  1  0.720531  0.878988  0.404167  1
  Cl  Cl10  1  0.404167  0.720531  0.878988  1
  Cl  Cl11  1  0.119465  0.596512  0.281961  1
  Cl  Cl12  1  0.281961  0.119465  0.596512  1
  Cl  Cl13  1  0.596512  0.281961  0.119465  1
  Cl  Cl14  1  0.554858  0.338730  0.783681  1
  Cl  Cl15  1  0.783681  0.554858  0.338730  1
  Cl  Cl16  1  0.338730  0.783681  0.554858  1
  Cl  Cl17  1  0.443279  0.664263  0.217302  1
  Cl  Cl18  1  0.217302  0.443279  0.664263  1
  Cl  Cl19  1  0.664263  0.217302  0.443279  1
  Cl  Cl20  1  0.663633  0.947253  0.062313  1
  Cl  Cl21  1  0.062313  0.663633  0.947253  1
  Cl  Cl22  1  0.947253  0.062313  0.663633  1
  Cl  Cl23  1  0.341094  0.050678  0.930551  1
  Cl  Cl24  1  0.930551  0.341094  0.050678  1
  Cl  Cl25  1  0.050678  0.930551  0.341094  1
