# generated using pymatgen
data_Nd2Ho6Co3Si12Rh
_symmetry_space_group_name_H-M   'P 1'
_cell_length_a   8.04438500
_cell_length_b   8.04437283
_cell_length_c   8.00598800
_cell_angle_alpha   90.00005616
_cell_angle_beta   89.99991433
_cell_angle_gamma   120.00003882
_symmetry_Int_Tables_number   1
_chemical_formula_structural   Nd2Ho6Co3Si12Rh
_chemical_formula_sum   'Nd2 Ho6 Co3 Si12 Rh1'
_cell_volume   448.67351539
_cell_formula_units_Z   1
loop_
 _symmetry_equiv_pos_site_id
 _symmetry_equiv_pos_as_xyz
  1  'x, y, z'
loop_
 _atom_site_type_symbol
 _atom_site_label
 _atom_site_symmetry_multiplicity
 _atom_site_fract_x
 _atom_site_fract_y
 _atom_site_fract_z
 _atom_site_occupancy
  Nd  Nd0  1  0.999999  0.999999  0.251242  1
  Nd  Nd1  1  0.000000  0.000000  0.748429  1
  Ho  Ho2  1  0.507376  0.492624  0.251451  1
  Ho  Ho3  1  0.507378  0.014752  0.251450  1
  Ho  Ho4  1  0.985247  0.492623  0.251449  1
  Ho  Ho5  1  0.495095  0.504904  0.750066  1
  Ho  Ho6  1  0.495094  0.990190  0.750066  1
  Ho  Ho7  1  0.009812  0.504906  0.750064  1
  Co  Co8  1  0.333333  0.666667  0.466079  1
  Co  Co9  1  0.666665  0.333333  0.533013  1
  Co  Co10  1  0.666668  0.333334  0.966739  1
  Si  Si11  1  0.173466  0.826535  0.500140  1
  Si  Si12  1  0.173465  0.346929  0.500140  1
  Si  Si13  1  0.653071  0.826535  0.500140  1
  Si  Si14  1  0.827204  0.172794  0.500363  1
  Si  Si15  1  0.827204  0.654410  0.500364  1
  Si  Si16  1  0.345589  0.172795  0.500365  1
  Si  Si17  1  0.826670  0.173329  0.999945  1
  Si  Si18  1  0.826670  0.653340  0.999945  1
  Si  Si19  1  0.346659  0.173329  0.999945  1
  Si  Si20  1  0.167754  0.832247  0.998275  1
  Si  Si21  1  0.167754  0.335505  0.998275  1
  Si  Si22  1  0.664494  0.832246  0.998275  1
  Rh  Rh23  1  0.333337  0.666670  0.033779  1
