# generated using pymatgen
data_Ho3Lu13(HgPd)4
_symmetry_space_group_name_H-M   'P 1'
_cell_length_a   9.43197553
_cell_length_b   9.43728307
_cell_length_c   9.43728300
_cell_angle_alpha   60.00000376
_cell_angle_beta   59.98138747
_cell_angle_gamma   59.98137809
_symmetry_Int_Tables_number   1
_chemical_formula_structural   Ho3Lu13(HgPd)4
_chemical_formula_sum   'Ho3 Lu13 Hg4 Pd4'
_cell_volume   593.82622469
_cell_formula_units_Z   1
loop_
 _symmetry_equiv_pos_site_id
 _symmetry_equiv_pos_as_xyz
  1  'x, y, z'
loop_
 _atom_site_type_symbol
 _atom_site_label
 _atom_site_symmetry_multiplicity
 _atom_site_fract_x
 _atom_site_fract_y
 _atom_site_fract_z
 _atom_site_occupancy
  Ho  Ho0  1  0.358656  0.358309  0.358309  1
  Ho  Ho1  1  0.358656  0.358309  0.924729  1
  Ho  Ho2  1  0.358656  0.924729  0.358309  1
  Lu  Lu3  1  0.924336  0.358555  0.358555  1
  Lu  Lu4  1  0.812852  0.187493  0.187493  1
  Lu  Lu5  1  0.187113  0.812814  0.812814  1
  Lu  Lu6  1  0.187113  0.812814  0.187259  1
  Lu  Lu7  1  0.812852  0.187493  0.812162  1
  Lu  Lu8  1  0.187113  0.187259  0.812814  1
  Lu  Lu9  1  0.812852  0.812162  0.187493  1
  Lu  Lu10  1  0.933924  0.565850  0.565850  1
  Lu  Lu11  1  0.566176  0.933775  0.933775  1
  Lu  Lu12  1  0.566176  0.933775  0.566273  1
  Lu  Lu13  1  0.933924  0.565850  0.934377  1
  Lu  Lu14  1  0.566176  0.566273  0.933775  1
  Lu  Lu15  1  0.933924  0.934377  0.565850  1
  Hg  Hg16  1  0.588941  0.587727  0.587727  1
  Hg  Hg17  1  0.588941  0.587727  0.235607  1
  Hg  Hg18  1  0.588941  0.235607  0.587727  1
  Hg  Hg19  1  0.235781  0.588074  0.588074  1
  Pd  Pd20  1  0.143806  0.146350  0.146350  1
  Pd  Pd21  1  0.143806  0.146350  0.563495  1
  Pd  Pd22  1  0.143806  0.563495  0.146350  1
  Pd  Pd23  1  0.565483  0.144839  0.144839  1
