# generated using pymatgen
data_Tb13Er3(ZnRh)4
_symmetry_space_group_name_H-M   'P 1'
_cell_length_a   9.50828640
_cell_length_b   9.51563185
_cell_length_c   9.49841467
_cell_angle_alpha   60.00871440
_cell_angle_beta   59.90940011
_cell_angle_gamma   59.90579726
_symmetry_Int_Tables_number   1
_chemical_formula_structural   Tb13Er3(ZnRh)4
_chemical_formula_sum   'Tb13 Er3 Zn4 Rh4'
_cell_volume   606.87124091
_cell_formula_units_Z   1
loop_
 _symmetry_equiv_pos_site_id
 _symmetry_equiv_pos_as_xyz
  1  'x, y, z'
loop_
 _atom_site_type_symbol
 _atom_site_label
 _atom_site_symmetry_multiplicity
 _atom_site_fract_x
 _atom_site_fract_y
 _atom_site_fract_z
 _atom_site_occupancy
  Tb  Tb0  1  0.645479  0.062491  0.645924  1
  Tb  Tb1  1  0.062317  0.064181  0.437634  1
  Tb  Tb2  1  0.437634  0.435868  0.062317  1
  Tb  Tb3  1  0.645924  0.646106  0.645479  1
  Tb  Tb4  1  0.810008  0.189602  0.190248  1
  Tb  Tb5  1  0.190248  0.810142  0.810008  1
  Tb  Tb6  1  0.063235  0.645359  0.645392  1
  Tb  Tb7  1  0.437564  0.064033  0.062415  1
  Tb  Tb8  1  0.436541  0.063459  0.436541  1
  Tb  Tb9  1  0.063281  0.436719  0.063281  1
  Tb  Tb10  1  0.645392  0.646015  0.063235  1
  Tb  Tb11  1  0.190117  0.809883  0.190117  1
  Tb  Tb12  1  0.062415  0.435988  0.437564  1
  Er  Er13  1  0.809346  0.809717  0.190835  1
  Er  Er14  1  0.809761  0.190239  0.809761  1
  Er  Er15  1  0.190835  0.190102  0.809346  1
  Zn  Zn16  1  0.421076  0.420643  0.421561  1
  Zn  Zn17  1  0.421108  0.420447  0.737679  1
  Zn  Zn18  1  0.421561  0.736719  0.421076  1
  Zn  Zn19  1  0.737679  0.420766  0.421108  1
  Rh  Rh20  1  0.857058  0.429618  0.855276  1
  Rh  Rh21  1  0.855276  0.858050  0.857058  1
  Rh  Rh22  1  0.854797  0.855635  0.431351  1
  Rh  Rh23  1  0.431351  0.858219  0.854797  1
