# generated using pymatgen
data_TlCd11Au8
_symmetry_space_group_name_H-M   'P 1'
_cell_length_a   7.56309000
_cell_length_b   7.56309000
_cell_length_c   7.43651600
_cell_angle_alpha   90.00000000
_cell_angle_beta   90.00000000
_cell_angle_gamma   90.00000000
_symmetry_Int_Tables_number   1
_chemical_formula_structural   TlCd11Au8
_chemical_formula_sum   'Tl1 Cd11 Au8'
_cell_volume   425.37117184
_cell_formula_units_Z   1
loop_
 _symmetry_equiv_pos_site_id
 _symmetry_equiv_pos_as_xyz
  1  'x, y, z'
loop_
 _atom_site_type_symbol
 _atom_site_label
 _atom_site_symmetry_multiplicity
 _atom_site_fract_x
 _atom_site_fract_y
 _atom_site_fract_z
 _atom_site_occupancy
  Tl  Tl0  1  0.000000  0.500000  0.750000  1
  Cd  Cd1  1  0.140015  0.132641  0.003147  1
  Cd  Cd2  1  0.859985  0.867359  0.003147  1
  Cd  Cd3  1  0.632641  0.359985  0.496853  1
  Cd  Cd4  1  0.367359  0.640015  0.496853  1
  Cd  Cd5  1  0.691292  0.303989  0.003702  1
  Cd  Cd6  1  0.308708  0.696011  0.003702  1
  Cd  Cd7  1  0.803989  0.808708  0.496298  1
  Cd  Cd8  1  0.196011  0.191292  0.496298  1
  Cd  Cd9  1  0.500000  0.000000  0.250000  1
  Cd  Cd10  1  0.500000  0.000000  0.750000  1
  Cd  Cd11  1  0.000000  0.500000  0.250000  1
  Au  Au12  1  0.359614  0.362907  0.202649  1
  Au  Au13  1  0.629064  0.643879  0.796979  1
  Au  Au14  1  0.640386  0.637093  0.202649  1
  Au  Au15  1  0.856121  0.129064  0.703021  1
  Au  Au16  1  0.862907  0.140386  0.297351  1
  Au  Au17  1  0.370936  0.356121  0.796979  1
  Au  Au18  1  0.137093  0.859614  0.297351  1
  Au  Au19  1  0.143879  0.870936  0.703021  1
