# generated using pymatgen
data_Sc3Cr6HgO24
_symmetry_space_group_name_H-M   'P 1'
_cell_length_a   9.54501115
_cell_length_b   9.54525902
_cell_length_c   9.54462700
_cell_angle_alpha   58.12218964
_cell_angle_beta   58.11867705
_cell_angle_gamma   58.11237811
_symmetry_Int_Tables_number   1
_chemical_formula_structural   Sc3Cr6HgO24
_chemical_formula_sum   'Sc3 Cr6 Hg1 O24'
_cell_volume   588.37247331
_cell_formula_units_Z   1
loop_
 _symmetry_equiv_pos_site_id
 _symmetry_equiv_pos_as_xyz
  1  'x, y, z'
loop_
 _atom_site_type_symbol
 _atom_site_label
 _atom_site_symmetry_multiplicity
 _atom_site_fract_x
 _atom_site_fract_y
 _atom_site_fract_z
 _atom_site_occupancy
  Sc  Sc0  1  0.640143  0.636885  0.639492  1
  Sc  Sc1  1  0.360333  0.360729  0.358879  1
  Sc  Sc2  1  0.141864  0.143423  0.140157  1
  Cr  Cr3  1  0.749938  0.037142  0.461399  1
  Cr  Cr4  1  0.964264  0.532249  0.254466  1
  Cr  Cr5  1  0.528370  0.258826  0.964945  1
  Cr  Cr6  1  0.460680  0.750424  0.037850  1
  Cr  Cr7  1  0.038690  0.454990  0.749564  1
  Cr  Cr8  1  0.256129  0.963532  0.530055  1
  Hg  Hg9  1  0.858289  0.857516  0.856031  1
  O  O10  1  0.949998  0.022341  0.309670  1
  O  O11  1  0.738817  0.035008  0.642219  1
  O  O12  1  0.990083  0.354922  0.236757  1
  O  O13  1  0.687801  0.067353  0.991529  1
  O  O14  1  0.606568  0.229692  0.384596  1
  O  O15  1  0.874068  0.503955  0.696193  1
  O  O16  1  0.478370  0.331087  0.115835  1
  O  O17  1  0.766565  0.598207  0.398915  1
  O  O18  1  0.990775  0.692781  0.060596  1
  O  O19  1  0.594120  0.402429  0.765497  1
  O  O20  1  0.351007  0.238326  0.993279  1
  O  O21  1  0.325114  0.117764  0.477178  1
  O  O22  1  0.697977  0.872521  0.509358  1
  O  O23  1  0.639766  0.742092  0.035714  1
  O  O24  1  0.384703  0.606477  0.230754  1
  O  O25  1  0.022714  0.302992  0.950535  1
  O  O26  1  0.232055  0.377338  0.606616  1
  O  O27  1  0.510353  0.697800  0.872693  1
  O  O28  1  0.116969  0.482956  0.323664  1
  O  O29  1  0.401893  0.766849  0.594892  1
  O  O30  1  0.307241  0.949613  0.023120  1
  O  O31  1  0.035554  0.633684  0.740156  1
  O  O32  1  0.234971  0.988753  0.354898  1
  O  O33  1  0.063820  0.989343  0.692500  1
