# generated using pymatgen
data_CaNd9Ru4
_symmetry_space_group_name_H-M   'P 1'
_cell_length_a   8.85390214
_cell_length_b   8.81113859
_cell_length_c   7.45809801
_cell_angle_alpha   83.28457521
_cell_angle_beta   83.78482908
_cell_angle_gamma   43.99969021
_symmetry_Int_Tables_number   1
_chemical_formula_structural   CaNd9Ru4
_chemical_formula_sum   'Ca1 Nd9 Ru4'
_cell_volume   401.15081947
_cell_formula_units_Z   1
loop_
 _symmetry_equiv_pos_site_id
 _symmetry_equiv_pos_as_xyz
  1  'x, y, z'
loop_
 _atom_site_type_symbol
 _atom_site_label
 _atom_site_symmetry_multiplicity
 _atom_site_fract_x
 _atom_site_fract_y
 _atom_site_fract_z
 _atom_site_occupancy
  Ca  Ca0  1  0.017495  0.795328  0.918106  1
  Nd  Nd1  1  0.201905  0.981836  0.585196  1
  Nd  Nd2  1  0.982354  0.203550  0.084478  1
  Nd  Nd3  1  0.795840  0.017078  0.413944  1
  Nd  Nd4  1  0.360204  0.208438  0.814473  1
  Nd  Nd5  1  0.795520  0.637400  0.687081  1
  Nd  Nd6  1  0.638814  0.793968  0.187336  1
  Nd  Nd7  1  0.207366  0.358703  0.314677  1
  Nd  Nd8  1  0.572756  0.425691  0.752208  1
  Nd  Nd9  1  0.424471  0.576389  0.249640  1
  Ru  Ru10  1  0.183466  0.594266  0.564975  1
  Ru  Ru11  1  0.402849  0.828502  0.922417  1
  Ru  Ru12  1  0.824511  0.394328  0.425768  1
  Ru  Ru13  1  0.592450  0.184523  0.079701  1
