# generated using pymatgen
data_RbLu(SeO4)2
_symmetry_space_group_name_H-M   'P 1'
_cell_length_a   5.39989000
_cell_length_b   5.39989007
_cell_length_c   8.86323100
_cell_angle_alpha   90.00000000
_cell_angle_beta   90.00000000
_cell_angle_gamma   119.99999956
_symmetry_Int_Tables_number   1
_chemical_formula_structural   RbLu(SeO4)2
_chemical_formula_sum   'Rb1 Lu1 Se2 O8'
_cell_volume   223.81672348
_cell_formula_units_Z   1
loop_
 _symmetry_equiv_pos_site_id
 _symmetry_equiv_pos_as_xyz
  1  'x, y, z'
loop_
 _atom_site_type_symbol
 _atom_site_label
 _atom_site_symmetry_multiplicity
 _atom_site_fract_x
 _atom_site_fract_y
 _atom_site_fract_z
 _atom_site_occupancy
  Rb  Rb0  1  0.000000  0.000000  0.000000  1
  Lu  Lu1  1  0.000000  0.000000  0.500000  1
  Se  Se2  1  0.333333  0.666666  0.283756  1
  Se  Se3  1  0.666667  0.333334  0.716244  1
  O  O4  1  0.333333  0.666666  0.098228  1
  O  O5  1  0.281796  0.352629  0.349308  1
  O  O6  1  0.070834  0.718204  0.349308  1
  O  O7  1  0.647370  0.929165  0.349308  1
  O  O8  1  0.352629  0.070833  0.650692  1
  O  O9  1  0.929166  0.281797  0.650692  1
  O  O10  1  0.718204  0.647372  0.650692  1
  O  O11  1  0.666667  0.333334  0.901772  1
