# generated using pymatgen
data_Tb4YbPr2FeI12
_symmetry_space_group_name_H-M   'P 1'
_cell_length_a   9.91517406
_cell_length_b   9.83415135
_cell_length_c   9.84308748
_cell_angle_alpha   106.94644184
_cell_angle_beta   106.67172258
_cell_angle_gamma   107.18581603
_symmetry_Int_Tables_number   1
_chemical_formula_structural   Tb4YbPr2FeI12
_chemical_formula_sum   'Tb4 Yb1 Pr2 Fe1 I12'
_cell_volume   800.71614173
_cell_formula_units_Z   1
loop_
 _symmetry_equiv_pos_site_id
 _symmetry_equiv_pos_as_xyz
  1  'x, y, z'
loop_
 _atom_site_type_symbol
 _atom_site_label
 _atom_site_symmetry_multiplicity
 _atom_site_fract_x
 _atom_site_fract_y
 _atom_site_fract_z
 _atom_site_occupancy
  Tb  Tb0  1  0.300503  0.025019  0.096305  1
  Tb  Tb1  1  0.905922  0.712302  0.974120  1
  Tb  Tb2  1  0.974970  0.904883  0.713864  1
  Tb  Tb3  1  0.698314  0.973169  0.900227  1
  Yb  Yb4  1  0.500359  0.499914  0.500101  1
  Pr  Pr5  1  0.095912  0.294951  0.024941  1
  Pr  Pr6  1  0.023912  0.093677  0.293508  1
  Fe  Fe7  1  0.999581  0.000639  0.000200  1
  I  I8  1  0.463675  0.378931  0.155909  1
  I  I9  1  0.159594  0.466950  0.388194  1
  I  I10  1  0.385368  0.152674  0.456351  1
  I  I11  1  0.546151  0.621578  0.848602  1
  I  I12  1  0.847273  0.544980  0.622550  1
  I  I13  1  0.624399  0.848355  0.544662  1
  I  I14  1  0.768260  0.315287  0.924733  1
  I  I15  1  0.923611  0.764607  0.312782  1
  I  I16  1  0.315276  0.926972  0.775015  1
  I  I17  1  0.221790  0.685809  0.071807  1
  I  I18  1  0.071199  0.219024  0.677682  1
  I  I19  1  0.673931  0.070281  0.218447  1
