# generated using pymatgen
data_Y3HoSi6IrRh
_symmetry_space_group_name_H-M   'P 1'
_cell_length_a   8.17400964
_cell_length_b   8.17400974
_cell_length_c   7.93583800
_cell_angle_alpha   90.00156278
_cell_angle_beta   89.99843501
_cell_angle_gamma   120.04526784
_symmetry_Int_Tables_number   1
_chemical_formula_structural   Y3HoSi6IrRh
_chemical_formula_sum   'Y6 Ho2 Si12 Ir2 Rh2'
_cell_volume   458.98177144
_cell_formula_units_Z   2
loop_
 _symmetry_equiv_pos_site_id
 _symmetry_equiv_pos_as_xyz
  1  'x, y, z'
loop_
 _atom_site_type_symbol
 _atom_site_label
 _atom_site_symmetry_multiplicity
 _atom_site_fract_x
 _atom_site_fract_y
 _atom_site_fract_z
 _atom_site_occupancy
  Y  Y0  1  0.000024  0.999976  0.248369  1
  Y  Y1  1  0.000032  0.999968  0.751520  1
  Y  Y2  1  0.509401  0.490599  0.250233  1
  Y  Y3  1  0.509409  0.018851  0.250231  1
  Y  Y4  1  0.981149  0.490591  0.250231  1
  Y  Y5  1  0.490289  0.509711  0.749845  1
  Ho  Ho6  1  0.490697  0.981550  0.749594  1
  Ho  Ho7  1  0.018450  0.509303  0.749594  1
  Si  Si8  1  0.166869  0.833131  0.499654  1
  Si  Si9  1  0.166800  0.333831  0.499085  1
  Si  Si10  1  0.666169  0.833200  0.499085  1
  Si  Si11  1  0.833132  0.166868  0.502202  1
  Si  Si12  1  0.833028  0.665870  0.501858  1
  Si  Si13  1  0.334130  0.166972  0.501858  1
  Si  Si14  1  0.832734  0.167266  0.999253  1
  Si  Si15  1  0.832783  0.665322  0.999600  1
  Si  Si16  1  0.334678  0.167217  0.999600  1
  Si  Si17  1  0.167272  0.832728  0.998813  1
  Si  Si18  1  0.167065  0.334455  0.999405  1
  Si  Si19  1  0.665545  0.832935  0.999405  1
  Ir  Ir20  1  0.333073  0.666927  0.471415  1
  Ir  Ir21  1  0.667101  0.332899  0.532600  1
  Rh  Rh22  1  0.667063  0.332937  0.960563  1
  Rh  Rh23  1  0.333105  0.666895  0.035986  1
