# generated using pymatgen
data_Pr3ThAl17SiIr6
_symmetry_space_group_name_H-M   'P 1'
_cell_length_a   7.62811752
_cell_length_b   7.61775920
_cell_length_c   9.58962751
_cell_angle_alpha   90.02888138
_cell_angle_beta   89.91809447
_cell_angle_gamma   119.53712926
_symmetry_Int_Tables_number   1
_chemical_formula_structural   Pr3ThAl17SiIr6
_chemical_formula_sum   'Pr3 Th1 Al17 Si1 Ir6'
_cell_volume   484.82312376
_cell_formula_units_Z   1
loop_
 _symmetry_equiv_pos_site_id
 _symmetry_equiv_pos_as_xyz
  1  'x, y, z'
loop_
 _atom_site_type_symbol
 _atom_site_label
 _atom_site_symmetry_multiplicity
 _atom_site_fract_x
 _atom_site_fract_y
 _atom_site_fract_z
 _atom_site_occupancy
  Pr  Pr0  1  0.004800  0.329689  0.753321  1
  Pr  Pr1  1  0.674320  0.998952  0.247700  1
  Pr  Pr2  1  0.329745  0.005220  0.750769  1
  Th  Th3  1  0.995461  0.666292  0.247681  1
  Al  Al4  1  0.133656  0.133135  0.249804  1
  Al  Al5  1  0.869421  0.871324  0.749626  1
  Al  Al6  1  0.996942  0.669056  0.922546  1
  Al  Al7  1  0.997517  0.665307  0.575437  1
  Al  Al8  1  0.337157  0.003858  0.427860  1
  Al  Al9  1  0.002984  0.332763  0.431993  1
  Al  Al10  1  0.664610  0.997839  0.572930  1
  Al  Al11  1  0.661497  0.994193  0.924957  1
  Al  Al12  1  0.337067  0.004116  0.072848  1
  Al  Al13  1  0.334385  0.333847  0.549238  1
  Al  Al14  1  0.663993  0.666034  0.453092  1
  Al  Al15  1  0.663283  0.665219  0.047530  1
  Al  Al16  1  0.336588  0.334438  0.951025  1
  Al  Al17  1  0.342529  0.545646  0.250455  1
  Al  Al18  1  0.659356  0.452380  0.750377  1
  Al  Al19  1  0.542987  0.340231  0.249660  1
  Al  Al20  1  0.451686  0.658866  0.749763  1
  Si  Si21  1  0.002498  0.332652  0.071187  1
  Ir  Ir22  1  0.680375  0.331386  0.003424  1
  Ir  Ir23  1  0.319247  0.663139  0.002765  1
  Ir  Ir24  1  0.326649  0.670105  0.497443  1
  Ir  Ir25  1  0.673234  0.331198  0.497164  1
  Ir  Ir26  1  0.998801  0.004855  0.002681  1
  Ir  Ir27  1  0.999218  0.998260  0.496724  1
