# generated using pymatgen
data_Dy8Ta11Si16Mo
_symmetry_space_group_name_H-M   'P 1'
_cell_length_a   7.02710923
_cell_length_b   7.02710872
_cell_length_c   12.99416520
_cell_angle_alpha   89.97680653
_cell_angle_beta   90.02319035
_cell_angle_gamma   89.91914139
_symmetry_Int_Tables_number   1
_chemical_formula_structural   Dy8Ta11Si16Mo
_chemical_formula_sum   'Dy8 Ta11 Si16 Mo1'
_cell_volume   641.65451879
_cell_formula_units_Z   1
loop_
 _symmetry_equiv_pos_site_id
 _symmetry_equiv_pos_as_xyz
  1  'x, y, z'
loop_
 _atom_site_type_symbol
 _atom_site_label
 _atom_site_symmetry_multiplicity
 _atom_site_fract_x
 _atom_site_fract_y
 _atom_site_fract_z
 _atom_site_occupancy
  Dy  Dy0  1  0.997164  0.659325  0.031587  1
  Dy  Dy1  1  0.001987  0.341789  0.531345  1
  Dy  Dy2  1  0.659325  0.997164  0.968413  1
  Dy  Dy3  1  0.158790  0.503407  0.781238  1
  Dy  Dy4  1  0.840359  0.498322  0.282776  1
  Dy  Dy5  1  0.503407  0.158790  0.218762  1
  Dy  Dy6  1  0.498322  0.840359  0.717224  1
  Dy  Dy7  1  0.341789  0.001987  0.468655  1
  Ta  Ta8  1  0.346387  0.506696  0.375848  1
  Ta  Ta9  1  0.848351  0.993571  0.374769  1
  Ta  Ta10  1  0.007210  0.152881  0.125288  1
  Ta  Ta11  1  0.993571  0.848351  0.625231  1
  Ta  Ta12  1  0.506696  0.346387  0.624152  1
  Ta  Ta13  1  0.152881  0.007210  0.874712  1
  Ta  Ta14  1  0.827971  0.171090  0.749078  1
  Ta  Ta15  1  0.171090  0.827971  0.250922  1
  Ta  Ta16  1  0.328520  0.328520  0.000000  1
  Ta  Ta17  1  0.493413  0.652880  0.124956  1
  Ta  Ta18  1  0.652880  0.493413  0.875044  1
  Si  Si19  1  0.044326  0.706109  0.436544  1
  Si  Si20  1  0.954654  0.294711  0.935549  1
  Si  Si21  1  0.706109  0.044326  0.563456  1
  Si  Si22  1  0.204875  0.454930  0.186065  1
  Si  Si23  1  0.793248  0.546777  0.684267  1
  Si  Si24  1  0.454930  0.204875  0.813935  1
  Si  Si25  1  0.546777  0.793248  0.315733  1
  Si  Si26  1  0.294711  0.954654  0.064451  1
  Si  Si27  1  0.796823  0.865779  0.182886  1
  Si  Si28  1  0.297662  0.633302  0.567614  1
  Si  Si29  1  0.703172  0.365816  0.067490  1
  Si  Si30  1  0.633302  0.297662  0.432386  1
  Si  Si31  1  0.365816  0.703172  0.932510  1
  Si  Si32  1  0.133670  0.203635  0.317806  1
  Si  Si33  1  0.203635  0.133670  0.682194  1
  Si  Si34  1  0.865779  0.796823  0.817114  1
  Mo  Mo35  1  0.670398  0.670398  0.500000  1
