# generated using pymatgen
data_SmTi2(Nb2Sn3)2
_symmetry_space_group_name_H-M   'P 1'
_cell_length_a   5.77365800
_cell_length_b   5.77640605
_cell_length_c   9.69984400
_cell_angle_alpha   90.00000000
_cell_angle_beta   90.00000000
_cell_angle_gamma   119.98425255
_symmetry_Int_Tables_number   1
_chemical_formula_structural   SmTi2(Nb2Sn3)2
_chemical_formula_sum   'Sm1 Ti2 Nb4 Sn6'
_cell_volume   280.20316940
_cell_formula_units_Z   1
loop_
 _symmetry_equiv_pos_site_id
 _symmetry_equiv_pos_as_xyz
  1  'x, y, z'
loop_
 _atom_site_type_symbol
 _atom_site_label
 _atom_site_symmetry_multiplicity
 _atom_site_fract_x
 _atom_site_fract_y
 _atom_site_fract_z
 _atom_site_occupancy
  Sm  Sm0  1  0.000000  0.000000  0.000000  1
  Ti  Ti1  1  0.500000  0.000000  0.750927  1
  Ti  Ti2  1  0.500000  0.000000  0.249073  1
  Nb  Nb3  1  0.000000  0.500000  0.751735  1
  Nb  Nb4  1  0.500000  0.500000  0.751735  1
  Nb  Nb5  1  0.000000  0.500000  0.248265  1
  Nb  Nb6  1  0.500000  0.500000  0.248265  1
  Sn  Sn7  1  0.665446  0.330891  0.500000  1
  Sn  Sn8  1  0.334554  0.669109  0.500000  1
  Sn  Sn9  1  0.663998  0.327993  0.000000  1
  Sn  Sn10  1  0.336002  0.672007  0.000000  1
  Sn  Sn11  1  0.000000  0.000000  0.678137  1
  Sn  Sn12  1  0.000000  0.000000  0.321863  1
