# generated using pymatgen
data_Tm5ZrBi2Mo
_symmetry_space_group_name_H-M   'P 1'
_cell_length_a   8.13356100
_cell_length_b   8.14491499
_cell_length_c   4.27672400
_cell_angle_alpha   90.00000000
_cell_angle_beta   90.00000000
_cell_angle_gamma   119.95390982
_symmetry_Int_Tables_number   1
_chemical_formula_structural   Tm5ZrBi2Mo
_chemical_formula_sum   'Tm5 Zr1 Bi2 Mo1'
_cell_volume   245.47691343
_cell_formula_units_Z   1
loop_
 _symmetry_equiv_pos_site_id
 _symmetry_equiv_pos_as_xyz
  1  'x, y, z'
loop_
 _atom_site_type_symbol
 _atom_site_label
 _atom_site_symmetry_multiplicity
 _atom_site_fract_x
 _atom_site_fract_y
 _atom_site_fract_z
 _atom_site_occupancy
  Tm  Tm0  1  0.003358  0.235620  0.500000  1
  Tm  Tm1  1  0.767739  0.764380  0.500000  1
  Tm  Tm2  1  0.604835  0.000000  0.000000  1
  Tm  Tm3  1  0.003651  0.614310  0.000000  1
  Tm  Tm4  1  0.389341  0.385690  0.000000  1
  Zr  Zr5  1  0.227327  0.000000  0.500000  1
  Bi  Bi6  1  0.332790  0.670948  0.500000  1
  Bi  Bi7  1  0.661843  0.329052  0.500000  1
  Mo  Mo8  1  0.009117  0.000000  0.000000  1
