# generated using pymatgen
data_Pr3Lu(SeO3)6
_symmetry_space_group_name_H-M   'P 1'
_cell_length_a   7.31281783
_cell_length_b   8.34708203
_cell_length_c   9.26684162
_cell_angle_alpha   70.82461991
_cell_angle_beta   70.16329700
_cell_angle_gamma   66.12952808
_symmetry_Int_Tables_number   1
_chemical_formula_structural   Pr3Lu(SeO3)6
_chemical_formula_sum   'Pr3 Lu1 Se6 O18'
_cell_volume   474.41261977
_cell_formula_units_Z   1
loop_
 _symmetry_equiv_pos_site_id
 _symmetry_equiv_pos_as_xyz
  1  'x, y, z'
loop_
 _atom_site_type_symbol
 _atom_site_label
 _atom_site_symmetry_multiplicity
 _atom_site_fract_x
 _atom_site_fract_y
 _atom_site_fract_z
 _atom_site_occupancy
  Pr  Pr0  1  0.329351  0.736837  0.589182  1
  Pr  Pr1  1  0.663102  0.274336  0.408564  1
  Pr  Pr2  1  0.741322  0.731763  0.802603  1
  Lu  Lu3  1  0.257763  0.260256  0.198343  1
  Se  Se4  1  0.113824  0.248309  0.572431  1
  Se  Se5  1  0.423685  0.787861  0.195076  1
  Se  Se6  1  0.152279  0.736598  0.974478  1
  Se  Se7  1  0.852678  0.239551  0.039471  1
  Se  Se8  1  0.570012  0.228057  0.806611  1
  Se  Se9  1  0.888934  0.757940  0.413519  1
  O  O10  1  0.148918  0.028364  0.655848  1
  O  O11  1  0.179329  0.548254  0.121089  1
  O  O12  1  0.030918  0.705949  0.551518  1
  O  O13  1  0.340604  0.247111  0.425699  1
  O  O14  1  0.066757  0.693423  0.841953  1
  O  O15  1  0.597819  0.284655  0.150943  1
  O  O16  1  0.357844  0.211747  0.955670  1
  O  O17  1  0.354762  0.955610  0.296035  1
  O  O18  1  0.506180  0.607622  0.346603  1
  O  O19  1  0.479375  0.407161  0.656959  1
  O  O20  1  0.628726  0.064454  0.704154  1
  O  O21  1  0.645315  0.798889  0.058619  1
  O  O22  1  0.401049  0.710532  0.857122  1
  O  O23  1  0.944746  0.295221  0.162137  1
  O  O24  1  0.661221  0.750257  0.556321  1
  O  O25  1  0.977157  0.292230  0.433425  1
  O  O26  1  0.837625  0.417365  0.882598  1
  O  O27  1  0.848702  0.979650  0.343029  1
