# generated using pymatgen
data_Cs6V(InBr6)3
_symmetry_space_group_name_H-M   'P 1'
_cell_length_a   7.92827700
_cell_length_b   7.92827650
_cell_length_c   20.16228600
_cell_angle_alpha   90.00000000
_cell_angle_beta   90.00000000
_cell_angle_gamma   119.99999792
_symmetry_Int_Tables_number   1
_chemical_formula_structural   Cs6V(InBr6)3
_chemical_formula_sum   'Cs6 V1 In3 Br18'
_cell_volume   1097.55935213
_cell_formula_units_Z   1
loop_
 _symmetry_equiv_pos_site_id
 _symmetry_equiv_pos_as_xyz
  1  'x, y, z'
loop_
 _atom_site_type_symbol
 _atom_site_label
 _atom_site_symmetry_multiplicity
 _atom_site_fract_x
 _atom_site_fract_y
 _atom_site_fract_z
 _atom_site_occupancy
  Cs  Cs0  1  0.666667  0.333333  0.929666  1
  Cs  Cs1  1  0.333333  0.666667  0.431153  1
  Cs  Cs2  1  0.666667  0.333333  0.568187  1
  Cs  Cs3  1  0.333333  0.666667  0.066419  1
  Cs  Cs4  1  0.000000  0.000000  0.752097  1
  Cs  Cs5  1  0.000000  0.000000  0.249669  1
  V  V6  1  0.333333  0.666667  0.838569  1
  In  In7  1  0.333333  0.666667  0.658356  1
  In  In8  1  0.666667  0.333333  0.155665  1
  In  In9  1  0.666667  0.333333  0.343752  1
  Br  Br10  1  0.831456  0.662910  0.409866  1
  Br  Br11  1  0.180560  0.361122  0.904843  1
  Br  Br12  1  0.180560  0.819440  0.904843  1
  Br  Br13  1  0.168652  0.337306  0.592222  1
  Br  Br14  1  0.638878  0.819440  0.904843  1
  Br  Br15  1  0.337090  0.168544  0.409866  1
  Br  Br16  1  0.033515  0.516757  0.755085  1
  Br  Br17  1  0.831456  0.168544  0.409866  1
  Br  Br18  1  0.512430  0.024861  0.250053  1
  Br  Br19  1  0.483243  0.516757  0.755085  1
  Br  Br20  1  0.512430  0.487570  0.250053  1
  Br  Br21  1  0.975139  0.487570  0.250053  1
  Br  Br22  1  0.336871  0.168436  0.090086  1
  Br  Br23  1  0.483243  0.966485  0.755085  1
  Br  Br24  1  0.831564  0.663129  0.090086  1
  Br  Br25  1  0.168652  0.831348  0.592222  1
  Br  Br26  1  0.662694  0.831348  0.592222  1
  Br  Br27  1  0.831564  0.168436  0.090086  1
