# generated using pymatgen
data_TbTm5Rh18
_symmetry_space_group_name_H-M   'P 1'
_cell_length_a   5.23725100
_cell_length_b   5.23725076
_cell_length_c   17.51292300
_cell_angle_alpha   90.00000000
_cell_angle_beta   90.00000000
_cell_angle_gamma   119.99998257
_symmetry_Int_Tables_number   1
_chemical_formula_structural   TbTm5Rh18
_chemical_formula_sum   'Tb1 Tm5 Rh18'
_cell_volume   416.00265551
_cell_formula_units_Z   1
loop_
 _symmetry_equiv_pos_site_id
 _symmetry_equiv_pos_as_xyz
  1  'x, y, z'
loop_
 _atom_site_type_symbol
 _atom_site_label
 _atom_site_symmetry_multiplicity
 _atom_site_fract_x
 _atom_site_fract_y
 _atom_site_fract_z
 _atom_site_occupancy
  Tb  Tb0  1  0.666667  0.333333  0.250000  1
  Tm  Tm1  1  0.333333  0.666667  0.958136  1
  Tm  Tm2  1  0.666667  0.333333  0.041540  1
  Tm  Tm3  1  0.666667  0.333333  0.458460  1
  Tm  Tm4  1  0.333333  0.666667  0.541864  1
  Tm  Tm5  1  0.333333  0.666667  0.750000  1
  Rh  Rh6  1  0.167363  0.832637  0.375138  1
  Rh  Rh7  1  0.167363  0.334725  0.375138  1
  Rh  Rh8  1  0.665275  0.832637  0.375138  1
  Rh  Rh9  1  0.832623  0.167377  0.625108  1
  Rh  Rh10  1  0.832623  0.665245  0.625108  1
  Rh  Rh11  1  0.334755  0.167377  0.625108  1
  Rh  Rh12  1  0.832623  0.167377  0.874892  1
  Rh  Rh13  1  0.832623  0.665245  0.874892  1
  Rh  Rh14  1  0.334755  0.167377  0.874892  1
  Rh  Rh15  1  0.167363  0.832637  0.124862  1
  Rh  Rh16  1  0.167363  0.334725  0.124862  1
  Rh  Rh17  1  0.665275  0.832637  0.124862  1
  Rh  Rh18  1  0.333333  0.666667  0.250000  1
  Rh  Rh19  1  0.666667  0.333333  0.750000  1
  Rh  Rh20  1  0.000000  0.000000  0.250000  1
  Rh  Rh21  1  0.000000  0.000000  0.750000  1
  Rh  Rh22  1  0.000000  0.000000  0.500087  1
  Rh  Rh23  1  0.000000  0.000000  0.999913  1
