# generated using pymatgen
data_DyY2Er5(Si3Rh)4
_symmetry_space_group_name_H-M   'P 1'
_cell_length_a   8.15197603
_cell_length_b   8.14486252
_cell_length_c   7.85883500
_cell_angle_alpha   90.00000000
_cell_angle_beta   90.00000000
_cell_angle_gamma   119.97113907
_symmetry_Int_Tables_number   1
_chemical_formula_structural   DyY2Er5(Si3Rh)4
_chemical_formula_sum   'Dy1 Y2 Er5 Si12 Rh4'
_cell_volume   452.02419707
_cell_formula_units_Z   1
loop_
 _symmetry_equiv_pos_site_id
 _symmetry_equiv_pos_as_xyz
  1  'x, y, z'
loop_
 _atom_site_type_symbol
 _atom_site_label
 _atom_site_symmetry_multiplicity
 _atom_site_fract_x
 _atom_site_fract_y
 _atom_site_fract_z
 _atom_site_occupancy
  Dy  Dy0  1  0.017958  0.508979  0.750000  1
  Y  Y1  1  0.000208  0.000104  0.250000  1
  Y  Y2  1  0.999885  0.999942  0.750000  1
  Er  Er3  1  0.508884  0.491117  0.250000  1
  Er  Er4  1  0.508884  0.017767  0.250000  1
  Er  Er5  1  0.982316  0.491158  0.250000  1
  Er  Er6  1  0.491412  0.508918  0.750000  1
  Er  Er7  1  0.491412  0.982493  0.750000  1
  Si  Si8  1  0.167443  0.832973  0.499518  1
  Si  Si9  1  0.167443  0.334471  0.499518  1
  Si  Si10  1  0.665678  0.832840  0.499928  1
  Si  Si11  1  0.832692  0.167145  0.499876  1
  Si  Si12  1  0.832692  0.665546  0.499876  1
  Si  Si13  1  0.334048  0.167024  0.499927  1
  Si  Si14  1  0.832692  0.167145  0.000124  1
  Si  Si15  1  0.832692  0.665546  0.000124  1
  Si  Si16  1  0.334048  0.167024  0.000073  1
  Si  Si17  1  0.167443  0.832973  0.000482  1
  Si  Si18  1  0.167443  0.334471  0.000482  1
  Si  Si19  1  0.665678  0.832840  0.000072  1
  Rh  Rh20  1  0.333931  0.666966  0.464819  1
  Rh  Rh21  1  0.665593  0.332796  0.532844  1
  Rh  Rh22  1  0.665593  0.332796  0.967156  1
  Rh  Rh23  1  0.333931  0.666966  0.035181  1
