# generated using pymatgen
data_Th4AlSi6Rh
_symmetry_space_group_name_H-M   'P 1'
_cell_length_a   8.31161100
_cell_length_b   8.31161188
_cell_length_c   4.17674400
_cell_angle_alpha   90.00000000
_cell_angle_beta   90.00000000
_cell_angle_gamma   120.00000048
_symmetry_Int_Tables_number   1
_chemical_formula_structural   Th4AlSi6Rh
_chemical_formula_sum   'Th4 Al1 Si6 Rh1'
_cell_volume   249.88428889
_cell_formula_units_Z   1
loop_
 _symmetry_equiv_pos_site_id
 _symmetry_equiv_pos_as_xyz
  1  'x, y, z'
loop_
 _atom_site_type_symbol
 _atom_site_label
 _atom_site_symmetry_multiplicity
 _atom_site_fract_x
 _atom_site_fract_y
 _atom_site_fract_z
 _atom_site_occupancy
  Th  Th0  1  0.000000  0.000000  0.500000  1
  Th  Th1  1  0.006323  0.503162  0.500000  1
  Th  Th2  1  0.496838  0.503162  0.500000  1
  Th  Th3  1  0.496838  0.993677  0.500000  1
  Al  Al4  1  0.666667  0.333333  0.000000  1
  Si  Si5  1  0.331785  0.165893  0.000000  1
  Si  Si6  1  0.834107  0.165893  0.000000  1
  Si  Si7  1  0.834107  0.668215  0.000000  1
  Si  Si8  1  0.166034  0.332069  0.000000  1
  Si  Si9  1  0.166034  0.833966  0.000000  1
  Si  Si10  1  0.667931  0.833966  0.000000  1
  Rh  Rh11  1  0.333333  0.666667  0.000000  1
