# generated using pymatgen
data_Ho5Er3Tc3B24Rh
_symmetry_space_group_name_H-M   'P 1'
_cell_length_a   3.66012700
_cell_length_b   9.12653995
_cell_length_c   11.50474008
_cell_angle_alpha   90.13803711
_cell_angle_beta   90.00000000
_cell_angle_gamma   90.00000000
_symmetry_Int_Tables_number   1
_chemical_formula_structural   Ho5Er3Tc3B24Rh
_chemical_formula_sum   'Ho5 Er3 Tc3 B24 Rh1'
_cell_volume   384.30661951
_cell_formula_units_Z   1
loop_
 _symmetry_equiv_pos_site_id
 _symmetry_equiv_pos_as_xyz
  1  'x, y, z'
loop_
 _atom_site_type_symbol
 _atom_site_label
 _atom_site_symmetry_multiplicity
 _atom_site_fract_x
 _atom_site_fract_y
 _atom_site_fract_z
 _atom_site_occupancy
  Ho  Ho0  1  0.500000  0.318810  0.415770  1
  Ho  Ho1  1  0.500000  0.677882  0.591080  1
  Ho  Ho2  1  0.500000  0.176840  0.912745  1
  Ho  Ho3  1  0.500000  0.827355  0.081288  1
  Ho  Ho4  1  0.500000  0.441030  0.128965  1
  Er  Er5  1  0.500000  0.556776  0.871070  1
  Er  Er6  1  0.500000  0.055843  0.629492  1
  Er  Er7  1  0.500000  0.944108  0.369899  1
  Tc  Tc8  1  0.500000  0.138500  0.180285  1
  Tc  Tc9  1  0.500000  0.861338  0.820766  1
  Tc  Tc10  1  0.500000  0.362261  0.677818  1
  B  B11  1  0.000000  0.102043  0.471234  1
  B  B12  1  0.000000  0.895065  0.528237  1
  B  B13  1  0.000000  0.396768  0.971683  1
  B  B14  1  0.000000  0.604242  0.029268  1
  B  B15  1  0.000000  0.131085  0.315140  1
  B  B16  1  0.000000  0.868260  0.685335  1
  B  B17  1  0.000000  0.369064  0.814373  1
  B  B18  1  0.000000  0.632111  0.183903  1
  B  B19  1  0.000000  0.053716  0.066537  1
  B  B20  1  0.000000  0.947018  0.932638  1
  B  B21  1  0.000000  0.446382  0.566522  1
  B  B22  1  0.000000  0.554059  0.433886  1
  B  B23  1  0.000000  0.483174  0.287987  1
  B  B24  1  0.000000  0.517908  0.712421  1
  B  B25  1  0.000000  0.017403  0.787088  1
  B  B26  1  0.000000  0.982939  0.211960  1
  B  B27  1  0.000000  0.249118  0.080980  1
  B  B28  1  0.000000  0.751441  0.919147  1
  B  B29  1  0.000000  0.250259  0.580727  1
  B  B30  1  0.000000  0.749253  0.420486  1
  B  B31  1  0.000000  0.292052  0.235343  1
  B  B32  1  0.000000  0.707778  0.765786  1
  B  B33  1  0.000000  0.208000  0.734301  1
  B  B34  1  0.000000  0.791657  0.264810  1
  Rh  Rh35  1  0.500000  0.638466  0.321033  1
