# generated using pymatgen
data_NaMg4Ta(SbPt)6
_symmetry_space_group_name_H-M   'P 1'
_cell_length_a   7.80336187
_cell_length_b   7.80676258
_cell_length_c   7.80428632
_cell_angle_alpha   99.54329989
_cell_angle_beta   99.61432322
_cell_angle_gamma   120.08479984
_symmetry_Int_Tables_number   1
_chemical_formula_structural   NaMg4Ta(SbPt)6
_chemical_formula_sum   'Na1 Mg4 Ta1 Sb6 Pt6'
_cell_volume   387.86837924
_cell_formula_units_Z   1
loop_
 _symmetry_equiv_pos_site_id
 _symmetry_equiv_pos_as_xyz
  1  'x, y, z'
loop_
 _atom_site_type_symbol
 _atom_site_label
 _atom_site_symmetry_multiplicity
 _atom_site_fract_x
 _atom_site_fract_y
 _atom_site_fract_z
 _atom_site_occupancy
  Na  Na0  1  0.668095  0.830689  0.496782  1
  Mg  Mg1  1  0.331621  0.164395  0.496992  1
  Mg  Mg2  1  0.996039  0.501646  0.497191  1
  Mg  Mg3  1  0.166990  0.333032  0.002194  1
  Mg  Mg4  1  0.501266  0.002212  0.002511  1
  Ta  Ta5  1  0.834403  0.665483  0.003132  1
  Sb  Sb6  1  0.916649  0.091548  0.250840  1
  Sb  Sb7  1  0.259974  0.750845  0.250644  1
  Sb  Sb8  1  0.577807  0.412061  0.257339  1
  Sb  Sb9  1  0.082126  0.921105  0.747661  1
  Sb  Sb10  1  0.749094  0.239303  0.748430  1
  Sb  Sb11  1  0.415094  0.586847  0.744426  1
  Pt  Pt12  1  0.192634  0.024882  0.118597  1
  Pt  Pt13  1  0.873406  0.387510  0.119598  1
  Pt  Pt14  1  0.550490  0.701861  0.107604  1
  Pt  Pt15  1  0.055045  0.222501  0.628900  1
  Pt  Pt16  1  0.364017  0.876413  0.629576  1
  Pt  Pt17  1  0.715205  0.537627  0.647582  1
