# generated using pymatgen
data_Y6Er4SnSb5
_symmetry_space_group_name_H-M   'P 1'
_cell_length_a   6.32835400
_cell_length_b   8.96962004
_cell_length_c   8.94811371
_cell_angle_alpha   120.07953805
_cell_angle_beta   90.00014944
_cell_angle_gamma   89.99970709
_symmetry_Int_Tables_number   1
_chemical_formula_structural   Y6Er4SnSb5
_chemical_formula_sum   'Y6 Er4 Sn1 Sb5'
_cell_volume   439.51965522
_cell_formula_units_Z   1
loop_
 _symmetry_equiv_pos_site_id
 _symmetry_equiv_pos_as_xyz
  1  'x, y, z'
loop_
 _atom_site_type_symbol
 _atom_site_label
 _atom_site_symmetry_multiplicity
 _atom_site_fract_x
 _atom_site_fract_y
 _atom_site_fract_z
 _atom_site_occupancy
  Y  Y0  1  0.750014  0.246106  0.000000  1
  Y  Y1  1  0.749999  0.753869  0.754875  1
  Y  Y2  1  0.749999  0.998994  0.245125  1
  Y  Y3  1  0.249992  0.753939  0.000000  1
  Y  Y4  1  0.250001  0.246684  0.246101  1
  Y  Y5  1  0.250001  0.000584  0.753899  1
  Er  Er6  1  0.500061  0.333939  0.667502  1
  Er  Er7  1  0.500061  0.666437  0.332498  1
  Er  Er8  1  0.999936  0.666440  0.332495  1
  Er  Er9  1  0.999936  0.333945  0.667505  1
  Sn  Sn10  1  0.749998  0.608186  0.000000  1
  Sb  Sb11  1  0.750001  0.389838  0.390150  1
  Sb  Sb12  1  0.750001  0.999688  0.609850  1
  Sb  Sb13  1  0.250002  0.390117  0.000000  1
  Sb  Sb14  1  0.250000  0.610684  0.610134  1
  Sb  Sb15  1  0.250000  0.000551  0.389866  1
