# generated using pymatgen
data_Sc5B4(PtRh2)5
_symmetry_space_group_name_H-M   'P 1'
_cell_length_a   4.13958900
_cell_length_b   4.13958900
_cell_length_c   20.37443400
_cell_angle_alpha   90.00000000
_cell_angle_beta   90.00000000
_cell_angle_gamma   90.00000000
_symmetry_Int_Tables_number   1
_chemical_formula_structural   Sc5B4(PtRh2)5
_chemical_formula_sum   'Sc5 B4 Pt5 Rh10'
_cell_volume   349.14031660
_cell_formula_units_Z   1
loop_
 _symmetry_equiv_pos_site_id
 _symmetry_equiv_pos_as_xyz
  1  'x, y, z'
loop_
 _atom_site_type_symbol
 _atom_site_label
 _atom_site_symmetry_multiplicity
 _atom_site_fract_x
 _atom_site_fract_y
 _atom_site_fract_z
 _atom_site_occupancy
  Sc  Sc0  1  0.000000  0.000000  0.902113  1
  Sc  Sc1  1  0.000000  0.000000  0.097640  1
  Sc  Sc2  1  0.000000  0.000000  0.298268  1
  Sc  Sc3  1  0.000000  0.000000  0.500031  1
  Sc  Sc4  1  0.000000  0.000000  0.701933  1
  B  B5  1  0.500000  0.500000  0.191050  1
  B  B6  1  0.500000  0.500000  0.400329  1
  B  B7  1  0.500000  0.500000  0.602527  1
  B  B8  1  0.500000  0.500000  0.806671  1
  Pt  Pt9  1  0.500000  0.500000  0.907088  1
  Pt  Pt10  1  0.500000  0.500000  0.091544  1
  Pt  Pt11  1  0.500000  0.500000  0.297101  1
  Pt  Pt12  1  0.500000  0.000000  0.999538  1
  Pt  Pt13  1  0.000000  0.500000  0.999538  1
  Rh  Rh14  1  0.500000  0.500000  0.500805  1
  Rh  Rh15  1  0.500000  0.500000  0.703160  1
  Rh  Rh16  1  0.500000  0.000000  0.198830  1
  Rh  Rh17  1  0.500000  0.000000  0.398551  1
  Rh  Rh18  1  0.500000  0.000000  0.601071  1
  Rh  Rh19  1  0.500000  0.000000  0.801880  1
  Rh  Rh20  1  0.000000  0.500000  0.198830  1
  Rh  Rh21  1  0.000000  0.500000  0.398551  1
  Rh  Rh22  1  0.000000  0.500000  0.601071  1
  Rh  Rh23  1  0.000000  0.500000  0.801880  1
