# generated using pymatgen
data_Cu3Ni3Mo12(IrN2)2
_symmetry_space_group_name_H-M   'P 1'
_cell_length_a   6.74887960
_cell_length_b   6.74236074
_cell_length_c   6.74474375
_cell_angle_alpha   89.95226494
_cell_angle_beta   90.03493489
_cell_angle_gamma   89.92923033
_symmetry_Int_Tables_number   1
_chemical_formula_structural   Cu3Ni3Mo12(IrN2)2
_chemical_formula_sum   'Cu3 Ni3 Mo12 Ir2 N4'
_cell_volume   306.90824585
_cell_formula_units_Z   1
loop_
 _symmetry_equiv_pos_site_id
 _symmetry_equiv_pos_as_xyz
  1  'x, y, z'
loop_
 _atom_site_type_symbol
 _atom_site_label
 _atom_site_symmetry_multiplicity
 _atom_site_fract_x
 _atom_site_fract_y
 _atom_site_fract_z
 _atom_site_occupancy
  Cu  Cu0  1  0.181723  0.318102  0.566102  1
  Cu  Cu1  1  0.681832  0.681549  0.435075  1
  Cu  Cu2  1  0.935015  0.439531  0.323166  1
  Ni  Ni3  1  0.564129  0.929411  0.192916  1
  Ni  Ni4  1  0.435052  0.560181  0.678364  1
  Ni  Ni5  1  0.063248  0.069712  0.807287  1
  Mo  Mo6  1  0.372090  0.952027  0.548116  1
  Mo  Mo7  1  0.871535  0.046262  0.453046  1
  Mo  Mo8  1  0.124075  0.448287  0.953605  1
  Mo  Mo9  1  0.620725  0.554974  0.040903  1
  Mo  Mo10  1  0.795339  0.376544  0.705782  1
  Mo  Mo11  1  0.705076  0.875643  0.804203  1
  Mo  Mo12  1  0.206864  0.123272  0.194301  1
  Mo  Mo13  1  0.300704  0.623595  0.297353  1
  Mo  Mo14  1  0.952399  0.800744  0.123953  1
  Mo  Mo15  1  0.054869  0.708663  0.628630  1
  Mo  Mo16  1  0.452606  0.201682  0.875500  1
  Mo  Mo17  1  0.551013  0.290995  0.373072  1
  Ir  Ir18  1  0.315156  0.816470  0.930817  1
  Ir  Ir19  1  0.814844  0.182263  0.068444  1
  N  N20  1  0.624949  0.124837  0.626079  1
  N  N21  1  0.125747  0.874336  0.373488  1
  N  N22  1  0.875976  0.625897  0.876633  1
  N  N23  1  0.375037  0.375025  0.123165  1
