# generated using pymatgen
data_La2Nd2YSi4
_symmetry_space_group_name_H-M   'P 1'
_cell_length_a   7.88219500
_cell_length_b   7.88219500
_cell_length_c   15.22944800
_cell_angle_alpha   90.00000000
_cell_angle_beta   90.00000000
_cell_angle_gamma   90.00000000
_symmetry_Int_Tables_number   1
_chemical_formula_structural   La2Nd2YSi4
_chemical_formula_sum   'La8 Nd8 Y4 Si16'
_cell_volume   946.19034461
_cell_formula_units_Z   4
loop_
 _symmetry_equiv_pos_site_id
 _symmetry_equiv_pos_as_xyz
  1  'x, y, z'
loop_
 _atom_site_type_symbol
 _atom_site_label
 _atom_site_symmetry_multiplicity
 _atom_site_fract_x
 _atom_site_fract_y
 _atom_site_fract_z
 _atom_site_occupancy
  La  La0  1  0.986804  0.623699  0.052369  1
  La  La1  1  0.013196  0.376301  0.552369  1
  La  La2  1  0.623699  0.986804  0.947631  1
  La  La3  1  0.123699  0.513196  0.802369  1
  La  La4  1  0.876301  0.486804  0.302369  1
  La  La5  1  0.513196  0.123699  0.197631  1
  La  La6  1  0.486804  0.876301  0.697631  1
  La  La7  1  0.376301  0.013196  0.447631  1
  Nd  Nd8  1  0.372977  0.480301  0.372867  1
  Nd  Nd9  1  0.872977  0.019699  0.377133  1
  Nd  Nd10  1  0.980301  0.127023  0.122867  1
  Nd  Nd11  1  0.019699  0.872977  0.622867  1
  Nd  Nd12  1  0.627023  0.519699  0.872867  1
  Nd  Nd13  1  0.480301  0.372977  0.627133  1
  Nd  Nd14  1  0.519699  0.627023  0.127133  1
  Nd  Nd15  1  0.127023  0.980301  0.877133  1
  Y  Y16  1  0.690270  0.690270  0.500000  1
  Y  Y17  1  0.809730  0.190270  0.750000  1
  Y  Y18  1  0.190270  0.809730  0.250000  1
  Y  Y19  1  0.309730  0.309730  0.000000  1
  Si  Si20  1  0.078313  0.714290  0.437453  1
  Si  Si21  1  0.921687  0.285710  0.937453  1
  Si  Si22  1  0.714290  0.078313  0.562547  1
  Si  Si23  1  0.214291  0.421687  0.187453  1
  Si  Si24  1  0.785710  0.578313  0.687453  1
  Si  Si25  1  0.421687  0.214291  0.812547  1
  Si  Si26  1  0.578313  0.785710  0.312547  1
  Si  Si27  1  0.285710  0.921687  0.062547  1
  Si  Si28  1  0.829715  0.808777  0.795409  1
  Si  Si29  1  0.170285  0.191223  0.295409  1
  Si  Si30  1  0.808777  0.829715  0.204591  1
  Si  Si31  1  0.308777  0.670285  0.545409  1
  Si  Si32  1  0.691223  0.329715  0.045409  1
  Si  Si33  1  0.670285  0.308777  0.454591  1
  Si  Si34  1  0.329715  0.691223  0.954591  1
  Si  Si35  1  0.191223  0.170285  0.704591  1
