# generated using pymatgen
data_Pr2Er4NiBr10
_symmetry_space_group_name_H-M   'P 1'
_cell_length_a   7.32047126
_cell_length_b   9.17589772
_cell_length_c   9.30691400
_cell_angle_alpha   106.76944950
_cell_angle_beta   95.29830820
_cell_angle_gamma   106.07230796
_symmetry_Int_Tables_number   1
_chemical_formula_structural   Pr2Er4NiBr10
_chemical_formula_sum   'Pr2 Er4 Ni1 Br10'
_cell_volume   565.01411879
_cell_formula_units_Z   1
loop_
 _symmetry_equiv_pos_site_id
 _symmetry_equiv_pos_as_xyz
  1  'x, y, z'
loop_
 _atom_site_type_symbol
 _atom_site_label
 _atom_site_symmetry_multiplicity
 _atom_site_fract_x
 _atom_site_fract_y
 _atom_site_fract_z
 _atom_site_occupancy
  Pr  Pr0  1  0.869073  0.949338  0.249916  1
  Pr  Pr1  1  0.130927  0.050662  0.750084  1
  Er  Er2  1  0.028961  0.710125  0.911892  1
  Er  Er3  1  0.971039  0.289875  0.088108  1
  Er  Er4  1  0.649867  0.870330  0.836039  1
  Er  Er5  1  0.350133  0.129670  0.163961  1
  Ni  Ni6  1  0.000000  0.000000  0.000000  1
  Br  Br7  1  0.656636  0.554730  0.735316  1
  Br  Br8  1  0.343364  0.445270  0.264684  1
  Br  Br9  1  0.733079  0.914659  0.554325  1
  Br  Br10  1  0.266921  0.085341  0.445675  1
  Br  Br11  1  0.080315  0.381638  0.830749  1
  Br  Br12  1  0.919685  0.618362  0.169251  1
  Br  Br13  1  0.442352  0.821038  0.084164  1
  Br  Br14  1  0.557648  0.178962  0.915836  1
  Br  Br15  1  0.233860  0.740305  0.667709  1
  Br  Br16  1  0.766140  0.259695  0.332291  1
