# generated using pymatgen
data_SrNdCo7(NiP2)3
_symmetry_space_group_name_H-M   'P 1'
_cell_length_a   6.07593481
_cell_length_b   6.07593491
_cell_length_c   11.38995692
_cell_angle_alpha   90.41152034
_cell_angle_beta   89.58848025
_cell_angle_gamma   145.46979071
_symmetry_Int_Tables_number   1
_chemical_formula_structural   SrNdCo7(NiP2)3
_chemical_formula_sum   'Sr1 Nd1 Co7 Ni3 P6'
_cell_volume   238.34005026
_cell_formula_units_Z   1
loop_
 _symmetry_equiv_pos_site_id
 _symmetry_equiv_pos_as_xyz
  1  'x, y, z'
loop_
 _atom_site_type_symbol
 _atom_site_label
 _atom_site_symmetry_multiplicity
 _atom_site_fract_x
 _atom_site_fract_y
 _atom_site_fract_z
 _atom_site_occupancy
  Sr  Sr0  1  0.837494  0.162506  0.750175  1
  Nd  Nd1  1  0.161326  0.838674  0.249332  1
  Co  Co2  1  0.450868  0.549132  0.357125  1
  Co  Co3  1  0.449286  0.550714  0.141745  1
  Co  Co4  1  0.803294  0.196706  0.069850  1
  Co  Co5  1  0.197993  0.802007  0.938102  1
  Co  Co6  1  0.194191  0.805809  0.563175  1
  Co  Co7  1  0.802045  0.197955  0.428541  1
  Co  Co8  1  0.555134  0.444866  0.859447  1
  Ni  Ni9  1  0.996953  0.003047  0.500414  1
  Ni  Ni10  1  0.999936  0.000064  0.000774  1
  Ni  Ni11  1  0.550125  0.449875  0.642582  1
  P  P12  1  0.891898  0.108102  0.249170  1
  P  P13  1  0.111662  0.888338  0.753387  1
  P  P14  1  0.381399  0.618601  0.962679  1
  P  P15  1  0.620766  0.379234  0.039563  1
  P  P16  1  0.619288  0.380712  0.459955  1
  P  P17  1  0.376342  0.623658  0.533983  1
