# generated using pymatgen
data_Y7HoSc12Si15Hg
_symmetry_space_group_name_H-M   'P 1'
_cell_length_a   7.14008352
_cell_length_b   7.40247614
_cell_length_c   14.10088525
_cell_angle_alpha   89.91194917
_cell_angle_beta   89.55988189
_cell_angle_gamma   90.14842867
_symmetry_Int_Tables_number   1
_chemical_formula_structural   Y7HoSc12Si15Hg
_chemical_formula_sum   'Y7 Ho1 Sc12 Si15 Hg1'
_cell_volume   745.26699796
_cell_formula_units_Z   1
loop_
 _symmetry_equiv_pos_site_id
 _symmetry_equiv_pos_as_xyz
  1  'x, y, z'
loop_
 _atom_site_type_symbol
 _atom_site_label
 _atom_site_symmetry_multiplicity
 _atom_site_fract_x
 _atom_site_fract_y
 _atom_site_fract_z
 _atom_site_occupancy
  Y  Y0  1  0.011922  0.175415  0.097261  1
  Y  Y1  1  0.987653  0.825416  0.904322  1
  Y  Y2  1  0.487594  0.676660  0.903898  1
  Y  Y3  1  0.989062  0.831522  0.598295  1
  Y  Y4  1  0.511750  0.323840  0.096452  1
  Y  Y5  1  0.007440  0.170919  0.398267  1
  Y  Y6  1  0.511539  0.322195  0.399043  1
  Ho  Ho7  1  0.496353  0.681863  0.600458  1
  Sc  Sc8  1  0.162749  0.501212  0.754251  1
  Sc  Sc9  1  0.836924  0.498741  0.250001  1
  Sc  Sc10  1  0.337339  0.000630  0.248783  1
  Sc  Sc11  1  0.664911  0.996967  0.751615  1
  Sc  Sc12  1  0.342515  0.168132  0.629039  1
  Sc  Sc13  1  0.663987  0.824363  0.372947  1
  Sc  Sc14  1  0.166482  0.677982  0.370513  1
  Sc  Sc15  1  0.669277  0.823641  0.124382  1
  Sc  Sc16  1  0.825415  0.325165  0.626413  1
  Sc  Sc17  1  0.329100  0.175152  0.876034  1
  Sc  Sc18  1  0.830316  0.322803  0.876077  1
  Sc  Sc19  1  0.168780  0.676809  0.125060  1
  Si  Si20  1  0.035713  0.120796  0.751457  1
  Si  Si21  1  0.964012  0.883505  0.247861  1
  Si  Si22  1  0.465968  0.615617  0.247882  1
  Si  Si23  1  0.533840  0.386007  0.752053  1
  Si  Si24  1  0.285162  0.872190  0.751628  1
  Si  Si25  1  0.712553  0.127262  0.247747  1
  Si  Si26  1  0.213239  0.371630  0.248090  1
  Si  Si27  1  0.788593  0.627962  0.752542  1
  Si  Si28  1  0.832656  0.538658  0.459106  1
  Si  Si29  1  0.338859  0.961841  0.460064  1
  Si  Si30  1  0.843762  0.535489  0.038922  1
  Si  Si31  1  0.660023  0.037227  0.537684  1
  Si  Si32  1  0.156073  0.463952  0.962114  1
  Si  Si33  1  0.655946  0.035048  0.960517  1
  Si  Si34  1  0.342965  0.964785  0.039856  1
  Hg  Hg35  1  0.169530  0.458600  0.539369  1
