# generated using pymatgen
data_Y6Er14Cd6CoRu
_symmetry_space_group_name_H-M   'P 1'
_cell_length_a   9.53664700
_cell_length_b   9.53664762
_cell_length_c   9.70370000
_cell_angle_alpha   90.00000000
_cell_angle_beta   90.00000000
_cell_angle_gamma   120.00000131
_symmetry_Int_Tables_number   1
_chemical_formula_structural   Y6Er14Cd6CoRu
_chemical_formula_sum   'Y6 Er14 Cd6 Co1 Ru1'
_cell_volume   764.29220582
_cell_formula_units_Z   1
loop_
 _symmetry_equiv_pos_site_id
 _symmetry_equiv_pos_as_xyz
  1  'x, y, z'
loop_
 _atom_site_type_symbol
 _atom_site_label
 _atom_site_symmetry_multiplicity
 _atom_site_fract_x
 _atom_site_fract_y
 _atom_site_fract_z
 _atom_site_occupancy
  Y  Y0  1  0.541245  0.458755  0.250000  1
  Y  Y1  1  0.541245  0.082490  0.250000  1
  Y  Y2  1  0.917510  0.458755  0.250000  1
  Y  Y3  1  0.458746  0.541254  0.750000  1
  Y  Y4  1  0.458746  0.917492  0.750000  1
  Y  Y5  1  0.082508  0.541254  0.750000  1
  Er  Er6  1  0.000000  0.000000  0.499862  1
  Er  Er7  1  0.000000  0.000000  0.000138  1
  Er  Er8  1  0.212047  0.787953  0.435951  1
  Er  Er9  1  0.212047  0.424095  0.435951  1
  Er  Er10  1  0.575905  0.787953  0.435951  1
  Er  Er11  1  0.790669  0.209331  0.559969  1
  Er  Er12  1  0.790669  0.581339  0.559969  1
  Er  Er13  1  0.418661  0.209331  0.559969  1
  Er  Er14  1  0.790669  0.209331  0.940031  1
  Er  Er15  1  0.790669  0.581339  0.940031  1
  Er  Er16  1  0.418661  0.209331  0.940031  1
  Er  Er17  1  0.212047  0.787953  0.064049  1
  Er  Er18  1  0.212047  0.424095  0.064049  1
  Er  Er19  1  0.575905  0.787953  0.064049  1
  Cd  Cd20  1  0.885551  0.114449  0.250000  1
  Cd  Cd21  1  0.885551  0.771104  0.250000  1
  Cd  Cd22  1  0.228896  0.114449  0.250000  1
  Cd  Cd23  1  0.114356  0.885644  0.750000  1
  Cd  Cd24  1  0.114356  0.228712  0.750000  1
  Cd  Cd25  1  0.771288  0.885644  0.750000  1
  Co  Co26  1  0.333333  0.666667  0.250000  1
  Ru  Ru27  1  0.666667  0.333333  0.750000  1
