# generated using pymatgen
data_Pr17Er3(Ir2Rh)4
_symmetry_space_group_name_H-M   'P 1'
_cell_length_a   11.25068100
_cell_length_b   11.25068100
_cell_length_c   6.61378400
_cell_angle_alpha   90.00000000
_cell_angle_beta   90.00000000
_cell_angle_gamma   90.00000000
_symmetry_Int_Tables_number   1
_chemical_formula_structural   Pr17Er3(Ir2Rh)4
_chemical_formula_sum   'Pr17 Er3 Ir8 Rh4'
_cell_volume   837.15838027
_cell_formula_units_Z   1
loop_
 _symmetry_equiv_pos_site_id
 _symmetry_equiv_pos_as_xyz
  1  'x, y, z'
loop_
 _atom_site_type_symbol
 _atom_site_label
 _atom_site_symmetry_multiplicity
 _atom_site_fract_x
 _atom_site_fract_y
 _atom_site_fract_z
 _atom_site_occupancy
  Pr  Pr0  1  0.289982  0.088796  0.382769  1
  Pr  Pr1  1  0.289273  0.911223  0.883508  1
  Pr  Pr2  1  0.710727  0.088777  0.883508  1
  Pr  Pr3  1  0.710018  0.911204  0.382769  1
  Pr  Pr4  1  0.588649  0.787834  0.883427  1
  Pr  Pr5  1  0.588217  0.212401  0.383250  1
  Pr  Pr6  1  0.411783  0.787599  0.383250  1
  Pr  Pr7  1  0.411351  0.212166  0.883427  1
  Pr  Pr8  1  0.212401  0.411783  0.616750  1
  Pr  Pr9  1  0.212166  0.588649  0.116573  1
  Pr  Pr10  1  0.787834  0.411351  0.116573  1
  Pr  Pr11  1  0.787599  0.588217  0.616750  1
  Pr  Pr12  1  0.911223  0.710727  0.116492  1
  Pr  Pr13  1  0.911204  0.289982  0.617231  1
  Pr  Pr14  1  0.088796  0.710018  0.617231  1
  Pr  Pr15  1  0.088777  0.289273  0.116492  1
  Pr  Pr16  1  0.000000  0.000000  0.500000  1
  Er  Er17  1  0.000000  0.000000  0.000000  1
  Er  Er18  1  0.500000  0.500000  0.000000  1
  Er  Er19  1  0.500000  0.500000  0.500000  1
  Ir  Ir20  1  0.848861  0.152005  0.244264  1
  Ir  Ir21  1  0.847995  0.848861  0.755736  1
  Ir  Ir22  1  0.152005  0.151139  0.755736  1
  Ir  Ir23  1  0.151139  0.847995  0.244264  1
  Ir  Ir24  1  0.647514  0.353034  0.749410  1
  Ir  Ir25  1  0.646966  0.647514  0.250590  1
  Ir  Ir26  1  0.353034  0.352486  0.250590  1
  Ir  Ir27  1  0.352486  0.646966  0.749410  1
  Rh  Rh28  1  0.500000  0.000000  0.119612  1
  Rh  Rh29  1  0.500000  0.000000  0.618214  1
  Rh  Rh30  1  0.000000  0.500000  0.880388  1
  Rh  Rh31  1  0.000000  0.500000  0.381786  1
