# generated using pymatgen
data_CeNd3(InPd2)2
_symmetry_space_group_name_H-M   'P 1'
_cell_length_a   7.89442148
_cell_length_b   7.89442148
_cell_length_c   3.85559700
_cell_angle_alpha   90.00000000
_cell_angle_beta   90.00000000
_cell_angle_gamma   90.93444635
_symmetry_Int_Tables_number   1
_chemical_formula_structural   CeNd3(InPd2)2
_chemical_formula_sum   'Ce1 Nd3 In2 Pd4'
_cell_volume   240.25613761
_cell_formula_units_Z   1
loop_
 _symmetry_equiv_pos_site_id
 _symmetry_equiv_pos_as_xyz
  1  'x, y, z'
loop_
 _atom_site_type_symbol
 _atom_site_label
 _atom_site_symmetry_multiplicity
 _atom_site_fract_x
 _atom_site_fract_y
 _atom_site_fract_z
 _atom_site_occupancy
  Ce  Ce0  1  0.673608  0.173608  0.500000  1
  Nd  Nd1  1  0.325181  0.825181  0.500000  1
  Nd  Nd2  1  0.825935  0.675440  0.500000  1
  Nd  Nd3  1  0.175440  0.325935  0.500000  1
  In  In4  1  0.999617  0.002240  0.000000  1
  In  In5  1  0.502240  0.499617  0.000000  1
  Pd  Pd6  1  0.380301  0.129996  0.000000  1
  Pd  Pd7  1  0.864574  0.364574  0.000000  1
  Pd  Pd8  1  0.123108  0.623108  0.000000  1
  Pd  Pd9  1  0.629996  0.880301  0.000000  1
