# generated using pymatgen
data_Y3Ho5Tl2InIr
_symmetry_space_group_name_H-M   'P 1'
_cell_length_a   10.36753800
_cell_length_b   10.37431380
_cell_length_c   7.15032501
_cell_angle_alpha   90.00187310
_cell_angle_beta   90.00000000
_cell_angle_gamma   119.97839052
_symmetry_Int_Tables_number   1
_chemical_formula_structural   Y3Ho5Tl2InIr
_chemical_formula_sum   'Y6 Ho10 Tl4 In2 Ir2'
_cell_volume   666.17135962
_cell_formula_units_Z   2
loop_
 _symmetry_equiv_pos_site_id
 _symmetry_equiv_pos_as_xyz
  1  'x, y, z'
loop_
 _atom_site_type_symbol
 _atom_site_label
 _atom_site_symmetry_multiplicity
 _atom_site_fract_x
 _atom_site_fract_y
 _atom_site_fract_z
 _atom_site_occupancy
  Y  Y0  1  0.534227  0.068454  0.505606  1
  Y  Y1  1  0.930732  0.466311  0.506884  1
  Y  Y2  1  0.535579  0.466311  0.506884  1
  Y  Y3  1  0.464973  0.929946  0.008620  1
  Y  Y4  1  0.070325  0.535109  0.008097  1
  Y  Y5  1  0.464784  0.535109  0.008097  1
  Ho  Ho6  1  0.175843  0.351684  0.708954  1
  Ho  Ho7  1  0.648221  0.824419  0.711148  1
  Ho  Ho8  1  0.176199  0.824419  0.711148  1
  Ho  Ho9  1  0.823558  0.647116  0.208587  1
  Ho  Ho10  1  0.352312  0.176666  0.209023  1
  Ho  Ho11  1  0.824352  0.176666  0.209023  1
  Ho  Ho12  1  0.666471  0.332942  0.889387  1
  Ho  Ho13  1  0.333490  0.666980  0.390029  1
  Ho  Ho14  1  0.999078  0.998157  0.488384  1
  Ho  Ho15  1  0.999200  0.998401  0.991465  1
  Tl  Tl16  1  0.836686  0.673372  0.757397  1
  Tl  Tl17  1  0.326642  0.163392  0.757238  1
  Tl  Tl18  1  0.836750  0.163392  0.757238  1
  Tl  Tl19  1  0.163232  0.326464  0.258080  1
  In  In20  1  0.674711  0.837475  0.257369  1
  In  In21  1  0.162765  0.837475  0.257369  1
  Ir  Ir22  1  0.666631  0.333261  0.276028  1
  Ir  Ir23  1  0.333240  0.666482  0.775992  1
