# generated using pymatgen
data_Nd2SiOsI
_symmetry_space_group_name_H-M   'P 1'
_cell_length_a   4.27047800
_cell_length_b   4.27047936
_cell_length_c   17.51498200
_cell_angle_alpha   90.00000000
_cell_angle_beta   90.00000000
_cell_angle_gamma   119.99998950
_symmetry_Int_Tables_number   1
_chemical_formula_structural   Nd2SiOsI
_chemical_formula_sum   'Nd4 Si2 Os2 I2'
_cell_volume   276.62631321
_cell_formula_units_Z   2
loop_
 _symmetry_equiv_pos_site_id
 _symmetry_equiv_pos_as_xyz
  1  'x, y, z'
loop_
 _atom_site_type_symbol
 _atom_site_label
 _atom_site_symmetry_multiplicity
 _atom_site_fract_x
 _atom_site_fract_y
 _atom_site_fract_z
 _atom_site_occupancy
  Nd  Nd0  1  0.000000  0.000000  0.104144  1
  Nd  Nd1  1  0.000000  0.000000  0.604144  1
  Nd  Nd2  1  0.000000  0.000000  0.894449  1
  Nd  Nd3  1  0.000000  0.000000  0.394449  1
  Si  Si4  1  0.666667  0.333333  0.998880  1
  Si  Si5  1  0.333333  0.666667  0.498880  1
  Os  Os6  1  0.333333  0.666667  0.001229  1
  Os  Os7  1  0.666667  0.333333  0.501229  1
  I  I8  1  0.666667  0.333333  0.251298  1
  I  I9  1  0.333333  0.666667  0.751298  1
