# generated using pymatgen
data_LaNd9(In2Ru3)2
_symmetry_space_group_name_H-M   'P 1'
_cell_length_a   8.74055729
_cell_length_b   8.74055752
_cell_length_c   8.74055703
_cell_angle_alpha   109.52560886
_cell_angle_beta   109.52561626
_cell_angle_gamma   109.52560644
_symmetry_Int_Tables_number   1
_chemical_formula_structural   LaNd9(In2Ru3)2
_chemical_formula_sum   'La1 Nd9 In4 Ru6'
_cell_volume   513.00055428
_cell_formula_units_Z   1
loop_
 _symmetry_equiv_pos_site_id
 _symmetry_equiv_pos_as_xyz
  1  'x, y, z'
loop_
 _atom_site_type_symbol
 _atom_site_label
 _atom_site_symmetry_multiplicity
 _atom_site_fract_x
 _atom_site_fract_y
 _atom_site_fract_z
 _atom_site_occupancy
  La  La0  1  0.603593  0.603593  0.603593  1
  Nd  Nd1  1  0.475429  0.152873  0.221433  1
  Nd  Nd2  1  0.152873  0.221433  0.475429  1
  Nd  Nd3  1  0.221433  0.475429  0.152873  1
  Nd  Nd4  1  0.410016  0.698187  0.908024  1
  Nd  Nd5  1  0.698187  0.908024  0.410016  1
  Nd  Nd6  1  0.908024  0.410016  0.698187  1
  Nd  Nd7  1  0.658164  0.092010  0.840553  1
  Nd  Nd8  1  0.092010  0.840553  0.658164  1
  Nd  Nd9  1  0.840553  0.658164  0.092010  1
  In  In10  1  0.407959  0.315451  0.910350  1
  In  In11  1  0.315451  0.910350  0.407959  1
  In  In12  1  0.910350  0.407959  0.315451  1
  In  In13  1  0.997050  0.997050  0.997050  1
  Ru  Ru14  1  0.024673  0.161096  0.776747  1
  Ru  Ru15  1  0.161096  0.776747  0.024673  1
  Ru  Ru16  1  0.776747  0.024673  0.161096  1
  Ru  Ru17  1  0.659557  0.540554  0.296283  1
  Ru  Ru18  1  0.540554  0.296283  0.659557  1
  Ru  Ru19  1  0.296283  0.659557  0.540554  1
