# generated using pymatgen
data_Dy6Y3Ho11Pt16
_symmetry_space_group_name_H-M   'P 1'
_cell_length_a   7.47229434
_cell_length_b   7.55154610
_cell_length_c   14.74870901
_cell_angle_alpha   89.99063316
_cell_angle_beta   90.00668040
_cell_angle_gamma   89.97975109
_symmetry_Int_Tables_number   1
_chemical_formula_structural   Dy6Y3Ho11Pt16
_chemical_formula_sum   'Dy6 Y3 Ho11 Pt16'
_cell_volume   832.23086837
_cell_formula_units_Z   1
loop_
 _symmetry_equiv_pos_site_id
 _symmetry_equiv_pos_as_xyz
  1  'x, y, z'
loop_
 _atom_site_type_symbol
 _atom_site_label
 _atom_site_symmetry_multiplicity
 _atom_site_fract_x
 _atom_site_fract_y
 _atom_site_fract_z
 _atom_site_occupancy
  Dy  Dy0  1  0.656300  0.832176  0.878074  1
  Dy  Dy1  1  0.997824  0.820016  0.406775  1
  Dy  Dy2  1  0.497578  0.679941  0.093386  1
  Dy  Dy3  1  0.502241  0.320073  0.593071  1
  Dy  Dy4  1  0.002410  0.180356  0.906965  1
  Dy  Dy5  1  0.002132  0.179880  0.593106  1
  Y  Y6  1  0.501856  0.320251  0.907024  1
  Y  Y7  1  0.498030  0.679770  0.406895  1
  Y  Y8  1  0.998088  0.820119  0.093077  1
  Ho  Ho9  1  0.681133  0.988334  0.250028  1
  Ho  Ho10  1  0.181102  0.511666  0.250007  1
  Ho  Ho11  1  0.818960  0.488163  0.749781  1
  Ho  Ho12  1  0.318825  0.011875  0.749857  1
  Ho  Ho13  1  0.656199  0.832286  0.622129  1
  Ho  Ho14  1  0.156379  0.667716  0.877777  1
  Ho  Ho15  1  0.843815  0.332312  0.377794  1
  Ho  Ho16  1  0.343695  0.167772  0.122243  1
  Ho  Ho17  1  0.343745  0.167713  0.377810  1
  Ho  Ho18  1  0.843875  0.332361  0.122385  1
  Ho  Ho19  1  0.156324  0.667706  0.622061  1
  Pt  Pt20  1  0.816335  0.641932  0.250209  1
  Pt  Pt21  1  0.316313  0.858050  0.249866  1
  Pt  Pt22  1  0.683791  0.142444  0.749382  1
  Pt  Pt23  1  0.183109  0.357655  0.749925  1
  Pt  Pt24  1  0.546740  0.385658  0.249955  1
  Pt  Pt25  1  0.046837  0.114364  0.250161  1
  Pt  Pt26  1  0.953866  0.886187  0.749549  1
  Pt  Pt27  1  0.452939  0.613630  0.749492  1
  Pt  Pt28  1  0.817289  0.532545  0.542150  1
  Pt  Pt29  1  0.316136  0.967484  0.958136  1
  Pt  Pt30  1  0.683026  0.032870  0.457914  1
  Pt  Pt31  1  0.182998  0.467148  0.042125  1
  Pt  Pt32  1  0.182358  0.467125  0.457927  1
  Pt  Pt33  1  0.682342  0.033257  0.042758  1
  Pt  Pt34  1  0.317077  0.967598  0.542176  1
  Pt  Pt35  1  0.818330  0.531569  0.958035  1
