# generated using pymatgen
data_Er10Th2Tc3Pt
_symmetry_space_group_name_H-M   'P 1'
_cell_length_a   6.33459900
_cell_length_b   7.32848081
_cell_length_c   9.34002600
_cell_angle_alpha   90.00000000
_cell_angle_beta   90.00000000
_cell_angle_gamma   89.97305055
_symmetry_Int_Tables_number   1
_chemical_formula_structural   Er10Th2Tc3Pt
_chemical_formula_sum   'Er10 Th2 Tc3 Pt1'
_cell_volume   433.59185962
_cell_formula_units_Z   1
loop_
 _symmetry_equiv_pos_site_id
 _symmetry_equiv_pos_as_xyz
  1  'x, y, z'
loop_
 _atom_site_type_symbol
 _atom_site_label
 _atom_site_symmetry_multiplicity
 _atom_site_fract_x
 _atom_site_fract_y
 _atom_site_fract_z
 _atom_site_occupancy
  Er  Er0  1  0.328861  0.676066  0.066129  1
  Er  Er1  1  0.163986  0.177189  0.438334  1
  Er  Er2  1  0.671997  0.319796  0.566169  1
  Er  Er3  1  0.835602  0.827103  0.933401  1
  Er  Er4  1  0.671997  0.319796  0.933831  1
  Er  Er5  1  0.835602  0.827103  0.566599  1
  Er  Er6  1  0.328861  0.676066  0.433871  1
  Er  Er7  1  0.163986  0.177189  0.061666  1
  Er  Er8  1  0.132780  0.458191  0.750000  1
  Er  Er9  1  0.370619  0.964425  0.750000  1
  Th  Th10  1  0.858001  0.550430  0.250000  1
  Th  Th11  1  0.633632  0.049448  0.250000  1
  Tc  Tc12  1  0.019196  0.872378  0.250000  1
  Tc  Tc13  1  0.478552  0.373140  0.250000  1
  Tc  Tc14  1  0.961841  0.116124  0.750000  1
  Pt  Pt15  1  0.544486  0.615555  0.750000  1
