# generated using pymatgen
data_NaTc(OF2)2
_symmetry_space_group_name_H-M   'P 1'
_cell_length_a   5.62621200
_cell_length_b   5.62621200
_cell_length_c   9.39234700
_cell_angle_alpha   90.00000000
_cell_angle_beta   90.00000000
_cell_angle_gamma   90.00000000
_symmetry_Int_Tables_number   1
_chemical_formula_structural   NaTc(OF2)2
_chemical_formula_sum   'Na2 Tc2 O4 F8'
_cell_volume   297.30780775
_cell_formula_units_Z   2
loop_
 _symmetry_equiv_pos_site_id
 _symmetry_equiv_pos_as_xyz
  1  'x, y, z'
loop_
 _atom_site_type_symbol
 _atom_site_label
 _atom_site_symmetry_multiplicity
 _atom_site_fract_x
 _atom_site_fract_y
 _atom_site_fract_z
 _atom_site_occupancy
  Na  Na0  1  0.000000  0.500000  0.399177  1
  Na  Na1  1  0.500000  0.000000  0.600823  1
  Tc  Tc2  1  0.500000  0.000000  0.223932  1
  Tc  Tc3  1  0.000000  0.500000  0.776069  1
  O  O4  1  0.667114  0.167117  0.111126  1
  O  O5  1  0.332885  0.832885  0.111126  1
  O  O6  1  0.167117  0.332885  0.888874  1
  O  O7  1  0.832885  0.667114  0.888874  1
  F  F8  1  0.261745  0.238257  0.254015  1
  F  F9  1  0.738255  0.761742  0.254015  1
  F  F10  1  0.661572  0.161572  0.391552  1
  F  F11  1  0.338428  0.838428  0.391552  1
  F  F12  1  0.161572  0.338428  0.608449  1
  F  F13  1  0.838428  0.661572  0.608449  1
  F  F14  1  0.761742  0.261745  0.745984  1
  F  F15  1  0.238257  0.738255  0.745984  1
