# generated using pymatgen
data_Li2HfZr(SbPt)4
_symmetry_space_group_name_H-M   'P 1'
_cell_length_a   6.34930369
_cell_length_b   6.34930439
_cell_length_c   7.77995572
_cell_angle_alpha   65.91726854
_cell_angle_beta   65.91726335
_cell_angle_gamma   90.00000055
_symmetry_Int_Tables_number   1
_chemical_formula_structural   Li2HfZr(SbPt)4
_chemical_formula_sum   'Li2 Hf1 Zr1 Sb4 Pt4'
_cell_volume   256.14525375
_cell_formula_units_Z   1
loop_
 _symmetry_equiv_pos_site_id
 _symmetry_equiv_pos_as_xyz
  1  'x, y, z'
loop_
 _atom_site_type_symbol
 _atom_site_label
 _atom_site_symmetry_multiplicity
 _atom_site_fract_x
 _atom_site_fract_y
 _atom_site_fract_z
 _atom_site_occupancy
  Li  Li0  1  0.000000  0.000000  0.000000  1
  Li  Li1  1  0.250000  0.750000  0.500001  1
  Hf  Hf2  1  0.750000  0.250000  0.500001  1
  Zr  Zr3  1  0.499999  0.499999  0.000000  1
  Sb  Sb4  1  0.491330  0.991331  0.017339  1
  Sb  Sb5  1  0.757732  0.757732  0.484536  1
  Sb  Sb6  1  0.242268  0.242268  0.515464  1
  Sb  Sb7  1  0.008671  0.508671  0.982659  1
  Pt  Pt8  1  0.627307  0.610418  0.252568  1
  Pt  Pt9  1  0.120125  0.137012  0.252569  1
  Pt  Pt10  1  0.389581  0.879876  0.747431  1
  Pt  Pt11  1  0.862986  0.372694  0.747432  1
