# generated using pymatgen
data_Tb2Nd2Al17GaIr6
_symmetry_space_group_name_H-M   'P 1'
_cell_length_a   7.57650502
_cell_length_b   7.57650496
_cell_length_c   9.57611200
_cell_angle_alpha   90.00000000
_cell_angle_beta   90.00000000
_cell_angle_gamma   119.29480034
_symmetry_Int_Tables_number   1
_chemical_formula_structural   Tb2Nd2Al17GaIr6
_chemical_formula_sum   'Tb2 Nd2 Al17 Ga1 Ir6'
_cell_volume   479.40233290
_cell_formula_units_Z   1
loop_
 _symmetry_equiv_pos_site_id
 _symmetry_equiv_pos_as_xyz
  1  'x, y, z'
loop_
 _atom_site_type_symbol
 _atom_site_label
 _atom_site_symmetry_multiplicity
 _atom_site_fract_x
 _atom_site_fract_y
 _atom_site_fract_z
 _atom_site_occupancy
  Tb  Tb0  1  0.005064  0.327750  0.750000  1
  Tb  Tb1  1  0.327750  0.005064  0.750000  1
  Nd  Nd2  1  0.993917  0.674359  0.250000  1
  Nd  Nd3  1  0.674359  0.993917  0.250000  1
  Al  Al4  1  0.869904  0.869904  0.750000  1
  Al  Al5  1  0.003074  0.335995  0.068934  1
  Al  Al6  1  0.998393  0.664001  0.924219  1
  Al  Al7  1  0.998393  0.664001  0.575781  1
  Al  Al8  1  0.335995  0.003074  0.431066  1
  Al  Al9  1  0.003074  0.335995  0.431066  1
  Al  Al10  1  0.664001  0.998393  0.575781  1
  Al  Al11  1  0.664001  0.998393  0.924219  1
  Al  Al12  1  0.335995  0.003074  0.068934  1
  Al  Al13  1  0.332990  0.332990  0.553879  1
  Al  Al14  1  0.664521  0.664521  0.455505  1
  Al  Al15  1  0.664521  0.664521  0.044495  1
  Al  Al16  1  0.332990  0.332990  0.946121  1
  Al  Al17  1  0.338501  0.547107  0.250000  1
  Al  Al18  1  0.660148  0.450809  0.750000  1
  Al  Al19  1  0.547107  0.338501  0.250000  1
  Al  Al20  1  0.450809  0.660148  0.750000  1
  Ga  Ga21  1  0.137446  0.137446  0.250000  1
  Ir  Ir22  1  0.670617  0.327678  0.998831  1
  Ir  Ir23  1  0.327678  0.670617  0.998831  1
  Ir  Ir24  1  0.327678  0.670617  0.501169  1
  Ir  Ir25  1  0.670617  0.327678  0.501169  1
  Ir  Ir26  1  0.000229  0.000229  0.995921  1
  Ir  Ir27  1  0.000229  0.000229  0.504079  1
