# generated using pymatgen
data_Tm2MgBe2Rh5
_symmetry_space_group_name_H-M   'P 1'
_cell_length_a   9.59094400
_cell_length_b   9.59094400
_cell_length_c   3.28937900
_cell_angle_alpha   90.00000000
_cell_angle_beta   90.00000000
_cell_angle_gamma   90.00000000
_symmetry_Int_Tables_number   1
_chemical_formula_structural   Tm2MgBe2Rh5
_chemical_formula_sum   'Tm4 Mg2 Be4 Rh10'
_cell_volume   302.57749697
_cell_formula_units_Z   2
loop_
 _symmetry_equiv_pos_site_id
 _symmetry_equiv_pos_as_xyz
  1  'x, y, z'
loop_
 _atom_site_type_symbol
 _atom_site_label
 _atom_site_symmetry_multiplicity
 _atom_site_fract_x
 _atom_site_fract_y
 _atom_site_fract_z
 _atom_site_occupancy
  Tm  Tm0  1  0.676262  0.176262  0.000000  1
  Tm  Tm1  1  0.323738  0.823738  0.000000  1
  Tm  Tm2  1  0.176262  0.323738  0.000000  1
  Tm  Tm3  1  0.823738  0.676262  0.000000  1
  Mg  Mg4  1  0.000000  0.000000  0.000000  1
  Mg  Mg5  1  0.500000  0.500000  0.000000  1
  Be  Be6  1  0.122141  0.622141  0.000000  1
  Be  Be7  1  0.877859  0.377859  0.000000  1
  Be  Be8  1  0.622141  0.877859  0.000000  1
  Be  Be9  1  0.377859  0.122141  0.000000  1
  Rh  Rh10  1  0.500000  0.000000  0.500000  1
  Rh  Rh11  1  0.000000  0.500000  0.500000  1
  Rh  Rh12  1  0.215749  0.069594  0.500000  1
  Rh  Rh13  1  0.784251  0.930406  0.500000  1
  Rh  Rh14  1  0.069594  0.784251  0.500000  1
  Rh  Rh15  1  0.715749  0.430406  0.500000  1
  Rh  Rh16  1  0.930406  0.215749  0.500000  1
  Rh  Rh17  1  0.284251  0.569594  0.500000  1
  Rh  Rh18  1  0.569594  0.715749  0.500000  1
  Rh  Rh19  1  0.430406  0.284251  0.500000  1
