# generated using pymatgen
data_Dy3Y6Er7(CdPt)4
_symmetry_space_group_name_H-M   'P 1'
_cell_length_a   9.67558193
_cell_length_b   9.67092895
_cell_length_c   9.67092900
_cell_angle_alpha   59.99999641
_cell_angle_beta   60.01590316
_cell_angle_gamma   60.01590016
_symmetry_Int_Tables_number   1
_chemical_formula_structural   Dy3Y6Er7(CdPt)4
_chemical_formula_sum   'Dy3 Y6 Er7 Cd4 Pt4'
_cell_volume   640.03366079
_cell_formula_units_Z   1
loop_
 _symmetry_equiv_pos_site_id
 _symmetry_equiv_pos_as_xyz
  1  'x, y, z'
loop_
 _atom_site_type_symbol
 _atom_site_label
 _atom_site_symmetry_multiplicity
 _atom_site_fract_x
 _atom_site_fract_y
 _atom_site_fract_z
 _atom_site_occupancy
  Dy  Dy0  1  0.352509  0.352544  0.352544  1
  Dy  Dy1  1  0.352509  0.352544  0.942402  1
  Dy  Dy2  1  0.352509  0.942402  0.352544  1
  Y  Y3  1  0.935539  0.564354  0.564354  1
  Y  Y4  1  0.564451  0.935515  0.935515  1
  Y  Y5  1  0.564451  0.935515  0.564518  1
  Y  Y6  1  0.935539  0.564354  0.935753  1
  Y  Y7  1  0.564451  0.564518  0.935515  1
  Y  Y8  1  0.935539  0.935753  0.564354  1
  Er  Er9  1  0.943390  0.352203  0.352203  1
  Er  Er10  1  0.811864  0.188252  0.188252  1
  Er  Er11  1  0.187997  0.812008  0.812008  1
  Er  Er12  1  0.187997  0.812008  0.187987  1
  Er  Er13  1  0.811864  0.188252  0.811631  1
  Er  Er14  1  0.187997  0.187987  0.812008  1
  Er  Er15  1  0.811864  0.811631  0.188252  1
  Cd  Cd16  1  0.582364  0.581651  0.581651  1
  Cd  Cd17  1  0.582364  0.581651  0.254334  1
  Cd  Cd18  1  0.582364  0.254334  0.581651  1
  Cd  Cd19  1  0.254288  0.581904  0.581904  1
  Pt  Pt20  1  0.142134  0.143421  0.143421  1
  Pt  Pt21  1  0.142134  0.143421  0.571024  1
  Pt  Pt22  1  0.142134  0.571024  0.143421  1
  Pt  Pt23  1  0.571746  0.142751  0.142751  1
