# generated using pymatgen
data_Yb(GaCl4)2
_symmetry_space_group_name_H-M   'P 1'
_cell_length_a   7.13426000
_cell_length_b   7.37335626
_cell_length_c   13.52772480
_cell_angle_alpha   87.15637099
_cell_angle_beta   90.00000000
_cell_angle_gamma   90.00000000
_symmetry_Int_Tables_number   1
_chemical_formula_structural   Yb(GaCl4)2
_chemical_formula_sum   'Yb2 Ga4 Cl16'
_cell_volume   710.72863357
_cell_formula_units_Z   2
loop_
 _symmetry_equiv_pos_site_id
 _symmetry_equiv_pos_as_xyz
  1  'x, y, z'
loop_
 _atom_site_type_symbol
 _atom_site_label
 _atom_site_symmetry_multiplicity
 _atom_site_fract_x
 _atom_site_fract_y
 _atom_site_fract_z
 _atom_site_occupancy
  Yb  Yb0  1  0.754013  0.076156  0.816947  1
  Yb  Yb1  1  0.245987  0.076156  0.316947  1
  Ga  Ga2  1  0.934888  0.223610  0.578451  1
  Ga  Ga3  1  0.065112  0.223610  0.078451  1
  Ga  Ga4  1  0.566702  0.639089  0.776541  1
  Ga  Ga5  1  0.433298  0.639089  0.276541  1
  Cl  Cl6  1  0.421504  0.613098  0.639863  1
  Cl  Cl7  1  0.578496  0.613098  0.139863  1
  Cl  Cl8  1  0.863594  0.734948  0.761956  1
  Cl  Cl9  1  0.136406  0.734948  0.261956  1
  Cl  Cl10  1  0.939883  0.476566  0.494352  1
  Cl  Cl11  1  0.060117  0.476566  0.994352  1
  Cl  Cl12  1  0.920964  0.003970  0.999020  1
  Cl  Cl13  1  0.079036  0.003970  0.499020  1
  Cl  Cl14  1  0.646134  0.128635  0.620317  1
  Cl  Cl15  1  0.353866  0.128635  0.120317  1
  Cl  Cl16  1  0.564621  0.381608  0.871627  1
  Cl  Cl17  1  0.435379  0.381608  0.371627  1
  Cl  Cl18  1  0.446328  0.861706  0.864366  1
  Cl  Cl19  1  0.553672  0.861706  0.364366  1
  Cl  Cl20  1  0.933275  0.228013  0.228761  1
  Cl  Cl21  1  0.066725  0.228013  0.728761  1
