# generated using pymatgen
data_Dy5AlRuO12
_symmetry_space_group_name_H-M   'P 1'
_cell_length_a   6.80751882
_cell_length_b   6.80752006
_cell_length_c   7.26858043
_cell_angle_alpha   74.48273477
_cell_angle_beta   74.48272388
_cell_angle_gamma   50.59197502
_symmetry_Int_Tables_number   1
_chemical_formula_structural   Dy5AlRuO12
_chemical_formula_sum   'Dy5 Al1 Ru1 O12'
_cell_volume   248.60496843
_cell_formula_units_Z   1
loop_
 _symmetry_equiv_pos_site_id
 _symmetry_equiv_pos_as_xyz
  1  'x, y, z'
loop_
 _atom_site_type_symbol
 _atom_site_label
 _atom_site_symmetry_multiplicity
 _atom_site_fract_x
 _atom_site_fract_y
 _atom_site_fract_z
 _atom_site_occupancy
  Dy  Dy0  1  0.692379  0.691531  0.667967  1
  Dy  Dy1  1  0.685108  0.707195  0.141453  1
  Dy  Dy2  1  0.997068  0.002932  0.000000  1
  Dy  Dy3  1  0.292805  0.314892  0.858547  1
  Dy  Dy4  1  0.308469  0.307621  0.332033  1
  Al  Al5  1  0.254362  0.745638  0.500000  1
  Ru  Ru6  1  0.764664  0.235336  0.500000  1
  O  O7  1  0.399510  0.908915  0.922769  1
  O  O8  1  0.576469  0.098902  0.582211  1
  O  O9  1  0.901098  0.423531  0.417789  1
  O  O10  1  0.091085  0.600490  0.077231  1
  O  O11  1  0.007395  0.992833  0.321801  1
  O  O12  1  0.503972  0.496859  0.680442  1
  O  O13  1  0.898206  0.404370  0.926983  1
  O  O14  1  0.100550  0.579078  0.580491  1
  O  O15  1  0.420922  0.899450  0.419509  1
  O  O16  1  0.595630  0.101794  0.073017  1
  O  O17  1  0.503141  0.496028  0.319558  1
  O  O18  1  0.007167  0.992605  0.678199  1
