# generated using pymatgen
data_La2Tb3DyIrBr10
_symmetry_space_group_name_H-M   'P 1'
_cell_length_a   7.52122081
_cell_length_b   9.45212317
_cell_length_c   9.44390733
_cell_angle_alpha   109.56428502
_cell_angle_beta   96.85559995
_cell_angle_gamma   104.20191823
_symmetry_Int_Tables_number   1
_chemical_formula_structural   La2Tb3DyIrBr10
_chemical_formula_sum   'La2 Tb3 Dy1 Ir1 Br10'
_cell_volume   598.17510359
_cell_formula_units_Z   1
loop_
 _symmetry_equiv_pos_site_id
 _symmetry_equiv_pos_as_xyz
  1  'x, y, z'
loop_
 _atom_site_type_symbol
 _atom_site_label
 _atom_site_symmetry_multiplicity
 _atom_site_fract_x
 _atom_site_fract_y
 _atom_site_fract_z
 _atom_site_occupancy
  La  La0  1  0.969230  0.296945  0.098866  1
  La  La1  1  0.030253  0.702857  0.900708  1
  Tb  Tb2  1  0.362111  0.131893  0.183834  1
  Tb  Tb3  1  0.124480  0.043196  0.749201  1
  Tb  Tb4  1  0.874816  0.956453  0.250537  1
  Dy  Dy5  1  0.638848  0.868471  0.816726  1
  Ir  Ir6  1  0.999965  0.999951  0.000032  1
  Br  Br7  1  0.538198  0.169458  0.916512  1
  Br  Br8  1  0.461769  0.829459  0.082374  1
  Br  Br9  1  0.752505  0.916494  0.544086  1
  Br  Br10  1  0.246619  0.083139  0.456412  1
  Br  Br11  1  0.093711  0.359924  0.821729  1
  Br  Br12  1  0.906365  0.640110  0.178289  1
  Br  Br13  1  0.225869  0.752604  0.643221  1
  Br  Br14  1  0.775949  0.247902  0.357595  1
  Br  Br15  1  0.629418  0.553571  0.725633  1
  Br  Br16  1  0.369894  0.447575  0.274244  1
