# generated using pymatgen
data_La10Nd2AlGa7Rh8
_symmetry_space_group_name_H-M   'P 1'
_cell_length_a   5.77191204
_cell_length_b   8.36635808
_cell_length_c   13.71877814
_cell_angle_alpha   90.01564610
_cell_angle_beta   90.00421839
_cell_angle_gamma   90.30974365
_symmetry_Int_Tables_number   1
_chemical_formula_structural   La10Nd2AlGa7Rh8
_chemical_formula_sum   'La10 Nd2 Al1 Ga7 Rh8'
_cell_volume   662.46848337
_cell_formula_units_Z   1
loop_
 _symmetry_equiv_pos_site_id
 _symmetry_equiv_pos_as_xyz
  1  'x, y, z'
loop_
 _atom_site_type_symbol
 _atom_site_label
 _atom_site_symmetry_multiplicity
 _atom_site_fract_x
 _atom_site_fract_y
 _atom_site_fract_z
 _atom_site_occupancy
  La  La0  1  0.364075  0.762566  0.250894  1
  La  La1  1  0.635310  0.238124  0.748812  1
  La  La2  1  0.149686  0.404346  0.096689  1
  La  La3  1  0.850233  0.598768  0.903851  1
  La  La4  1  0.847899  0.597922  0.595855  1
  La  La5  1  0.849248  0.901467  0.404081  1
  La  La6  1  0.151960  0.402383  0.404471  1
  La  La7  1  0.150772  0.098621  0.595417  1
  La  La8  1  0.148377  0.096787  0.903033  1
  La  La9  1  0.851766  0.900308  0.096189  1
  Nd  Nd10  1  0.638276  0.258647  0.251024  1
  Nd  Nd11  1  0.361181  0.740843  0.749204  1
  Al  Al12  1  0.619973  0.249664  0.001607  1
  Ga  Ga13  1  0.141321  0.115683  0.250013  1
  Ga  Ga14  1  0.857704  0.885063  0.749545  1
  Ga  Ga15  1  0.858173  0.608958  0.250493  1
  Ga  Ga16  1  0.140485  0.390812  0.750116  1
  Ga  Ga17  1  0.371913  0.750017  0.998361  1
  Ga  Ga18  1  0.368983  0.750272  0.501645  1
  Ga  Ga19  1  0.630822  0.249873  0.498325  1
  Rh  Rh20  1  0.360864  0.030282  0.091237  1
  Rh  Rh21  1  0.644101  0.975598  0.910045  1
  Rh  Rh22  1  0.641558  0.971204  0.591077  1
  Rh  Rh23  1  0.637928  0.529935  0.408959  1
  Rh  Rh24  1  0.359281  0.027895  0.408524  1
  Rh  Rh25  1  0.362394  0.470136  0.591464  1
  Rh  Rh26  1  0.363618  0.467939  0.908990  1
  Rh  Rh27  1  0.642098  0.525890  0.090078  1
