# generated using pymatgen
data_Tm12Si12Ru3Rh
_symmetry_space_group_name_H-M   'P 1'
_cell_length_a   4.15829200
_cell_length_b   10.59730933
_cell_length_c   12.21015506
_cell_angle_alpha   90.07036033
_cell_angle_beta   90.00000000
_cell_angle_gamma   90.00000000
_symmetry_Int_Tables_number   1
_chemical_formula_structural   Tm12Si12Ru3Rh
_chemical_formula_sum   'Tm12 Si12 Ru3 Rh1'
_cell_volume   538.06091501
_cell_formula_units_Z   1
loop_
 _symmetry_equiv_pos_site_id
 _symmetry_equiv_pos_as_xyz
  1  'x, y, z'
loop_
 _atom_site_type_symbol
 _atom_site_label
 _atom_site_symmetry_multiplicity
 _atom_site_fract_x
 _atom_site_fract_y
 _atom_site_fract_z
 _atom_site_occupancy
  Tm  Tm0  1  0.250000  0.880054  0.020992  1
  Tm  Tm1  1  0.250000  0.620744  0.520718  1
  Tm  Tm2  1  0.750000  0.120632  0.980077  1
  Tm  Tm3  1  0.750000  0.380437  0.478902  1
  Tm  Tm4  1  0.250000  0.920837  0.604894  1
  Tm  Tm5  1  0.250000  0.578680  0.104604  1
  Tm  Tm6  1  0.750000  0.078567  0.395982  1
  Tm  Tm7  1  0.750000  0.420879  0.894932  1
  Tm  Tm8  1  0.250000  0.662274  0.799698  1
  Tm  Tm9  1  0.250000  0.836706  0.299454  1
  Tm  Tm10  1  0.750000  0.337169  0.200223  1
  Tm  Tm11  1  0.750000  0.161875  0.699274  1
  Si  Si12  1  0.250000  0.014224  0.823043  1
  Si  Si13  1  0.250000  0.487774  0.321411  1
  Si  Si14  1  0.750000  0.987972  0.178718  1
  Si  Si15  1  0.750000  0.511781  0.678326  1
  Si  Si16  1  0.250000  0.249625  0.841080  1
  Si  Si17  1  0.250000  0.249784  0.341830  1
  Si  Si18  1  0.750000  0.749781  0.158004  1
  Si  Si19  1  0.750000  0.749280  0.657334  1
  Si  Si20  1  0.250000  0.200883  0.543031  1
  Si  Si21  1  0.250000  0.300355  0.043227  1
  Si  Si22  1  0.750000  0.801164  0.456586  1
  Si  Si23  1  0.750000  0.697674  0.957522  1
  Ru  Ru24  1  0.250000  0.390637  0.680531  1
  Ru  Ru25  1  0.250000  0.109240  0.180526  1
  Ru  Ru26  1  0.750000  0.610131  0.319453  1
  Rh  Rh27  1  0.750000  0.890841  0.819625  1
