# generated using pymatgen
data_Pr2(SeO4)3
_symmetry_space_group_name_H-M   'P 1'
_cell_length_a   10.35220582
_cell_length_b   10.35220589
_cell_length_c   10.35220621
_cell_angle_alpha   57.82678003
_cell_angle_beta   57.82677832
_cell_angle_gamma   57.82677396
_symmetry_Int_Tables_number   1
_chemical_formula_structural   Pr2(SeO4)3
_chemical_formula_sum   'Pr4 Se6 O24'
_cell_volume   745.33959520
_cell_formula_units_Z   2
loop_
 _symmetry_equiv_pos_site_id
 _symmetry_equiv_pos_as_xyz
  1  'x, y, z'
loop_
 _atom_site_type_symbol
 _atom_site_label
 _atom_site_symmetry_multiplicity
 _atom_site_fract_x
 _atom_site_fract_y
 _atom_site_fract_z
 _atom_site_occupancy
  Pr  Pr0  1  0.644053  0.644053  0.644053  1
  Pr  Pr1  1  0.144053  0.144053  0.144053  1
  Pr  Pr2  1  0.855947  0.855947  0.855947  1
  Pr  Pr3  1  0.355947  0.355947  0.355947  1
  Se  Se4  1  0.250000  0.537040  0.962960  1
  Se  Se5  1  0.462960  0.037040  0.750000  1
  Se  Se6  1  0.037040  0.750000  0.462960  1
  Se  Se7  1  0.962960  0.250000  0.537040  1
  Se  Se8  1  0.537040  0.962960  0.250000  1
  Se  Se9  1  0.750000  0.462960  0.037040  1
  O  O10  1  0.008100  0.773848  0.624444  1
  O  O11  1  0.773848  0.624444  0.008100  1
  O  O12  1  0.412876  0.564592  0.798081  1
  O  O13  1  0.273848  0.508100  0.124444  1
  O  O14  1  0.624444  0.008100  0.773848  1
  O  O15  1  0.491900  0.875556  0.726152  1
  O  O16  1  0.201919  0.587124  0.435408  1
  O  O17  1  0.087124  0.701919  0.935408  1
  O  O18  1  0.298081  0.064592  0.912876  1
  O  O19  1  0.435408  0.201919  0.587124  1
  O  O20  1  0.064592  0.912876  0.298081  1
  O  O21  1  0.875556  0.726152  0.491900  1
  O  O22  1  0.124444  0.273848  0.508100  1
  O  O23  1  0.935408  0.087124  0.701919  1
  O  O24  1  0.564592  0.798081  0.412876  1
  O  O25  1  0.701919  0.935408  0.087124  1
  O  O26  1  0.912876  0.298081  0.064592  1
  O  O27  1  0.798081  0.412876  0.564592  1
  O  O28  1  0.508100  0.124444  0.273848  1
  O  O29  1  0.375556  0.991900  0.226152  1
  O  O30  1  0.726152  0.491900  0.875556  1
  O  O31  1  0.587124  0.435408  0.201919  1
  O  O32  1  0.226152  0.375556  0.991900  1
  O  O33  1  0.991900  0.226152  0.375556  1
