# generated using pymatgen
data_Hf9MnZnRe3
_symmetry_space_group_name_H-M   'P 1'
_cell_length_a   8.56810900
_cell_length_b   8.56810820
_cell_length_c   8.56078000
_cell_angle_alpha   90.00000000
_cell_angle_beta   90.00000000
_cell_angle_gamma   119.99999150
_symmetry_Int_Tables_number   1
_chemical_formula_structural   Hf9MnZnRe3
_chemical_formula_sum   'Hf18 Mn2 Zn2 Re6'
_cell_volume   544.26941548
_cell_formula_units_Z   2
loop_
 _symmetry_equiv_pos_site_id
 _symmetry_equiv_pos_as_xyz
  1  'x, y, z'
loop_
 _atom_site_type_symbol
 _atom_site_label
 _atom_site_symmetry_multiplicity
 _atom_site_fract_x
 _atom_site_fract_y
 _atom_site_fract_z
 _atom_site_occupancy
  Hf  Hf0  1  0.192038  0.807962  0.449346  1
  Hf  Hf1  1  0.192038  0.384076  0.449346  1
  Hf  Hf2  1  0.615924  0.807962  0.449346  1
  Hf  Hf3  1  0.807962  0.192038  0.550654  1
  Hf  Hf4  1  0.807962  0.615924  0.550654  1
  Hf  Hf5  1  0.384076  0.192038  0.550654  1
  Hf  Hf6  1  0.807962  0.192038  0.949346  1
  Hf  Hf7  1  0.807962  0.615924  0.949346  1
  Hf  Hf8  1  0.384076  0.192038  0.949346  1
  Hf  Hf9  1  0.192038  0.807962  0.050654  1
  Hf  Hf10  1  0.192038  0.384076  0.050654  1
  Hf  Hf11  1  0.615924  0.807962  0.050654  1
  Hf  Hf12  1  0.541148  0.458852  0.250000  1
  Hf  Hf13  1  0.541148  0.082296  0.250000  1
  Hf  Hf14  1  0.917704  0.458852  0.250000  1
  Hf  Hf15  1  0.458852  0.541148  0.750000  1
  Hf  Hf16  1  0.458852  0.917704  0.750000  1
  Hf  Hf17  1  0.082296  0.541148  0.750000  1
  Mn  Mn18  1  0.000000  0.000000  0.500000  1
  Mn  Mn19  1  0.000000  0.000000  0.000000  1
  Zn  Zn20  1  0.333333  0.666667  0.250000  1
  Zn  Zn21  1  0.666667  0.333333  0.750000  1
  Re  Re22  1  0.892350  0.107650  0.250000  1
  Re  Re23  1  0.892350  0.784702  0.250000  1
  Re  Re24  1  0.215298  0.107650  0.250000  1
  Re  Re25  1  0.107650  0.892350  0.750000  1
  Re  Re26  1  0.107650  0.215298  0.750000  1
  Re  Re27  1  0.784702  0.892350  0.750000  1
