# generated using pymatgen
data_HoTm3Sc6(In2Rh)4
_symmetry_space_group_name_H-M   'P 1'
_cell_length_a   3.48580300
_cell_length_b   7.78869592
_cell_length_c   17.76148034
_cell_angle_alpha   90.08027388
_cell_angle_beta   90.00000000
_cell_angle_gamma   90.00000000
_symmetry_Int_Tables_number   1
_chemical_formula_structural   HoTm3Sc6(In2Rh)4
_chemical_formula_sum   'Ho1 Tm3 Sc6 In8 Rh4'
_cell_volume   482.22122425
_cell_formula_units_Z   1
loop_
 _symmetry_equiv_pos_site_id
 _symmetry_equiv_pos_as_xyz
  1  'x, y, z'
loop_
 _atom_site_type_symbol
 _atom_site_label
 _atom_site_symmetry_multiplicity
 _atom_site_fract_x
 _atom_site_fract_y
 _atom_site_fract_z
 _atom_site_occupancy
  Ho  Ho0  1  0.000000  0.748786  0.781203  1
  Tm  Tm1  1  0.000000  0.251041  0.219011  1
  Tm  Tm2  1  0.000000  0.249168  0.718780  1
  Tm  Tm3  1  0.000000  0.751313  0.281043  1
  Sc  Sc4  1  0.000000  0.999601  0.000120  1
  Sc  Sc5  1  0.000000  0.500184  0.499740  1
  Sc  Sc6  1  0.000000  0.879889  0.586795  1
  Sc  Sc7  1  0.000000  0.120980  0.412780  1
  Sc  Sc8  1  0.000000  0.378788  0.913343  1
  Sc  Sc9  1  0.000000  0.620266  0.087335  1
  In  In10  1  0.500000  0.799234  0.439171  1
  In  In11  1  0.500000  0.201283  0.560487  1
  In  In12  1  0.500000  0.298572  0.061069  1
  In  In13  1  0.500000  0.700462  0.939728  1
  In  In14  1  0.500000  0.926645  0.146099  1
  In  In15  1  0.500000  0.074192  0.854257  1
  In  In16  1  0.500000  0.427745  0.353690  1
  In  In17  1  0.500000  0.572560  0.645496  1
  Rh  Rh18  1  0.500000  0.966100  0.691993  1
  Rh  Rh19  1  0.500000  0.035756  0.307301  1
  Rh  Rh20  1  0.500000  0.461946  0.807555  1
  Rh  Rh21  1  0.500000  0.535487  0.193006  1
