# generated using pymatgen
data_CaHo2PaN4
_symmetry_space_group_name_H-M   'P 1'
_cell_length_a   6.04030782
_cell_length_b   6.04031196
_cell_length_c   4.86004400
_cell_angle_alpha   66.27784968
_cell_angle_beta   66.27794640
_cell_angle_gamma   47.44418906
_symmetry_Int_Tables_number   1
_chemical_formula_structural   CaHo2PaN4
_chemical_formula_sum   'Ca1 Ho2 Pa1 N4'
_cell_volume   117.33074645
_cell_formula_units_Z   1
loop_
 _symmetry_equiv_pos_site_id
 _symmetry_equiv_pos_as_xyz
  1  'x, y, z'
loop_
 _atom_site_type_symbol
 _atom_site_label
 _atom_site_symmetry_multiplicity
 _atom_site_fract_x
 _atom_site_fract_y
 _atom_site_fract_z
 _atom_site_occupancy
  Ca  Ca0  1  0.497163  0.502857  0.502837  1
  Ho  Ho1  1  0.746845  0.753148  0.752790  1
  Ho  Ho2  1  0.247210  0.252783  0.253155  1
  Pa  Pa3  1  0.997057  0.002941  0.002943  1
  N  N4  1  0.997168  0.002835  0.504016  1
  N  N5  1  0.225450  0.230264  0.774550  1
  N  N6  1  0.495984  0.504019  0.002832  1
  N  N7  1  0.769057  0.775217  0.230943  1
