# generated using pymatgen
data_LaYbCe2(Zn4Ru)2
_symmetry_space_group_name_H-M   'P 1'
_cell_length_a   7.20499600
_cell_length_b   7.20499600
_cell_length_c   5.15830300
_cell_angle_alpha   90.00000000
_cell_angle_beta   90.00000000
_cell_angle_gamma   90.00000000
_symmetry_Int_Tables_number   1
_chemical_formula_structural   LaYbCe2(Zn4Ru)2
_chemical_formula_sum   'La1 Yb1 Ce2 Zn8 Ru2'
_cell_volume   267.77765697
_cell_formula_units_Z   1
loop_
 _symmetry_equiv_pos_site_id
 _symmetry_equiv_pos_as_xyz
  1  'x, y, z'
loop_
 _atom_site_type_symbol
 _atom_site_label
 _atom_site_symmetry_multiplicity
 _atom_site_fract_x
 _atom_site_fract_y
 _atom_site_fract_z
 _atom_site_occupancy
  La  La0  1  0.000000  0.500000  0.772217  1
  Yb  Yb1  1  0.500000  0.000000  0.227784  1
  Ce  Ce2  1  0.000000  0.000000  0.002747  1
  Ce  Ce3  1  0.500000  0.500000  0.002747  1
  Zn  Zn4  1  0.188759  0.688759  0.288117  1
  Zn  Zn5  1  0.811241  0.688759  0.288117  1
  Zn  Zn6  1  0.811241  0.311241  0.288117  1
  Zn  Zn7  1  0.317073  0.182927  0.708945  1
  Zn  Zn8  1  0.188759  0.311241  0.288117  1
  Zn  Zn9  1  0.682927  0.182927  0.708945  1
  Zn  Zn10  1  0.682927  0.817073  0.708945  1
  Zn  Zn11  1  0.317073  0.817073  0.708945  1
  Ru  Ru12  1  0.500000  0.500000  0.503128  1
  Ru  Ru13  1  0.000000  0.000000  0.503128  1
