# generated using pymatgen
data_GdDySi2O7
_symmetry_space_group_name_H-M   'P 1'
_cell_length_a   5.74695977
_cell_length_b   5.74695980
_cell_length_c   4.78989019
_cell_angle_alpha   82.93390913
_cell_angle_beta   82.93390028
_cell_angle_gamma   105.35301939
_symmetry_Int_Tables_number   1
_chemical_formula_structural   GdDySi2O7
_chemical_formula_sum   'Gd1 Dy1 Si2 O7'
_cell_volume   149.37985732
_cell_formula_units_Z   1
loop_
 _symmetry_equiv_pos_site_id
 _symmetry_equiv_pos_as_xyz
  1  'x, y, z'
loop_
 _atom_site_type_symbol
 _atom_site_label
 _atom_site_symmetry_multiplicity
 _atom_site_fract_x
 _atom_site_fract_y
 _atom_site_fract_z
 _atom_site_occupancy
  Gd  Gd0  1  0.304005  0.695995  0.500000  1
  Dy  Dy1  1  0.690367  0.309633  0.500000  1
  Si  Si2  1  0.217097  0.216345  0.087917  1
  Si  Si3  1  0.783655  0.782903  0.912083  1
  O  O4  1  0.376688  0.379607  0.786602  1
  O  O5  1  0.620393  0.623312  0.213398  1
  O  O6  1  0.012137  0.987863  0.000000  1
  O  O7  1  0.079097  0.377200  0.276509  1
  O  O8  1  0.388050  0.094289  0.278694  1
  O  O9  1  0.905711  0.611950  0.721306  1
  O  O10  1  0.622800  0.920903  0.723491  1
