# generated using pymatgen
data_Tb3Dy2Zr3(P3Ir4)4
_symmetry_space_group_name_H-M   'P 1'
_cell_length_a   12.89296101
_cell_length_b   12.89222357
_cell_length_c   3.99063500
_cell_angle_alpha   90.00000000
_cell_angle_beta   90.00000000
_cell_angle_gamma   119.99810797
_symmetry_Int_Tables_number   1
_chemical_formula_structural   Tb3Dy2Zr3(P3Ir4)4
_chemical_formula_sum   'Tb3 Dy2 Zr3 P12 Ir16'
_cell_volume   574.46214566
_cell_formula_units_Z   1
loop_
 _symmetry_equiv_pos_site_id
 _symmetry_equiv_pos_as_xyz
  1  'x, y, z'
loop_
 _atom_site_type_symbol
 _atom_site_label
 _atom_site_symmetry_multiplicity
 _atom_site_fract_x
 _atom_site_fract_y
 _atom_site_fract_z
 _atom_site_occupancy
  Tb  Tb0  1  0.333334  0.666668  0.500000  1
  Tb  Tb1  1  0.666666  0.333333  0.500000  1
  Tb  Tb2  1  0.000000  0.815024  0.000000  1
  Dy  Dy3  1  0.185014  0.185012  0.000000  1
  Dy  Dy4  1  0.814986  0.999998  0.000000  1
  Zr  Zr5  1  0.000000  0.449142  0.500000  1
  Zr  Zr6  1  0.550815  0.550812  0.500000  1
  Zr  Zr7  1  0.449185  0.999997  0.500000  1
  P  P8  1  0.000000  0.649102  0.500000  1
  P  P9  1  0.350709  0.350712  0.500000  1
  P  P10  1  0.649291  0.000003  0.500000  1
  P  P11  1  0.517311  0.686535  0.000000  1
  P  P12  1  0.313444  0.830788  0.000000  1
  P  P13  1  0.169227  0.482673  0.000000  1
  P  P14  1  0.482689  0.169224  0.000000  1
  P  P15  1  0.686556  0.517344  0.000000  1
  P  P16  1  0.830773  0.313446  0.000000  1
  P  P17  1  0.000000  0.176110  0.500000  1
  P  P18  1  0.823815  0.823917  0.500000  1
  P  P19  1  0.176185  0.000103  0.500000  1
  Ir  Ir20  1  0.507883  0.864157  0.000000  1
  Ir  Ir21  1  0.135831  0.643714  0.000000  1
  Ir  Ir22  1  0.356259  0.492108  0.000000  1
  Ir  Ir23  1  0.492117  0.356272  0.000000  1
  Ir  Ir24  1  0.864169  0.507882  0.000000  1
  Ir  Ir25  1  0.643741  0.135848  0.000000  1
  Ir  Ir26  1  0.000000  0.278733  0.000000  1
  Ir  Ir27  1  0.721121  0.721225  0.000000  1
  Ir  Ir28  1  0.278879  0.000103  0.000000  1
  Ir  Ir29  1  0.629048  0.807157  0.500000  1
  Ir  Ir30  1  0.193107  0.821914  0.500000  1
  Ir  Ir31  1  0.178095  0.370947  0.500000  1
  Ir  Ir32  1  0.370952  0.178109  0.500000  1
  Ir  Ir33  1  0.806893  0.628807  0.500000  1
  Ir  Ir34  1  0.821905  0.192853  0.500000  1
  Ir  Ir35  1  0.000000  0.000229  0.500000  1
