# generated using pymatgen
data_Np(Sb3Ru)4
_symmetry_space_group_name_H-M   'P 1'
_cell_length_a   8.11346063
_cell_length_b   8.11346077
_cell_length_c   8.11346100
_cell_angle_alpha   109.47122120
_cell_angle_beta   109.47122155
_cell_angle_gamma   109.47121937
_symmetry_Int_Tables_number   1
_chemical_formula_structural   Np(Sb3Ru)4
_chemical_formula_sum   'Np1 Sb12 Ru4'
_cell_volume   411.14644081
_cell_formula_units_Z   1
loop_
 _symmetry_equiv_pos_site_id
 _symmetry_equiv_pos_as_xyz
  1  'x, y, z'
loop_
 _atom_site_type_symbol
 _atom_site_label
 _atom_site_symmetry_multiplicity
 _atom_site_fract_x
 _atom_site_fract_y
 _atom_site_fract_z
 _atom_site_occupancy
  Np  Np0  1  0.000000  0.000000  0.000000  1
  Sb  Sb1  1  0.337669  0.180209  0.842539  1
  Sb  Sb2  1  0.662330  0.819791  0.157461  1
  Sb  Sb3  1  0.662330  0.504871  0.842539  1
  Sb  Sb4  1  0.337670  0.495129  0.157461  1
  Sb  Sb5  1  0.180209  0.842539  0.337670  1
  Sb  Sb6  1  0.819791  0.157461  0.662331  1
  Sb  Sb7  1  0.504871  0.842539  0.662331  1
  Sb  Sb8  1  0.495129  0.157461  0.337670  1
  Sb  Sb9  1  0.842539  0.337669  0.180209  1
  Sb  Sb10  1  0.157461  0.662330  0.819791  1
  Sb  Sb11  1  0.842539  0.662330  0.504871  1
  Sb  Sb12  1  0.157461  0.337670  0.495129  1
  Ru  Ru13  1  0.000000  0.000000  0.500000  1
  Ru  Ru14  1  0.500000  0.000000  0.000000  1
  Ru  Ru15  1  0.000000  0.500000  0.000000  1
  Ru  Ru16  1  0.500000  0.500000  0.500000  1
