# generated using pymatgen
data_Cs2Lu(SbSe2)5
_symmetry_space_group_name_H-M   'P 1'
_cell_length_a   4.10112800
_cell_length_b   12.33011400
_cell_length_c   22.90938800
_cell_angle_alpha   90.00000000
_cell_angle_beta   90.00000000
_cell_angle_gamma   90.00000000
_symmetry_Int_Tables_number   1
_chemical_formula_structural   Cs2Lu(SbSe2)5
_chemical_formula_sum   'Cs4 Lu2 Sb10 Se20'
_cell_volume   1158.46763162
_cell_formula_units_Z   2
loop_
 _symmetry_equiv_pos_site_id
 _symmetry_equiv_pos_as_xyz
  1  'x, y, z'
loop_
 _atom_site_type_symbol
 _atom_site_label
 _atom_site_symmetry_multiplicity
 _atom_site_fract_x
 _atom_site_fract_y
 _atom_site_fract_z
 _atom_site_occupancy
  Cs  Cs0  1  0.250000  0.990321  0.288250  1
  Cs  Cs1  1  0.750000  0.490151  0.212357  1
  Cs  Cs2  1  0.750000  0.009849  0.712357  1
  Cs  Cs3  1  0.250000  0.509679  0.788250  1
  Lu  Lu4  1  0.750000  0.362491  0.022994  1
  Lu  Lu5  1  0.750000  0.137509  0.522994  1
  Sb  Sb6  1  0.750000  0.808980  0.120041  1
  Sb  Sb7  1  0.250000  0.405568  0.570718  1
  Sb  Sb8  1  0.250000  0.191452  0.879911  1
  Sb  Sb9  1  0.750000  0.595755  0.429197  1
  Sb  Sb10  1  0.250000  0.094432  0.070718  1
  Sb  Sb11  1  0.250000  0.632657  0.977372  1
  Sb  Sb12  1  0.250000  0.308548  0.379911  1
  Sb  Sb13  1  0.250000  0.867343  0.477372  1
  Sb  Sb14  1  0.750000  0.904245  0.929197  1
  Sb  Sb15  1  0.750000  0.691020  0.620041  1
  Se  Se16  1  0.250000  0.747540  0.693873  1
  Se  Se17  1  0.750000  0.146189  0.982769  1
  Se  Se18  1  0.250000  0.305527  0.104626  1
  Se  Se19  1  0.750000  0.579670  0.059345  1
  Se  Se20  1  0.250000  0.084838  0.442560  1
  Se  Se21  1  0.750000  0.920330  0.559345  1
  Se  Se22  1  0.250000  0.415162  0.942560  1
  Se  Se23  1  0.250000  0.860251  0.018799  1
  Se  Se24  1  0.750000  0.353811  0.482769  1
  Se  Se25  1  0.750000  0.246945  0.806320  1
  Se  Se26  1  0.250000  0.524327  0.348264  1
  Se  Se27  1  0.250000  0.975673  0.848264  1
  Se  Se28  1  0.750000  0.800660  0.390937  1
  Se  Se29  1  0.750000  0.474363  0.651665  1
  Se  Se30  1  0.250000  0.194473  0.604626  1
  Se  Se31  1  0.250000  0.752460  0.193873  1
  Se  Se32  1  0.750000  0.025637  0.151665  1
  Se  Se33  1  0.750000  0.253055  0.306320  1
  Se  Se34  1  0.750000  0.699340  0.890937  1
  Se  Se35  1  0.250000  0.639749  0.518799  1
