# generated using pymatgen
data_LiPa4Re3B16
_symmetry_space_group_name_H-M   'P 1'
_cell_length_a   3.66531900
_cell_length_b   5.95269099
_cell_length_c   11.52362718
_cell_angle_alpha   89.75134685
_cell_angle_beta   90.00000000
_cell_angle_gamma   90.00000000
_symmetry_Int_Tables_number   1
_chemical_formula_structural   LiPa4Re3B16
_chemical_formula_sum   'Li1 Pa4 Re3 B16'
_cell_volume   251.42602306
_cell_formula_units_Z   1
loop_
 _symmetry_equiv_pos_site_id
 _symmetry_equiv_pos_as_xyz
  1  'x, y, z'
loop_
 _atom_site_type_symbol
 _atom_site_label
 _atom_site_symmetry_multiplicity
 _atom_site_fract_x
 _atom_site_fract_y
 _atom_site_fract_z
 _atom_site_occupancy
  Li  Li0  1  0.000000  0.635284  0.409804  1
  Pa  Pa1  1  0.000000  0.626740  0.154669  1
  Pa  Pa2  1  0.000000  0.371305  0.848890  1
  Pa  Pa3  1  0.000000  0.127672  0.350853  1
  Pa  Pa4  1  0.000000  0.872905  0.646656  1
  Re  Re5  1  0.000000  0.372143  0.588043  1
  Re  Re6  1  0.000000  0.139339  0.089806  1
  Re  Re7  1  0.000000  0.858411  0.904949  1
  B  B8  1  0.500000  0.972962  0.193999  1
  B  B9  1  0.500000  0.027360  0.807923  1
  B  B10  1  0.500000  0.474755  0.308196  1
  B  B11  1  0.500000  0.523556  0.690773  1
  B  B12  1  0.500000  0.786651  0.314650  1
  B  B13  1  0.500000  0.213114  0.685048  1
  B  B14  1  0.500000  0.286911  0.188802  1
  B  B15  1  0.500000  0.711096  0.812175  1
  B  B16  1  0.500000  0.867609  0.468111  1
  B  B17  1  0.500000  0.135425  0.531895  1
  B  B18  1  0.500000  0.364459  0.033254  1
  B  B19  1  0.500000  0.635015  0.968725  1
  B  B20  1  0.500000  0.886090  0.047675  1
  B  B21  1  0.500000  0.113215  0.954355  1
  B  B22  1  0.500000  0.386005  0.454484  1
  B  B23  1  0.500000  0.611980  0.546266  1
