# generated using pymatgen
data_ErU7O16
_symmetry_space_group_name_H-M   'P 1'
_cell_length_a   10.80729714
_cell_length_b   5.40088409
_cell_length_c   5.40013506
_cell_angle_alpha   89.98503477
_cell_angle_beta   89.92999214
_cell_angle_gamma   90.01599408
_symmetry_Int_Tables_number   1
_chemical_formula_structural   ErU7O16
_chemical_formula_sum   'Er1 U7 O16'
_cell_volume   315.20000420
_cell_formula_units_Z   1
loop_
 _symmetry_equiv_pos_site_id
 _symmetry_equiv_pos_as_xyz
  1  'x, y, z'
loop_
 _atom_site_type_symbol
 _atom_site_label
 _atom_site_symmetry_multiplicity
 _atom_site_fract_x
 _atom_site_fract_y
 _atom_site_fract_z
 _atom_site_occupancy
  Er  Er0  1  0.125124  0.500005  0.246992  1
  U  U1  1  0.371843  0.999962  0.247621  1
  U  U2  1  0.878176  0.000020  0.252201  1
  U  U3  1  0.625041  0.500005  0.252676  1
  U  U4  1  0.372374  0.499990  0.747403  1
  U  U5  1  0.124916  0.999989  0.747474  1
  U  U6  1  0.625008  0.999991  0.752745  1
  U  U7  1  0.877625  0.500020  0.752561  1
  O  O8  1  0.998928  0.248333  0.998656  1
  O  O9  1  0.499453  0.750103  0.999742  1
  O  O10  1  0.750199  0.750352  0.004123  1
  O  O11  1  0.750216  0.249656  0.004095  1
  O  O12  1  0.250991  0.248564  0.496522  1
  O  O13  1  0.251010  0.751378  0.496489  1
  O  O14  1  0.999401  0.750822  0.501181  1
  O  O15  1  0.499959  0.249299  0.500761  1
  O  O16  1  0.499961  0.750716  0.500866  1
  O  O17  1  0.999389  0.249213  0.501199  1
  O  O18  1  0.750582  0.249580  0.505249  1
  O  O19  1  0.750631  0.750472  0.505202  1
  O  O20  1  0.250407  0.751213  0.993987  1
  O  O21  1  0.250387  0.248714  0.993965  1
  O  O22  1  0.499423  0.249835  0.999707  1
  O  O23  1  0.998958  0.751766  0.998586  1
