# generated using pymatgen
data_DyU2(SnRh)3
_symmetry_space_group_name_H-M   'P 1'
_cell_length_a   7.46828770
_cell_length_b   7.32780537
_cell_length_c   4.00854000
_cell_angle_alpha   90.00000000
_cell_angle_beta   90.00000000
_cell_angle_gamma   119.37967214
_symmetry_Int_Tables_number   1
_chemical_formula_structural   DyU2(SnRh)3
_chemical_formula_sum   'Dy1 U2 Sn3 Rh3'
_cell_volume   191.15810817
_cell_formula_units_Z   1
loop_
 _symmetry_equiv_pos_site_id
 _symmetry_equiv_pos_as_xyz
  1  'x, y, z'
loop_
 _atom_site_type_symbol
 _atom_site_label
 _atom_site_symmetry_multiplicity
 _atom_site_fract_x
 _atom_site_fract_y
 _atom_site_fract_z
 _atom_site_occupancy
  Dy  Dy0  1  0.000000  0.589611  0.500000  1
  U  U1  1  0.416888  0.415693  0.500000  1
  U  U2  1  0.583112  0.998805  0.500000  1
  Sn  Sn3  1  0.753010  0.746015  0.000000  1
  Sn  Sn4  1  0.246990  0.993005  0.000000  1
  Sn  Sn5  1  0.000000  0.261714  0.000000  1
  Rh  Rh6  1  0.648500  0.317615  0.000000  1
  Rh  Rh7  1  0.351500  0.669116  0.000000  1
  Rh  Rh8  1  0.000000  0.008425  0.500000  1
