# generated using pymatgen
data_Er5Tm5Cd3Co
_symmetry_space_group_name_H-M   'P 1'
_cell_length_a   9.46423800
_cell_length_b   9.46411920
_cell_length_c   9.62731800
_cell_angle_alpha   90.00000185
_cell_angle_beta   90.00072032
_cell_angle_gamma   119.99957808
_symmetry_Int_Tables_number   1
_chemical_formula_structural   Er5Tm5Cd3Co
_chemical_formula_sum   'Er10 Tm10 Cd6 Co2'
_cell_volume   746.79886644
_cell_formula_units_Z   2
loop_
 _symmetry_equiv_pos_site_id
 _symmetry_equiv_pos_as_xyz
  1  'x, y, z'
loop_
 _atom_site_type_symbol
 _atom_site_label
 _atom_site_symmetry_multiplicity
 _atom_site_fract_x
 _atom_site_fract_y
 _atom_site_fract_z
 _atom_site_occupancy
  Er  Er0  1  0.542388  0.457731  0.250203  1
  Er  Er1  1  0.542388  0.084658  0.250203  1
  Er  Er2  1  0.915262  0.457631  0.250083  1
  Er  Er3  1  0.457836  0.542264  0.749751  1
  Er  Er4  1  0.457836  0.915571  0.749751  1
  Er  Er5  1  0.084309  0.542154  0.749823  1
  Er  Er6  1  0.424351  0.212175  0.936771  1
  Er  Er7  1  0.211913  0.787988  0.063111  1
  Er  Er8  1  0.211913  0.423925  0.063111  1
  Er  Er9  1  0.576023  0.788012  0.063095  1
  Tm  Tm10  1  0.000018  0.000009  0.499932  1
  Tm  Tm11  1  0.999857  0.999929  0.999990  1
  Tm  Tm12  1  0.212143  0.787861  0.437003  1
  Tm  Tm13  1  0.212143  0.424282  0.437003  1
  Tm  Tm14  1  0.575764  0.787882  0.436993  1
  Tm  Tm15  1  0.787843  0.212133  0.563193  1
  Tm  Tm16  1  0.787843  0.575709  0.563193  1
  Tm  Tm17  1  0.424184  0.212092  0.562997  1
  Tm  Tm18  1  0.788002  0.212165  0.936807  1
  Tm  Tm19  1  0.788002  0.575837  0.936807  1
  Cd  Cd20  1  0.885146  0.114861  0.250050  1
  Cd  Cd21  1  0.885146  0.770286  0.250050  1
  Cd  Cd22  1  0.229664  0.114833  0.250112  1
  Cd  Cd23  1  0.114818  0.885129  0.749917  1
  Cd  Cd24  1  0.114818  0.229688  0.749917  1
  Cd  Cd25  1  0.770326  0.885163  0.749929  1
  Co  Co26  1  0.333331  0.666666  0.250309  1
  Co  Co27  1  0.666734  0.333367  0.749895  1
