# generated using pymatgen
data_TbY2In3Ir2Rh
_symmetry_space_group_name_H-M   'P 1'
_cell_length_a   7.57643800
_cell_length_b   7.57639402
_cell_length_c   3.91755600
_cell_angle_alpha   90.00000000
_cell_angle_beta   90.00000000
_cell_angle_gamma   120.00019200
_symmetry_Int_Tables_number   1
_chemical_formula_structural   TbY2In3Ir2Rh
_chemical_formula_sum   'Tb1 Y2 In3 Ir2 Rh1'
_cell_volume   194.74783181
_cell_formula_units_Z   1
loop_
 _symmetry_equiv_pos_site_id
 _symmetry_equiv_pos_as_xyz
  1  'x, y, z'
loop_
 _atom_site_type_symbol
 _atom_site_label
 _atom_site_symmetry_multiplicity
 _atom_site_fract_x
 _atom_site_fract_y
 _atom_site_fract_z
 _atom_site_occupancy
  Tb  Tb0  1  0.589245  0.000000  0.500000  1
  Y  Y1  1  0.000149  0.589798  0.500000  1
  Y  Y2  1  0.410351  0.410202  0.500000  1
  In  In3  1  0.743844  0.743371  0.000000  1
  In  In4  1  0.000473  0.256629  0.000000  1
  In  In5  1  0.256004  0.000000  0.000000  1
  Ir  Ir6  1  0.333712  0.667179  0.000000  1
  Ir  Ir7  1  0.666534  0.332821  0.000000  1
  Rh  Rh8  1  0.999689  0.000000  0.500000  1
