# generated using pymatgen
data_Mn2H3F8
_symmetry_space_group_name_H-M   'P 1'
_cell_length_a   3.90741974
_cell_length_b   6.59861593
_cell_length_c   8.07890922
_cell_angle_alpha   88.32861207
_cell_angle_beta   81.58368613
_cell_angle_gamma   116.27873880
_symmetry_Int_Tables_number   1
_chemical_formula_structural   Mn2H3F8
_chemical_formula_sum   'Mn2 H3 F8'
_cell_volume   183.72390540
_cell_formula_units_Z   1
loop_
 _symmetry_equiv_pos_site_id
 _symmetry_equiv_pos_as_xyz
  1  'x, y, z'
loop_
 _atom_site_type_symbol
 _atom_site_label
 _atom_site_symmetry_multiplicity
 _atom_site_fract_x
 _atom_site_fract_y
 _atom_site_fract_z
 _atom_site_occupancy
  Mn  Mn0  1  0.960176  0.299985  0.851617  1
  Mn  Mn1  1  0.591913  0.960435  0.220199  1
  H  H2  1  0.425396  0.780975  0.875185  1
  H  H3  1  0.742248  0.097065  0.543615  1
  H  H4  1  0.155745  0.478646  0.189574  1
  F  F5  1  0.097504  0.966702  0.219298  1
  F  F6  1  0.902115  0.317517  0.111638  1
  F  F7  1  0.462386  0.302628  0.853207  1
  F  F8  1  0.250799  0.661775  0.807067  1
  F  F9  1  0.350988  0.597665  0.250392  1
  F  F10  1  0.648870  0.944023  0.961829  1
  F  F11  1  0.522658  0.983872  0.466664  1
  F  F12  1  0.971957  0.214890  0.617337  1
