# generated using pymatgen
data_Tb8Re9Si16Tc3
_symmetry_space_group_name_H-M   'P 1'
_cell_length_a   6.79066422
_cell_length_b   6.79066371
_cell_length_c   12.87167301
_cell_angle_alpha   89.98717716
_cell_angle_beta   89.98717772
_cell_angle_gamma   90.01879514
_symmetry_Int_Tables_number   1
_chemical_formula_structural   Tb8Re9Si16Tc3
_chemical_formula_sum   'Tb8 Re9 Si16 Tc3'
_cell_volume   593.55290256
_cell_formula_units_Z   1
loop_
 _symmetry_equiv_pos_site_id
 _symmetry_equiv_pos_as_xyz
  1  'x, y, z'
loop_
 _atom_site_type_symbol
 _atom_site_label
 _atom_site_symmetry_multiplicity
 _atom_site_fract_x
 _atom_site_fract_y
 _atom_site_fract_z
 _atom_site_occupancy
  Tb  Tb0  1  0.006897  0.663249  0.031435  1
  Tb  Tb1  1  0.992815  0.336786  0.531399  1
  Tb  Tb2  1  0.336751  0.993103  0.468565  1
  Tb  Tb3  1  0.163000  0.493140  0.781167  1
  Tb  Tb4  1  0.836866  0.506995  0.281378  1
  Tb  Tb5  1  0.493005  0.163134  0.218622  1
  Tb  Tb6  1  0.506860  0.837000  0.718833  1
  Tb  Tb7  1  0.663214  0.007185  0.968601  1
  Re  Re8  1  0.016923  0.813308  0.631194  1
  Re  Re9  1  0.982920  0.186477  0.131270  1
  Re  Re10  1  0.813523  0.017080  0.368730  1
  Re  Re11  1  0.314108  0.483363  0.381142  1
  Re  Re12  1  0.686704  0.516677  0.881484  1
  Re  Re13  1  0.483323  0.313296  0.618516  1
  Re  Re14  1  0.516637  0.685892  0.118858  1
  Re  Re15  1  0.186692  0.983077  0.868806  1
  Re  Re16  1  0.836139  0.163861  0.750000  1
  Si  Si17  1  0.016489  0.728350  0.439464  1
  Si  Si18  1  0.613930  0.304543  0.435072  1
  Si  Si19  1  0.386352  0.695367  0.935348  1
  Si  Si20  1  0.195688  0.113889  0.684784  1
  Si  Si21  1  0.304633  0.613648  0.564652  1
  Si  Si22  1  0.695457  0.386070  0.064928  1
  Si  Si23  1  0.804561  0.886083  0.185181  1
  Si  Si24  1  0.113917  0.195439  0.314819  1
  Si  Si25  1  0.983290  0.272093  0.939378  1
  Si  Si26  1  0.727907  0.016710  0.560622  1
  Si  Si27  1  0.227726  0.483155  0.189547  1
  Si  Si28  1  0.771578  0.517322  0.689282  1
  Si  Si29  1  0.482678  0.228422  0.810718  1
  Si  Si30  1  0.516845  0.772274  0.310453  1
  Si  Si31  1  0.271650  0.983511  0.060536  1
  Si  Si32  1  0.886111  0.804312  0.815216  1
  Tc  Tc33  1  0.664521  0.663942  0.500437  1
  Tc  Tc34  1  0.164232  0.835768  0.250000  1
  Tc  Tc35  1  0.336058  0.335479  0.999563  1
