# generated using pymatgen
data_YbPaBe26
_symmetry_space_group_name_H-M   'P 1'
_cell_length_a   7.22132620
_cell_length_b   7.22132594
_cell_length_c   7.22132600
_cell_angle_alpha   59.99999970
_cell_angle_beta   60.00000093
_cell_angle_gamma   60.00000204
_symmetry_Int_Tables_number   1
_chemical_formula_structural   YbPaBe26
_chemical_formula_sum   'Yb1 Pa1 Be26'
_cell_volume   266.27835975
_cell_formula_units_Z   1
loop_
 _symmetry_equiv_pos_site_id
 _symmetry_equiv_pos_as_xyz
  1  'x, y, z'
loop_
 _atom_site_type_symbol
 _atom_site_label
 _atom_site_symmetry_multiplicity
 _atom_site_fract_x
 _atom_site_fract_y
 _atom_site_fract_z
 _atom_site_occupancy
  Yb  Yb0  1  0.250000  0.250000  0.250000  1
  Pa  Pa1  1  0.750000  0.750000  0.750000  1
  Be  Be2  1  0.500000  0.500000  0.500000  1
  Be  Be3  1  0.000000  0.000000  0.000000  1
  Be  Be4  1  0.788063  0.564243  0.207824  1
  Be  Be5  1  0.207824  0.439869  0.788063  1
  Be  Be6  1  0.564243  0.788063  0.439869  1
  Be  Be7  1  0.439869  0.207824  0.564243  1
  Be  Be8  1  0.292176  0.935757  0.711937  1
  Be  Be9  1  0.711937  0.060131  0.292176  1
  Be  Be10  1  0.935757  0.292176  0.060131  1
  Be  Be11  1  0.060131  0.711937  0.935757  1
  Be  Be12  1  0.207824  0.788063  0.564243  1
  Be  Be13  1  0.788063  0.207824  0.439869  1
  Be  Be14  1  0.439869  0.564243  0.788063  1
  Be  Be15  1  0.564243  0.439869  0.207824  1
  Be  Be16  1  0.711937  0.292176  0.935757  1
  Be  Be17  1  0.292176  0.711937  0.060131  1
  Be  Be18  1  0.060131  0.935757  0.292176  1
  Be  Be19  1  0.935757  0.060131  0.711937  1
  Be  Be20  1  0.564243  0.207824  0.788063  1
  Be  Be21  1  0.439869  0.788063  0.207824  1
  Be  Be22  1  0.788063  0.439869  0.564243  1
  Be  Be23  1  0.207824  0.564243  0.439869  1
  Be  Be24  1  0.935757  0.711937  0.292176  1
  Be  Be25  1  0.060131  0.292176  0.711937  1
  Be  Be26  1  0.292176  0.060131  0.935757  1
  Be  Be27  1  0.711937  0.935757  0.060131  1
