# generated using pymatgen
data_Tb15DyIn3AgRh4
_symmetry_space_group_name_H-M   'P 1'
_cell_length_a   9.68036267
_cell_length_b   9.66664261
_cell_length_c   9.65886710
_cell_angle_alpha   59.94622706
_cell_angle_beta   59.92776361
_cell_angle_gamma   59.95419352
_symmetry_Int_Tables_number   1
_chemical_formula_structural   Tb15DyIn3AgRh4
_chemical_formula_sum   'Tb15 Dy1 In3 Ag1 Rh4'
_cell_volume   638.28396586
_cell_formula_units_Z   1
loop_
 _symmetry_equiv_pos_site_id
 _symmetry_equiv_pos_as_xyz
  1  'x, y, z'
loop_
 _atom_site_type_symbol
 _atom_site_label
 _atom_site_symmetry_multiplicity
 _atom_site_fract_x
 _atom_site_fract_y
 _atom_site_fract_z
 _atom_site_occupancy
  Tb  Tb0  1  0.689062  0.311406  0.310426  1
  Tb  Tb1  1  0.688586  0.689211  0.311919  1
  Tb  Tb2  1  0.310300  0.689166  0.311943  1
  Tb  Tb3  1  0.937075  0.937321  0.557731  1
  Tb  Tb4  1  0.150225  0.148866  0.550726  1
  Tb  Tb5  1  0.567862  0.937333  0.557716  1
  Tb  Tb6  1  0.152384  0.150316  0.149086  1
  Tb  Tb7  1  0.308612  0.310223  0.691289  1
  Tb  Tb8  1  0.938275  0.566462  0.556983  1
  Tb  Tb9  1  0.564199  0.563521  0.935613  1
  Tb  Tb10  1  0.564477  0.936488  0.934583  1
  Tb  Tb11  1  0.936645  0.563546  0.935610  1
  Tb  Tb12  1  0.150636  0.551060  0.147705  1
  Tb  Tb13  1  0.309077  0.690443  0.691397  1
  Tb  Tb14  1  0.689877  0.310205  0.691318  1
  Dy  Dy15  1  0.548166  0.150343  0.149113  1
  In  In16  1  0.244833  0.917319  0.921328  1
  In  In17  1  0.916447  0.244828  0.922225  1
  In  In18  1  0.916483  0.917338  0.921344  1
  Ag  Ag19  1  0.916334  0.915884  0.251419  1
  Rh  Rh20  1  0.357280  0.357242  0.357943  1
  Rh  Rh21  1  0.927443  0.357311  0.357995  1
  Rh  Rh22  1  0.357887  0.357354  0.926970  1
  Rh  Rh23  1  0.357835  0.926812  0.357622  1
