# generated using pymatgen
data_YOs3Pb4O13
_symmetry_space_group_name_H-M   'P 1'
_cell_length_a   7.56661617
_cell_length_b   7.56661524
_cell_length_c   7.56661400
_cell_angle_alpha   58.52114829
_cell_angle_beta   58.52115263
_cell_angle_gamma   58.52115099
_symmetry_Int_Tables_number   1
_chemical_formula_structural   YOs3Pb4O13
_chemical_formula_sum   'Y1 Os3 Pb4 O13'
_cell_volume   295.96837940
_cell_formula_units_Z   1
loop_
 _symmetry_equiv_pos_site_id
 _symmetry_equiv_pos_as_xyz
  1  'x, y, z'
loop_
 _atom_site_type_symbol
 _atom_site_label
 _atom_site_symmetry_multiplicity
 _atom_site_fract_x
 _atom_site_fract_y
 _atom_site_fract_z
 _atom_site_occupancy
  Y  Y0  1  0.502231  0.502231  0.502231  1
  Os  Os1  1  0.000626  0.501116  0.501116  1
  Os  Os2  1  0.501116  0.501116  0.000626  1
  Os  Os3  1  0.501116  0.000626  0.501116  1
  Pb  Pb4  1  0.997547  0.997547  0.997547  1
  Pb  Pb5  1  0.503608  0.003306  0.003306  1
  Pb  Pb6  1  0.003306  0.003306  0.503608  1
  Pb  Pb7  1  0.003306  0.503608  0.003306  1
  O  O8  1  0.872058  0.405300  0.405300  1
  O  O9  1  0.421570  0.801640  0.801640  1
  O  O10  1  0.405300  0.405300  0.872058  1
  O  O11  1  0.801640  0.801640  0.421570  1
  O  O12  1  0.801640  0.421570  0.801640  1
  O  O13  1  0.405300  0.872058  0.405300  1
  O  O14  1  0.141296  0.586209  0.586209  1
  O  O15  1  0.589276  0.191586  0.191586  1
  O  O16  1  0.586209  0.586209  0.141296  1
  O  O17  1  0.191586  0.191586  0.589276  1
  O  O18  1  0.191586  0.589276  0.191586  1
  O  O19  1  0.586209  0.141296  0.586209  1
  O  O20  1  0.118470  0.118470  0.118470  1
