# generated using pymatgen
data_Cs4PaSbBr12
_symmetry_space_group_name_H-M   'P 1'
_cell_length_a   8.08259000
_cell_length_b   8.08259000
_cell_length_c   11.62886900
_cell_angle_alpha   90.00000000
_cell_angle_beta   90.00000000
_cell_angle_gamma   90.00000000
_symmetry_Int_Tables_number   1
_chemical_formula_structural   Cs4PaSbBr12
_chemical_formula_sum   'Cs4 Pa1 Sb1 Br12'
_cell_volume   759.69379042
_cell_formula_units_Z   1
loop_
 _symmetry_equiv_pos_site_id
 _symmetry_equiv_pos_as_xyz
  1  'x, y, z'
loop_
 _atom_site_type_symbol
 _atom_site_label
 _atom_site_symmetry_multiplicity
 _atom_site_fract_x
 _atom_site_fract_y
 _atom_site_fract_z
 _atom_site_occupancy
  Cs  Cs0  1  0.500000  0.000000  0.709669  1
  Cs  Cs1  1  0.000000  0.500000  0.290331  1
  Cs  Cs2  1  0.500000  0.000000  0.290331  1
  Cs  Cs3  1  0.000000  0.500000  0.709669  1
  Pa  Pa4  1  0.000000  0.000000  0.000000  1
  Sb  Sb5  1  0.500000  0.500000  0.500000  1
  Br  Br6  1  0.000000  0.000000  0.765381  1
  Br  Br7  1  0.500000  0.500000  0.256826  1
  Br  Br8  1  0.748852  0.748852  0.500000  1
  Br  Br9  1  0.238421  0.238421  0.000000  1
  Br  Br10  1  0.748852  0.251148  0.500000  1
  Br  Br11  1  0.238421  0.761579  0.000000  1
  Br  Br12  1  0.000000  0.000000  0.234619  1
  Br  Br13  1  0.500000  0.500000  0.743174  1
  Br  Br14  1  0.251148  0.251148  0.500000  1
  Br  Br15  1  0.761579  0.761579  0.000000  1
  Br  Br16  1  0.251148  0.748852  0.500000  1
  Br  Br17  1  0.761579  0.238421  0.000000  1
