# generated using pymatgen
data_Rb3InBi2
_symmetry_space_group_name_H-M   'P 1'
_cell_length_a   10.04926556
_cell_length_b   10.04926613
_cell_length_c   10.04926582
_cell_angle_alpha   125.93741207
_cell_angle_beta   73.85420879
_cell_angle_gamma   133.72368598
_symmetry_Int_Tables_number   1
_chemical_formula_structural   Rb3InBi2
_chemical_formula_sum   'Rb6 In2 Bi4'
_cell_volume   579.53046367
_cell_formula_units_Z   2
loop_
 _symmetry_equiv_pos_site_id
 _symmetry_equiv_pos_as_xyz
  1  'x, y, z'
loop_
 _atom_site_type_symbol
 _atom_site_label
 _atom_site_symmetry_multiplicity
 _atom_site_fract_x
 _atom_site_fract_y
 _atom_site_fract_z
 _atom_site_occupancy
  Rb  Rb0  1  0.826745  0.187486  0.014231  1
  Rb  Rb1  1  0.673255  0.687487  0.360743  1
  Rb  Rb2  1  0.750000  0.250000  0.500000  1
  Rb  Rb3  1  0.250000  0.750000  0.500001  1
  Rb  Rb4  1  0.326745  0.312513  0.639258  1
  Rb  Rb5  1  0.173255  0.812513  0.985768  1
  In  In6  1  0.250000  0.250000  0.000000  1
  In  In7  1  0.750000  0.750000  0.000000  1
  Bi  Bi8  1  0.403339  0.691495  0.094834  1
  Bi  Bi9  1  0.096661  0.191496  0.288157  1
  Bi  Bi10  1  0.903338  0.808505  0.711843  1
  Bi  Bi11  1  0.596661  0.308505  0.905166  1
