# generated using pymatgen
data_Lu5ZrReTe2
_symmetry_space_group_name_H-M   'P 1'
_cell_length_a   8.08622760
_cell_length_b   8.20041790
_cell_length_c   3.96608500
_cell_angle_alpha   90.00000000
_cell_angle_beta   90.00000000
_cell_angle_gamma   120.46824721
_symmetry_Int_Tables_number   1
_chemical_formula_structural   Lu5ZrReTe2
_chemical_formula_sum   'Lu5 Zr1 Re1 Te2'
_cell_volume   226.67625818
_cell_formula_units_Z   1
loop_
 _symmetry_equiv_pos_site_id
 _symmetry_equiv_pos_as_xyz
  1  'x, y, z'
loop_
 _atom_site_type_symbol
 _atom_site_label
 _atom_site_symmetry_multiplicity
 _atom_site_fract_x
 _atom_site_fract_y
 _atom_site_fract_z
 _atom_site_occupancy
  Lu  Lu0  1  0.764551  0.759123  0.500000  1
  Lu  Lu1  1  0.000000  0.597659  0.000000  1
  Lu  Lu2  1  0.235449  0.994573  0.500000  1
  Lu  Lu3  1  0.620020  0.002058  0.000000  1
  Lu  Lu4  1  0.379980  0.382036  0.000000  1
  Zr  Zr5  1  0.000000  0.243023  0.500000  1
  Re  Re6  1  0.000000  0.025735  0.000000  1
  Te  Te7  1  0.668245  0.332019  0.500000  1
  Te  Te8  1  0.331755  0.663775  0.500000  1
