# generated using pymatgen
data_Dy5Mo3P12(Ir3Rh)4
_symmetry_space_group_name_H-M   'P 1'
_cell_length_a   12.68550068
_cell_length_b   12.68080644
_cell_length_c   3.97421900
_cell_angle_alpha   90.00000000
_cell_angle_beta   90.00000000
_cell_angle_gamma   120.04981561
_symmetry_Int_Tables_number   1
_chemical_formula_structural   Dy5Mo3P12(Ir3Rh)4
_chemical_formula_sum   'Dy5 Mo3 P12 Ir12 Rh4'
_cell_volume   553.37392291
_cell_formula_units_Z   1
loop_
 _symmetry_equiv_pos_site_id
 _symmetry_equiv_pos_as_xyz
  1  'x, y, z'
loop_
 _atom_site_type_symbol
 _atom_site_label
 _atom_site_symmetry_multiplicity
 _atom_site_fract_x
 _atom_site_fract_y
 _atom_site_fract_z
 _atom_site_occupancy
  Dy  Dy0  1  0.333369  0.666760  0.500000  1
  Dy  Dy1  1  0.666442  0.332977  0.500000  1
  Dy  Dy2  1  0.000219  0.812780  0.000000  1
  Dy  Dy3  1  0.187376  0.187222  0.000000  1
  Dy  Dy4  1  0.812746  0.000114  0.000000  1
  Mo  Mo5  1  0.000430  0.453399  0.500000  1
  Mo  Mo6  1  0.546678  0.547382  0.500000  1
  Mo  Mo7  1  0.453277  0.000092  0.500000  1
  P  P8  1  0.000158  0.638203  0.500000  1
  P  P9  1  0.362021  0.362082  0.500000  1
  P  P10  1  0.638020  0.999867  0.500000  1
  P  P11  1  0.516177  0.683516  0.000000  1
  P  P12  1  0.316647  0.833035  0.000000  1
  P  P13  1  0.167544  0.483954  0.000000  1
  P  P14  1  0.483137  0.167031  0.000000  1
  P  P15  1  0.683805  0.516209  0.000000  1
  P  P16  1  0.832457  0.315817  0.000000  1
  P  P17  1  0.999781  0.176918  0.500000  1
  P  P18  1  0.823156  0.822951  0.500000  1
  P  P19  1  0.177243  0.999939  0.500000  1
  Ir  Ir20  1  0.511040  0.867481  0.000000  1
  Ir  Ir21  1  0.132534  0.643520  0.000000  1
  Ir  Ir22  1  0.356642  0.488821  0.000000  1
  Ir  Ir23  1  0.489547  0.357005  0.000000  1
  Ir  Ir24  1  0.866601  0.509156  0.000000  1
  Ir  Ir25  1  0.642893  0.133198  0.000000  1
  Ir  Ir26  1  0.000353  0.285704  0.000000  1
  Ir  Ir27  1  0.714421  0.714708  0.000000  1
  Ir  Ir28  1  0.284773  0.999873  0.000000  1
  Ir  Ir29  1  0.803921  0.625341  0.500000  1
  Ir  Ir30  1  0.821601  0.195963  0.500000  1
  Ir  Ir31  1  0.000171  0.000137  0.500000  1
  Rh  Rh32  1  0.625666  0.804293  0.500000  1
  Rh  Rh33  1  0.195884  0.821341  0.500000  1
  Rh  Rh34  1  0.178526  0.374579  0.500000  1
  Rh  Rh35  1  0.374746  0.178630  0.500000  1
