# generated using pymatgen
data_YZrSc2(SiMo)4
_symmetry_space_group_name_H-M   'P 1'
_cell_length_a   3.58147800
_cell_length_b   7.09330036
_cell_length_c   8.28818304
_cell_angle_alpha   90.21034350
_cell_angle_beta   90.00000000
_cell_angle_gamma   90.00000000
_symmetry_Int_Tables_number   1
_chemical_formula_structural   YZrSc2(SiMo)4
_chemical_formula_sum   'Y1 Zr1 Sc2 Si4 Mo4'
_cell_volume   210.55572027
_cell_formula_units_Z   1
loop_
 _symmetry_equiv_pos_site_id
 _symmetry_equiv_pos_as_xyz
  1  'x, y, z'
loop_
 _atom_site_type_symbol
 _atom_site_label
 _atom_site_symmetry_multiplicity
 _atom_site_fract_x
 _atom_site_fract_y
 _atom_site_fract_z
 _atom_site_occupancy
  Y  Y0  1  0.250000  0.042456  0.335134  1
  Zr  Zr1  1  0.750000  0.458324  0.833378  1
  Sc  Sc2  1  0.250000  0.543412  0.164431  1
  Sc  Sc3  1  0.750000  0.955137  0.669592  1
  Si  Si4  1  0.250000  0.258456  0.640733  1
  Si  Si5  1  0.250000  0.757905  0.862554  1
  Si  Si6  1  0.750000  0.733223  0.361663  1
  Si  Si7  1  0.750000  0.247481  0.131356  1
  Mo  Mo8  1  0.250000  0.128301  0.938342  1
  Mo  Mo9  1  0.250000  0.626415  0.561028  1
  Mo  Mo10  1  0.750000  0.871346  0.056148  1
  Mo  Mo11  1  0.750000  0.377545  0.445641  1
