# generated using pymatgen
data_Fe(TcO4)3
_symmetry_space_group_name_H-M   'P 1'
_cell_length_a   10.53628238
_cell_length_b   10.53628161
_cell_length_c   10.53628244
_cell_angle_alpha   49.13906211
_cell_angle_beta   49.13906869
_cell_angle_gamma   49.13906650
_symmetry_Int_Tables_number   1
_chemical_formula_structural   Fe(TcO4)3
_chemical_formula_sum   'Fe2 Tc6 O24'
_cell_volume   614.49121714
_cell_formula_units_Z   2
loop_
 _symmetry_equiv_pos_site_id
 _symmetry_equiv_pos_as_xyz
  1  'x, y, z'
loop_
 _atom_site_type_symbol
 _atom_site_label
 _atom_site_symmetry_multiplicity
 _atom_site_fract_x
 _atom_site_fract_y
 _atom_site_fract_z
 _atom_site_occupancy
  Fe  Fe0  1  0.500000  0.500000  0.500000  1
  Fe  Fe1  1  0.000000  0.000000  0.000000  1
  Tc  Tc2  1  0.598992  0.901008  0.250000  1
  Tc  Tc3  1  0.250000  0.598992  0.901008  1
  Tc  Tc4  1  0.901008  0.250000  0.598992  1
  Tc  Tc5  1  0.750000  0.401008  0.098992  1
  Tc  Tc6  1  0.098992  0.750000  0.401008  1
  Tc  Tc7  1  0.401008  0.098992  0.750000  1
  O  O8  1  0.816347  0.887049  0.169853  1
  O  O9  1  0.169853  0.816347  0.887049  1
  O  O10  1  0.887049  0.169853  0.816347  1
  O  O11  1  0.669853  0.387049  0.316347  1
  O  O12  1  0.316347  0.669853  0.387049  1
  O  O13  1  0.387049  0.316347  0.669853  1
  O  O14  1  0.183653  0.112951  0.830147  1
  O  O15  1  0.830147  0.183653  0.112951  1
  O  O16  1  0.112951  0.830147  0.183653  1
  O  O17  1  0.330147  0.612951  0.683653  1
  O  O18  1  0.683653  0.330147  0.612951  1
  O  O19  1  0.612951  0.683653  0.330147  1
  O  O20  1  0.444943  0.976152  0.422744  1
  O  O21  1  0.422744  0.444943  0.976152  1
  O  O22  1  0.976152  0.422744  0.444943  1
  O  O23  1  0.922744  0.476152  0.944943  1
  O  O24  1  0.944943  0.922744  0.476152  1
  O  O25  1  0.476152  0.944943  0.922744  1
  O  O26  1  0.555057  0.023848  0.577256  1
  O  O27  1  0.577256  0.555057  0.023848  1
  O  O28  1  0.023848  0.577256  0.555057  1
  O  O29  1  0.077256  0.523848  0.055057  1
  O  O30  1  0.055057  0.077256  0.523848  1
  O  O31  1  0.523848  0.055057  0.077256  1
