# generated using pymatgen
data_Ho2CoIr3
_symmetry_space_group_name_H-M   'P 1'
_cell_length_a   5.17545200
_cell_length_b   5.35525333
_cell_length_c   5.35525300
_cell_angle_alpha   59.99999588
_cell_angle_beta   58.84395494
_cell_angle_gamma   58.84395599
_symmetry_Int_Tables_number   1
_chemical_formula_structural   Ho2CoIr3
_chemical_formula_sum   'Ho2 Co1 Ir3'
_cell_volume   103.08117184
_cell_formula_units_Z   1
loop_
 _symmetry_equiv_pos_site_id
 _symmetry_equiv_pos_as_xyz
  1  'x, y, z'
loop_
 _atom_site_type_symbol
 _atom_site_label
 _atom_site_symmetry_multiplicity
 _atom_site_fract_x
 _atom_site_fract_y
 _atom_site_fract_z
 _atom_site_occupancy
  Ho  Ho0  1  0.246228  0.251257  0.251257  1
  Ho  Ho1  1  0.003772  0.998743  0.998743  1
  Co  Co2  1  0.125000  0.625000  0.625000  1
  Ir  Ir3  1  0.625000  0.625000  0.125000  1
  Ir  Ir4  1  0.625000  0.125000  0.625000  1
  Ir  Ir5  1  0.625000  0.625000  0.625000  1
