# generated using pymatgen
data_Tb3Al12Ru2PtRh
_symmetry_space_group_name_H-M   'P 1'
_cell_length_a   8.84126279
_cell_length_b   8.83679820
_cell_length_c   9.52278865
_cell_angle_alpha   90.24115324
_cell_angle_beta   89.73229289
_cell_angle_gamma   119.77429712
_symmetry_Int_Tables_number   1
_chemical_formula_structural   Tb3Al12Ru2PtRh
_chemical_formula_sum   'Tb6 Al24 Ru4 Pt2 Rh2'
_cell_volume   645.77538843
_cell_formula_units_Z   2
loop_
 _symmetry_equiv_pos_site_id
 _symmetry_equiv_pos_as_xyz
  1  'x, y, z'
loop_
 _atom_site_type_symbol
 _atom_site_label
 _atom_site_symmetry_multiplicity
 _atom_site_fract_x
 _atom_site_fract_y
 _atom_site_fract_z
 _atom_site_occupancy
  Tb  Tb0  1  0.382191  0.189599  0.247804  1
  Tb  Tb1  1  0.809087  0.190779  0.249930  1
  Tb  Tb2  1  0.810268  0.617737  0.248430  1
  Tb  Tb3  1  0.617809  0.810401  0.752196  1
  Tb  Tb4  1  0.190913  0.809221  0.750070  1
  Tb  Tb5  1  0.189732  0.382263  0.751570  1
  Al  Al6  1  0.438907  0.876916  0.249259  1
  Al  Al7  1  0.125730  0.562518  0.246384  1
  Al  Al8  1  0.437270  0.562673  0.253989  1
  Al  Al9  1  0.561093  0.123084  0.750741  1
  Al  Al10  1  0.874270  0.437482  0.753616  1
  Al  Al11  1  0.562730  0.437327  0.746011  1
  Al  Al12  1  0.165984  0.840227  0.423333  1
  Al  Al13  1  0.165699  0.324468  0.423840  1
  Al  Al14  1  0.674842  0.837138  0.423829  1
  Al  Al15  1  0.834016  0.159773  0.576667  1
  Al  Al16  1  0.834301  0.675532  0.576160  1
  Al  Al17  1  0.325158  0.162862  0.576171  1
  Al  Al18  1  0.835960  0.163421  0.924133  1
  Al  Al19  1  0.841525  0.674754  0.923850  1
  Al  Al20  1  0.325538  0.158352  0.923870  1
  Al  Al21  1  0.164040  0.836579  0.075867  1
  Al  Al22  1  0.158475  0.325246  0.076150  1
  Al  Al23  1  0.674462  0.841648  0.076130  1
  Al  Al24  1  0.336834  0.668635  0.529888  1
  Al  Al25  1  0.663166  0.331365  0.470112  1
  Al  Al26  1  0.669634  0.330283  0.027400  1
  Al  Al27  1  0.330366  0.669717  0.972600  1
  Al  Al28  1  0.000565  0.998525  0.249860  1
  Al  Al29  1  0.999435  0.001475  0.750140  1
  Ru  Ru30  1  0.000000  0.000000  0.500000  1
  Ru  Ru31  1  0.000000  0.000000  0.000000  1
  Ru  Ru32  1  0.500000  0.000000  0.000000  1
  Ru  Ru33  1  0.000000  0.500000  0.000000  1
  Pt  Pt34  1  0.000000  0.500000  0.500000  1
  Pt  Pt35  1  0.500000  0.500000  0.000000  1
  Rh  Rh36  1  0.500000  0.000000  0.500000  1
  Rh  Rh37  1  0.500000  0.500000  0.500000  1
