# generated using pymatgen
data_DyErB6Rh
_symmetry_space_group_name_H-M   'P 1'
_cell_length_a   3.65078600
_cell_length_b   9.15915800
_cell_length_c   11.49668000
_cell_angle_alpha   90.00000000
_cell_angle_beta   90.00000000
_cell_angle_gamma   90.00000000
_symmetry_Int_Tables_number   1
_chemical_formula_structural   DyErB6Rh
_chemical_formula_sum   'Dy4 Er4 B24 Rh4'
_cell_volume   384.42743210
_cell_formula_units_Z   4
loop_
 _symmetry_equiv_pos_site_id
 _symmetry_equiv_pos_as_xyz
  1  'x, y, z'
loop_
 _atom_site_type_symbol
 _atom_site_label
 _atom_site_symmetry_multiplicity
 _atom_site_fract_x
 _atom_site_fract_y
 _atom_site_fract_z
 _atom_site_occupancy
  Dy  Dy0  1  0.500000  0.322390  0.413577  1
  Dy  Dy1  1  0.500000  0.677610  0.586423  1
  Dy  Dy2  1  0.500000  0.177610  0.913577  1
  Dy  Dy3  1  0.500000  0.822390  0.086423  1
  Er  Er4  1  0.500000  0.444450  0.126683  1
  Er  Er5  1  0.500000  0.555550  0.873317  1
  Er  Er6  1  0.500000  0.055550  0.626683  1
  Er  Er7  1  0.500000  0.944450  0.373317  1
  B  B8  1  0.000000  0.109228  0.470372  1
  B  B9  1  0.000000  0.890772  0.529628  1
  B  B10  1  0.000000  0.390772  0.970372  1
  B  B11  1  0.000000  0.609228  0.029628  1
  B  B12  1  0.000000  0.133101  0.316155  1
  B  B13  1  0.000000  0.866899  0.683845  1
  B  B14  1  0.000000  0.366899  0.816155  1
  B  B15  1  0.000000  0.633101  0.183845  1
  B  B16  1  0.000000  0.054220  0.065647  1
  B  B17  1  0.000000  0.945780  0.934353  1
  B  B18  1  0.000000  0.445780  0.565647  1
  B  B19  1  0.000000  0.554220  0.434353  1
  B  B20  1  0.000000  0.483260  0.286483  1
  B  B21  1  0.000000  0.516740  0.713517  1
  B  B22  1  0.000000  0.016740  0.786483  1
  B  B23  1  0.000000  0.983260  0.213517  1
  B  B24  1  0.000000  0.249783  0.079539  1
  B  B25  1  0.000000  0.750217  0.920461  1
  B  B26  1  0.000000  0.250217  0.579539  1
  B  B27  1  0.000000  0.749783  0.420461  1
  B  B28  1  0.000000  0.294335  0.235548  1
  B  B29  1  0.000000  0.705665  0.764452  1
  B  B30  1  0.000000  0.205665  0.735548  1
  B  B31  1  0.000000  0.794335  0.264452  1
  Rh  Rh32  1  0.500000  0.139912  0.179023  1
  Rh  Rh33  1  0.500000  0.860088  0.820977  1
  Rh  Rh34  1  0.500000  0.360088  0.679023  1
  Rh  Rh35  1  0.500000  0.639912  0.320977  1
