# generated using pymatgen
data_SmDy2Co7(P3Rh)2
_symmetry_space_group_name_H-M   'P 1'
_cell_length_a   3.74528500
_cell_length_b   10.68866900
_cell_length_c   12.43458100
_cell_angle_alpha   90.00000000
_cell_angle_beta   90.00000000
_cell_angle_gamma   90.00000000
_symmetry_Int_Tables_number   1
_chemical_formula_structural   SmDy2Co7(P3Rh)2
_chemical_formula_sum   'Sm2 Dy4 Co14 P12 Rh4'
_cell_volume   497.78253523
_cell_formula_units_Z   2
loop_
 _symmetry_equiv_pos_site_id
 _symmetry_equiv_pos_as_xyz
  1  'x, y, z'
loop_
 _atom_site_type_symbol
 _atom_site_label
 _atom_site_symmetry_multiplicity
 _atom_site_fract_x
 _atom_site_fract_y
 _atom_site_fract_z
 _atom_site_occupancy
  Sm  Sm0  1  0.000000  0.500000  0.521221  1
  Sm  Sm1  1  0.500000  0.000000  0.478779  1
  Dy  Dy2  1  0.500000  0.813812  0.205541  1
  Dy  Dy3  1  0.500000  0.186188  0.205541  1
  Dy  Dy4  1  0.000000  0.686188  0.794459  1
  Dy  Dy5  1  0.000000  0.313812  0.794459  1
  Co  Co6  1  0.000000  0.500000  0.988319  1
  Co  Co7  1  0.500000  0.000000  0.011681  1
  Co  Co8  1  0.500000  0.332004  0.993870  1
  Co  Co9  1  0.500000  0.667996  0.993870  1
  Co  Co10  1  0.000000  0.167996  0.006130  1
  Co  Co11  1  0.000000  0.832004  0.006130  1
  Co  Co12  1  0.500000  0.299701  0.428883  1
  Co  Co13  1  0.500000  0.700299  0.428883  1
  Co  Co14  1  0.000000  0.200299  0.571117  1
  Co  Co15  1  0.000000  0.799701  0.571117  1
  Co  Co16  1  0.500000  0.880580  0.711066  1
  Co  Co17  1  0.500000  0.119420  0.711066  1
  Co  Co18  1  0.000000  0.619420  0.288934  1
  Co  Co19  1  0.000000  0.380580  0.288934  1
  P  P20  1  0.500000  0.500000  0.890871  1
  P  P21  1  0.000000  0.000000  0.109129  1
  P  P22  1  0.500000  0.500000  0.347623  1
  P  P23  1  0.000000  0.000000  0.652377  1
  P  P24  1  0.500000  0.300786  0.613801  1
  P  P25  1  0.500000  0.699214  0.613801  1
  P  P26  1  0.000000  0.199214  0.386199  1
  P  P27  1  0.000000  0.800786  0.386199  1
  P  P28  1  0.500000  0.844528  0.895142  1
  P  P29  1  0.500000  0.155472  0.895142  1
  P  P30  1  0.000000  0.655472  0.104858  1
  P  P31  1  0.000000  0.344528  0.104858  1
  Rh  Rh32  1  0.500000  0.500000  0.159011  1
  Rh  Rh33  1  0.000000  0.000000  0.840989  1
  Rh  Rh34  1  0.500000  0.500000  0.705898  1
  Rh  Rh35  1  0.000000  0.000000  0.294102  1
