# generated using pymatgen
data_La10MgCd(GaRu3)2
_symmetry_space_group_name_H-M   'P 1'
_cell_length_a   8.71935156
_cell_length_b   8.71921675
_cell_length_c   8.72728916
_cell_angle_alpha   109.83991995
_cell_angle_beta   109.52708073
_cell_angle_gamma   109.53177548
_symmetry_Int_Tables_number   1
_chemical_formula_structural   La10MgCd(GaRu3)2
_chemical_formula_sum   'La10 Mg1 Cd1 Ga2 Ru6'
_cell_volume   507.67799717
_cell_formula_units_Z   1
loop_
 _symmetry_equiv_pos_site_id
 _symmetry_equiv_pos_as_xyz
  1  'x, y, z'
loop_
 _atom_site_type_symbol
 _atom_site_label
 _atom_site_symmetry_multiplicity
 _atom_site_fract_x
 _atom_site_fract_y
 _atom_site_fract_z
 _atom_site_occupancy
  La  La0  1  0.238805  0.681273  0.432096  1
  La  La1  1  0.750093  0.807047  0.065725  1
  La  La2  1  0.434372  0.249678  0.689178  1
  La  La3  1  0.696648  0.448178  0.250607  1
  La  La4  1  0.057600  0.743876  0.810358  1
  La  La5  1  0.819871  0.067861  0.749618  1
  La  La6  1  0.208157  0.206606  0.205478  1
  La  La7  1  0.502218  0.002239  0.295255  1
  La  La8  1  0.285098  0.502262  0.001341  1
  La  La9  1  0.000140  0.284010  0.500063  1
  Mg  Mg10  1  0.502190  0.000248  0.914937  1
  Cd  Cd11  1  0.584552  0.588487  0.585141  1
  Ga  Ga12  1  0.912308  0.499330  0.999831  1
  Ga  Ga13  1  0.002833  0.913770  0.500394  1
  Ru  Ru14  1  0.243197  0.125412  0.867862  1
  Ru  Ru15  1  0.760125  0.371265  0.634462  1
  Ru  Ru16  1  0.890935  0.261031  0.125050  1
  Ru  Ru17  1  0.116906  0.868459  0.250220  1
  Ru  Ru18  1  0.636180  0.765605  0.370229  1
  Ru  Ru19  1  0.357774  0.613367  0.752155  1
