# generated using pymatgen
data_La4Ho6Si7Ir
_symmetry_space_group_name_H-M   'P 1'
_cell_length_a   7.75961800
_cell_length_b   7.80596317
_cell_length_c   14.44141400
_cell_angle_alpha   90.00000000
_cell_angle_beta   90.00000000
_cell_angle_gamma   90.15662848
_symmetry_Int_Tables_number   1
_chemical_formula_structural   La4Ho6Si7Ir
_chemical_formula_sum   'La8 Ho12 Si14 Ir2'
_cell_volume   874.73184014
_cell_formula_units_Z   2
loop_
 _symmetry_equiv_pos_site_id
 _symmetry_equiv_pos_as_xyz
  1  'x, y, z'
loop_
 _atom_site_type_symbol
 _atom_site_label
 _atom_site_symmetry_multiplicity
 _atom_site_fract_x
 _atom_site_fract_y
 _atom_site_fract_z
 _atom_site_occupancy
  La  La0  1  0.631362  0.988184  0.462129  1
  La  La1  1  0.368638  0.011816  0.962129  1
  La  La2  1  0.991082  0.643799  0.539399  1
  La  La3  1  0.492904  0.859175  0.205793  1
  La  La4  1  0.507096  0.140825  0.705793  1
  La  La5  1  0.858989  0.494379  0.791714  1
  La  La6  1  0.141011  0.505621  0.291714  1
  La  La7  1  0.008918  0.356201  0.039399  1
  Ho  Ho8  1  0.493886  0.359177  0.121818  1
  Ho  Ho9  1  0.996877  0.135452  0.625055  1
  Ho  Ho10  1  0.861502  0.013622  0.878493  1
  Ho  Ho11  1  0.138498  0.986378  0.378493  1
  Ho  Ho12  1  0.506114  0.640823  0.621818  1
  Ho  Ho13  1  0.362297  0.495651  0.875956  1
  Ho  Ho14  1  0.637703  0.504349  0.375956  1
  Ho  Ho15  1  0.003123  0.864548  0.125055  1
  Ho  Ho16  1  0.312253  0.307799  0.502361  1
  Ho  Ho17  1  0.188170  0.825789  0.745176  1
  Ho  Ho18  1  0.811830  0.174211  0.245176  1
  Ho  Ho19  1  0.687747  0.692201  0.002361  1
  Si  Si20  1  0.931222  0.288909  0.437070  1
  Si  Si21  1  0.430093  0.210978  0.311371  1
  Si  Si22  1  0.569907  0.789022  0.811371  1
  Si  Si23  1  0.211632  0.437013  0.690162  1
  Si  Si24  1  0.788368  0.562987  0.190162  1
  Si  Si25  1  0.068778  0.711091  0.937070  1
  Si  Si26  1  0.794219  0.849735  0.691565  1
  Si  Si27  1  0.205781  0.150265  0.191565  1
  Si  Si28  1  0.847524  0.788824  0.310844  1
  Si  Si29  1  0.346983  0.696738  0.440227  1
  Si  Si30  1  0.653017  0.303262  0.940227  1
  Si  Si31  1  0.708085  0.348103  0.558052  1
  Si  Si32  1  0.291915  0.651897  0.058052  1
  Si  Si33  1  0.152476  0.211176  0.810844  1
  Ir  Ir34  1  0.288726  0.935036  0.562815  1
  Ir  Ir35  1  0.711274  0.064964  0.062815  1
