# generated using pymatgen
data_B2O2F7
_symmetry_space_group_name_H-M   'P 1'
_cell_length_a   4.95609552
_cell_length_b   5.14676785
_cell_length_c   6.87466050
_cell_angle_alpha   81.69069406
_cell_angle_beta   74.38459921
_cell_angle_gamma   80.67266430
_symmetry_Int_Tables_number   1
_chemical_formula_structural   B2O2F7
_chemical_formula_sum   'B2 O2 F7'
_cell_volume   165.71088461
_cell_formula_units_Z   1
loop_
 _symmetry_equiv_pos_site_id
 _symmetry_equiv_pos_as_xyz
  1  'x, y, z'
loop_
 _atom_site_type_symbol
 _atom_site_label
 _atom_site_symmetry_multiplicity
 _atom_site_fract_x
 _atom_site_fract_y
 _atom_site_fract_z
 _atom_site_occupancy
  B  B0  1  0.782982  0.984050  0.878848  1
  B  B1  1  0.202914  0.245156  0.305334  1
  O  O2  1  0.381129  0.577002  0.655579  1
  O  O3  1  0.495608  0.579097  0.784906  1
  F  F4  1  0.765161  0.839187  0.702624  1
  F  F5  1  0.958879  0.172840  0.775510  1
  F  F6  1  0.893255  0.800635  0.010905  1
  F  F7  1  0.952916  0.229839  0.275247  1
  F  F8  1  0.307991  0.474961  0.260516  1
  F  F9  1  0.339798  0.038531  0.394774  1
  F  F10  1  0.507130  0.100532  0.960613  1
