# generated using pymatgen
data_La7Tb13Si15Ag
_symmetry_space_group_name_H-M   'P 1'
_cell_length_a   7.91254021
_cell_length_b   7.93384737
_cell_length_c   14.62624700
_cell_angle_alpha   89.67974531
_cell_angle_beta   89.77279428
_cell_angle_gamma   90.13799214
_symmetry_Int_Tables_number   1
_chemical_formula_structural   La7Tb13Si15Ag
_chemical_formula_sum   'La7 Tb13 Si15 Ag1'
_cell_volume   918.16597132
_cell_formula_units_Z   1
loop_
 _symmetry_equiv_pos_site_id
 _symmetry_equiv_pos_as_xyz
  1  'x, y, z'
loop_
 _atom_site_type_symbol
 _atom_site_label
 _atom_site_symmetry_multiplicity
 _atom_site_fract_x
 _atom_site_fract_y
 _atom_site_fract_z
 _atom_site_occupancy
  La  La0  1  0.360925  0.006503  0.958028  1
  La  La1  1  0.984705  0.635745  0.538662  1
  La  La2  1  0.491685  0.856583  0.209592  1
  La  La3  1  0.515113  0.150834  0.711611  1
  La  La4  1  0.861061  0.495888  0.793853  1
  La  La5  1  0.139458  0.503866  0.292585  1
  La  La6  1  0.008246  0.358968  0.043603  1
  Tb  Tb7  1  0.490458  0.358458  0.124908  1
  Tb  Tb8  1  0.981867  0.146891  0.629899  1
  Tb  Tb9  1  0.860242  0.008269  0.874858  1
  Tb  Tb10  1  0.136055  0.985977  0.374140  1
  Tb  Tb11  1  0.512024  0.635090  0.622343  1
  Tb  Tb12  1  0.362388  0.492519  0.876513  1
  Tb  Tb13  1  0.641767  0.504864  0.373815  1
  Tb  Tb14  1  0.007149  0.861997  0.125656  1
  Tb  Tb15  1  0.645462  0.996945  0.454794  1
  Tb  Tb16  1  0.312484  0.319084  0.500141  1
  Tb  Tb17  1  0.187120  0.825184  0.749992  1
  Tb  Tb18  1  0.816109  0.180150  0.251392  1
  Tb  Tb19  1  0.681830  0.683033  0.000347  1
  Si  Si20  1  0.710748  0.064361  0.061708  1
  Si  Si21  1  0.933841  0.285191  0.438210  1
  Si  Si22  1  0.436850  0.207103  0.312896  1
  Si  Si23  1  0.564806  0.789820  0.810296  1
  Si  Si24  1  0.210747  0.438302  0.689628  1
  Si  Si25  1  0.787758  0.565883  0.187873  1
  Si  Si26  1  0.066111  0.710144  0.938494  1
  Si  Si27  1  0.795158  0.847445  0.690619  1
  Si  Si28  1  0.204547  0.150426  0.191754  1
  Si  Si29  1  0.843242  0.798504  0.310743  1
  Si  Si30  1  0.355887  0.700892  0.434734  1
  Si  Si31  1  0.654174  0.295886  0.942346  1
  Si  Si32  1  0.698835  0.341521  0.555031  1
  Si  Si33  1  0.295571  0.652911  0.058487  1
  Si  Si34  1  0.152867  0.208161  0.810016  1
  Ag  Ag35  1  0.292708  0.936601  0.560431  1
