# generated using pymatgen
data_ErSc9(In2Cu)4
_symmetry_space_group_name_H-M   'P 1'
_cell_length_a   3.45683500
_cell_length_b   7.67496301
_cell_length_c   17.31188162
_cell_angle_alpha   90.11450272
_cell_angle_beta   90.00000000
_cell_angle_gamma   90.00000000
_symmetry_Int_Tables_number   1
_chemical_formula_structural   ErSc9(In2Cu)4
_chemical_formula_sum   'Er1 Sc9 In8 Cu4'
_cell_volume   459.30201222
_cell_formula_units_Z   1
loop_
 _symmetry_equiv_pos_site_id
 _symmetry_equiv_pos_as_xyz
  1  'x, y, z'
loop_
 _atom_site_type_symbol
 _atom_site_label
 _atom_site_symmetry_multiplicity
 _atom_site_fract_x
 _atom_site_fract_y
 _atom_site_fract_z
 _atom_site_occupancy
  Er  Er0  1  0.000000  0.742970  0.282171  1
  Sc  Sc1  1  0.000000  0.123143  0.419698  1
  Sc  Sc2  1  0.000000  0.876786  0.584473  1
  Sc  Sc3  1  0.000000  0.377373  0.916726  1
  Sc  Sc4  1  0.000000  0.624101  0.080936  1
  Sc  Sc5  1  0.000000  0.242493  0.216956  1
  Sc  Sc6  1  0.000000  0.756107  0.781747  1
  Sc  Sc7  1  0.000000  0.256999  0.718720  1
  Sc  Sc8  1  0.000000  0.000388  0.998188  1
  Sc  Sc9  1  0.000000  0.499239  0.500563  1
  In  In10  1  0.500000  0.412860  0.349820  1
  In  In11  1  0.500000  0.578573  0.651473  1
  In  In12  1  0.500000  0.079901  0.848763  1
  In  In13  1  0.500000  0.925841  0.147647  1
  In  In14  1  0.500000  0.296164  0.064933  1
  In  In15  1  0.500000  0.703798  0.932301  1
  In  In16  1  0.500000  0.204050  0.567970  1
  In  In17  1  0.500000  0.798396  0.438002  1
  Cu  Cu18  1  0.500000  0.041788  0.304573  1
  Cu  Cu19  1  0.500000  0.967255  0.697660  1
  Cu  Cu20  1  0.500000  0.466063  0.803224  1
  Cu  Cu21  1  0.500000  0.525713  0.193455  1
