# generated using pymatgen
data_Cs2HgF6
_symmetry_space_group_name_H-M   'P 1'
_cell_length_a   6.65403445
_cell_length_b   6.65403476
_cell_length_c   6.65403400
_cell_angle_alpha   60.00000379
_cell_angle_beta   60.00000223
_cell_angle_gamma   60.00000591
_symmetry_Int_Tables_number   1
_chemical_formula_structural   Cs2HgF6
_chemical_formula_sum   'Cs2 Hg1 F6'
_cell_volume   208.32441324
_cell_formula_units_Z   1
loop_
 _symmetry_equiv_pos_site_id
 _symmetry_equiv_pos_as_xyz
  1  'x, y, z'
loop_
 _atom_site_type_symbol
 _atom_site_label
 _atom_site_symmetry_multiplicity
 _atom_site_fract_x
 _atom_site_fract_y
 _atom_site_fract_z
 _atom_site_occupancy
  Cs  Cs0  1  0.250000  0.250000  0.250000  1
  Cs  Cs1  1  0.750000  0.750000  0.750000  1
  Hg  Hg2  1  0.000000  0.000000  0.000000  1
  F  F3  1  0.774361  0.225639  0.225639  1
  F  F4  1  0.225639  0.774361  0.774361  1
  F  F5  1  0.225639  0.774361  0.225639  1
  F  F6  1  0.774361  0.225639  0.774361  1
  F  F7  1  0.225639  0.225639  0.774361  1
  F  F8  1  0.774361  0.774361  0.225639  1
