# generated using pymatgen
data_Tm5(Si7Os2)2
_symmetry_space_group_name_H-M   'P 1'
_cell_length_a   7.98506800
_cell_length_b   7.90503619
_cell_length_c   12.62895000
_cell_angle_alpha   81.17780246
_cell_angle_beta   90.00000000
_cell_angle_gamma   90.00000000
_symmetry_Int_Tables_number   1
_chemical_formula_structural   Tm5(Si7Os2)2
_chemical_formula_sum   'Tm10 Si28 Os8'
_cell_volume   787.73649614
_cell_formula_units_Z   2
loop_
 _symmetry_equiv_pos_site_id
 _symmetry_equiv_pos_as_xyz
  1  'x, y, z'
loop_
 _atom_site_type_symbol
 _atom_site_label
 _atom_site_symmetry_multiplicity
 _atom_site_fract_x
 _atom_site_fract_y
 _atom_site_fract_z
 _atom_site_occupancy
  Tm  Tm0  1  0.000000  0.000000  0.500000  1
  Tm  Tm1  1  0.500000  0.500000  0.500000  1
  Tm  Tm2  1  0.253083  0.158716  0.864698  1
  Tm  Tm3  1  0.753083  0.341284  0.135302  1
  Tm  Tm4  1  0.746917  0.841284  0.135302  1
  Tm  Tm5  1  0.246917  0.658716  0.864698  1
  Tm  Tm6  1  0.248604  0.839179  0.133058  1
  Tm  Tm7  1  0.748604  0.660821  0.866942  1
  Tm  Tm8  1  0.751396  0.160821  0.866942  1
  Tm  Tm9  1  0.251396  0.339179  0.133058  1
  Si  Si10  1  0.668006  0.834023  0.499514  1
  Si  Si11  1  0.168006  0.665977  0.500486  1
  Si  Si12  1  0.331994  0.165977  0.500486  1
  Si  Si13  1  0.831994  0.334023  0.499514  1
  Si  Si14  1  0.720284  0.960005  0.681028  1
  Si  Si15  1  0.220284  0.539995  0.318972  1
  Si  Si16  1  0.279716  0.039995  0.318972  1
  Si  Si17  1  0.779716  0.460005  0.681028  1
  Si  Si18  1  0.992764  0.763495  0.319025  1
  Si  Si19  1  0.492764  0.736505  0.680975  1
  Si  Si20  1  0.007236  0.236505  0.680975  1
  Si  Si21  1  0.507236  0.263495  0.319025  1
  Si  Si22  1  0.279255  0.949156  0.680668  1
  Si  Si23  1  0.779255  0.550844  0.319332  1
  Si  Si24  1  0.720745  0.050844  0.319332  1
  Si  Si25  1  0.220745  0.449156  0.680668  1
  Si  Si26  1  0.995500  0.675752  0.681069  1
  Si  Si27  1  0.495500  0.824248  0.318931  1
  Si  Si28  1  0.004500  0.324248  0.318931  1
  Si  Si29  1  0.504500  0.175752  0.681069  1
  Si  Si30  1  0.501139  0.890072  0.943607  1
  Si  Si31  1  0.001139  0.609928  0.056393  1
  Si  Si32  1  0.498861  0.109928  0.056393  1
  Si  Si33  1  0.998861  0.390072  0.943607  1
  Si  Si34  1  0.000502  0.892604  0.943214  1
  Si  Si35  1  0.500502  0.607396  0.056786  1
  Si  Si36  1  0.999498  0.107396  0.056786  1
  Si  Si37  1  0.499498  0.392604  0.943214  1
  Os  Os38  1  0.373537  0.870917  0.498545  1
  Os  Os39  1  0.873537  0.629083  0.501455  1
  Os  Os40  1  0.626463  0.129083  0.501455  1
  Os  Os41  1  0.126463  0.370917  0.498545  1
  Os  Os42  1  0.998997  0.937334  0.754850  1
  Os  Os43  1  0.498997  0.562666  0.245150  1
  Os  Os44  1  0.001003  0.062666  0.245150  1
  Os  Os45  1  0.501003  0.437334  0.754850  1
