# generated using pymatgen
data_ErTm(SnRu)2
_symmetry_space_group_name_H-M   'P 1'
_cell_length_a   4.51227700
_cell_length_b   4.51227700
_cell_length_c   6.65873500
_cell_angle_alpha   90.00000000
_cell_angle_beta   90.00000000
_cell_angle_gamma   90.00000000
_symmetry_Int_Tables_number   1
_chemical_formula_structural   ErTm(SnRu)2
_chemical_formula_sum   'Er1 Tm1 Sn2 Ru2'
_cell_volume   135.57613099
_cell_formula_units_Z   1
loop_
 _symmetry_equiv_pos_site_id
 _symmetry_equiv_pos_as_xyz
  1  'x, y, z'
loop_
 _atom_site_type_symbol
 _atom_site_label
 _atom_site_symmetry_multiplicity
 _atom_site_fract_x
 _atom_site_fract_y
 _atom_site_fract_z
 _atom_site_occupancy
  Er  Er0  1  0.000000  0.500000  0.279826  1
  Tm  Tm1  1  0.500000  0.000000  0.721020  1
  Sn  Sn2  1  0.500000  0.000000  0.231977  1
  Sn  Sn3  1  0.000000  0.500000  0.767976  1
  Ru  Ru4  1  0.000000  0.000000  0.999600  1
  Ru  Ru5  1  0.500000  0.500000  0.999600  1
