# generated using pymatgen
data_Nd3CdSn3Ir2
_symmetry_space_group_name_H-M   'P 1'
_cell_length_a   7.73266300
_cell_length_b   7.73266223
_cell_length_c   4.15417600
_cell_angle_alpha   90.00000000
_cell_angle_beta   90.00000000
_cell_angle_gamma   119.99999900
_symmetry_Int_Tables_number   1
_chemical_formula_structural   Nd3CdSn3Ir2
_chemical_formula_sum   'Nd3 Cd1 Sn3 Ir2'
_cell_volume   215.11646485
_cell_formula_units_Z   1
loop_
 _symmetry_equiv_pos_site_id
 _symmetry_equiv_pos_as_xyz
  1  'x, y, z'
loop_
 _atom_site_type_symbol
 _atom_site_label
 _atom_site_symmetry_multiplicity
 _atom_site_fract_x
 _atom_site_fract_y
 _atom_site_fract_z
 _atom_site_occupancy
  Nd  Nd0  1  0.606975  0.022378  0.000000  1
  Nd  Nd1  1  0.977622  0.584597  0.000000  1
  Nd  Nd2  1  0.415403  0.393025  0.000000  1
  Cd  Cd3  1  0.333333  0.666667  0.500000  1
  Sn  Sn4  1  0.248619  0.005837  0.500000  1
  Sn  Sn5  1  0.994163  0.242782  0.500000  1
  Sn  Sn6  1  0.757218  0.751381  0.500000  1
  Ir  Ir7  1  0.666667  0.333333  0.500000  1
  Ir  Ir8  1  0.000000  0.000000  0.000000  1
