# generated using pymatgen
data_Tb3Y3MgCo17P12
_symmetry_space_group_name_H-M   'P 1'
_cell_length_a   3.72226200
_cell_length_b   10.58134605
_cell_length_c   12.25294506
_cell_angle_alpha   90.01143219
_cell_angle_beta   90.00000000
_cell_angle_gamma   90.00000000
_symmetry_Int_Tables_number   1
_chemical_formula_structural   Tb3Y3MgCo17P12
_chemical_formula_sum   'Tb3 Y3 Mg1 Co17 P12'
_cell_volume   482.60112959
_cell_formula_units_Z   1
loop_
 _symmetry_equiv_pos_site_id
 _symmetry_equiv_pos_as_xyz
  1  'x, y, z'
loop_
 _atom_site_type_symbol
 _atom_site_label
 _atom_site_symmetry_multiplicity
 _atom_site_fract_x
 _atom_site_fract_y
 _atom_site_fract_z
 _atom_site_occupancy
  Tb  Tb0  1  0.000000  0.500025  0.525228  1
  Tb  Tb1  1  0.500000  0.000039  0.478578  1
  Tb  Tb2  1  0.000000  0.682793  0.794513  1
  Y  Y3  1  0.500000  0.821244  0.207241  1
  Y  Y4  1  0.500000  0.178676  0.207203  1
  Y  Y5  1  0.000000  0.316990  0.794563  1
  Mg  Mg6  1  0.500000  0.500031  0.152976  1
  Co  Co7  1  0.000000  0.999940  0.838737  1
  Co  Co8  1  0.500000  0.499979  0.704224  1
  Co  Co9  1  0.000000  0.000015  0.296146  1
  Co  Co10  1  0.000000  0.499878  0.985996  1
  Co  Co11  1  0.500000  0.000062  0.012537  1
  Co  Co12  1  0.500000  0.329077  0.992885  1
  Co  Co13  1  0.500000  0.670857  0.993005  1
  Co  Co14  1  0.000000  0.162952  0.001916  1
  Co  Co15  1  0.000000  0.837123  0.001974  1
  Co  Co16  1  0.500000  0.295564  0.432888  1
  Co  Co17  1  0.500000  0.704410  0.432777  1
  Co  Co18  1  0.000000  0.202097  0.570609  1
  Co  Co19  1  0.000000  0.797929  0.570478  1
  Co  Co20  1  0.500000  0.880420  0.708907  1
  Co  Co21  1  0.500000  0.119756  0.709008  1
  Co  Co22  1  0.000000  0.622717  0.293219  1
  Co  Co23  1  0.000000  0.377341  0.293249  1
  P  P24  1  0.500000  0.499880  0.883574  1
  P  P25  1  0.000000  0.000042  0.116131  1
  P  P26  1  0.500000  0.500028  0.353154  1
  P  P27  1  0.000000  0.999963  0.656003  1
  P  P28  1  0.500000  0.308932  0.617100  1
  P  P29  1  0.500000  0.691198  0.616853  1
  P  P30  1  0.000000  0.189696  0.385898  1
  P  P31  1  0.000000  0.810321  0.385842  1
  P  P32  1  0.500000  0.850031  0.890613  1
  P  P33  1  0.500000  0.150016  0.890512  1
  P  P34  1  0.000000  0.662687  0.102686  1
  P  P35  1  0.000000  0.337292  0.102777  1
