# generated using pymatgen
data_Ho4Lu4Hg3Ir
_symmetry_space_group_name_H-M   'P 1'
_cell_length_a   9.91683700
_cell_length_b   9.91683659
_cell_length_c   7.23543000
_cell_angle_alpha   90.00000000
_cell_angle_beta   90.00000000
_cell_angle_gamma   120.00000472
_symmetry_Int_Tables_number   1
_chemical_formula_structural   Ho4Lu4Hg3Ir
_chemical_formula_sum   'Ho8 Lu8 Hg6 Ir2'
_cell_volume   616.22780308
_cell_formula_units_Z   2
loop_
 _symmetry_equiv_pos_site_id
 _symmetry_equiv_pos_as_xyz
  1  'x, y, z'
loop_
 _atom_site_type_symbol
 _atom_site_label
 _atom_site_symmetry_multiplicity
 _atom_site_fract_x
 _atom_site_fract_y
 _atom_site_fract_z
 _atom_site_occupancy
  Ho  Ho0  1  0.462214  0.537786  0.207411  1
  Ho  Ho1  1  0.075572  0.537786  0.207411  1
  Ho  Ho2  1  0.462214  0.924428  0.207411  1
  Ho  Ho3  1  0.537786  0.462214  0.707411  1
  Ho  Ho4  1  0.924428  0.462214  0.707411  1
  Ho  Ho5  1  0.537786  0.075572  0.707411  1
  Ho  Ho6  1  0.000000  0.000000  0.241239  1
  Ho  Ho7  1  0.000000  0.000000  0.741239  1
  Lu  Lu8  1  0.173175  0.826825  0.520376  1
  Lu  Lu9  1  0.653649  0.826825  0.520376  1
  Lu  Lu10  1  0.173175  0.346351  0.520376  1
  Lu  Lu11  1  0.826825  0.173175  0.020376  1
  Lu  Lu12  1  0.346351  0.173175  0.020376  1
  Lu  Lu13  1  0.826825  0.653649  0.020376  1
  Lu  Lu14  1  0.333333  0.666667  0.821999  1
  Lu  Lu15  1  0.666667  0.333333  0.321999  1
  Hg  Hg16  1  0.167104  0.832896  0.947277  1
  Hg  Hg17  1  0.665789  0.832896  0.947277  1
  Hg  Hg18  1  0.167104  0.334211  0.947277  1
  Hg  Hg19  1  0.832896  0.167104  0.447277  1
  Hg  Hg20  1  0.334211  0.167104  0.447277  1
  Hg  Hg21  1  0.832896  0.665789  0.447277  1
  Ir  Ir22  1  0.333333  0.666667  0.448588  1
  Ir  Ir23  1  0.666667  0.333333  0.948588  1
