# generated using pymatgen
data_Th3Tc2Sn3Pd
_symmetry_space_group_name_H-M   'P 1'
_cell_length_a   7.57938600
_cell_length_b   7.57938479
_cell_length_c   4.17576100
_cell_angle_alpha   90.00000000
_cell_angle_beta   90.00000000
_cell_angle_gamma   119.99999656
_symmetry_Int_Tables_number   1
_chemical_formula_structural   Th3Tc2Sn3Pd
_chemical_formula_sum   'Th3 Tc2 Sn3 Pd1'
_cell_volume   207.74676111
_cell_formula_units_Z   1
loop_
 _symmetry_equiv_pos_site_id
 _symmetry_equiv_pos_as_xyz
  1  'x, y, z'
loop_
 _atom_site_type_symbol
 _atom_site_label
 _atom_site_symmetry_multiplicity
 _atom_site_fract_x
 _atom_site_fract_y
 _atom_site_fract_z
 _atom_site_occupancy
  Th  Th0  1  0.418905  0.418905  0.500000  1
  Th  Th1  1  0.581095  0.000000  0.500000  1
  Th  Th2  1  0.000000  0.581095  0.500000  1
  Tc  Tc3  1  0.666667  0.333333  0.000000  1
  Tc  Tc4  1  0.333333  0.666667  0.000000  1
  Sn  Sn5  1  0.747336  0.747336  0.000000  1
  Sn  Sn6  1  0.252664  0.000000  0.000000  1
  Sn  Sn7  1  0.000000  0.252664  0.000000  1
  Pd  Pd8  1  0.000000  0.000000  0.500000  1
