# generated using pymatgen
data_Ce3In3IrPtRh
_symmetry_space_group_name_H-M   'P 1'
_cell_length_a   7.67121500
_cell_length_b   7.67121419
_cell_length_c   3.96571200
_cell_angle_alpha   90.00000000
_cell_angle_beta   90.00000000
_cell_angle_gamma   119.99999055
_symmetry_Int_Tables_number   1
_chemical_formula_structural   Ce3In3IrPtRh
_chemical_formula_sum   'Ce3 In3 Ir1 Pt1 Rh1'
_cell_volume   202.10641957
_cell_formula_units_Z   1
loop_
 _symmetry_equiv_pos_site_id
 _symmetry_equiv_pos_as_xyz
  1  'x, y, z'
loop_
 _atom_site_type_symbol
 _atom_site_label
 _atom_site_symmetry_multiplicity
 _atom_site_fract_x
 _atom_site_fract_y
 _atom_site_fract_z
 _atom_site_occupancy
  Ce  Ce0  1  0.415519  0.408876  0.000000  1
  Ce  Ce1  1  0.591124  0.006642  0.000000  1
  Ce  Ce2  1  0.993358  0.584481  0.000000  1
  In  In3  1  0.998559  0.250673  0.500000  1
  In  In4  1  0.749327  0.747886  0.500000  1
  In  In5  1  0.252114  0.001441  0.500000  1
  Ir  Ir6  1  0.666667  0.333333  0.500000  1
  Pt  Pt7  1  0.333333  0.666667  0.500000  1
  Rh  Rh8  1  0.000000  0.000000  0.000000  1
