# generated using pymatgen
data_Ta2NbV9Ga10
_symmetry_space_group_name_H-M   'P 1'
_cell_length_a   8.61536067
_cell_length_b   8.58409111
_cell_length_c   5.18981500
_cell_angle_alpha   90.00000000
_cell_angle_beta   90.00000000
_cell_angle_gamma   119.96736979
_symmetry_Int_Tables_number   1
_chemical_formula_structural   Ta2NbV9Ga10
_chemical_formula_sum   'Ta2 Nb1 V9 Ga10'
_cell_volume   332.50102956
_cell_formula_units_Z   1
loop_
 _symmetry_equiv_pos_site_id
 _symmetry_equiv_pos_as_xyz
  1  'x, y, z'
loop_
 _atom_site_type_symbol
 _atom_site_label
 _atom_site_symmetry_multiplicity
 _atom_site_fract_x
 _atom_site_fract_y
 _atom_site_fract_z
 _atom_site_occupancy
  Ta  Ta0  1  0.699944  0.851790  0.250000  1
  Ta  Ta1  1  0.840102  0.140917  0.750000  1
  Nb  Nb2  1  0.840203  0.698835  0.750000  1
  V  V3  1  0.497103  0.000420  0.000442  1
  V  V4  1  0.151352  0.832895  0.250000  1
  V  V5  1  0.320697  0.161363  0.750000  1
  V  V6  1  0.003487  0.500931  0.002698  1
  V  V7  1  0.497103  0.000420  0.499558  1
  V  V8  1  0.146831  0.316482  0.250000  1
  V  V9  1  0.496988  0.496180  0.000103  1
  V  V10  1  0.003487  0.500931  0.497302  1
  V  V11  1  0.496988  0.496180  0.499897  1
  Ga  Ga12  1  0.025747  0.012050  0.005664  1
  Ga  Ga13  1  0.786203  0.214711  0.250000  1
  Ga  Ga14  1  0.206682  0.411983  0.750000  1
  Ga  Ga15  1  0.561955  0.780816  0.750000  1
  Ga  Ga16  1  0.788724  0.575564  0.250000  1
  Ga  Ga17  1  0.025747  0.012050  0.494336  1
  Ga  Ga18  1  0.401362  0.200821  0.250000  1
  Ga  Ga19  1  0.206540  0.794536  0.750000  1
  Ga  Ga20  1  0.668506  0.333841  0.750000  1
  Ga  Ga21  1  0.334253  0.666284  0.250000  1
