# generated using pymatgen
data_Y10NiBi4Os
_symmetry_space_group_name_H-M   'P 1'
_cell_length_a   8.02185379
_cell_length_b   9.02657500
_cell_length_c   12.45722320
_cell_angle_alpha   90.00000000
_cell_angle_beta   90.68529553
_cell_angle_gamma   90.00000000
_symmetry_Int_Tables_number   1
_chemical_formula_structural   Y10NiBi4Os
_chemical_formula_sum   'Y20 Ni2 Bi8 Os2'
_cell_volume   901.96132880
_cell_formula_units_Z   2
loop_
 _symmetry_equiv_pos_site_id
 _symmetry_equiv_pos_as_xyz
  1  'x, y, z'
loop_
 _atom_site_type_symbol
 _atom_site_label
 _atom_site_symmetry_multiplicity
 _atom_site_fract_x
 _atom_site_fract_y
 _atom_site_fract_z
 _atom_site_occupancy
  Y  Y0  1  0.835153  0.750000  0.789325  1
  Y  Y1  1  0.164847  0.250000  0.210675  1
  Y  Y2  1  0.344197  0.250000  0.705043  1
  Y  Y3  1  0.655803  0.750000  0.294957  1
  Y  Y4  1  0.377513  0.750000  0.696472  1
  Y  Y5  1  0.622487  0.250000  0.303528  1
  Y  Y6  1  0.879750  0.250000  0.812321  1
  Y  Y7  1  0.120250  0.750000  0.187679  1
  Y  Y8  1  0.944887  0.750000  0.503655  1
  Y  Y9  1  0.055113  0.250000  0.496345  1
  Y  Y10  1  0.450581  0.250000  0.999677  1
  Y  Y11  1  0.549419  0.750000  0.000323  1
  Y  Y12  1  0.676308  0.042929  0.564378  1
  Y  Y13  1  0.323692  0.957071  0.435622  1
  Y  Y14  1  0.176417  0.959594  0.934895  1
  Y  Y15  1  0.323692  0.542929  0.435622  1
  Y  Y16  1  0.823583  0.040406  0.065105  1
  Y  Y17  1  0.676308  0.457071  0.564378  1
  Y  Y18  1  0.823583  0.459594  0.065105  1
  Y  Y19  1  0.176417  0.540406  0.934895  1
  Ni  Ni20  1  0.070862  0.250000  0.994619  1
  Ni  Ni21  1  0.929138  0.750000  0.005381  1
  Bi  Bi22  1  0.571154  0.488966  0.829345  1
  Bi  Bi23  1  0.428846  0.511034  0.170655  1
  Bi  Bi24  1  0.067601  0.507572  0.675029  1
  Bi  Bi25  1  0.428846  0.988966  0.170655  1
  Bi  Bi26  1  0.932399  0.492428  0.324971  1
  Bi  Bi27  1  0.571154  0.011034  0.829345  1
  Bi  Bi28  1  0.932399  0.007572  0.324971  1
  Bi  Bi29  1  0.067601  0.992428  0.675029  1
  Os  Os30  1  0.577393  0.750000  0.513830  1
  Os  Os31  1  0.422607  0.250000  0.486170  1
