# generated using pymatgen
data_CeNd2(Al3Ru)4
_symmetry_space_group_name_H-M   'P 1'
_cell_length_a   8.89410525
_cell_length_b   8.89773154
_cell_length_c   9.65791000
_cell_angle_alpha   90.00000000
_cell_angle_beta   90.00000000
_cell_angle_gamma   120.01348379
_symmetry_Int_Tables_number   1
_chemical_formula_structural   CeNd2(Al3Ru)4
_chemical_formula_sum   'Ce2 Nd4 Al24 Ru8'
_cell_volume   661.81457004
_cell_formula_units_Z   2
loop_
 _symmetry_equiv_pos_site_id
 _symmetry_equiv_pos_as_xyz
  1  'x, y, z'
loop_
 _atom_site_type_symbol
 _atom_site_label
 _atom_site_symmetry_multiplicity
 _atom_site_fract_x
 _atom_site_fract_y
 _atom_site_fract_z
 _atom_site_occupancy
  Ce  Ce0  1  0.804910  0.193959  0.750000  1
  Ce  Ce1  1  0.195090  0.389050  0.250000  1
  Nd  Nd2  1  0.809640  0.616581  0.750000  1
  Nd  Nd3  1  0.190360  0.806941  0.250000  1
  Nd  Nd4  1  0.617808  0.806316  0.250000  1
  Nd  Nd5  1  0.382192  0.188508  0.750000  1
  Al  Al6  1  0.334245  0.668830  0.489836  1
  Al  Al7  1  0.665755  0.334584  0.989836  1
  Al  Al8  1  0.665755  0.334584  0.510164  1
  Al  Al9  1  0.334245  0.668830  0.010164  1
  Al  Al10  1  0.162365  0.324796  0.575749  1
  Al  Al11  1  0.675120  0.837689  0.577060  1
  Al  Al12  1  0.162700  0.836644  0.575257  1
  Al  Al13  1  0.837635  0.162431  0.075749  1
  Al  Al14  1  0.837635  0.162431  0.424251  1
  Al  Al15  1  0.837300  0.673944  0.075257  1
  Al  Al16  1  0.324880  0.162570  0.077060  1
  Al  Al17  1  0.675120  0.837689  0.922940  1
  Al  Al18  1  0.162365  0.324796  0.924251  1
  Al  Al19  1  0.837300  0.673944  0.424743  1
  Al  Al20  1  0.002440  0.003816  0.250000  1
  Al  Al21  1  0.997560  0.001376  0.750000  1
  Al  Al22  1  0.562157  0.122557  0.250000  1
  Al  Al23  1  0.437843  0.560400  0.750000  1
  Al  Al24  1  0.124625  0.561502  0.750000  1
  Al  Al25  1  0.875375  0.436877  0.250000  1
  Al  Al26  1  0.562475  0.436649  0.250000  1
  Al  Al27  1  0.437525  0.874174  0.750000  1
  Al  Al28  1  0.162700  0.836644  0.924743  1
  Al  Al29  1  0.324880  0.162570  0.422940  1
  Ru  Ru30  1  0.000000  0.998825  0.500000  1
  Ru  Ru31  1  0.000000  0.998825  0.000000  1
  Ru  Ru32  1  0.502279  0.002410  0.502533  1
  Ru  Ru33  1  0.497721  0.500131  0.002533  1
  Ru  Ru34  1  0.000000  0.497794  0.000000  1
  Ru  Ru35  1  0.000000  0.497794  0.500000  1
  Ru  Ru36  1  0.497721  0.500131  0.497467  1
  Ru  Ru37  1  0.502279  0.002410  0.997467  1
