# generated using pymatgen
data_DyEr7Sc11Si16Ag
_symmetry_space_group_name_H-M   'P 1'
_cell_length_a   7.00888321
_cell_length_b   7.37417038
_cell_length_c   13.98274836
_cell_angle_alpha   90.01352214
_cell_angle_beta   89.97764788
_cell_angle_gamma   89.89585859
_symmetry_Int_Tables_number   1
_chemical_formula_structural   DyEr7Sc11Si16Ag
_chemical_formula_sum   'Dy1 Er7 Sc11 Si16 Ag1'
_cell_volume   722.69287055
_cell_formula_units_Z   1
loop_
 _symmetry_equiv_pos_site_id
 _symmetry_equiv_pos_as_xyz
  1  'x, y, z'
loop_
 _atom_site_type_symbol
 _atom_site_label
 _atom_site_symmetry_multiplicity
 _atom_site_fract_x
 _atom_site_fract_y
 _atom_site_fract_z
 _atom_site_occupancy
  Dy  Dy0  1  0.484817  0.673099  0.597710  1
  Er  Er1  1  0.011288  0.175889  0.096014  1
  Er  Er2  1  0.989752  0.814481  0.901907  1
  Er  Er3  1  0.485102  0.673485  0.901862  1
  Er  Er4  1  0.989749  0.814401  0.598371  1
  Er  Er5  1  0.510544  0.323094  0.096142  1
  Er  Er6  1  0.010567  0.175871  0.403440  1
  Er  Er7  1  0.510416  0.323358  0.403450  1
  Sc  Sc8  1  0.838499  0.496985  0.249938  1
  Sc  Sc9  1  0.340752  0.004300  0.249847  1
  Sc  Sc10  1  0.656633  0.997229  0.750120  1
  Sc  Sc11  1  0.324219  0.182030  0.627201  1
  Sc  Sc12  1  0.671492  0.824256  0.374783  1
  Sc  Sc13  1  0.170742  0.679392  0.373758  1
  Sc  Sc14  1  0.671646  0.823794  0.124901  1
  Sc  Sc15  1  0.837447  0.326684  0.627015  1
  Sc  Sc16  1  0.324525  0.182282  0.873255  1
  Sc  Sc17  1  0.836759  0.326639  0.873616  1
  Sc  Sc18  1  0.170866  0.679447  0.126121  1
  Si  Si19  1  0.026094  0.095705  0.750331  1
  Si  Si20  1  0.969672  0.889939  0.249783  1
  Si  Si21  1  0.467844  0.615901  0.249787  1
  Si  Si22  1  0.537069  0.384547  0.750281  1
  Si  Si23  1  0.287120  0.880215  0.750370  1
  Si  Si24  1  0.714120  0.129761  0.249771  1
  Si  Si25  1  0.213164  0.371118  0.249778  1
  Si  Si26  1  0.776942  0.629819  0.750494  1
  Si  Si27  1  0.161799  0.459478  0.530784  1
  Si  Si28  1  0.842096  0.534910  0.461702  1
  Si  Si29  1  0.343743  0.966600  0.462529  1
  Si  Si30  1  0.842303  0.534762  0.038172  1
  Si  Si31  1  0.658162  0.034664  0.540094  1
  Si  Si32  1  0.163032  0.460280  0.968590  1
  Si  Si33  1  0.657768  0.033649  0.959691  1
  Si  Si34  1  0.344083  0.965626  0.037165  1
  Ag  Ag35  1  0.159175  0.516307  0.751231  1
