# generated using pymatgen
data_YTmMnB6
_symmetry_space_group_name_H-M   'P 1'
_cell_length_a   3.53411300
_cell_length_b   9.06833700
_cell_length_c   11.45174400
_cell_angle_alpha   90.00000000
_cell_angle_beta   90.00000000
_cell_angle_gamma   90.00000000
_symmetry_Int_Tables_number   1
_chemical_formula_structural   YTmMnB6
_chemical_formula_sum   'Y4 Tm4 Mn4 B24'
_cell_volume   367.01153457
_cell_formula_units_Z   4
loop_
 _symmetry_equiv_pos_site_id
 _symmetry_equiv_pos_as_xyz
  1  'x, y, z'
loop_
 _atom_site_type_symbol
 _atom_site_label
 _atom_site_symmetry_multiplicity
 _atom_site_fract_x
 _atom_site_fract_y
 _atom_site_fract_z
 _atom_site_occupancy
  Y  Y0  1  0.000000  0.323397  0.414982  1
  Y  Y1  1  0.000000  0.676603  0.585018  1
  Y  Y2  1  0.000000  0.823397  0.085018  1
  Y  Y3  1  0.000000  0.176603  0.914982  1
  Tm  Tm4  1  0.000000  0.942207  0.368412  1
  Tm  Tm5  1  0.000000  0.057793  0.631588  1
  Tm  Tm6  1  0.000000  0.442207  0.131588  1
  Tm  Tm7  1  0.000000  0.557793  0.868412  1
  Mn  Mn8  1  0.000000  0.639246  0.319302  1
  Mn  Mn9  1  0.000000  0.360754  0.680698  1
  Mn  Mn10  1  0.000000  0.139246  0.180698  1
  Mn  Mn11  1  0.000000  0.860754  0.819302  1
  B  B12  1  0.500000  0.554428  0.431707  1
  B  B13  1  0.500000  0.445572  0.568293  1
  B  B14  1  0.500000  0.054428  0.068293  1
  B  B15  1  0.500000  0.945572  0.931707  1
  B  B16  1  0.500000  0.747859  0.417049  1
  B  B17  1  0.500000  0.252141  0.582951  1
  B  B18  1  0.500000  0.247859  0.082951  1
  B  B19  1  0.500000  0.752141  0.917049  1
  B  B20  1  0.500000  0.790416  0.265120  1
  B  B21  1  0.500000  0.209584  0.734880  1
  B  B22  1  0.500000  0.290416  0.234880  1
  B  B23  1  0.500000  0.709584  0.765120  1
  B  B24  1  0.500000  0.630642  0.185951  1
  B  B25  1  0.500000  0.369358  0.814049  1
  B  B26  1  0.500000  0.130642  0.314049  1
  B  B27  1  0.500000  0.869358  0.685951  1
  B  B28  1  0.500000  0.984336  0.211623  1
  B  B29  1  0.500000  0.015664  0.788377  1
  B  B30  1  0.500000  0.484336  0.288377  1
  B  B31  1  0.500000  0.515664  0.711623  1
  B  B32  1  0.500000  0.600735  0.027751  1
  B  B33  1  0.500000  0.399265  0.972249  1
  B  B34  1  0.500000  0.100735  0.472249  1
  B  B35  1  0.500000  0.899265  0.527751  1
