# generated using pymatgen
data_Nd2Ho6Cu3Si12Rh
_symmetry_space_group_name_H-M   'P 1'
_cell_length_a   8.05648400
_cell_length_b   8.05649723
_cell_length_c   8.20237500
_cell_angle_alpha   89.99992750
_cell_angle_beta   90.00004561
_cell_angle_gamma   120.00005354
_symmetry_Int_Tables_number   1
_chemical_formula_structural   Nd2Ho6Cu3Si12Rh
_chemical_formula_sum   'Nd2 Ho6 Cu3 Si12 Rh1'
_cell_volume   461.06465318
_cell_formula_units_Z   1
loop_
 _symmetry_equiv_pos_site_id
 _symmetry_equiv_pos_as_xyz
  1  'x, y, z'
loop_
 _atom_site_type_symbol
 _atom_site_label
 _atom_site_symmetry_multiplicity
 _atom_site_fract_x
 _atom_site_fract_y
 _atom_site_fract_z
 _atom_site_occupancy
  Nd  Nd0  1  0.000001  0.000002  0.250073  1
  Nd  Nd1  1  0.000002  0.000001  0.750079  1
  Ho  Ho2  1  0.500093  0.499911  0.248073  1
  Ho  Ho3  1  0.500093  0.000186  0.248075  1
  Ho  Ho4  1  0.999816  0.499908  0.248077  1
  Ho  Ho5  1  0.498274  0.501730  0.751940  1
  Ho  Ho6  1  0.498274  0.996552  0.751938  1
  Ho  Ho7  1  0.003452  0.501725  0.751937  1
  Cu  Cu8  1  0.333336  0.666657  0.496572  1
  Cu  Cu9  1  0.666661  0.333334  0.504067  1
  Cu  Cu10  1  0.666642  0.333312  0.996755  1
  Si  Si11  1  0.170143  0.829861  0.500231  1
  Si  Si12  1  0.170142  0.340284  0.500231  1
  Si  Si13  1  0.659723  0.829862  0.500232  1
  Si  Si14  1  0.829821  0.170183  0.499760  1
  Si  Si15  1  0.829823  0.659643  0.499760  1
  Si  Si16  1  0.340359  0.170180  0.499759  1
  Si  Si17  1  0.830865  0.169137  0.999184  1
  Si  Si18  1  0.830863  0.661725  0.999184  1
  Si  Si19  1  0.338276  0.169138  0.999183  1
  Si  Si20  1  0.168803  0.831200  0.001049  1
  Si  Si21  1  0.168803  0.337603  0.001049  1
  Si  Si22  1  0.662398  0.831199  0.001050  1
  Rh  Rh23  1  0.333337  0.666665  0.001743  1
