# generated using pymatgen
data_Hf18CrCo2Re7
_symmetry_space_group_name_H-M   'P 1'
_cell_length_a   8.56596000
_cell_length_b   8.56595953
_cell_length_c   8.42401500
_cell_angle_alpha   90.00000000
_cell_angle_beta   90.00000000
_cell_angle_gamma   119.99999410
_symmetry_Int_Tables_number   1
_chemical_formula_structural   Hf18CrCo2Re7
_chemical_formula_sum   'Hf18 Cr1 Co2 Re7'
_cell_volume   535.30567704
_cell_formula_units_Z   1
loop_
 _symmetry_equiv_pos_site_id
 _symmetry_equiv_pos_as_xyz
  1  'x, y, z'
loop_
 _atom_site_type_symbol
 _atom_site_label
 _atom_site_symmetry_multiplicity
 _atom_site_fract_x
 _atom_site_fract_y
 _atom_site_fract_z
 _atom_site_occupancy
  Hf  Hf0  1  0.198496  0.801504  0.442133  1
  Hf  Hf1  1  0.198496  0.396994  0.442133  1
  Hf  Hf2  1  0.603006  0.801504  0.442133  1
  Hf  Hf3  1  0.801504  0.198496  0.557867  1
  Hf  Hf4  1  0.801504  0.603006  0.557867  1
  Hf  Hf5  1  0.396994  0.198496  0.557867  1
  Hf  Hf6  1  0.800435  0.199565  0.941267  1
  Hf  Hf7  1  0.800435  0.600869  0.941267  1
  Hf  Hf8  1  0.399131  0.199565  0.941267  1
  Hf  Hf9  1  0.199565  0.800435  0.058733  1
  Hf  Hf10  1  0.199565  0.399131  0.058733  1
  Hf  Hf11  1  0.600869  0.800435  0.058733  1
  Hf  Hf12  1  0.541452  0.458548  0.249922  1
  Hf  Hf13  1  0.541452  0.082903  0.249922  1
  Hf  Hf14  1  0.917097  0.458548  0.249922  1
  Hf  Hf15  1  0.458548  0.541452  0.750078  1
  Hf  Hf16  1  0.458548  0.917097  0.750078  1
  Hf  Hf17  1  0.082903  0.541452  0.750078  1
  Cr  Cr18  1  0.000000  0.000000  0.500000  1
  Co  Co19  1  0.333333  0.666667  0.250074  1
  Co  Co20  1  0.666667  0.333333  0.749926  1
  Re  Re21  1  0.890348  0.109652  0.254235  1
  Re  Re22  1  0.890348  0.780697  0.254235  1
  Re  Re23  1  0.219303  0.109652  0.254235  1
  Re  Re24  1  0.109652  0.890348  0.745765  1
  Re  Re25  1  0.109652  0.219303  0.745765  1
  Re  Re26  1  0.780697  0.890348  0.745765  1
  Re  Re27  1  0.000000  0.000000  0.000000  1
