# generated using pymatgen
data_Th5U(Co3Sb4)2
_symmetry_space_group_name_H-M   'P 1'
_cell_length_a   8.28176041
_cell_length_b   8.28176074
_cell_length_c   8.28175978
_cell_angle_alpha   109.70862082
_cell_angle_beta   108.99745763
_cell_angle_gamma   109.70862247
_symmetry_Int_Tables_number   1
_chemical_formula_structural   Th5U(Co3Sb4)2
_chemical_formula_sum   'Th5 U1 Co6 Sb8'
_cell_volume   437.24395772
_cell_formula_units_Z   1
loop_
 _symmetry_equiv_pos_site_id
 _symmetry_equiv_pos_as_xyz
  1  'x, y, z'
loop_
 _atom_site_type_symbol
 _atom_site_label
 _atom_site_symmetry_multiplicity
 _atom_site_fract_x
 _atom_site_fract_y
 _atom_site_fract_z
 _atom_site_occupancy
  Th  Th0  1  0.753074  0.877878  0.127635  1
  Th  Th1  1  0.249757  0.622122  0.375197  1
  Th  Th2  1  0.624803  0.374560  0.246926  1
  Th  Th3  1  0.872365  0.125440  0.750243  1
  Th  Th4  1  0.125000  0.750000  0.875000  1
  U  U5  1  0.375000  0.250000  0.625000  1
  Co  Co6  1  0.146506  0.908633  0.283425  1
  Co  Co7  1  0.625000  0.750000  0.375000  1
  Co  Co8  1  0.875000  0.250000  0.125000  1
  Co  Co9  1  0.262127  0.136918  0.853494  1
  Co  Co10  1  0.716575  0.363082  0.625208  1
  Co  Co11  1  0.374792  0.591367  0.737873  1
  Sb  Sb12  1  0.997576  0.336772  0.500809  1
  Sb  Sb13  1  0.839195  0.503232  0.002424  1
  Sb  Sb14  1  0.499191  0.996768  0.835963  1
  Sb  Sb15  1  0.661510  0.660045  0.660716  1
  Sb  Sb16  1  0.164037  0.163228  0.160805  1
  Sb  Sb17  1  0.339284  0.500794  0.999329  1
  Sb  Sb18  1  0.498535  0.999206  0.338490  1
  Sb  Sb19  1  0.000671  0.839955  0.501465  1
