# generated using pymatgen
data_Er3CoSn3Rh2
_symmetry_space_group_name_H-M   'P 1'
_cell_length_a   7.59185800
_cell_length_b   7.59185760
_cell_length_c   3.67442200
_cell_angle_alpha   90.00000000
_cell_angle_beta   90.00000000
_cell_angle_gamma   119.99999305
_symmetry_Int_Tables_number   1
_chemical_formula_structural   Er3CoSn3Rh2
_chemical_formula_sum   'Er3 Co1 Sn3 Rh2'
_cell_volume   183.40696503
_cell_formula_units_Z   1
loop_
 _symmetry_equiv_pos_site_id
 _symmetry_equiv_pos_as_xyz
  1  'x, y, z'
loop_
 _atom_site_type_symbol
 _atom_site_label
 _atom_site_symmetry_multiplicity
 _atom_site_fract_x
 _atom_site_fract_y
 _atom_site_fract_z
 _atom_site_occupancy
  Er  Er0  1  0.402670  0.402670  0.000000  1
  Er  Er1  1  0.000000  0.597330  0.000000  1
  Er  Er2  1  0.597330  0.000000  0.000000  1
  Co  Co3  1  0.000000  0.000000  0.000000  1
  Sn  Sn4  1  0.742209  0.742209  0.500000  1
  Sn  Sn5  1  0.000000  0.257791  0.500000  1
  Sn  Sn6  1  0.257791  0.000000  0.500000  1
  Rh  Rh7  1  0.666667  0.333333  0.500000  1
  Rh  Rh8  1  0.333333  0.666667  0.500000  1
