# generated using pymatgen
data_HfZnCu3Au
_symmetry_space_group_name_H-M   'P 1'
_cell_length_a   4.96600105
_cell_length_b   4.96600098
_cell_length_c   4.93521725
_cell_angle_alpha   59.79345195
_cell_angle_beta   59.79344760
_cell_angle_gamma   59.99999148
_symmetry_Int_Tables_number   1
_chemical_formula_structural   HfZnCu3Au
_chemical_formula_sum   'Hf1 Zn1 Cu3 Au1'
_cell_volume   85.79103535
_cell_formula_units_Z   1
loop_
 _symmetry_equiv_pos_site_id
 _symmetry_equiv_pos_as_xyz
  1  'x, y, z'
loop_
 _atom_site_type_symbol
 _atom_site_label
 _atom_site_symmetry_multiplicity
 _atom_site_fract_x
 _atom_site_fract_y
 _atom_site_fract_z
 _atom_site_occupancy
  Hf  Hf0  1  0.002356  0.002356  0.992932  1
  Zn  Zn1  1  0.623244  0.623244  0.130267  1
  Cu  Cu2  1  0.624701  0.123935  0.626664  1
  Cu  Cu3  1  0.123935  0.624701  0.626664  1
  Cu  Cu4  1  0.624701  0.624701  0.626664  1
  Au  Au5  1  0.251063  0.251063  0.246810  1
