# generated using pymatgen
data_Li3Ca6Nd2Si12Pd
_symmetry_space_group_name_H-M   'P 1'
_cell_length_a   8.33850600
_cell_length_b   8.33850771
_cell_length_c   8.40108500
_cell_angle_alpha   90.00000000
_cell_angle_beta   90.00000000
_cell_angle_gamma   119.99999322
_symmetry_Int_Tables_number   1
_chemical_formula_structural   Li3Ca6Nd2Si12Pd
_chemical_formula_sum   'Li3 Ca6 Nd2 Si12 Pd1'
_cell_volume   505.87430464
_cell_formula_units_Z   1
loop_
 _symmetry_equiv_pos_site_id
 _symmetry_equiv_pos_as_xyz
  1  'x, y, z'
loop_
 _atom_site_type_symbol
 _atom_site_label
 _atom_site_symmetry_multiplicity
 _atom_site_fract_x
 _atom_site_fract_y
 _atom_site_fract_z
 _atom_site_occupancy
  Li  Li0  1  0.666667  0.333333  0.999460  1
  Li  Li1  1  0.333333  0.666667  0.001301  1
  Li  Li2  1  0.333333  0.666667  0.499391  1
  Ca  Ca3  1  0.501222  0.498778  0.748270  1
  Ca  Ca4  1  0.501698  0.498302  0.251680  1
  Ca  Ca5  1  0.997557  0.498778  0.748270  1
  Ca  Ca6  1  0.996603  0.498302  0.251680  1
  Ca  Ca7  1  0.501222  0.002443  0.748270  1
  Ca  Ca8  1  0.501698  0.003397  0.251680  1
  Nd  Nd9  1  0.000000  0.000000  0.750077  1
  Nd  Nd10  1  0.000000  0.000000  0.249920  1
  Si  Si11  1  0.836355  0.163645  0.000031  1
  Si  Si12  1  0.164387  0.835613  0.999864  1
  Si  Si13  1  0.327291  0.163645  0.000031  1
  Si  Si14  1  0.162929  0.837071  0.500018  1
  Si  Si15  1  0.671226  0.835613  0.999864  1
  Si  Si16  1  0.833803  0.166197  0.500089  1
  Si  Si17  1  0.836355  0.672709  0.000031  1
  Si  Si18  1  0.674142  0.837071  0.500018  1
  Si  Si19  1  0.164387  0.328774  0.999864  1
  Si  Si20  1  0.332394  0.166197  0.500089  1
  Si  Si21  1  0.162929  0.325858  0.500018  1
  Si  Si22  1  0.833803  0.667606  0.500089  1
  Pd  Pd23  1  0.666667  0.333333  0.499997  1
