# generated using pymatgen
data_SrPd4Pb
_symmetry_space_group_name_H-M   'P 1'
_cell_length_a   5.58540763
_cell_length_b   5.58540776
_cell_length_c   4.57745900
_cell_angle_alpha   90.00000000
_cell_angle_beta   90.00000000
_cell_angle_gamma   118.74189815
_symmetry_Int_Tables_number   1
_chemical_formula_structural   SrPd4Pb
_chemical_formula_sum   'Sr1 Pd4 Pb1'
_cell_volume   125.20802549
_cell_formula_units_Z   1
loop_
 _symmetry_equiv_pos_site_id
 _symmetry_equiv_pos_as_xyz
  1  'x, y, z'
loop_
 _atom_site_type_symbol
 _atom_site_label
 _atom_site_symmetry_multiplicity
 _atom_site_fract_x
 _atom_site_fract_y
 _atom_site_fract_z
 _atom_site_occupancy
  Sr  Sr0  1  0.000000  0.000000  0.000000  1
  Pd  Pd1  1  0.670883  0.329117  0.000000  1
  Pd  Pd2  1  0.500000  0.000000  0.500000  1
  Pd  Pd3  1  0.000000  0.500000  0.500000  1
  Pd  Pd4  1  0.329117  0.670883  0.000000  1
  Pb  Pb5  1  0.500000  0.500000  0.500000  1
