# generated using pymatgen
data_Tb7Dy(Si4Mo3)4
_symmetry_space_group_name_H-M   'P 1'
_cell_length_a   6.79590600
_cell_length_b   6.97041030
_cell_length_c   12.95405662
_cell_angle_alpha   89.99097741
_cell_angle_beta   90.00498676
_cell_angle_gamma   89.95174346
_symmetry_Int_Tables_number   1
_chemical_formula_structural   Tb7Dy(Si4Mo3)4
_chemical_formula_sum   'Tb7 Dy1 Si16 Mo12'
_cell_volume   613.63671425
_cell_formula_units_Z   1
loop_
 _symmetry_equiv_pos_site_id
 _symmetry_equiv_pos_as_xyz
  1  'x, y, z'
loop_
 _atom_site_type_symbol
 _atom_site_label
 _atom_site_symmetry_multiplicity
 _atom_site_fract_x
 _atom_site_fract_y
 _atom_site_fract_z
 _atom_site_occupancy
  Tb  Tb0  1  0.497218  0.333414  0.094089  1
  Tb  Tb1  1  0.997366  0.166586  0.405949  1
  Tb  Tb2  1  0.502786  0.666516  0.594164  1
  Tb  Tb3  1  0.002388  0.833153  0.906263  1
  Tb  Tb4  1  0.502516  0.666867  0.906256  1
  Tb  Tb5  1  0.002557  0.833385  0.594176  1
  Tb  Tb6  1  0.497199  0.333319  0.405383  1
  Dy  Dy7  1  0.996942  0.166738  0.094129  1
  Si  Si8  1  0.657909  0.042891  0.547716  1
  Si  Si9  1  0.158267  0.457022  0.952634  1
  Si  Si10  1  0.341042  0.957881  0.047886  1
  Si  Si11  1  0.841724  0.542697  0.452131  1
  Si  Si12  1  0.342168  0.957093  0.451934  1
  Si  Si13  1  0.842084  0.541820  0.047873  1
  Si  Si14  1  0.658111  0.042772  0.952712  1
  Si  Si15  1  0.158229  0.457468  0.547728  1
  Si  Si16  1  0.535198  0.364449  0.750353  1
  Si  Si17  1  0.035458  0.135325  0.750163  1
  Si  Si18  1  0.464959  0.635839  0.249579  1
  Si  Si19  1  0.965014  0.865322  0.249546  1
  Si  Si20  1  0.803439  0.626922  0.750348  1
  Si  Si21  1  0.303095  0.872287  0.750205  1
  Si  Si22  1  0.196332  0.372266  0.249635  1
  Si  Si23  1  0.697247  0.127735  0.249679  1
  Mo  Mo24  1  0.831226  0.334560  0.625671  1
  Mo  Mo25  1  0.330414  0.164921  0.874780  1
  Mo  Mo26  1  0.168933  0.665367  0.125327  1
  Mo  Mo27  1  0.669724  0.835225  0.374212  1
  Mo  Mo28  1  0.168729  0.665485  0.374052  1
  Mo  Mo29  1  0.669579  0.835201  0.125204  1
  Mo  Mo30  1  0.831345  0.334144  0.874767  1
  Mo  Mo31  1  0.330668  0.164892  0.625530  1
  Mo  Mo32  1  0.665680  0.000294  0.750243  1
  Mo  Mo33  1  0.165631  0.499749  0.750197  1
  Mo  Mo34  1  0.334393  0.000211  0.249698  1
  Mo  Mo35  1  0.834432  0.500180  0.249787  1
