# generated using pymatgen
data_Er2Sc2B12MoRh
_symmetry_space_group_name_H-M   'P 1'
_cell_length_a   3.53775500
_cell_length_b   8.98986954
_cell_length_c   11.34261000
_cell_angle_alpha   89.94242295
_cell_angle_beta   90.00000000
_cell_angle_gamma   90.00000000
_symmetry_Int_Tables_number   1
_chemical_formula_structural   Er2Sc2B12MoRh
_chemical_formula_sum   'Er4 Sc4 B24 Mo2 Rh2'
_cell_volume   360.73968622
_cell_formula_units_Z   2
loop_
 _symmetry_equiv_pos_site_id
 _symmetry_equiv_pos_as_xyz
  1  'x, y, z'
loop_
 _atom_site_type_symbol
 _atom_site_label
 _atom_site_symmetry_multiplicity
 _atom_site_fract_x
 _atom_site_fract_y
 _atom_site_fract_z
 _atom_site_occupancy
  Er  Er0  1  0.500000  0.322221  0.415347  1
  Er  Er1  1  0.500000  0.677779  0.584653  1
  Er  Er2  1  0.500000  0.181307  0.913183  1
  Er  Er3  1  0.500000  0.818693  0.086817  1
  Sc  Sc4  1  0.500000  0.447099  0.126869  1
  Sc  Sc5  1  0.500000  0.552901  0.873131  1
  Sc  Sc6  1  0.500000  0.056259  0.626005  1
  Sc  Sc7  1  0.500000  0.943741  0.373995  1
  B  B8  1  0.000000  0.098711  0.472492  1
  B  B9  1  0.000000  0.901289  0.527508  1
  B  B10  1  0.000000  0.400222  0.974177  1
  B  B11  1  0.000000  0.599778  0.025823  1
  B  B12  1  0.000000  0.129385  0.318222  1
  B  B13  1  0.000000  0.870615  0.681778  1
  B  B14  1  0.000000  0.369809  0.819948  1
  B  B15  1  0.000000  0.630191  0.180052  1
  B  B16  1  0.000000  0.054708  0.066027  1
  B  B17  1  0.000000  0.945292  0.933973  1
  B  B18  1  0.000000  0.447119  0.565901  1
  B  B19  1  0.000000  0.552881  0.434099  1
  B  B20  1  0.000000  0.478643  0.284714  1
  B  B21  1  0.000000  0.521357  0.715286  1
  B  B22  1  0.000000  0.017521  0.786547  1
  B  B23  1  0.000000  0.982479  0.213453  1
  B  B24  1  0.000000  0.254197  0.080440  1
  B  B25  1  0.000000  0.745803  0.919560  1
  B  B26  1  0.000000  0.244709  0.579398  1
  B  B27  1  0.000000  0.755291  0.420602  1
  B  B28  1  0.000000  0.293828  0.235191  1
  B  B29  1  0.000000  0.706172  0.764809  1
  B  B30  1  0.000000  0.201357  0.736427  1
  B  B31  1  0.000000  0.798643  0.263573  1
  Mo  Mo32  1  0.500000  0.358785  0.682648  1
  Mo  Mo33  1  0.500000  0.641215  0.317352  1
  Rh  Rh34  1  0.500000  0.140764  0.180937  1
  Rh  Rh35  1  0.500000  0.859236  0.819063  1
