# generated using pymatgen
data_Y2Lu4(NiRh5)3
_symmetry_space_group_name_H-M   'P 1'
_cell_length_a   5.24224400
_cell_length_b   5.24224395
_cell_length_c   17.00358500
_cell_angle_alpha   90.00000000
_cell_angle_beta   90.00000000
_cell_angle_gamma   119.99998768
_symmetry_Int_Tables_number   1
_chemical_formula_structural   Y2Lu4(NiRh5)3
_chemical_formula_sum   'Y2 Lu4 Ni3 Rh15'
_cell_volume   404.67431579
_cell_formula_units_Z   1
loop_
 _symmetry_equiv_pos_site_id
 _symmetry_equiv_pos_as_xyz
  1  'x, y, z'
loop_
 _atom_site_type_symbol
 _atom_site_label
 _atom_site_symmetry_multiplicity
 _atom_site_fract_x
 _atom_site_fract_y
 _atom_site_fract_z
 _atom_site_occupancy
  Y  Y0  1  0.333333  0.666667  0.750000  1
  Y  Y1  1  0.666667  0.333333  0.250000  1
  Lu  Lu2  1  0.333333  0.666667  0.961203  1
  Lu  Lu3  1  0.666667  0.333333  0.043122  1
  Lu  Lu4  1  0.666667  0.333333  0.456878  1
  Lu  Lu5  1  0.333333  0.666667  0.538797  1
  Ni  Ni6  1  0.333333  0.666667  0.250000  1
  Ni  Ni7  1  0.666667  0.333333  0.750000  1
  Ni  Ni8  1  0.000000  0.000000  0.250000  1
  Rh  Rh9  1  0.168032  0.831968  0.370209  1
  Rh  Rh10  1  0.168032  0.336065  0.370209  1
  Rh  Rh11  1  0.663935  0.831968  0.370209  1
  Rh  Rh12  1  0.830920  0.169080  0.624723  1
  Rh  Rh13  1  0.830920  0.661840  0.624723  1
  Rh  Rh14  1  0.338160  0.169080  0.624723  1
  Rh  Rh15  1  0.830920  0.169080  0.875277  1
  Rh  Rh16  1  0.830920  0.661840  0.875277  1
  Rh  Rh17  1  0.338160  0.169080  0.875277  1
  Rh  Rh18  1  0.168032  0.831968  0.129791  1
  Rh  Rh19  1  0.168032  0.336065  0.129791  1
  Rh  Rh20  1  0.663935  0.831968  0.129791  1
  Rh  Rh21  1  0.000000  0.000000  0.750000  1
  Rh  Rh22  1  0.000000  0.000000  0.497284  1
  Rh  Rh23  1  0.000000  0.000000  0.002716  1
