# generated using pymatgen
data_TiV11FePt3
_symmetry_space_group_name_H-M   'P 1'
_cell_length_a   4.78529400
_cell_length_b   4.80085900
_cell_length_c   9.56968100
_cell_angle_alpha   90.00000000
_cell_angle_beta   90.00000000
_cell_angle_gamma   90.00000000
_symmetry_Int_Tables_number   1
_chemical_formula_structural   TiV11FePt3
_chemical_formula_sum   'Ti1 V11 Fe1 Pt3'
_cell_volume   219.84927476
_cell_formula_units_Z   1
loop_
 _symmetry_equiv_pos_site_id
 _symmetry_equiv_pos_as_xyz
  1  'x, y, z'
loop_
 _atom_site_type_symbol
 _atom_site_label
 _atom_site_symmetry_multiplicity
 _atom_site_fract_x
 _atom_site_fract_y
 _atom_site_fract_z
 _atom_site_occupancy
  Ti  Ti0  1  0.000000  0.750095  0.000000  1
  V  V1  1  0.500000  0.000197  0.619916  1
  V  V2  1  0.500000  0.001657  0.126018  1
  V  V3  1  0.745544  0.499317  0.258917  1
  V  V4  1  0.745544  0.499317  0.741083  1
  V  V5  1  0.000000  0.744225  0.500000  1
  V  V6  1  0.500000  0.000197  0.380084  1
  V  V7  1  0.500000  0.001657  0.873982  1
  V  V8  1  0.254456  0.499317  0.258917  1
  V  V9  1  0.254456  0.499317  0.741083  1
  V  V10  1  0.000000  0.255977  0.500000  1
  V  V11  1  0.000000  0.247923  0.000000  1
  Fe  Fe12  1  0.500000  0.500520  0.500000  1
  Pt  Pt13  1  0.500000  0.499623  0.000000  1
  Pt  Pt14  1  0.000000  0.000331  0.252306  1
  Pt  Pt15  1  0.000000  0.000331  0.747694  1
