# generated using pymatgen
data_Lu3(AlNi3)2
_symmetry_space_group_name_H-M   'P 1'
_cell_length_a   7.62523547
_cell_length_b   7.62523592
_cell_length_c   7.62523600
_cell_angle_alpha   109.47121819
_cell_angle_beta   109.47121939
_cell_angle_gamma   109.47122444
_symmetry_Int_Tables_number   1
_chemical_formula_structural   Lu3(AlNi3)2
_chemical_formula_sum   'Lu6 Al4 Ni12'
_cell_volume   341.30130005
_cell_formula_units_Z   2
loop_
 _symmetry_equiv_pos_site_id
 _symmetry_equiv_pos_as_xyz
  1  'x, y, z'
loop_
 _atom_site_type_symbol
 _atom_site_label
 _atom_site_symmetry_multiplicity
 _atom_site_fract_x
 _atom_site_fract_y
 _atom_site_fract_z
 _atom_site_occupancy
  Lu  Lu0  1  0.706706  0.706706  0.000000  1
  Lu  Lu1  1  0.293294  0.000000  0.293294  1
  Lu  Lu2  1  0.000000  0.293294  0.293294  1
  Lu  Lu3  1  0.293294  0.293294  0.000000  1
  Lu  Lu4  1  0.706706  0.000000  0.706706  1
  Lu  Lu5  1  0.000000  0.706706  0.706706  1
  Al  Al6  1  0.000000  0.000000  0.500000  1
  Al  Al7  1  0.000000  0.500000  0.000000  1
  Al  Al8  1  0.500000  0.000000  0.000000  1
  Al  Al9  1  0.500000  0.500000  0.500000  1
  Ni  Ni10  1  0.336752  0.336752  0.673502  1
  Ni  Ni11  1  0.663248  0.000000  0.336752  1
  Ni  Ni12  1  0.000000  0.663248  0.336752  1
  Ni  Ni13  1  0.663248  0.336752  0.000000  1
  Ni  Ni14  1  0.336752  0.673502  0.336752  1
  Ni  Ni15  1  0.000000  0.336752  0.663248  1
  Ni  Ni16  1  0.336752  0.663248  0.000000  1
  Ni  Ni17  1  0.336752  0.000000  0.663248  1
  Ni  Ni18  1  0.673502  0.336752  0.336752  1
  Ni  Ni19  1  0.663248  0.663248  0.326498  1
  Ni  Ni20  1  0.663248  0.326498  0.663248  1
  Ni  Ni21  1  0.326498  0.663248  0.663248  1
