# generated using pymatgen
data_AcPr3(Sn2Pt)4
_symmetry_space_group_name_H-M   'P 1'
_cell_length_a   4.67818875
_cell_length_b   9.58212604
_cell_length_c   9.22747000
_cell_angle_alpha   90.00013753
_cell_angle_beta   104.36439247
_cell_angle_gamma   89.99521023
_symmetry_Int_Tables_number   1
_chemical_formula_structural   AcPr3(Sn2Pt)4
_chemical_formula_sum   'Ac1 Pr3 Sn8 Pt4'
_cell_volume   400.70834149
_cell_formula_units_Z   1
loop_
 _symmetry_equiv_pos_site_id
 _symmetry_equiv_pos_as_xyz
  1  'x, y, z'
loop_
 _atom_site_type_symbol
 _atom_site_label
 _atom_site_symmetry_multiplicity
 _atom_site_fract_x
 _atom_site_fract_y
 _atom_site_fract_z
 _atom_site_occupancy
  Ac  Ac0  1  0.000000  0.500000  0.000000  1
  Pr  Pr1  1  0.000000  0.000000  0.000000  1
  Pr  Pr2  1  0.204233  0.750551  0.403521  1
  Pr  Pr3  1  0.795765  0.249449  0.596480  1
  Sn  Sn4  1  0.576909  0.752617  0.148246  1
  Sn  Sn5  1  0.583704  0.248156  0.169921  1
  Sn  Sn6  1  0.198313  0.093021  0.396631  1
  Sn  Sn7  1  0.199053  0.406716  0.398235  1
  Sn  Sn8  1  0.800947  0.593284  0.601765  1
  Sn  Sn9  1  0.801687  0.906980  0.603369  1
  Sn  Sn10  1  0.416296  0.751844  0.830079  1
  Sn  Sn11  1  0.423092  0.247383  0.851754  1
  Pt  Pt12  1  0.650563  0.506290  0.299245  1
  Pt  Pt13  1  0.650457  0.994197  0.298733  1
  Pt  Pt14  1  0.349543  0.005803  0.701267  1
  Pt  Pt15  1  0.349437  0.493710  0.700755  1
