# generated using pymatgen
data_Lu8Ta9Ti2Si16Rh
_symmetry_space_group_name_H-M   'P 1'
_cell_length_a   6.98549745
_cell_length_b   6.98549701
_cell_length_c   12.79026564
_cell_angle_alpha   89.72146338
_cell_angle_beta   90.27852441
_cell_angle_gamma   89.69259720
_symmetry_Int_Tables_number   1
_chemical_formula_structural   Lu8Ta9Ti2Si16Rh
_chemical_formula_sum   'Lu8 Ta9 Ti2 Si16 Rh1'
_cell_volume   624.10497521
_cell_formula_units_Z   1
loop_
 _symmetry_equiv_pos_site_id
 _symmetry_equiv_pos_as_xyz
  1  'x, y, z'
loop_
 _atom_site_type_symbol
 _atom_site_label
 _atom_site_symmetry_multiplicity
 _atom_site_fract_x
 _atom_site_fract_y
 _atom_site_fract_z
 _atom_site_occupancy
  Lu  Lu0  1  0.000009  0.658199  0.031284  1
  Lu  Lu1  1  0.999807  0.341851  0.531385  1
  Lu  Lu2  1  0.658199  0.000009  0.968716  1
  Lu  Lu3  1  0.158014  0.504709  0.780633  1
  Lu  Lu4  1  0.842838  0.497390  0.282866  1
  Lu  Lu5  1  0.504709  0.158014  0.219367  1
  Lu  Lu6  1  0.497390  0.842838  0.717134  1
  Lu  Lu7  1  0.341851  0.999807  0.468615  1
  Ta  Ta8  1  0.343970  0.504084  0.376978  1
  Ta  Ta9  1  0.853667  0.997036  0.375487  1
  Ta  Ta10  1  0.007595  0.149953  0.125630  1
  Ta  Ta11  1  0.997036  0.853667  0.624513  1
  Ta  Ta12  1  0.504084  0.343970  0.623022  1
  Ta  Ta13  1  0.149953  0.007595  0.874370  1
  Ta  Ta14  1  0.825660  0.171433  0.747697  1
  Ta  Ta15  1  0.171433  0.825660  0.252303  1
  Ta  Ta16  1  0.327841  0.327841  0.000000  1
  Ti  Ti17  1  0.496754  0.649980  0.123596  1
  Ti  Ti18  1  0.649980  0.496754  0.876404  1
  Si  Si19  1  0.045298  0.705748  0.438487  1
  Si  Si20  1  0.952177  0.299249  0.934391  1
  Si  Si21  1  0.705748  0.045298  0.561513  1
  Si  Si22  1  0.207290  0.455437  0.185363  1
  Si  Si23  1  0.790881  0.551567  0.683922  1
  Si  Si24  1  0.455437  0.207290  0.814637  1
  Si  Si25  1  0.551567  0.790881  0.316078  1
  Si  Si26  1  0.299249  0.952177  0.065609  1
  Si  Si27  1  0.794795  0.861055  0.181008  1
  Si  Si28  1  0.292864  0.631986  0.570309  1
  Si  Si29  1  0.704246  0.366562  0.068924  1
  Si  Si30  1  0.631986  0.292864  0.429691  1
  Si  Si31  1  0.366562  0.704246  0.931076  1
  Si  Si32  1  0.137039  0.204501  0.318570  1
  Si  Si33  1  0.204501  0.137039  0.681430  1
  Si  Si34  1  0.861055  0.794795  0.818992  1
  Rh  Rh35  1  0.668516  0.668516  0.500000  1
