# generated using pymatgen
data_TbTcNi4P3
_symmetry_space_group_name_H-M   'P 1'
_cell_length_a   3.70442500
_cell_length_b   10.55467900
_cell_length_c   11.97231700
_cell_angle_alpha   90.00000000
_cell_angle_beta   90.00000000
_cell_angle_gamma   90.00000000
_symmetry_Int_Tables_number   1
_chemical_formula_structural   TbTcNi4P3
_chemical_formula_sum   'Tb4 Tc4 Ni16 P12'
_cell_volume   468.10582297
_cell_formula_units_Z   4
loop_
 _symmetry_equiv_pos_site_id
 _symmetry_equiv_pos_as_xyz
  1  'x, y, z'
loop_
 _atom_site_type_symbol
 _atom_site_label
 _atom_site_symmetry_multiplicity
 _atom_site_fract_x
 _atom_site_fract_y
 _atom_site_fract_z
 _atom_site_occupancy
  Tb  Tb0  1  0.250000  0.912203  0.206388  1
  Tb  Tb1  1  0.750000  0.087797  0.793612  1
  Tb  Tb2  1  0.750000  0.412203  0.293612  1
  Tb  Tb3  1  0.250000  0.587797  0.706388  1
  Tc  Tc4  1  0.250000  0.786980  0.487869  1
  Tc  Tc5  1  0.750000  0.213020  0.512131  1
  Tc  Tc6  1  0.750000  0.286980  0.012131  1
  Tc  Tc7  1  0.250000  0.713020  0.987869  1
  Ni  Ni8  1  0.250000  0.089290  0.988655  1
  Ni  Ni9  1  0.750000  0.910710  0.011345  1
  Ni  Ni10  1  0.750000  0.589290  0.511345  1
  Ni  Ni11  1  0.250000  0.410710  0.488655  1
  Ni  Ni12  1  0.250000  0.279425  0.679338  1
  Ni  Ni13  1  0.750000  0.720575  0.320662  1
  Ni  Ni14  1  0.750000  0.779425  0.820662  1
  Ni  Ni15  1  0.250000  0.220575  0.179338  1
  Ni  Ni16  1  0.250000  0.613003  0.202660  1
  Ni  Ni17  1  0.750000  0.386997  0.797340  1
  Ni  Ni18  1  0.750000  0.113003  0.297340  1
  Ni  Ni19  1  0.250000  0.886997  0.702660  1
  Ni  Ni20  1  0.250000  0.034913  0.430223  1
  Ni  Ni21  1  0.750000  0.965087  0.569777  1
  Ni  Ni22  1  0.750000  0.534913  0.069777  1
  Ni  Ni23  1  0.250000  0.465087  0.930223  1
  P  P24  1  0.250000  0.083060  0.611539  1
  P  P25  1  0.750000  0.916940  0.388461  1
  P  P26  1  0.750000  0.583060  0.888461  1
  P  P27  1  0.250000  0.416940  0.111539  1
  P  P28  1  0.250000  0.230761  0.371068  1
  P  P29  1  0.750000  0.769239  0.628932  1
  P  P30  1  0.750000  0.730761  0.128932  1
  P  P31  1  0.250000  0.269239  0.871068  1
  P  P32  1  0.250000  0.902485  0.889399  1
  P  P33  1  0.750000  0.097515  0.110601  1
  P  P34  1  0.750000  0.402485  0.610601  1
  P  P35  1  0.250000  0.597515  0.389399  1
