# generated using pymatgen
data_Ca3Tb3(PrSn2)4
_symmetry_space_group_name_H-M   'P 1'
_cell_length_a   8.04562700
_cell_length_b   8.45676161
_cell_length_c   15.91591601
_cell_angle_alpha   90.07059895
_cell_angle_beta   90.00000000
_cell_angle_gamma   90.00000000
_symmetry_Int_Tables_number   1
_chemical_formula_structural   Ca3Tb3(PrSn2)4
_chemical_formula_sum   'Ca6 Tb6 Pr8 Sn16'
_cell_volume   1082.91730023
_cell_formula_units_Z   2
loop_
 _symmetry_equiv_pos_site_id
 _symmetry_equiv_pos_as_xyz
  1  'x, y, z'
loop_
 _atom_site_type_symbol
 _atom_site_label
 _atom_site_symmetry_multiplicity
 _atom_site_fract_x
 _atom_site_fract_y
 _atom_site_fract_z
 _atom_site_occupancy
  Ca  Ca0  1  0.333925  0.828864  0.622182  1
  Ca  Ca1  1  0.833925  0.671136  0.877818  1
  Ca  Ca2  1  0.165108  0.499987  0.750145  1
  Ca  Ca3  1  0.665108  0.000013  0.749855  1
  Ca  Ca4  1  0.834140  0.502962  0.249990  1
  Ca  Ca5  1  0.334140  0.997038  0.250010  1
  Tb  Tb6  1  0.336036  0.826661  0.875606  1
  Tb  Tb7  1  0.836036  0.673339  0.624394  1
  Tb  Tb8  1  0.664807  0.171417  0.375110  1
  Tb  Tb9  1  0.164807  0.328583  0.124890  1
  Tb  Tb10  1  0.665741  0.172172  0.125022  1
  Tb  Tb11  1  0.165741  0.327828  0.374978  1
  Pr  Pr12  1  0.492897  0.317545  0.904796  1
  Pr  Pr13  1  0.992897  0.182455  0.595204  1
  Pr  Pr14  1  0.506426  0.680747  0.403488  1
  Pr  Pr15  1  0.006426  0.819253  0.096512  1
  Pr  Pr16  1  0.507038  0.680531  0.095680  1
  Pr  Pr17  1  0.007038  0.819469  0.404320  1
  Pr  Pr18  1  0.492861  0.317126  0.595035  1
  Pr  Pr19  1  0.992861  0.182874  0.904965  1
  Sn  Sn20  1  0.325500  0.039430  0.037408  1
  Sn  Sn21  1  0.825500  0.460570  0.462592  1
  Sn  Sn22  1  0.678494  0.960646  0.535521  1
  Sn  Sn23  1  0.178494  0.539354  0.964479  1
  Sn  Sn24  1  0.669975  0.964807  0.962735  1
  Sn  Sn25  1  0.169975  0.535193  0.537265  1
  Sn  Sn26  1  0.328552  0.040167  0.460231  1
  Sn  Sn27  1  0.828552  0.459833  0.039769  1
  Sn  Sn28  1  0.535481  0.609670  0.748704  1
  Sn  Sn29  1  0.035481  0.890330  0.751296  1
  Sn  Sn30  1  0.466350  0.386415  0.250614  1
  Sn  Sn31  1  0.966350  0.113585  0.249386  1
  Sn  Sn32  1  0.291770  0.138005  0.751225  1
  Sn  Sn33  1  0.791770  0.361995  0.748775  1
  Sn  Sn34  1  0.704900  0.863984  0.250204  1
  Sn  Sn35  1  0.204900  0.636016  0.249796  1
