# generated using pymatgen
data_BaLiHoS3
_symmetry_space_group_name_H-M   'P 1'
_cell_length_a   7.08841406
_cell_length_b   7.08841514
_cell_length_c   10.28218300
_cell_angle_alpha   90.00000000
_cell_angle_beta   90.00000000
_cell_angle_gamma   146.40308125
_symmetry_Int_Tables_number   1
_chemical_formula_structural   BaLiHoS3
_chemical_formula_sum   'Ba2 Li2 Ho2 S6'
_cell_volume   285.87812160
_cell_formula_units_Z   2
loop_
 _symmetry_equiv_pos_site_id
 _symmetry_equiv_pos_as_xyz
  1  'x, y, z'
loop_
 _atom_site_type_symbol
 _atom_site_label
 _atom_site_symmetry_multiplicity
 _atom_site_fract_x
 _atom_site_fract_y
 _atom_site_fract_z
 _atom_site_occupancy
  Ba  Ba0  1  0.255477  0.744521  0.250000  1
  Ba  Ba1  1  0.744521  0.255477  0.750000  1
  Li  Li2  1  0.528973  0.471025  0.250000  1
  Li  Li3  1  0.471025  0.528973  0.750000  1
  Ho  Ho4  1  0.000000  0.000000  0.000000  1
  Ho  Ho5  1  0.000000  0.000000  0.500000  1
  S  S6  1  0.629139  0.370859  0.060193  1
  S  S7  1  0.935337  0.064661  0.250000  1
  S  S8  1  0.629139  0.370859  0.439807  1
  S  S9  1  0.370859  0.629139  0.560192  1
  S  S10  1  0.064661  0.935337  0.750000  1
  S  S11  1  0.370859  0.629139  0.939808  1
