# generated using pymatgen
data_La4Y(SnSb)2
_symmetry_space_group_name_H-M   'P 1'
_cell_length_a   8.50759200
_cell_length_b   8.57870300
_cell_length_c   16.27695900
_cell_angle_alpha   90.00000000
_cell_angle_beta   90.00000000
_cell_angle_gamma   90.00000000
_symmetry_Int_Tables_number   1
_chemical_formula_structural   La4Y(SnSb)2
_chemical_formula_sum   'La16 Y4 Sn8 Sb8'
_cell_volume   1187.95928495
_cell_formula_units_Z   4
loop_
 _symmetry_equiv_pos_site_id
 _symmetry_equiv_pos_as_xyz
  1  'x, y, z'
loop_
 _atom_site_type_symbol
 _atom_site_label
 _atom_site_symmetry_multiplicity
 _atom_site_fract_x
 _atom_site_fract_y
 _atom_site_fract_z
 _atom_site_occupancy
  La  La0  1  0.396860  0.836870  0.884249  1
  La  La1  1  0.896860  0.663130  0.615751  1
  La  La2  1  0.603140  0.163130  0.384249  1
  La  La3  1  0.103140  0.336870  0.115751  1
  La  La4  1  0.603140  0.163130  0.115751  1
  La  La5  1  0.103140  0.336870  0.384249  1
  La  La6  1  0.396860  0.836870  0.615751  1
  La  La7  1  0.896860  0.663130  0.884249  1
  La  La8  1  0.554593  0.327000  0.892830  1
  La  La9  1  0.054593  0.173000  0.607170  1
  La  La10  1  0.445407  0.673000  0.392830  1
  La  La11  1  0.945407  0.827000  0.107170  1
  La  La12  1  0.445407  0.673000  0.107170  1
  La  La13  1  0.945407  0.827000  0.392830  1
  La  La14  1  0.554593  0.327000  0.607170  1
  La  La15  1  0.054593  0.173000  0.892830  1
  Y  Y16  1  0.225548  0.496272  0.750000  1
  Y  Y17  1  0.725548  0.003728  0.750000  1
  Y  Y18  1  0.774452  0.503728  0.250000  1
  Y  Y19  1  0.274452  0.996272  0.250000  1
  Sn  Sn20  1  0.593797  0.625528  0.750000  1
  Sn  Sn21  1  0.093797  0.874472  0.750000  1
  Sn  Sn22  1  0.406203  0.374472  0.250000  1
  Sn  Sn23  1  0.906203  0.125528  0.250000  1
  Sn  Sn24  1  0.358085  0.138966  0.750000  1
  Sn  Sn25  1  0.858085  0.361034  0.750000  1
  Sn  Sn26  1  0.641915  0.861034  0.250000  1
  Sn  Sn27  1  0.141915  0.638966  0.250000  1
  Sb  Sb28  1  0.264400  0.014086  0.051583  1
  Sb  Sb29  1  0.764400  0.485914  0.448417  1
  Sb  Sb30  1  0.735600  0.985914  0.551583  1
  Sb  Sb31  1  0.235600  0.514086  0.948417  1
  Sb  Sb32  1  0.735600  0.985914  0.948417  1
  Sb  Sb33  1  0.235600  0.514086  0.551583  1
  Sb  Sb34  1  0.264400  0.014086  0.448417  1
  Sb  Sb35  1  0.764400  0.485914  0.051583  1
