# generated using pymatgen
data_Tb12TePb9
_symmetry_space_group_name_H-M   'P 1'
_cell_length_a   11.82789599
_cell_length_b   11.90312846
_cell_length_c   11.90312800
_cell_angle_alpha   147.56598024
_cell_angle_beta   132.80664809
_cell_angle_gamma   58.49695589
_symmetry_Int_Tables_number   1
_chemical_formula_structural   Tb12TePb9
_chemical_formula_sum   'Tb12 Te1 Pb9'
_cell_volume   653.84262186
_cell_formula_units_Z   1
loop_
 _symmetry_equiv_pos_site_id
 _symmetry_equiv_pos_as_xyz
  1  'x, y, z'
loop_
 _atom_site_type_symbol
 _atom_site_label
 _atom_site_symmetry_multiplicity
 _atom_site_fract_x
 _atom_site_fract_y
 _atom_site_fract_z
 _atom_site_occupancy
  Tb  Tb0  1  0.694970  0.947720  0.250764  1
  Tb  Tb1  1  0.246908  0.639784  0.607124  1
  Tb  Tb2  1  0.679532  0.942865  0.736667  1
  Tb  Tb3  1  0.025874  0.138639  0.887236  1
  Tb  Tb4  1  0.974152  0.860682  0.113470  1
  Tb  Tb5  1  0.784712  0.557251  0.227461  1
  Tb  Tb6  1  0.214327  0.443295  0.771032  1
  Tb  Tb7  1  0.303739  0.053137  0.749727  1
  Tb  Tb8  1  0.321746  0.057555  0.264191  1
  Tb  Tb9  1  0.303739  0.554010  0.250602  1
  Tb  Tb10  1  0.750550  0.359136  0.391415  1
  Tb  Tb11  1  0.694970  0.444206  0.747250  1
  Te  Te12  1  0.473167  0.578964  0.894202  1
  Pb  Pb13  1  0.600925  0.795267  0.805659  1
  Pb  Pb14  1  0.674263  0.075403  0.598859  1
  Pb  Pb15  1  0.001479  0.747267  0.748452  1
  Pb  Pb16  1  0.992606  0.295856  0.696751  1
  Pb  Pb17  1  0.526742  0.422028  0.104715  1
  Pb  Pb18  1  0.007005  0.704328  0.302677  1
  Pb  Pb19  1  0.399797  0.204791  0.195005  1
  Pb  Pb20  1  0.327321  0.924791  0.402531  1
  Pb  Pb21  1  0.001479  0.253027  0.254212  1
