# generated using pymatgen
data_Li2TbCe(PO3)8
_symmetry_space_group_name_H-M   'P 1'
_cell_length_a   7.17798414
_cell_length_b   9.05748836
_cell_length_c   9.05729827
_cell_angle_alpha   95.45436311
_cell_angle_beta   113.34420516
_cell_angle_gamma   113.34369268
_symmetry_Int_Tables_number   1
_chemical_formula_structural   Li2TbCe(PO3)8
_chemical_formula_sum   'Li2 Tb1 Ce1 P8 O24'
_cell_volume   473.68598828
_cell_formula_units_Z   1
loop_
 _symmetry_equiv_pos_site_id
 _symmetry_equiv_pos_as_xyz
  1  'x, y, z'
loop_
 _atom_site_type_symbol
 _atom_site_label
 _atom_site_symmetry_multiplicity
 _atom_site_fract_x
 _atom_site_fract_y
 _atom_site_fract_z
 _atom_site_occupancy
  Li  Li0  1  0.451331  0.250000  0.250000  1
  Li  Li1  1  0.548918  0.750000  0.750000  1
  Tb  Tb2  1  0.947916  0.250000  0.250000  1
  Ce  Ce3  1  0.052423  0.750000  0.750000  1
  P  P4  1  0.611866  0.804148  0.097159  1
  P  P5  1  0.083875  0.888333  0.165894  1
  P  P6  1  0.529648  0.611667  0.334105  1
  P  P7  1  0.210560  0.695852  0.402840  1
  P  P8  1  0.788234  0.298107  0.596461  1
  P  P9  1  0.460391  0.383841  0.655726  1
  P  P10  1  0.920825  0.116159  0.844275  1
  P  P11  1  0.393668  0.201893  0.903540  1
  O  O12  1  0.156098  0.824624  0.050408  1
  O  O13  1  0.566296  0.236923  0.082896  1
  O  O14  1  0.811152  0.768469  0.088092  1
  O  O15  1  0.490183  0.649797  0.156876  1
  O  O16  1  0.145532  0.072362  0.209790  1
  O  O17  1  0.717933  0.972962  0.220961  1
  O  O18  1  0.024009  0.527038  0.279040  1
  O  O19  1  0.363383  0.427638  0.290210  1
  O  O20  1  0.183509  0.850203  0.343124  1
  O  O21  1  0.454590  0.731532  0.411908  1
  O  O22  1  0.746477  0.263077  0.417104  1
  O  O23  1  0.781067  0.675376  0.449592  1
  O  O24  1  0.208769  0.314750  0.535543  1
  O  O25  1  0.256928  0.730112  0.583088  1
  O  O26  1  0.542961  0.266759  0.583007  1
  O  O27  1  0.810837  0.145359  0.663119  1
  O  O28  1  0.621547  0.568507  0.697691  1
  O  O29  1  0.976941  0.464651  0.723262  1
  O  O30  1  0.289025  0.035349  0.776737  1
  O  O31  1  0.855349  0.931492  0.802308  1
  O  O32  1  0.502357  0.354641  0.836882  1
  O  O33  1  0.193195  0.233241  0.916993  1
  O  O34  1  0.443729  0.769888  0.916912  1
  O  O35  1  0.858476  0.185250  0.964456  1
