# generated using pymatgen
data_Yb3HoRe3B16W
_symmetry_space_group_name_H-M   'P 1'
_cell_length_a   3.56150400
_cell_length_b   6.00858515
_cell_length_c   11.61966816
_cell_angle_alpha   90.03896913
_cell_angle_beta   90.00000000
_cell_angle_gamma   90.00000000
_symmetry_Int_Tables_number   1
_chemical_formula_structural   Yb3HoRe3B16W
_chemical_formula_sum   'Yb3 Ho1 Re3 B16 W1'
_cell_volume   248.65619361
_cell_formula_units_Z   1
loop_
 _symmetry_equiv_pos_site_id
 _symmetry_equiv_pos_as_xyz
  1  'x, y, z'
loop_
 _atom_site_type_symbol
 _atom_site_label
 _atom_site_symmetry_multiplicity
 _atom_site_fract_x
 _atom_site_fract_y
 _atom_site_fract_z
 _atom_site_occupancy
  Yb  Yb0  1  0.000000  0.628272  0.149498  1
  Yb  Yb1  1  0.000000  0.372418  0.850214  1
  Yb  Yb2  1  0.000000  0.127479  0.349167  1
  Ho  Ho3  1  0.000000  0.873204  0.650124  1
  Re  Re4  1  0.000000  0.371255  0.585940  1
  Re  Re5  1  0.000000  0.131486  0.082606  1
  Re  Re6  1  0.000000  0.870445  0.916223  1
  B  B7  1  0.500000  0.977077  0.192122  1
  B  B8  1  0.500000  0.024639  0.807151  1
  B  B9  1  0.500000  0.474408  0.306026  1
  B  B10  1  0.500000  0.523513  0.693903  1
  B  B11  1  0.500000  0.787483  0.312779  1
  B  B12  1  0.500000  0.214754  0.685469  1
  B  B13  1  0.500000  0.284114  0.184339  1
  B  B14  1  0.500000  0.713786  0.815297  1
  B  B15  1  0.500000  0.867297  0.468799  1
  B  B16  1  0.500000  0.134898  0.532884  1
  B  B17  1  0.500000  0.365524  0.031782  1
  B  B18  1  0.500000  0.633925  0.968302  1
  B  B19  1  0.500000  0.884560  0.047278  1
  B  B20  1  0.500000  0.114444  0.951501  1
  B  B21  1  0.500000  0.382105  0.453648  1
  B  B22  1  0.500000  0.612098  0.549484  1
  W  W23  1  0.000000  0.630818  0.415465  1
