# generated using pymatgen
data_Nd5Dy(CCl5)2
_symmetry_space_group_name_H-M   'P 1'
_cell_length_a   7.21541803
_cell_length_b   8.72209255
_cell_length_c   8.79480700
_cell_angle_alpha   107.35491180
_cell_angle_beta   96.21452542
_cell_angle_gamma   104.72565596
_symmetry_Int_Tables_number   1
_chemical_formula_structural   Nd5Dy(CCl5)2
_chemical_formula_sum   'Nd5 Dy1 C2 Cl10'
_cell_volume   500.67787230
_cell_formula_units_Z   1
loop_
 _symmetry_equiv_pos_site_id
 _symmetry_equiv_pos_as_xyz
  1  'x, y, z'
loop_
 _atom_site_type_symbol
 _atom_site_label
 _atom_site_symmetry_multiplicity
 _atom_site_fract_x
 _atom_site_fract_y
 _atom_site_fract_z
 _atom_site_occupancy
  Nd  Nd0  1  0.880376  0.953045  0.239143  1
  Nd  Nd1  1  0.122546  0.049122  0.761362  1
  Nd  Nd2  1  0.033058  0.712480  0.914441  1
  Nd  Nd3  1  0.968514  0.288251  0.086776  1
  Nd  Nd4  1  0.602487  0.846432  0.796177  1
  Dy  Dy5  1  0.392090  0.149551  0.199286  1
  C  C6  1  0.907120  0.967957  0.953924  1
  C  C7  1  0.098307  0.034002  0.047157  1
  Cl  Cl8  1  0.755348  0.919327  0.539851  1
  Cl  Cl9  1  0.254689  0.085088  0.454083  1
  Cl  Cl10  1  0.456698  0.825823  0.091474  1
  Cl  Cl11  1  0.540275  0.183641  0.921972  1
  Cl  Cl12  1  0.794384  0.259978  0.351693  1
  Cl  Cl13  1  0.186328  0.734915  0.640114  1
  Cl  Cl14  1  0.909755  0.628018  0.177978  1
  Cl  Cl15  1  0.091670  0.373350  0.823629  1
  Cl  Cl16  1  0.659862  0.539566  0.725756  1
  Cl  Cl17  1  0.346491  0.449453  0.275185  1
