# generated using pymatgen
data_TbYb(UH4)6
_symmetry_space_group_name_H-M   'P 1'
_cell_length_a   6.63535100
_cell_length_b   6.59695500
_cell_length_c   6.59695500
_cell_angle_alpha   90.00000000
_cell_angle_beta   90.00000000
_cell_angle_gamma   90.00000000
_symmetry_Int_Tables_number   1
_chemical_formula_structural   TbYb(UH4)6
_chemical_formula_sum   'Tb1 Yb1 U6 H24'
_cell_volume   288.76924979
_cell_formula_units_Z   1
loop_
 _symmetry_equiv_pos_site_id
 _symmetry_equiv_pos_as_xyz
  1  'x, y, z'
loop_
 _atom_site_type_symbol
 _atom_site_label
 _atom_site_symmetry_multiplicity
 _atom_site_fract_x
 _atom_site_fract_y
 _atom_site_fract_z
 _atom_site_occupancy
  Tb  Tb0  1  0.250000  0.000000  0.500000  1
  Yb  Yb1  1  0.750000  0.000000  0.500000  1
  U  U2  1  0.000360  0.000000  0.000000  1
  U  U3  1  0.499640  0.500000  0.500000  1
  U  U4  1  0.999755  0.500000  0.251872  1
  U  U5  1  0.999755  0.500000  0.748128  1
  U  U6  1  0.500245  0.751872  0.000000  1
  U  U7  1  0.500245  0.248128  0.000000  1
  H  H8  1  0.005857  0.156978  0.297933  1
  H  H9  1  0.494143  0.202067  0.656978  1
  H  H10  1  0.494143  0.797933  0.343022  1
  H  H11  1  0.808069  0.649341  0.500000  1
  H  H12  1  0.193659  0.653301  0.500000  1
  H  H13  1  0.344988  0.500000  0.804034  1
  H  H14  1  0.655297  0.500000  0.803670  1
  H  H15  1  0.306341  0.000000  0.153301  1
  H  H16  1  0.155012  0.304034  0.000000  1
  H  H17  1  0.844703  0.696330  0.000000  1
  H  H18  1  0.306341  0.000000  0.846699  1
  H  H19  1  0.844703  0.303670  0.000000  1
  H  H20  1  0.691931  0.000000  0.149341  1
  H  H21  1  0.691931  0.000000  0.850659  1
  H  H22  1  0.155012  0.695966  0.000000  1
  H  H23  1  0.005857  0.843022  0.702067  1
  H  H24  1  0.005857  0.156978  0.702067  1
  H  H25  1  0.005857  0.843022  0.297933  1
  H  H26  1  0.655297  0.500000  0.196330  1
  H  H27  1  0.344988  0.500000  0.195966  1
  H  H28  1  0.808069  0.350659  0.500000  1
  H  H29  1  0.193659  0.346699  0.500000  1
  H  H30  1  0.494143  0.797933  0.656978  1
  H  H31  1  0.494143  0.202067  0.343022  1
