# generated using pymatgen
data_Y5Ho3Np4O24
_symmetry_space_group_name_H-M   'P 1'
_cell_length_a   5.53784922
_cell_length_b   7.84752315
_cell_length_c   11.84609681
_cell_angle_alpha   73.85712069
_cell_angle_beta   90.01326104
_cell_angle_gamma   90.03178631
_symmetry_Int_Tables_number   1
_chemical_formula_structural   Y5Ho3Np4O24
_chemical_formula_sum   'Y5 Ho3 Np4 O24'
_cell_volume   494.51397526
_cell_formula_units_Z   1
loop_
 _symmetry_equiv_pos_site_id
 _symmetry_equiv_pos_as_xyz
  1  'x, y, z'
loop_
 _atom_site_type_symbol
 _atom_site_label
 _atom_site_symmetry_multiplicity
 _atom_site_fract_x
 _atom_site_fract_y
 _atom_site_fract_z
 _atom_site_occupancy
  Y  Y0  1  0.744887  0.000423  0.750567  1
  Y  Y1  1  0.255181  0.000144  0.249566  1
  Y  Y2  1  0.186019  0.794756  0.579532  1
  Y  Y3  1  0.698111  0.499574  0.750530  1
  Y  Y4  1  0.302125  0.499874  0.249843  1
  Ho  Ho5  1  0.814530  0.794385  0.079645  1
  Ho  Ho6  1  0.185770  0.205615  0.920344  1
  Ho  Ho7  1  0.813773  0.205850  0.420225  1
  Np  Np8  1  0.256081  0.720606  0.887182  1
  Np  Np9  1  0.744407  0.720589  0.386299  1
  Np  Np10  1  0.255623  0.279294  0.613165  1
  Np  Np11  1  0.744314  0.279308  0.113177  1
  O  O12  1  0.046076  0.943751  0.897621  1
  O  O13  1  0.553649  0.847516  0.932885  1
  O  O14  1  0.953764  0.944239  0.396737  1
  O  O15  1  0.449112  0.801110  0.727352  1
  O  O16  1  0.447420  0.847831  0.431310  1
  O  O17  1  0.964488  0.713856  0.766963  1
  O  O18  1  0.552266  0.801052  0.225989  1
  O  O19  1  0.873862  0.626338  0.554142  1
  O  O20  1  0.386895  0.480834  0.883605  1
  O  O21  1  0.035636  0.714035  0.265961  1
  O  O22  1  0.388625  0.518181  0.616516  1
  O  O23  1  0.875821  0.372673  0.945676  1
  O  O24  1  0.124134  0.626990  0.054539  1
  O  O25  1  0.612787  0.480740  0.383171  1
  O  O26  1  0.965008  0.286153  0.734216  1
  O  O27  1  0.612916  0.519131  0.116378  1
  O  O28  1  0.124143  0.372934  0.445446  1
  O  O29  1  0.447865  0.198588  0.773763  1
  O  O30  1  0.035214  0.285969  0.233766  1
  O  O31  1  0.553095  0.152169  0.567506  1
  O  O32  1  0.551969  0.198948  0.273477  1
  O  O33  1  0.044287  0.057489  0.602824  1
  O  O34  1  0.446114  0.152813  0.067508  1
  O  O35  1  0.954034  0.056242  0.102574  1
