# generated using pymatgen
data_Nb4FeCo3Si7
_symmetry_space_group_name_H-M   'P 1'
_cell_length_a   9.22396469
_cell_length_b   9.22396492
_cell_length_c   9.24118666
_cell_angle_alpha   94.23847937
_cell_angle_beta   94.23848195
_cell_angle_gamma   148.41981434
_symmetry_Int_Tables_number   1
_chemical_formula_structural   Nb4FeCo3Si7
_chemical_formula_sum   'Nb8 Fe2 Co6 Si14'
_cell_volume   396.27598335
_cell_formula_units_Z   2
loop_
 _symmetry_equiv_pos_site_id
 _symmetry_equiv_pos_as_xyz
  1  'x, y, z'
loop_
 _atom_site_type_symbol
 _atom_site_label
 _atom_site_symmetry_multiplicity
 _atom_site_fract_x
 _atom_site_fract_y
 _atom_site_fract_z
 _atom_site_occupancy
  Nb  Nb0  1  0.133929  0.133929  0.267857  1
  Nb  Nb1  1  0.866071  0.866071  0.732143  1
  Nb  Nb2  1  0.865470  0.134530  0.000000  1
  Nb  Nb3  1  0.134530  0.865470  0.000000  1
  Nb  Nb4  1  0.499448  0.690969  0.191451  1
  Nb  Nb5  1  0.499518  0.307998  0.808549  1
  Nb  Nb6  1  0.309031  0.500552  0.808549  1
  Nb  Nb7  1  0.692002  0.500482  0.191451  1
  Fe  Fe8  1  0.900068  0.400068  0.800136  1
  Fe  Fe9  1  0.599932  0.099932  0.199864  1
  Co  Co10  1  0.398781  0.898781  0.797561  1
  Co  Co11  1  0.101219  0.601219  0.202439  1
  Co  Co12  1  0.102205  0.897795  0.500000  1
  Co  Co13  1  0.397795  0.602205  0.500000  1
  Co  Co14  1  0.600079  0.399921  0.500000  1
  Co  Co15  1  0.899921  0.100079  0.500000  1
  Si  Si16  1  0.291673  0.291673  0.583346  1
  Si  Si17  1  0.708327  0.708327  0.416654  1
  Si  Si18  1  0.708253  0.291747  0.000000  1
  Si  Si19  1  0.291747  0.708253  0.000000  1
  Si  Si20  1  0.996275  0.293446  0.296342  1
  Si  Si21  1  0.997104  0.699933  0.703658  1
  Si  Si22  1  0.706554  0.003725  0.703658  1
  Si  Si23  1  0.300067  0.002896  0.296342  1
  Si  Si24  1  0.504465  0.911820  0.404353  1
  Si  Si25  1  0.507467  0.100112  0.595647  1
  Si  Si26  1  0.088180  0.495535  0.595647  1
  Si  Si27  1  0.899888  0.492533  0.404353  1
  Si  Si28  1  0.750781  0.750781  0.000000  1
  Si  Si29  1  0.249219  0.249219  0.000000  1
