# generated using pymatgen
data_Ac7NdTl3InSi8
_symmetry_space_group_name_H-M   'P 1'
_cell_length_a   4.50326500
_cell_length_b   8.13084934
_cell_length_c   15.38040631
_cell_angle_alpha   90.48860850
_cell_angle_beta   90.00000000
_cell_angle_gamma   90.00000000
_symmetry_Int_Tables_number   1
_chemical_formula_structural   Ac7NdTl3InSi8
_chemical_formula_sum   'Ac7 Nd1 Tl3 In1 Si8'
_cell_volume   563.13877921
_cell_formula_units_Z   1
loop_
 _symmetry_equiv_pos_site_id
 _symmetry_equiv_pos_as_xyz
  1  'x, y, z'
loop_
 _atom_site_type_symbol
 _atom_site_label
 _atom_site_symmetry_multiplicity
 _atom_site_fract_x
 _atom_site_fract_y
 _atom_site_fract_z
 _atom_site_occupancy
  Ac  Ac0  1  0.500000  0.747964  0.032246  1
  Ac  Ac1  1  0.500000  0.242098  0.959625  1
  Ac  Ac2  1  0.500000  0.257269  0.469403  1
  Ac  Ac3  1  0.500000  0.750974  0.538466  1
  Ac  Ac4  1  0.500000  0.621449  0.283982  1
  Ac  Ac5  1  0.500000  0.382113  0.721989  1
  Ac  Ac6  1  0.500000  0.122307  0.214433  1
  Nd  Nd7  1  0.500000  0.881541  0.782381  1
  Tl  Tl8  1  0.000000  0.945285  0.378002  1
  Tl  Tl9  1  0.000000  0.051942  0.627955  1
  Tl  Tl10  1  0.000000  0.442299  0.119659  1
  In  In11  1  0.000000  0.577149  0.872192  1
  Si  Si12  1  0.000000  0.549539  0.429035  1
  Si  Si13  1  0.000000  0.459285  0.579955  1
  Si  Si14  1  0.000000  0.042039  0.068249  1
  Si  Si15  1  0.000000  0.932786  0.918169  1
  Si  Si16  1  0.000000  0.836378  0.180850  1
  Si  Si17  1  0.000000  0.147618  0.813135  1
  Si  Si18  1  0.000000  0.334067  0.321366  1
  Si  Si19  1  0.000000  0.675901  0.688912  1
