# generated using pymatgen
data_TbTeClO3
_symmetry_space_group_name_H-M   'P 1'
_cell_length_a   7.23960100
_cell_length_b   7.80057729
_cell_length_c   8.29040442
_cell_angle_alpha   74.27080472
_cell_angle_beta   90.00000000
_cell_angle_gamma   90.00000000
_symmetry_Int_Tables_number   1
_chemical_formula_structural   TbTeClO3
_chemical_formula_sum   'Tb4 Te4 Cl4 O12'
_cell_volume   450.65280276
_cell_formula_units_Z   4
loop_
 _symmetry_equiv_pos_site_id
 _symmetry_equiv_pos_as_xyz
  1  'x, y, z'
loop_
 _atom_site_type_symbol
 _atom_site_label
 _atom_site_symmetry_multiplicity
 _atom_site_fract_x
 _atom_site_fract_y
 _atom_site_fract_z
 _atom_site_occupancy
  Tb  Tb0  1  0.747636  0.789251  0.367357  1
  Tb  Tb1  1  0.252364  0.210749  0.632643  1
  Tb  Tb2  1  0.247636  0.710749  0.632643  1
  Tb  Tb3  1  0.752364  0.289251  0.367357  1
  Te  Te4  1  0.708722  0.930990  0.731511  1
  Te  Te5  1  0.208722  0.569010  0.268489  1
  Te  Te6  1  0.791278  0.430990  0.731511  1
  Te  Te7  1  0.291278  0.069010  0.268489  1
  Cl  Cl8  1  0.697604  0.611345  0.117432  1
  Cl  Cl9  1  0.302396  0.388655  0.882568  1
  Cl  Cl10  1  0.802396  0.111345  0.117432  1
  Cl  Cl11  1  0.197604  0.888655  0.882568  1
  O  O12  1  0.799924  0.999393  0.504614  1
  O  O13  1  0.446876  0.240471  0.324905  1
  O  O14  1  0.053124  0.740471  0.324905  1
  O  O15  1  0.555326  0.136550  0.685610  1
  O  O16  1  0.944674  0.636550  0.685610  1
  O  O17  1  0.055326  0.363450  0.314390  1
  O  O18  1  0.444674  0.863450  0.314390  1
  O  O19  1  0.553124  0.759529  0.675095  1
  O  O20  1  0.700076  0.499393  0.504614  1
  O  O21  1  0.200076  0.000607  0.495386  1
  O  O22  1  0.299924  0.500607  0.495386  1
  O  O23  1  0.946876  0.259529  0.675095  1
