# generated using pymatgen
data_Ho9Tm11Pt16
_symmetry_space_group_name_H-M   'P 1'
_cell_length_a   7.42273703
_cell_length_b   7.51868206
_cell_length_c   14.62753810
_cell_angle_alpha   90.01236134
_cell_angle_beta   89.99573435
_cell_angle_gamma   90.00858229
_symmetry_Int_Tables_number   1
_chemical_formula_structural   Ho9Tm11Pt16
_chemical_formula_sum   'Ho9 Tm11 Pt16'
_cell_volume   816.35116498
_cell_formula_units_Z   1
loop_
 _symmetry_equiv_pos_site_id
 _symmetry_equiv_pos_as_xyz
  1  'x, y, z'
loop_
 _atom_site_type_symbol
 _atom_site_label
 _atom_site_symmetry_multiplicity
 _atom_site_fract_x
 _atom_site_fract_y
 _atom_site_fract_z
 _atom_site_occupancy
  Ho  Ho0  1  0.157094  0.332186  0.622542  1
  Ho  Ho1  1  0.501121  0.680055  0.592541  1
  Ho  Ho2  1  0.000966  0.820137  0.907469  1
  Ho  Ho3  1  0.499056  0.320129  0.092525  1
  Ho  Ho4  1  0.998918  0.179723  0.407332  1
  Ho  Ho5  1  0.499080  0.320131  0.407428  1
  Ho  Ho6  1  0.998988  0.179827  0.092526  1
  Ho  Ho7  1  0.500973  0.679852  0.907437  1
  Ho  Ho8  1  0.000847  0.820191  0.592572  1
  Tm  Tm9  1  0.657064  0.167685  0.622626  1
  Tm  Tm10  1  0.157055  0.332225  0.877453  1
  Tm  Tm11  1  0.342933  0.832245  0.122632  1
  Tm  Tm12  1  0.842873  0.667810  0.377343  1
  Tm  Tm13  1  0.342943  0.832225  0.377355  1
  Tm  Tm14  1  0.842923  0.667770  0.122622  1
  Tm  Tm15  1  0.657065  0.167724  0.877422  1
  Tm  Tm16  1  0.818901  0.511640  0.750097  1
  Tm  Tm17  1  0.319264  0.988320  0.750098  1
  Tm  Tm18  1  0.180883  0.488520  0.249995  1
  Tm  Tm19  1  0.680867  0.011482  0.249989  1
  Pt  Pt20  1  0.683171  0.967028  0.458296  1
  Pt  Pt21  1  0.183118  0.533017  0.041687  1
  Pt  Pt22  1  0.316894  0.033005  0.958293  1
  Pt  Pt23  1  0.816429  0.467205  0.541589  1
  Pt  Pt24  1  0.317238  0.032326  0.541535  1
  Pt  Pt25  1  0.816915  0.467004  0.958293  1
  Pt  Pt26  1  0.683117  0.967002  0.041676  1
  Pt  Pt27  1  0.183165  0.533433  0.458000  1
  Pt  Pt28  1  0.454866  0.386934  0.750213  1
  Pt  Pt29  1  0.954138  0.112838  0.750228  1
  Pt  Pt30  1  0.545565  0.613156  0.249998  1
  Pt  Pt31  1  0.045575  0.886844  0.249993  1
  Pt  Pt32  1  0.683204  0.856744  0.750018  1
  Pt  Pt33  1  0.183307  0.643555  0.750183  1
  Pt  Pt34  1  0.316747  0.143218  0.250002  1
  Pt  Pt35  1  0.816737  0.356812  0.249991  1
