# generated using pymatgen
data_Tb16Cd4IrPd2Ru
_symmetry_space_group_name_H-M   'P 1'
_cell_length_a   9.70929733
_cell_length_b   9.70929797
_cell_length_c   9.75924452
_cell_angle_alpha   59.72973462
_cell_angle_beta   59.72973156
_cell_angle_gamma   59.63603376
_symmetry_Int_Tables_number   1
_chemical_formula_structural   Tb16Cd4IrPd2Ru
_chemical_formula_sum   'Tb16 Cd4 Ir1 Pd2 Ru1'
_cell_volume   646.08775207
_cell_formula_units_Z   1
loop_
 _symmetry_equiv_pos_site_id
 _symmetry_equiv_pos_as_xyz
  1  'x, y, z'
loop_
 _atom_site_type_symbol
 _atom_site_label
 _atom_site_symmetry_multiplicity
 _atom_site_fract_x
 _atom_site_fract_y
 _atom_site_fract_z
 _atom_site_occupancy
  Tb  Tb0  1  0.348406  0.348406  0.355417  1
  Tb  Tb1  1  0.351978  0.351978  0.942089  1
  Tb  Tb2  1  0.345912  0.952071  0.352507  1
  Tb  Tb3  1  0.952071  0.345912  0.352507  1
  Tb  Tb4  1  0.813978  0.189218  0.190955  1
  Tb  Tb5  1  0.186648  0.816645  0.805348  1
  Tb  Tb6  1  0.189218  0.813978  0.190955  1
  Tb  Tb7  1  0.816645  0.186648  0.805348  1
  Tb  Tb8  1  0.188737  0.188737  0.809399  1
  Tb  Tb9  1  0.808817  0.808817  0.189962  1
  Tb  Tb10  1  0.936117  0.560269  0.567684  1
  Tb  Tb11  1  0.559804  0.935971  0.937357  1
  Tb  Tb12  1  0.560269  0.936117  0.567684  1
  Tb  Tb13  1  0.935971  0.559804  0.937357  1
  Tb  Tb14  1  0.564452  0.564452  0.937364  1
  Tb  Tb15  1  0.936854  0.936854  0.563944  1
  Cd  Cd16  1  0.580399  0.580399  0.580755  1
  Cd  Cd17  1  0.580478  0.580478  0.257364  1
  Cd  Cd18  1  0.581938  0.254517  0.581200  1
  Cd  Cd19  1  0.254517  0.581938  0.581200  1
  Ir  Ir20  1  0.145175  0.145175  0.138242  1
  Pd  Pd21  1  0.145769  0.571208  0.141441  1
  Pd  Pd22  1  0.571208  0.145769  0.141441  1
  Ru  Ru23  1  0.144641  0.144641  0.572478  1
