# generated using pymatgen
data_Cr2CdSb2(PO4)6
_symmetry_space_group_name_H-M   'P 1'
_cell_length_a   8.40260037
_cell_length_b   8.40260076
_cell_length_c   8.89194329
_cell_angle_alpha   118.19565539
_cell_angle_beta   61.80434419
_cell_angle_gamma   120.00000558
_symmetry_Int_Tables_number   1
_chemical_formula_structural   Cr2CdSb2(PO4)6
_chemical_formula_sum   'Cr2 Cd1 Sb2 P6 O24'
_cell_volume   455.64861552
_cell_formula_units_Z   1
loop_
 _symmetry_equiv_pos_site_id
 _symmetry_equiv_pos_as_xyz
  1  'x, y, z'
loop_
 _atom_site_type_symbol
 _atom_site_label
 _atom_site_symmetry_multiplicity
 _atom_site_fract_x
 _atom_site_fract_y
 _atom_site_fract_z
 _atom_site_occupancy
  Cr  Cr0  1  0.855229  0.144771  0.434312  1
  Cr  Cr1  1  0.144771  0.855229  0.565688  1
  Cd  Cd2  1  0.000000  0.000000  0.000000  1
  Sb  Sb3  1  0.647242  0.352757  0.058272  1
  Sb  Sb4  1  0.352757  0.647242  0.941728  1
  P  P5  1  0.245160  0.036012  0.250045  1
  P  P6  1  0.963988  0.459193  0.250045  1
  P  P7  1  0.540807  0.754839  0.250045  1
  P  P8  1  0.459193  0.245161  0.749954  1
  P  P9  1  0.036012  0.540807  0.749954  1
  P  P10  1  0.754839  0.963988  0.749954  1
  O  O11  1  0.159409  0.471917  0.090095  1
  O  O12  1  0.528083  0.777586  0.090095  1
  O  O13  1  0.222414  0.840591  0.090095  1
  O  O14  1  0.459271  0.181238  0.209581  1
  O  O15  1  0.818763  0.487615  0.209581  1
  O  O16  1  0.512386  0.540729  0.209581  1
  O  O17  1  0.110186  0.111679  0.251441  1
  O  O18  1  0.888322  0.249949  0.251441  1
  O  O19  1  0.750051  0.889814  0.251441  1
  O  O20  1  0.195676  0.007707  0.424019  1
  O  O21  1  0.992292  0.611987  0.424019  1
  O  O22  1  0.388012  0.804324  0.424019  1
  O  O23  1  0.611987  0.195676  0.575982  1
  O  O24  1  0.007707  0.388013  0.575982  1
  O  O25  1  0.804323  0.992292  0.575982  1
  O  O26  1  0.249948  0.110186  0.748559  1
  O  O27  1  0.111679  0.750052  0.748559  1
  O  O28  1  0.889814  0.888322  0.748559  1
  O  O29  1  0.487615  0.459272  0.790419  1
  O  O30  1  0.181239  0.512386  0.790419  1
  O  O31  1  0.540728  0.818762  0.790419  1
  O  O32  1  0.777586  0.159409  0.909906  1
  O  O33  1  0.471916  0.222414  0.909906  1
  O  O34  1  0.840591  0.528084  0.909906  1
