# generated using pymatgen
data_La10Pr6Cd4IrPt3
_symmetry_space_group_name_H-M   'P 1'
_cell_length_a   10.16513468
_cell_length_b   10.14841660
_cell_length_c   10.14841700
_cell_angle_alpha   60.00000194
_cell_angle_beta   60.05439161
_cell_angle_gamma   60.05439486
_symmetry_Int_Tables_number   1
_chemical_formula_structural   La10Pr6Cd4IrPt3
_chemical_formula_sum   'La10 Pr6 Cd4 Ir1 Pt3'
_cell_volume   740.88585713
_cell_formula_units_Z   1
loop_
 _symmetry_equiv_pos_site_id
 _symmetry_equiv_pos_as_xyz
  1  'x, y, z'
loop_
 _atom_site_type_symbol
 _atom_site_label
 _atom_site_symmetry_multiplicity
 _atom_site_fract_x
 _atom_site_fract_y
 _atom_site_fract_z
 _atom_site_occupancy
  La  La0  1  0.351047  0.346328  0.346328  1
  La  La1  1  0.351047  0.346328  0.956297  1
  La  La2  1  0.351047  0.956297  0.346328  1
  La  La3  1  0.950714  0.349762  0.349762  1
  La  La4  1  0.804962  0.191298  0.191298  1
  La  La5  1  0.193569  0.807221  0.807221  1
  La  La6  1  0.193569  0.807221  0.191990  1
  La  La7  1  0.804962  0.191298  0.812443  1
  La  La8  1  0.193569  0.191990  0.807221  1
  La  La9  1  0.804962  0.812443  0.191298  1
  Pr  Pr10  1  0.935911  0.565217  0.565217  1
  Pr  Pr11  1  0.566411  0.935240  0.935240  1
  Pr  Pr12  1  0.566411  0.935240  0.563107  1
  Pr  Pr13  1  0.935911  0.565217  0.933655  1
  Pr  Pr14  1  0.566411  0.563107  0.935240  1
  Pr  Pr15  1  0.935911  0.933655  0.565217  1
  Cd  Cd16  1  0.579201  0.579904  0.579904  1
  Cd  Cd17  1  0.579201  0.579904  0.260990  1
  Cd  Cd18  1  0.579201  0.260990  0.579904  1
  Cd  Cd19  1  0.261400  0.579533  0.579533  1
  Ir  Ir20  1  0.574196  0.141935  0.141935  1
  Pt  Pt21  1  0.140129  0.142889  0.142889  1
  Pt  Pt22  1  0.140129  0.142889  0.574093  1
  Pt  Pt23  1  0.140129  0.574093  0.142889  1
