# generated using pymatgen
data_Pu9MnRu6
_symmetry_space_group_name_H-M   'P 1'
_cell_length_a   8.03391276
_cell_length_b   8.03391276
_cell_length_c   8.03391291
_cell_angle_alpha   97.60660494
_cell_angle_beta   97.60660124
_cell_angle_gamma   137.32909290
_symmetry_Int_Tables_number   1
_chemical_formula_structural   Pu9MnRu6
_chemical_formula_sum   'Pu9 Mn1 Ru6'
_cell_volume   327.37183796
_cell_formula_units_Z   1
loop_
 _symmetry_equiv_pos_site_id
 _symmetry_equiv_pos_as_xyz
  1  'x, y, z'
loop_
 _atom_site_type_symbol
 _atom_site_label
 _atom_site_symmetry_multiplicity
 _atom_site_fract_x
 _atom_site_fract_y
 _atom_site_fract_z
 _atom_site_occupancy
  Pu  Pu0  1  0.250001  0.750001  0.500000  1
  Pu  Pu1  1  0.229685  0.086056  0.304803  1
  Pu  Pu2  1  0.781253  0.924882  0.695198  1
  Pu  Pu3  1  0.270315  0.575117  0.856370  1
  Pu  Pu4  1  0.718746  0.413944  0.143629  1
  Pu  Pu5  1  0.424882  0.281253  0.695198  1
  Pu  Pu6  1  0.586055  0.729684  0.304803  1
  Pu  Pu7  1  0.913944  0.218746  0.143629  1
  Pu  Pu8  1  0.075118  0.770316  0.856371  1
  Mn  Mn9  1  0.750001  0.250001  0.500000  1
  Ru  Ru10  1  0.650470  0.150470  0.820374  1
  Ru  Ru11  1  0.330097  0.830097  0.179626  1
  Ru  Ru12  1  0.849529  0.669902  0.499999  1
  Ru  Ru13  1  0.169902  0.349529  0.499999  1
  Ru  Ru14  1  0.250001  0.250001  0.000000  1
  Ru  Ru15  1  0.750000  0.750000  0.000000  1
