# generated using pymatgen
data_Tb3Er5(Si3Ir)4
_symmetry_space_group_name_H-M   'P 1'
_cell_length_a   8.15195900
_cell_length_b   8.15195960
_cell_length_c   7.85841200
_cell_angle_alpha   90.00000000
_cell_angle_beta   90.00000000
_cell_angle_gamma   120.01794724
_symmetry_Int_Tables_number   1
_chemical_formula_structural   Tb3Er5(Si3Ir)4
_chemical_formula_sum   'Tb3 Er5 Si12 Ir4'
_cell_volume   452.17949163
_cell_formula_units_Z   1
loop_
 _symmetry_equiv_pos_site_id
 _symmetry_equiv_pos_as_xyz
  1  'x, y, z'
loop_
 _atom_site_type_symbol
 _atom_site_label
 _atom_site_symmetry_multiplicity
 _atom_site_fract_x
 _atom_site_fract_y
 _atom_site_fract_z
 _atom_site_occupancy
  Tb  Tb0  1  0.000101  0.999899  0.250000  1
  Tb  Tb1  1  0.999913  0.000087  0.750000  1
  Tb  Tb2  1  0.489894  0.510106  0.250000  1
  Er  Er3  1  0.490226  0.980840  0.250000  1
  Er  Er4  1  0.019160  0.509774  0.250000  1
  Er  Er5  1  0.509775  0.490225  0.750000  1
  Er  Er6  1  0.980389  0.490123  0.750000  1
  Er  Er7  1  0.509877  0.019611  0.750000  1
  Si  Si8  1  0.833164  0.166836  0.499923  1
  Si  Si9  1  0.833072  0.665907  0.500223  1
  Si  Si10  1  0.334093  0.166928  0.500223  1
  Si  Si11  1  0.833164  0.166836  0.000077  1
  Si  Si12  1  0.833072  0.665907  0.999777  1
  Si  Si13  1  0.334093  0.166928  0.999777  1
  Si  Si14  1  0.167091  0.832909  0.999722  1
  Si  Si15  1  0.665809  0.833170  0.998846  1
  Si  Si16  1  0.166830  0.334191  0.998846  1
  Si  Si17  1  0.167091  0.832909  0.500278  1
  Si  Si18  1  0.665809  0.833170  0.501154  1
  Si  Si19  1  0.166830  0.334191  0.501154  1
  Ir  Ir20  1  0.667227  0.332773  0.466975  1
  Ir  Ir21  1  0.667227  0.332773  0.033025  1
  Ir  Ir22  1  0.333047  0.666953  0.963762  1
  Ir  Ir23  1  0.333047  0.666953  0.536238  1
