# generated using pymatgen
data_Ba14Na17ZrN6
_symmetry_space_group_name_H-M   'P 1'
_cell_length_a   10.99617071
_cell_length_b   11.96135290
_cell_length_c   13.48767253
_cell_angle_alpha   66.59187841
_cell_angle_beta   67.52564377
_cell_angle_gamma   78.54984822
_symmetry_Int_Tables_number   1
_chemical_formula_structural   Ba14Na17ZrN6
_chemical_formula_sum   'Ba14 Na17 Zr1 N6'
_cell_volume   1502.09169924
_cell_formula_units_Z   1
loop_
 _symmetry_equiv_pos_site_id
 _symmetry_equiv_pos_as_xyz
  1  'x, y, z'
loop_
 _atom_site_type_symbol
 _atom_site_label
 _atom_site_symmetry_multiplicity
 _atom_site_fract_x
 _atom_site_fract_y
 _atom_site_fract_z
 _atom_site_occupancy
  Ba  Ba0  1  0.364624  0.785651  0.444393  1
  Ba  Ba1  1  0.635376  0.214349  0.555607  1
  Ba  Ba2  1  0.268086  0.306202  0.703145  1
  Ba  Ba3  1  0.731914  0.693798  0.296855  1
  Ba  Ba4  1  0.256480  0.520782  0.399544  1
  Ba  Ba5  1  0.743520  0.479218  0.600456  1
  Ba  Ba6  1  0.380550  0.569957  0.743835  1
  Ba  Ba7  1  0.619450  0.430043  0.256165  1
  Ba  Ba8  1  0.346046  0.166912  0.456665  1
  Ba  Ba9  1  0.653954  0.833088  0.543335  1
  Ba  Ba10  1  0.477570  0.786699  0.120420  1
  Ba  Ba11  1  0.522430  0.213301  0.879580  1
  Ba  Ba12  1  0.035781  0.620240  0.675797  1
  Ba  Ba13  1  0.964219  0.379760  0.324203  1
  Na  Na14  1  0.000000  0.000000  0.500000  1
  Na  Na15  1  0.238576  0.097592  0.206108  1
  Na  Na16  1  0.761424  0.902408  0.793892  1
  Na  Na17  1  0.632611  0.600958  0.894653  1
  Na  Na18  1  0.367389  0.399042  0.105347  1
  Na  Na19  1  0.041811  0.817262  0.311050  1
  Na  Na20  1  0.958189  0.182738  0.688950  1
  Na  Na21  1  0.134912  0.891615  0.756208  1
  Na  Na22  1  0.865088  0.108385  0.243792  1
  Na  Na23  1  0.587335  0.082112  0.187596  1
  Na  Na24  1  0.412665  0.917888  0.812404  1
  Na  Na25  1  0.906829  0.644998  0.983390  1
  Na  Na26  1  0.093171  0.355002  0.016610  1
  Na  Na27  1  0.851204  0.974440  0.989563  1
  Na  Na28  1  0.148796  0.025560  0.010437  1
  Na  Na29  1  0.168619  0.688865  0.058418  1
  Na  Na30  1  0.831381  0.311135  0.941582  1
  Zr  Zr31  1  0.500000  0.500000  0.500000  1
  N  N32  1  0.488975  0.629910  0.320398  1
  N  N33  1  0.511025  0.370090  0.679602  1
  N  N34  1  0.432533  0.341242  0.477969  1
  N  N35  1  0.567467  0.658758  0.522031  1
  N  N36  1  0.718769  0.445953  0.413579  1
  N  N37  1  0.281231  0.554047  0.586421  1
