# generated using pymatgen
data_V5Tc7P4
_symmetry_space_group_name_H-M   'P 1'
_cell_length_a   7.13164456
_cell_length_b   7.13224274
_cell_length_c   7.15622699
_cell_angle_alpha   96.09686698
_cell_angle_beta   96.20990394
_cell_angle_gamma   141.42627406
_symmetry_Int_Tables_number   1
_chemical_formula_structural   V5Tc7P4
_chemical_formula_sum   'V5 Tc7 P4'
_cell_volume   214.67690463
_cell_formula_units_Z   1
loop_
 _symmetry_equiv_pos_site_id
 _symmetry_equiv_pos_as_xyz
  1  'x, y, z'
loop_
 _atom_site_type_symbol
 _atom_site_label
 _atom_site_symmetry_multiplicity
 _atom_site_fract_x
 _atom_site_fract_y
 _atom_site_fract_z
 _atom_site_occupancy
  V  V0  1  0.023833  0.352420  0.393515  1
  V  V1  1  0.958740  0.632612  0.605638  1
  V  V2  1  0.651563  0.042008  0.674350  1
  V  V3  1  0.365683  0.975936  0.331085  1
  V  V4  1  0.985030  0.925068  0.384845  1
  Tc  Tc5  1  0.528889  0.588235  0.608734  1
  Tc  Tc6  1  0.080886  0.467322  0.062604  1
  Tc  Tc7  1  0.408985  0.018807  0.940457  1
  Tc  Tc8  1  0.345341  0.311313  0.181813  1
  Tc  Tc9  1  0.127147  0.161219  0.813557  1
  Tc  Tc10  1  0.685492  0.869853  0.035725  1
  Tc  Tc11  1  0.837425  0.651848  0.965760  1
  P  P12  1  0.550920  0.796098  0.344502  1
  P  P13  1  0.447984  0.200801  0.655827  1
  P  P14  1  0.205656  0.550253  0.753330  1
  P  P15  1  0.796423  0.456206  0.248255  1
