# generated using pymatgen
data_Zr3Nb3Co2(BRu2)4
_symmetry_space_group_name_H-M   'P 1'
_cell_length_a   9.35338401
_cell_length_b   9.35338442
_cell_length_c   3.10070000
_cell_angle_alpha   90.00000000
_cell_angle_beta   90.00000000
_cell_angle_gamma   90.14591369
_symmetry_Int_Tables_number   1
_chemical_formula_structural   Zr3Nb3Co2(BRu2)4
_chemical_formula_sum   'Zr3 Nb3 Co2 B4 Ru8'
_cell_volume   271.26632886
_cell_formula_units_Z   1
loop_
 _symmetry_equiv_pos_site_id
 _symmetry_equiv_pos_as_xyz
  1  'x, y, z'
loop_
 _atom_site_type_symbol
 _atom_site_label
 _atom_site_symmetry_multiplicity
 _atom_site_fract_x
 _atom_site_fract_y
 _atom_site_fract_z
 _atom_site_occupancy
  Zr  Zr0  1  0.823185  0.676054  0.000000  1
  Zr  Zr1  1  0.176054  0.323185  0.000000  1
  Zr  Zr2  1  0.323755  0.823755  0.000000  1
  Nb  Nb3  1  0.675695  0.175695  0.000000  1
  Nb  Nb4  1  0.499932  0.500618  0.000000  1
  Nb  Nb5  1  0.000618  0.999932  0.000000  1
  Co  Co6  1  0.503202  0.003202  0.500000  1
  Co  Co7  1  0.998346  0.498346  0.500000  1
  B  B8  1  0.612516  0.890778  0.000000  1
  B  B9  1  0.390778  0.112516  0.000000  1
  B  B10  1  0.110800  0.610800  0.000000  1
  B  B11  1  0.887605  0.387605  0.000000  1
  Ru  Ru12  1  0.564666  0.726560  0.500000  1
  Ru  Ru13  1  0.440381  0.274287  0.500000  1
  Ru  Ru14  1  0.063097  0.774197  0.500000  1
  Ru  Ru15  1  0.931215  0.223110  0.500000  1
  Ru  Ru16  1  0.274197  0.563097  0.500000  1
  Ru  Ru17  1  0.723110  0.431215  0.500000  1
  Ru  Ru18  1  0.226560  0.064666  0.500000  1
  Ru  Ru19  1  0.774287  0.940381  0.500000  1
