# generated using pymatgen
data_Ho3ThAl16(GaIr3)2
_symmetry_space_group_name_H-M   'P 1'
_cell_length_a   7.56911283
_cell_length_b   7.57911787
_cell_length_c   9.50075100
_cell_angle_alpha   90.00000000
_cell_angle_beta   90.00000000
_cell_angle_gamma   119.46333692
_symmetry_Int_Tables_number   1
_chemical_formula_structural   Ho3ThAl16(GaIr3)2
_chemical_formula_sum   'Ho3 Th1 Al16 Ga2 Ir6'
_cell_volume   474.54288228
_cell_formula_units_Z   1
loop_
 _symmetry_equiv_pos_site_id
 _symmetry_equiv_pos_as_xyz
  1  'x, y, z'
loop_
 _atom_site_type_symbol
 _atom_site_label
 _atom_site_symmetry_multiplicity
 _atom_site_fract_x
 _atom_site_fract_y
 _atom_site_fract_z
 _atom_site_occupancy
  Ho  Ho0  1  0.003706  0.328513  0.750000  1
  Ho  Ho1  1  0.670874  0.992129  0.250000  1
  Ho  Ho2  1  0.328070  0.003450  0.750000  1
  Th  Th3  1  0.997050  0.673443  0.250000  1
  Al  Al4  1  0.871131  0.873354  0.750000  1
  Al  Al5  1  0.001259  0.330709  0.071014  1
  Al  Al6  1  0.998980  0.664324  0.918731  1
  Al  Al7  1  0.998980  0.664324  0.581269  1
  Al  Al8  1  0.340639  0.006213  0.428880  1
  Al  Al9  1  0.001259  0.330709  0.428986  1
  Al  Al10  1  0.664618  0.000475  0.575794  1
  Al  Al11  1  0.664618  0.000475  0.924206  1
  Al  Al12  1  0.340639  0.006213  0.071120  1
  Al  Al13  1  0.332275  0.332331  0.559252  1
  Al  Al14  1  0.662803  0.665750  0.455791  1
  Al  Al15  1  0.662803  0.665750  0.044209  1
  Al  Al16  1  0.332275  0.332331  0.940748  1
  Al  Al17  1  0.658987  0.449455  0.750000  1
  Al  Al18  1  0.545199  0.336843  0.250000  1
  Al  Al19  1  0.449983  0.661450  0.750000  1
  Ga  Ga20  1  0.132248  0.135210  0.250000  1
  Ga  Ga21  1  0.345066  0.547538  0.250000  1
  Ir  Ir22  1  0.672232  0.329707  0.000865  1
  Ir  Ir23  1  0.326314  0.671775  0.998625  1
  Ir  Ir24  1  0.326314  0.671775  0.501375  1
  Ir  Ir25  1  0.672232  0.329707  0.499135  1
  Ir  Ir26  1  0.999723  0.998024  0.998663  1
  Ir  Ir27  1  0.999723  0.998024  0.501337  1
