# generated using pymatgen
data_Sr6Ca2Ta3NbO18
_symmetry_space_group_name_H-M   'P 1'
_cell_length_a   5.90090251
_cell_length_b   5.90845898
_cell_length_c   15.06541498
_cell_angle_alpha   89.91019523
_cell_angle_beta   90.08758092
_cell_angle_gamma   119.97060008
_symmetry_Int_Tables_number   1
_chemical_formula_structural   Sr6Ca2Ta3NbO18
_chemical_formula_sum   'Sr6 Ca2 Ta3 Nb1 O18'
_cell_volume   455.02188488
_cell_formula_units_Z   1
loop_
 _symmetry_equiv_pos_site_id
 _symmetry_equiv_pos_as_xyz
  1  'x, y, z'
loop_
 _atom_site_type_symbol
 _atom_site_label
 _atom_site_symmetry_multiplicity
 _atom_site_fract_x
 _atom_site_fract_y
 _atom_site_fract_z
 _atom_site_occupancy
  Sr  Sr0  1  0.334779  0.649005  0.126354  1
  Sr  Sr1  1  0.665255  0.351018  0.874723  1
  Sr  Sr2  1  0.001183  0.992281  0.252127  1
  Sr  Sr3  1  0.998801  0.007705  0.748552  1
  Sr  Sr4  1  0.666026  0.337214  0.630138  1
  Sr  Sr5  1  0.333962  0.662689  0.369664  1
  Ca  Ca6  1  0.999929  0.000590  0.999148  1
  Ca  Ca7  1  0.999991  0.999895  0.499554  1
  Ta  Ta8  1  0.667961  0.327652  0.347393  1
  Ta  Ta9  1  0.332160  0.672260  0.651932  1
  Ta  Ta10  1  0.335990  0.685026  0.850489  1
  Nb  Nb11  1  0.663771  0.314855  0.147890  1
  O  O12  1  0.655123  0.916857  0.597153  1
  O  O13  1  0.345332  0.083649  0.403066  1
  O  O14  1  0.085247  0.744712  0.596559  1
  O  O15  1  0.914321  0.255268  0.403684  1
  O  O16  1  0.259759  0.352069  0.596880  1
  O  O17  1  0.740222  0.647357  0.403363  1
  O  O18  1  0.962427  0.543112  0.249325  1
  O  O19  1  0.039850  0.458555  0.751329  1
  O  O20  1  0.451776  0.403957  0.246499  1
  O  O21  1  0.547020  0.596695  0.754063  1
  O  O22  1  0.583442  0.021830  0.251641  1
  O  O23  1  0.416086  0.976074  0.748998  1
  O  O24  1  0.345505  0.063087  0.092890  1
  O  O25  1  0.652219  0.935290  0.906858  1
  O  O26  1  0.918062  0.233330  0.103071  1
  O  O27  1  0.083560  0.766031  0.897060  1
  O  O28  1  0.736930  0.623262  0.084546  1
  O  O29  1  0.263309  0.378672  0.915050  1
