# generated using pymatgen
data_Ho(ZrH5)3
_symmetry_space_group_name_H-M   'P 1'
_cell_length_a   7.12186468
_cell_length_b   7.13158433
_cell_length_c   7.14945481
_cell_angle_alpha   109.50904085
_cell_angle_beta   109.45405999
_cell_angle_gamma   109.32134674
_symmetry_Int_Tables_number   1
_chemical_formula_structural   Ho(ZrH5)3
_chemical_formula_sum   'Ho2 Zr6 H30'
_cell_volume   279.97579207
_cell_formula_units_Z   2
loop_
 _symmetry_equiv_pos_site_id
 _symmetry_equiv_pos_as_xyz
  1  'x, y, z'
loop_
 _atom_site_type_symbol
 _atom_site_label
 _atom_site_symmetry_multiplicity
 _atom_site_fract_x
 _atom_site_fract_y
 _atom_site_fract_z
 _atom_site_occupancy
  Ho  Ho0  1  0.910719  0.909378  0.908261  1
  Ho  Ho1  1  0.502458  0.001116  0.091739  1
  Zr  Zr2  1  0.002909  0.107767  0.503740  1
  Zr  Zr3  1  0.107261  0.500052  0.002591  1
  Zr  Zr4  1  0.999169  0.604026  0.496260  1
  Zr  Zr5  1  0.604670  0.497461  0.997409  1
  Zr  Zr6  1  0.499364  0.999026  0.594227  1
  Zr  Zr7  1  0.405137  0.404799  0.405773  1
  H  H8  1  0.664634  0.977381  0.397045  1
  H  H9  1  0.222205  0.306269  0.847352  1
  H  H10  1  0.190998  0.419249  0.536452  1
  H  H11  1  0.092255  0.287173  0.126630  1
  H  H12  1  0.280660  0.133835  0.103964  1
  H  H13  1  0.128143  0.100901  0.290650  1
  H  H14  1  0.465624  0.160543  0.873370  1
  H  H15  1  0.723071  0.341931  0.811675  1
  H  H16  1  0.625553  0.381985  0.254107  1
  H  H17  1  0.240306  0.623981  0.367364  1
  H  H18  1  0.758934  0.871587  0.139699  1
  H  H19  1  0.119235  0.731888  0.860301  1
  H  H20  1  0.372942  0.256618  0.632636  1
  H  H21  1  0.871446  0.127878  0.745893  1
  H  H22  1  0.767589  0.580337  0.602955  1
  H  H23  1  0.306319  0.835379  0.226340  1
  H  H24  1  0.379987  0.641040  0.970797  1
  H  H25  1  0.974254  0.381579  0.657849  1
  H  H26  1  0.527254  0.193262  0.425797  1
  H  H27  1  0.411396  0.530257  0.188325  1
  H  H28  1  0.859604  0.232651  0.324316  1
  H  H29  1  0.909189  0.670243  0.029203  1
  H  H30  1  0.816406  0.723730  0.342151  1
  H  H31  1  0.154547  0.882798  0.463548  1
  H  H32  1  0.676696  0.029872  0.896036  1
  H  H33  1  0.337493  0.810251  0.709350  1
  H  H34  1  0.874853  0.458916  0.152648  1
  H  H35  1  0.601456  0.767464  0.574203  1
  H  H36  1  0.579979  0.609040  0.773660  1
  H  H37  1  0.035288  0.908335  0.675684  1
