# generated using pymatgen
data_Pr2Nd4Al24Os3Rh5
_symmetry_space_group_name_H-M   'P 1'
_cell_length_a   8.88775600
_cell_length_b   8.93265144
_cell_length_c   9.69285947
_cell_angle_alpha   90.11894438
_cell_angle_beta   90.00000000
_cell_angle_gamma   119.83388769
_symmetry_Int_Tables_number   1
_chemical_formula_structural   Pr2Nd4Al24Os3Rh5
_chemical_formula_sum   'Pr2 Nd4 Al24 Os3 Rh5'
_cell_volume   667.54159454
_cell_formula_units_Z   1
loop_
 _symmetry_equiv_pos_site_id
 _symmetry_equiv_pos_as_xyz
  1  'x, y, z'
loop_
 _atom_site_type_symbol
 _atom_site_label
 _atom_site_symmetry_multiplicity
 _atom_site_fract_x
 _atom_site_fract_y
 _atom_site_fract_z
 _atom_site_occupancy
  Pr  Pr0  1  0.190124  0.380248  0.250813  1
  Pr  Pr1  1  0.809876  0.619752  0.749187  1
  Nd  Nd2  1  0.618285  0.812010  0.250632  1
  Nd  Nd3  1  0.381715  0.187990  0.749368  1
  Nd  Nd4  1  0.193726  0.812010  0.250632  1
  Nd  Nd5  1  0.806274  0.187990  0.749368  1
  Al  Al6  1  0.333404  0.666809  0.021320  1
  Al  Al7  1  0.666596  0.333191  0.978680  1
  Al  Al8  1  0.665643  0.331284  0.520970  1
  Al  Al9  1  0.334357  0.668716  0.479030  1
  Al  Al10  1  0.163237  0.326472  0.575160  1
  Al  Al11  1  0.836763  0.673528  0.424840  1
  Al  Al12  1  0.671873  0.837571  0.573940  1
  Al  Al13  1  0.836851  0.673702  0.074929  1
  Al  Al14  1  0.328127  0.162429  0.426060  1
  Al  Al15  1  0.163149  0.326298  0.925071  1
  Al  Al16  1  0.165697  0.837571  0.573940  1
  Al  Al17  1  0.327707  0.164619  0.074925  1
  Al  Al18  1  0.834303  0.162429  0.426060  1
  Al  Al19  1  0.672293  0.835381  0.925075  1
  Al  Al20  1  0.836912  0.164619  0.074925  1
  Al  Al21  1  0.163088  0.835381  0.925075  1
  Al  Al22  1  0.563692  0.127383  0.250662  1
  Al  Al23  1  0.436308  0.872617  0.749338  1
  Al  Al24  1  0.874574  0.438333  0.249611  1
  Al  Al25  1  0.125426  0.561667  0.750389  1
  Al  Al26  1  0.563758  0.438333  0.249611  1
  Al  Al27  1  0.436242  0.561667  0.750389  1
  Al  Al28  1  0.000642  0.001285  0.250085  1
  Al  Al29  1  0.999358  0.998715  0.749915  1
  Os  Os30  1  0.500000  0.000000  0.500000  1
  Os  Os31  1  0.000000  0.000000  0.000000  1
  Os  Os32  1  0.000000  0.000000  0.500000  1
  Rh  Rh33  1  0.500000  0.000000  0.000000  1
  Rh  Rh34  1  0.000000  0.500000  0.000000  1
  Rh  Rh35  1  0.500000  0.500000  0.000000  1
  Rh  Rh36  1  0.000000  0.500000  0.500000  1
  Rh  Rh37  1  0.500000  0.500000  0.500000  1
