# generated using pymatgen
data_DyPaBIr6
_symmetry_space_group_name_H-M   'P 1'
_cell_length_a   5.85909515
_cell_length_b   5.85909521
_cell_length_c   5.85909400
_cell_angle_alpha   59.99999554
_cell_angle_beta   59.99999521
_cell_angle_gamma   59.99999714
_symmetry_Int_Tables_number   1
_chemical_formula_structural   DyPaBIr6
_chemical_formula_sum   'Dy1 Pa1 B1 Ir6'
_cell_volume   142.22519389
_cell_formula_units_Z   1
loop_
 _symmetry_equiv_pos_site_id
 _symmetry_equiv_pos_as_xyz
  1  'x, y, z'
loop_
 _atom_site_type_symbol
 _atom_site_label
 _atom_site_symmetry_multiplicity
 _atom_site_fract_x
 _atom_site_fract_y
 _atom_site_fract_z
 _atom_site_occupancy
  Dy  Dy0  1  0.750000  0.750000  0.750000  1
  Pa  Pa1  1  0.250000  0.250000  0.250000  1
  B  B2  1  0.000000  0.000000  0.000000  1
  Ir  Ir3  1  0.742505  0.742505  0.257495  1
  Ir  Ir4  1  0.257495  0.742505  0.257495  1
  Ir  Ir5  1  0.742505  0.257495  0.257495  1
  Ir  Ir6  1  0.257495  0.257495  0.742505  1
  Ir  Ir7  1  0.742505  0.257495  0.742505  1
  Ir  Ir8  1  0.257495  0.742505  0.742505  1
