# generated using pymatgen
data_MgAlVCo5B2
_symmetry_space_group_name_H-M   'P 1'
_cell_length_a   8.64099300
_cell_length_b   8.63312000
_cell_length_c   2.80936600
_cell_angle_alpha   90.00000000
_cell_angle_beta   90.00000000
_cell_angle_gamma   90.00000000
_symmetry_Int_Tables_number   1
_chemical_formula_structural   MgAlVCo5B2
_chemical_formula_sum   'Mg2 Al2 V2 Co10 B4'
_cell_volume   209.57513427
_cell_formula_units_Z   2
loop_
 _symmetry_equiv_pos_site_id
 _symmetry_equiv_pos_as_xyz
  1  'x, y, z'
loop_
 _atom_site_type_symbol
 _atom_site_label
 _atom_site_symmetry_multiplicity
 _atom_site_fract_x
 _atom_site_fract_y
 _atom_site_fract_z
 _atom_site_occupancy
  Mg  Mg0  1  0.676450  0.822578  0.000000  1
  Mg  Mg1  1  0.823550  0.322578  0.000000  1
  Al  Al2  1  0.994747  0.003414  0.000000  1
  Al  Al3  1  0.505253  0.503414  0.000000  1
  V  V4  1  0.174826  0.675363  0.000000  1
  V  V5  1  0.325174  0.175363  0.000000  1
  Co  Co6  1  0.010323  0.501793  0.500000  1
  Co  Co7  1  0.084965  0.217785  0.500000  1
  Co  Co8  1  0.213536  0.931379  0.500000  1
  Co  Co9  1  0.286464  0.431379  0.500000  1
  Co  Co10  1  0.415035  0.717785  0.500000  1
  Co  Co11  1  0.489677  0.001793  0.500000  1
  Co  Co12  1  0.554078  0.277200  0.500000  1
  Co  Co13  1  0.725986  0.569624  0.500000  1
  Co  Co14  1  0.774014  0.069624  0.500000  1
  Co  Co15  1  0.945922  0.777200  0.500000  1
  B  B16  1  0.130316  0.378925  0.000000  1
  B  B17  1  0.369684  0.878925  0.000000  1
  B  B18  1  0.616225  0.121939  0.000000  1
  B  B19  1  0.883775  0.621939  0.000000  1
