# generated using pymatgen
data_MoWI4
_symmetry_space_group_name_H-M   'P 1'
_cell_length_a   10.62172759
_cell_length_b   10.62172688
_cell_length_c   12.95563700
_cell_angle_alpha   90.00000000
_cell_angle_beta   90.00000000
_cell_angle_gamma   105.98615106
_symmetry_Int_Tables_number   1
_chemical_formula_structural   MoWI4
_chemical_formula_sum   'Mo6 W6 I24'
_cell_volume   1405.14384149
_cell_formula_units_Z   6
loop_
 _symmetry_equiv_pos_site_id
 _symmetry_equiv_pos_as_xyz
  1  'x, y, z'
loop_
 _atom_site_type_symbol
 _atom_site_label
 _atom_site_symmetry_multiplicity
 _atom_site_fract_x
 _atom_site_fract_y
 _atom_site_fract_z
 _atom_site_occupancy
  Mo  Mo0  1  0.069090  0.069090  0.867920  1
  Mo  Mo1  1  0.430910  0.430910  0.367920  1
  Mo  Mo2  1  0.567146  0.567146  0.632266  1
  Mo  Mo3  1  0.932854  0.932854  0.132266  1
  Mo  Mo4  1  0.867334  0.867334  0.932843  1
  Mo  Mo5  1  0.632666  0.632666  0.432843  1
  W  W6  1  0.367196  0.367196  0.566218  1
  W  W7  1  0.132804  0.132804  0.066218  1
  W  W8  1  0.388263  0.610127  0.500079  1
  W  W9  1  0.111737  0.889873  0.000079  1
  W  W10  1  0.610127  0.388263  0.500079  1
  W  W11  1  0.889873  0.111737  0.000079  1
  I  I12  1  0.655206  0.655206  0.843038  1
  I  I13  1  0.844794  0.844794  0.343038  1
  I  I14  1  0.156166  0.156166  0.655450  1
  I  I15  1  0.343834  0.343834  0.155450  1
  I  I16  1  0.221352  0.777666  0.500892  1
  I  I17  1  0.278648  0.722334  0.000892  1
  I  I18  1  0.777666  0.221352  0.500892  1
  I  I19  1  0.722334  0.278648  0.000892  1
  I  I20  1  0.327078  0.093769  0.932172  1
  I  I21  1  0.172922  0.406231  0.432172  1
  I  I22  1  0.592579  0.824737  0.567449  1
  I  I23  1  0.907421  0.675263  0.067449  1
  I  I24  1  0.953027  0.186111  0.206888  1
  I  I25  1  0.546973  0.313889  0.706888  1
  I  I26  1  0.684078  0.451223  0.293652  1
  I  I27  1  0.815922  0.048777  0.793652  1
  I  I28  1  0.048777  0.815922  0.793652  1
  I  I29  1  0.451223  0.684078  0.293652  1
  I  I30  1  0.313889  0.546973  0.706888  1
  I  I31  1  0.186111  0.953027  0.206888  1
  I  I32  1  0.093769  0.327078  0.932172  1
  I  I33  1  0.406231  0.172922  0.432172  1
  I  I34  1  0.824737  0.592579  0.567449  1
  I  I35  1  0.675263  0.907421  0.067449  1
