# generated using pymatgen
data_Yb4ScCr(SbO6)2
_symmetry_space_group_name_H-M   'P 1'
_cell_length_a   5.61934080
_cell_length_b   5.43697102
_cell_length_c   9.51585164
_cell_angle_alpha   54.93991378
_cell_angle_beta   89.64882264
_cell_angle_gamma   90.01728614
_symmetry_Int_Tables_number   1
_chemical_formula_structural   Yb4ScCr(SbO6)2
_chemical_formula_sum   'Yb4 Sc1 Cr1 Sb2 O12'
_cell_volume   237.97011253
_cell_formula_units_Z   1
loop_
 _symmetry_equiv_pos_site_id
 _symmetry_equiv_pos_as_xyz
  1  'x, y, z'
loop_
 _atom_site_type_symbol
 _atom_site_label
 _atom_site_symmetry_multiplicity
 _atom_site_fract_x
 _atom_site_fract_y
 _atom_site_fract_z
 _atom_site_occupancy
  Yb  Yb0  1  0.553411  0.771562  0.746136  1
  Yb  Yb1  1  0.941667  0.759780  0.255338  1
  Yb  Yb2  1  0.446589  0.228438  0.253864  1
  Yb  Yb3  1  0.058333  0.240220  0.744662  1
  Sc  Sc4  1  0.000000  0.500000  0.000000  1
  Cr  Cr5  1  0.500000  0.500000  0.500000  1
  Sb  Sb6  1  0.000000  0.000000  0.500000  1
  Sb  Sb7  1  0.500000  0.000000  0.000000  1
  O  O8  1  0.797002  0.244616  0.552331  1
  O  O9  1  0.695606  0.241708  0.052909  1
  O  O10  1  0.202998  0.755384  0.447669  1
  O  O11  1  0.304394  0.758292  0.947091  1
  O  O12  1  0.792611  0.863242  0.944873  1
  O  O13  1  0.707043  0.855083  0.444767  1
  O  O14  1  0.207389  0.136758  0.055127  1
  O  O15  1  0.292957  0.144917  0.555233  1
  O  O16  1  0.964615  0.655501  0.742909  1
  O  O17  1  0.536079  0.646985  0.249238  1
  O  O18  1  0.035385  0.344499  0.257091  1
  O  O19  1  0.463921  0.353015  0.750762  1
