# generated using pymatgen
data_Rb4Si7Ge5P12
_symmetry_space_group_name_H-M   'P 1'
_cell_length_a   3.60035200
_cell_length_b   10.15289957
_cell_length_c   19.97245021
_cell_angle_alpha   90.42063818
_cell_angle_beta   90.00000000
_cell_angle_gamma   90.00000000
_symmetry_Int_Tables_number   1
_chemical_formula_structural   Rb4Si7Ge5P12
_chemical_formula_sum   'Rb4 Si7 Ge5 P12'
_cell_volume   730.05351534
_cell_formula_units_Z   1
loop_
 _symmetry_equiv_pos_site_id
 _symmetry_equiv_pos_as_xyz
  1  'x, y, z'
loop_
 _atom_site_type_symbol
 _atom_site_label
 _atom_site_symmetry_multiplicity
 _atom_site_fract_x
 _atom_site_fract_y
 _atom_site_fract_z
 _atom_site_occupancy
  Rb  Rb0  1  0.000000  0.305631  0.309250  1
  Rb  Rb1  1  0.000000  0.693860  0.690214  1
  Rb  Rb2  1  0.000000  0.194105  0.808253  1
  Rb  Rb3  1  0.000000  0.805595  0.191315  1
  Si  Si4  1  0.500000  0.599124  0.964116  1
  Si  Si5  1  0.500000  0.095678  0.533910  1
  Si  Si6  1  0.500000  0.904308  0.466197  1
  Si  Si7  1  0.000000  0.187899  0.132260  1
  Si  Si8  1  0.000000  0.812328  0.868037  1
  Si  Si9  1  0.000000  0.311149  0.631668  1
  Si  Si10  1  0.000000  0.688985  0.368356  1
  Ge  Ge11  1  0.500000  0.407201  0.034587  1
  Ge  Ge12  1  0.000000  0.116000  0.016858  1
  Ge  Ge13  1  0.000000  0.884261  0.983226  1
  Ge  Ge14  1  0.000000  0.383557  0.516918  1
  Ge  Ge15  1  0.000000  0.616453  0.483102  1
  P  P16  1  0.500000  0.118562  0.189549  1
  P  P17  1  0.500000  0.879182  0.810184  1
  P  P18  1  0.500000  0.378627  0.689912  1
  P  P19  1  0.500000  0.621513  0.310147  1
  P  P20  1  0.500000  0.274050  0.463277  1
  P  P21  1  0.500000  0.725892  0.536795  1
  P  P22  1  0.500000  0.219360  0.961973  1
  P  P23  1  0.500000  0.776159  0.036190  1
  P  P24  1  0.000000  0.411024  0.110707  1
  P  P25  1  0.000000  0.589406  0.892866  1
  P  P26  1  0.000000  0.088799  0.605214  1
  P  P27  1  0.000000  0.911289  0.394917  1
