# generated using pymatgen
data_Y10Sn6P
_symmetry_space_group_name_H-M   'P 1'
_cell_length_a   6.61217400
_cell_length_b   9.05695670
_cell_length_c   9.05696500
_cell_angle_alpha   119.99997565
_cell_angle_beta   89.99794938
_cell_angle_gamma   90.00410095
_symmetry_Int_Tables_number   1
_chemical_formula_structural   Y10Sn6P
_chemical_formula_sum   'Y10 Sn6 P1'
_cell_volume   469.72101615
_cell_formula_units_Z   1
loop_
 _symmetry_equiv_pos_site_id
 _symmetry_equiv_pos_as_xyz
  1  'x, y, z'
loop_
 _atom_site_type_symbol
 _atom_site_label
 _atom_site_symmetry_multiplicity
 _atom_site_fract_x
 _atom_site_fract_y
 _atom_site_fract_z
 _atom_site_occupancy
  Y  Y0  1  0.500000  0.333341  0.666683  1
  Y  Y1  1  0.500000  0.666658  0.333317  1
  Y  Y2  1  0.000000  0.666642  0.333284  1
  Y  Y3  1  0.000000  0.333359  0.666716  1
  Y  Y4  1  0.746983  0.244774  0.000000  1
  Y  Y5  1  0.746970  0.755260  0.755247  1
  Y  Y6  1  0.746970  0.000011  0.244753  1
  Y  Y7  1  0.253017  0.755226  0.000000  1
  Y  Y8  1  0.253030  0.244742  0.244753  1
  Y  Y9  1  0.253030  0.999990  0.755247  1
  Sn  Sn10  1  0.750399  0.605005  0.000000  1
  Sn  Sn11  1  0.750394  0.395003  0.394988  1
  Sn  Sn12  1  0.750394  0.000015  0.605012  1
  Sn  Sn13  1  0.249601  0.394995  0.000000  1
  Sn  Sn14  1  0.249606  0.604997  0.605012  1
  Sn  Sn15  1  0.249606  0.999985  0.394988  1
  P  P16  1  0.499999  0.000001  0.000000  1
