# generated using pymatgen
data_K2Mg(SiO3)2
_symmetry_space_group_name_H-M   'P 1'
_cell_length_a   5.81690212
_cell_length_b   5.81690135
_cell_length_c   10.61114400
_cell_angle_alpha   90.00000000
_cell_angle_beta   90.00000000
_cell_angle_gamma   113.39659214
_symmetry_Int_Tables_number   1
_chemical_formula_structural   K2Mg(SiO3)2
_chemical_formula_sum   'K4 Mg2 Si4 O12'
_cell_volume   329.52124703
_cell_formula_units_Z   2
loop_
 _symmetry_equiv_pos_site_id
 _symmetry_equiv_pos_as_xyz
  1  'x, y, z'
loop_
 _atom_site_type_symbol
 _atom_site_label
 _atom_site_symmetry_multiplicity
 _atom_site_fract_x
 _atom_site_fract_y
 _atom_site_fract_z
 _atom_site_occupancy
  K  K0  1  0.278235  0.931749  0.575641  1
  K  K1  1  0.068251  0.721765  0.924359  1
  K  K2  1  0.721765  0.068251  0.075641  1
  K  K3  1  0.931749  0.278235  0.424359  1
  Mg  Mg4  1  0.193487  0.806513  0.250000  1
  Mg  Mg5  1  0.806513  0.193487  0.750000  1
  Si  Si6  1  0.365538  0.330800  0.863241  1
  Si  Si7  1  0.330800  0.365538  0.136759  1
  Si  Si8  1  0.669200  0.634462  0.636759  1
  Si  Si9  1  0.634462  0.669200  0.363241  1
  O  O10  1  0.547726  0.452274  0.250000  1
  O  O11  1  0.515817  0.874110  0.336055  1
  O  O12  1  0.515883  0.515883  0.500000  1
  O  O13  1  0.874110  0.515817  0.663945  1
  O  O14  1  0.484183  0.125890  0.836055  1
  O  O15  1  0.062385  0.219374  0.873602  1
  O  O16  1  0.937615  0.780627  0.373602  1
  O  O17  1  0.452274  0.547726  0.750000  1
  O  O18  1  0.125890  0.484183  0.163945  1
  O  O19  1  0.219373  0.062385  0.126398  1
  O  O20  1  0.780626  0.937615  0.626398  1
  O  O21  1  0.484117  0.484117  0.000000  1
