# generated using pymatgen
data_LiNd6Al17(Tc3Os4)2
_symmetry_space_group_name_H-M   'P 1'
_cell_length_a   8.87225600
_cell_length_b   8.87225556
_cell_length_c   9.72421000
_cell_angle_alpha   90.00000000
_cell_angle_beta   90.00000000
_cell_angle_gamma   120.00000910
_symmetry_Int_Tables_number   1
_chemical_formula_structural   LiNd6Al17(Tc3Os4)2
_chemical_formula_sum   'Li1 Nd6 Al17 Tc6 Os8'
_cell_volume   662.90764627
_cell_formula_units_Z   1
loop_
 _symmetry_equiv_pos_site_id
 _symmetry_equiv_pos_as_xyz
  1  'x, y, z'
loop_
 _atom_site_type_symbol
 _atom_site_label
 _atom_site_symmetry_multiplicity
 _atom_site_fract_x
 _atom_site_fract_y
 _atom_site_fract_z
 _atom_site_occupancy
  Li  Li0  1  0.000000  0.000000  0.250000  1
  Nd  Nd1  1  0.188663  0.377328  0.250000  1
  Nd  Nd2  1  0.805176  0.610349  0.750000  1
  Nd  Nd3  1  0.622672  0.811337  0.250000  1
  Nd  Nd4  1  0.389651  0.194824  0.750000  1
  Nd  Nd5  1  0.188663  0.811337  0.250000  1
  Nd  Nd6  1  0.805176  0.194824  0.750000  1
  Al  Al7  1  0.333333  0.666667  0.004514  1
  Al  Al8  1  0.666667  0.333333  0.995004  1
  Al  Al9  1  0.666667  0.333333  0.504996  1
  Al  Al10  1  0.333333  0.666667  0.495486  1
  Al  Al11  1  0.164774  0.329550  0.576457  1
  Al  Al12  1  0.836535  0.673068  0.423356  1
  Al  Al13  1  0.670450  0.835226  0.576457  1
  Al  Al14  1  0.836535  0.673068  0.076644  1
  Al  Al15  1  0.326932  0.163465  0.423356  1
  Al  Al16  1  0.164774  0.329550  0.923543  1
  Al  Al17  1  0.164774  0.835226  0.576457  1
  Al  Al18  1  0.326932  0.163465  0.076644  1
  Al  Al19  1  0.836535  0.163465  0.423356  1
  Al  Al20  1  0.670450  0.835226  0.923543  1
  Al  Al21  1  0.836535  0.163465  0.076644  1
  Al  Al22  1  0.164774  0.835226  0.923543  1
  Al  Al23  1  0.000000  0.000000  0.750000  1
  Tc  Tc24  1  0.573551  0.147102  0.250000  1
  Tc  Tc25  1  0.426496  0.852992  0.750000  1
  Tc  Tc26  1  0.852898  0.426449  0.250000  1
  Tc  Tc27  1  0.147008  0.573504  0.750000  1
  Tc  Tc28  1  0.573551  0.426449  0.250000  1
  Tc  Tc29  1  0.426496  0.573504  0.750000  1
  Os  Os30  1  0.499633  0.999266  0.000873  1
  Os  Os31  1  0.000734  0.500367  0.000873  1
  Os  Os32  1  0.499633  0.999266  0.499127  1
  Os  Os33  1  0.499633  0.500367  0.000873  1
  Os  Os34  1  0.000734  0.500367  0.499127  1
  Os  Os35  1  0.499633  0.500367  0.499127  1
  Os  Os36  1  0.000000  0.000000  0.995294  1
  Os  Os37  1  0.000000  0.000000  0.504706  1
