# generated using pymatgen
data_Dy16Tm3LuSn16
_symmetry_space_group_name_H-M   'P 1'
_cell_length_a   7.99766825
_cell_length_b   8.13748446
_cell_length_c   15.41956100
_cell_angle_alpha   90.00000000
_cell_angle_beta   90.00000000
_cell_angle_gamma   89.96976570
_symmetry_Int_Tables_number   1
_chemical_formula_structural   Dy16Tm3LuSn16
_chemical_formula_sum   'Dy16 Tm3 Lu1 Sn16'
_cell_volume   1003.51878477
_cell_formula_units_Z   1
loop_
 _symmetry_equiv_pos_site_id
 _symmetry_equiv_pos_as_xyz
  1  'x, y, z'
loop_
 _atom_site_type_symbol
 _atom_site_label
 _atom_site_symmetry_multiplicity
 _atom_site_fract_x
 _atom_site_fract_y
 _atom_site_fract_z
 _atom_site_occupancy
  Dy  Dy0  1  0.367756  0.836960  0.877575  1
  Dy  Dy1  1  0.868047  0.662783  0.622337  1
  Dy  Dy2  1  0.632012  0.163070  0.377872  1
  Dy  Dy3  1  0.132051  0.337031  0.121649  1
  Dy  Dy4  1  0.632012  0.163070  0.122128  1
  Dy  Dy5  1  0.132051  0.337031  0.378351  1
  Dy  Dy6  1  0.367756  0.836960  0.622425  1
  Dy  Dy7  1  0.868047  0.662783  0.877663  1
  Dy  Dy8  1  0.520752  0.321018  0.902474  1
  Dy  Dy9  1  0.021094  0.179511  0.597589  1
  Dy  Dy10  1  0.479357  0.679324  0.402911  1
  Dy  Dy11  1  0.979295  0.820644  0.097391  1
  Dy  Dy12  1  0.479357  0.679324  0.097089  1
  Dy  Dy13  1  0.979295  0.820644  0.402609  1
  Dy  Dy14  1  0.520752  0.321018  0.597526  1
  Dy  Dy15  1  0.021094  0.179511  0.902411  1
  Tm  Tm16  1  0.698789  0.997297  0.750000  1
  Tm  Tm17  1  0.800854  0.496832  0.250000  1
  Tm  Tm18  1  0.300870  0.002958  0.250000  1
  Lu  Lu19  1  0.198966  0.503359  0.750000  1
  Sn  Sn20  1  0.292514  0.035995  0.041648  1
  Sn  Sn21  1  0.792383  0.463711  0.458288  1
  Sn  Sn22  1  0.707724  0.964001  0.542047  1
  Sn  Sn23  1  0.207685  0.535825  0.957188  1
  Sn  Sn24  1  0.707724  0.964001  0.957953  1
  Sn  Sn25  1  0.207685  0.535825  0.542812  1
  Sn  Sn26  1  0.292514  0.035995  0.458352  1
  Sn  Sn27  1  0.792383  0.463711  0.041712  1
  Sn  Sn28  1  0.563851  0.617747  0.750000  1
  Sn  Sn29  1  0.065336  0.880764  0.750000  1
  Sn  Sn30  1  0.434237  0.381181  0.250000  1
  Sn  Sn31  1  0.934752  0.118860  0.250000  1
  Sn  Sn32  1  0.329799  0.149934  0.750000  1
  Sn  Sn33  1  0.830891  0.352071  0.750000  1
  Sn  Sn34  1  0.669984  0.851504  0.250000  1
  Sn  Sn35  1  0.170329  0.647753  0.250000  1
