# generated using pymatgen
data_Nd16Cd4Ni2IrPd
_symmetry_space_group_name_H-M   'P 1'
_cell_length_a   9.92515296
_cell_length_b   9.90055908
_cell_length_c   9.89581900
_cell_angle_alpha   60.01583295
_cell_angle_beta   60.09771634
_cell_angle_gamma   60.29194411
_symmetry_Int_Tables_number   1
_chemical_formula_structural   Nd16Cd4Ni2IrPd
_chemical_formula_sum   'Nd16 Cd4 Ni2 Ir1 Pd1'
_cell_volume   689.69344918
_cell_formula_units_Z   1
loop_
 _symmetry_equiv_pos_site_id
 _symmetry_equiv_pos_as_xyz
  1  'x, y, z'
loop_
 _atom_site_type_symbol
 _atom_site_label
 _atom_site_symmetry_multiplicity
 _atom_site_fract_x
 _atom_site_fract_y
 _atom_site_fract_z
 _atom_site_occupancy
  Nd  Nd0  1  0.349018  0.344069  0.354189  1
  Nd  Nd1  1  0.349018  0.344069  0.952724  1
  Nd  Nd2  1  0.346002  0.954899  0.349550  1
  Nd  Nd3  1  0.946337  0.344313  0.354674  1
  Nd  Nd4  1  0.812782  0.189225  0.189209  1
  Nd  Nd5  1  0.192362  0.816738  0.801331  1
  Nd  Nd6  1  0.192362  0.816738  0.189568  1
  Nd  Nd7  1  0.812782  0.189225  0.808783  1
  Nd  Nd8  1  0.192799  0.189546  0.808827  1
  Nd  Nd9  1  0.805261  0.813957  0.190390  1
  Nd  Nd10  1  0.939545  0.562100  0.562817  1
  Nd  Nd11  1  0.565944  0.937462  0.936550  1
  Nd  Nd12  1  0.565944  0.937462  0.560043  1
  Nd  Nd13  1  0.939545  0.562100  0.935538  1
  Nd  Nd14  1  0.563979  0.557352  0.939335  1
  Nd  Nd15  1  0.936831  0.934534  0.564318  1
  Cd  Cd16  1  0.579547  0.581323  0.579737  1
  Cd  Cd17  1  0.579547  0.581323  0.259392  1
  Cd  Cd18  1  0.580203  0.257814  0.580990  1
  Cd  Cd19  1  0.259120  0.581249  0.579814  1
  Ni  Ni20  1  0.139511  0.144325  0.145168  1
  Ni  Ni21  1  0.139511  0.144325  0.570996  1
  Ir  Ir22  1  0.571135  0.144231  0.142317  1
  Pd  Pd23  1  0.140914  0.571616  0.143735  1
