# generated using pymatgen
data_RbSb12Ru3Au
_symmetry_space_group_name_H-M   'P 1'
_cell_length_a   8.23785595
_cell_length_b   8.21389624
_cell_length_c   8.23785658
_cell_angle_alpha   109.41230856
_cell_angle_beta   109.53006517
_cell_angle_gamma   109.41231325
_symmetry_Int_Tables_number   1
_chemical_formula_structural   RbSb12Ru3Au
_chemical_formula_sum   'Rb1 Sb12 Ru3 Au1'
_cell_volume   429.40883236
_cell_formula_units_Z   1
loop_
 _symmetry_equiv_pos_site_id
 _symmetry_equiv_pos_as_xyz
  1  'x, y, z'
loop_
 _atom_site_type_symbol
 _atom_site_label
 _atom_site_symmetry_multiplicity
 _atom_site_fract_x
 _atom_site_fract_y
 _atom_site_fract_z
 _atom_site_occupancy
  Rb  Rb0  1  0.000000  0.000000  0.000000  1
  Sb  Sb1  1  0.162984  0.501473  0.358854  1
  Sb  Sb2  1  0.501784  0.661695  0.841005  1
  Sb  Sb3  1  0.358854  0.857381  0.195871  1
  Sb  Sb4  1  0.804129  0.661511  0.162984  1
  Sb  Sb5  1  0.660779  0.840089  0.501784  1
  Sb  Sb6  1  0.195871  0.338489  0.837016  1
  Sb  Sb7  1  0.641146  0.142619  0.804129  1
  Sb  Sb8  1  0.339221  0.159911  0.498216  1
  Sb  Sb9  1  0.498216  0.338305  0.158995  1
  Sb  Sb10  1  0.837016  0.498527  0.641146  1
  Sb  Sb11  1  0.841005  0.179311  0.339221  1
  Sb  Sb12  1  0.158995  0.820689  0.660779  1
  Ru  Ru13  1  0.500000  0.500000  0.500000  1
  Ru  Ru14  1  0.500000  0.000000  0.000000  1
  Ru  Ru15  1  0.000000  0.000000  0.500000  1
  Au  Au16  1  0.000000  0.500000  0.000000  1
