# generated using pymatgen
data_DyY2Mg3Sn2Au
_symmetry_space_group_name_H-M   'P 1'
_cell_length_a   7.55800291
_cell_length_b   7.55800276
_cell_length_c   4.43933700
_cell_angle_alpha   90.00000000
_cell_angle_beta   90.00000000
_cell_angle_gamma   120.05613749
_symmetry_Int_Tables_number   1
_chemical_formula_structural   DyY2Mg3Sn2Au
_chemical_formula_sum   'Dy1 Y2 Mg3 Sn2 Au1'
_cell_volume   219.49109130
_cell_formula_units_Z   1
loop_
 _symmetry_equiv_pos_site_id
 _symmetry_equiv_pos_as_xyz
  1  'x, y, z'
loop_
 _atom_site_type_symbol
 _atom_site_label
 _atom_site_symmetry_multiplicity
 _atom_site_fract_x
 _atom_site_fract_y
 _atom_site_fract_z
 _atom_site_occupancy
  Dy  Dy0  1  0.405034  0.405034  0.000000  1
  Y  Y1  1  0.594644  0.000072  0.000000  1
  Y  Y2  1  0.000072  0.594644  0.000000  1
  Mg  Mg3  1  0.237488  0.000094  0.500000  1
  Mg  Mg4  1  0.000094  0.237488  0.500000  1
  Mg  Mg5  1  0.762488  0.762488  0.500000  1
  Sn  Sn6  1  0.333296  0.666420  0.500000  1
  Sn  Sn7  1  0.666420  0.333296  0.500000  1
  Au  Au8  1  0.000463  0.000463  0.000000  1
