# generated using pymatgen
data_TmSc3Fe16(P3Ru)4
_symmetry_space_group_name_H-M   'P 1'
_cell_length_a   3.66947000
_cell_length_b   10.25750857
_cell_length_c   11.72504134
_cell_angle_alpha   89.82070939
_cell_angle_beta   90.00000000
_cell_angle_gamma   90.00000000
_symmetry_Int_Tables_number   1
_chemical_formula_structural   TmSc3Fe16(P3Ru)4
_chemical_formula_sum   'Tm1 Sc3 Fe16 P12 Ru4'
_cell_volume   441.32393926
_cell_formula_units_Z   1
loop_
 _symmetry_equiv_pos_site_id
 _symmetry_equiv_pos_as_xyz
  1  'x, y, z'
loop_
 _atom_site_type_symbol
 _atom_site_label
 _atom_site_symmetry_multiplicity
 _atom_site_fract_x
 _atom_site_fract_y
 _atom_site_fract_z
 _atom_site_occupancy
  Tm  Tm0  1  0.750000  0.081607  0.795328  1
  Sc  Sc1  1  0.250000  0.580162  0.703251  1
  Sc  Sc2  1  0.250000  0.918281  0.203238  1
  Sc  Sc3  1  0.750000  0.420076  0.296805  1
  Fe  Fe4  1  0.250000  0.406456  0.487430  1
  Fe  Fe5  1  0.250000  0.093377  0.989802  1
  Fe  Fe6  1  0.750000  0.593275  0.512480  1
  Fe  Fe7  1  0.750000  0.905303  0.013638  1
  Fe  Fe8  1  0.250000  0.220359  0.176100  1
  Fe  Fe9  1  0.250000  0.280715  0.675132  1
  Fe  Fe10  1  0.750000  0.779060  0.824709  1
  Fe  Fe11  1  0.750000  0.720243  0.324696  1
  Fe  Fe12  1  0.250000  0.875592  0.703351  1
  Fe  Fe13  1  0.250000  0.621806  0.204948  1
  Fe  Fe14  1  0.750000  0.123194  0.294832  1
  Fe  Fe15  1  0.750000  0.380368  0.795779  1
  Fe  Fe16  1  0.250000  0.464118  0.932609  1
  Fe  Fe17  1  0.250000  0.037273  0.429404  1
  Fe  Fe18  1  0.750000  0.537466  0.069201  1
  Fe  Fe19  1  0.750000  0.961171  0.566247  1
  P  P20  1  0.250000  0.424797  0.117942  1
  P  P21  1  0.250000  0.075291  0.613700  1
  P  P22  1  0.750000  0.575886  0.883340  1
  P  P23  1  0.750000  0.923879  0.381586  1
  P  P24  1  0.250000  0.266074  0.867061  1
  P  P25  1  0.250000  0.238868  0.366274  1
  P  P26  1  0.750000  0.737160  0.134948  1
  P  P27  1  0.750000  0.761504  0.633766  1
  P  P28  1  0.250000  0.593487  0.393189  1
  P  P29  1  0.250000  0.904433  0.894613  1
  P  P30  1  0.750000  0.406355  0.607189  1
  P  P31  1  0.750000  0.093035  0.106354  1
  Ru  Ru32  1  0.250000  0.708358  0.990052  1
  Ru  Ru33  1  0.250000  0.790710  0.488226  1
  Ru  Ru34  1  0.750000  0.291723  0.011729  1
  Ru  Ru35  1  0.750000  0.208536  0.511052  1
