# generated using pymatgen
data_Dy3Er5(HgPd)2
_symmetry_space_group_name_H-M   'P 1'
_cell_length_a   9.60625623
_cell_length_b   9.60625689
_cell_length_c   9.60625700
_cell_angle_alpha   60.00000306
_cell_angle_beta   60.00000080
_cell_angle_gamma   59.99999882
_symmetry_Int_Tables_number   1
_chemical_formula_structural   Dy3Er5(HgPd)2
_chemical_formula_sum   'Dy6 Er10 Hg4 Pd4'
_cell_volume   626.82682695
_cell_formula_units_Z   2
loop_
 _symmetry_equiv_pos_site_id
 _symmetry_equiv_pos_as_xyz
  1  'x, y, z'
loop_
 _atom_site_type_symbol
 _atom_site_label
 _atom_site_symmetry_multiplicity
 _atom_site_fract_x
 _atom_site_fract_y
 _atom_site_fract_z
 _atom_site_occupancy
  Dy  Dy0  1  0.935789  0.564211  0.564211  1
  Dy  Dy1  1  0.564211  0.935789  0.935789  1
  Dy  Dy2  1  0.564211  0.935789  0.564211  1
  Dy  Dy3  1  0.935789  0.564211  0.935789  1
  Dy  Dy4  1  0.564211  0.564211  0.935789  1
  Dy  Dy5  1  0.935789  0.935789  0.564211  1
  Er  Er6  1  0.356136  0.356136  0.356136  1
  Er  Er7  1  0.356136  0.356136  0.931592  1
  Er  Er8  1  0.356136  0.931592  0.356136  1
  Er  Er9  1  0.931592  0.356136  0.356136  1
  Er  Er10  1  0.811745  0.188255  0.188255  1
  Er  Er11  1  0.188255  0.811745  0.811745  1
  Er  Er12  1  0.188255  0.811745  0.188255  1
  Er  Er13  1  0.811745  0.188255  0.811745  1
  Er  Er14  1  0.188255  0.188255  0.811745  1
  Er  Er15  1  0.811745  0.811745  0.188255  1
  Hg  Hg16  1  0.586212  0.586212  0.586212  1
  Hg  Hg17  1  0.586212  0.586212  0.241363  1
  Hg  Hg18  1  0.586212  0.241363  0.586212  1
  Hg  Hg19  1  0.241363  0.586212  0.586212  1
  Pd  Pd20  1  0.145534  0.145534  0.145534  1
  Pd  Pd21  1  0.145534  0.145534  0.563399  1
  Pd  Pd22  1  0.145534  0.563399  0.145534  1
  Pd  Pd23  1  0.563399  0.145534  0.145534  1
