# generated using pymatgen
data_Tb6Al24CuOs6Pd
_symmetry_space_group_name_H-M   'P 1'
_cell_length_a   8.85488128
_cell_length_b   8.81830120
_cell_length_c   9.55858417
_cell_angle_alpha   90.07382242
_cell_angle_beta   90.05919861
_cell_angle_gamma   119.75244476
_symmetry_Int_Tables_number   1
_chemical_formula_structural   Tb6Al24CuOs6Pd
_chemical_formula_sum   'Tb6 Al24 Cu1 Os6 Pd1'
_cell_volume   647.99054742
_cell_formula_units_Z   1
loop_
 _symmetry_equiv_pos_site_id
 _symmetry_equiv_pos_as_xyz
  1  'x, y, z'
loop_
 _atom_site_type_symbol
 _atom_site_label
 _atom_site_symmetry_multiplicity
 _atom_site_fract_x
 _atom_site_fract_y
 _atom_site_fract_z
 _atom_site_occupancy
  Tb  Tb0  1  0.189288  0.387722  0.252809  1
  Tb  Tb1  1  0.810712  0.612278  0.747191  1
  Tb  Tb2  1  0.616232  0.808746  0.250228  1
  Tb  Tb3  1  0.383768  0.191254  0.749772  1
  Tb  Tb4  1  0.190939  0.805338  0.251650  1
  Tb  Tb5  1  0.809061  0.194662  0.748350  1
  Al  Al6  1  0.330106  0.667322  0.025595  1
  Al  Al7  1  0.669894  0.332678  0.974405  1
  Al  Al8  1  0.665813  0.332064  0.522479  1
  Al  Al9  1  0.334187  0.667936  0.477521  1
  Al  Al10  1  0.164746  0.327952  0.574961  1
  Al  Al11  1  0.835254  0.672048  0.425039  1
  Al  Al12  1  0.672356  0.835540  0.572665  1
  Al  Al13  1  0.841708  0.673909  0.077956  1
  Al  Al14  1  0.327644  0.164460  0.427335  1
  Al  Al15  1  0.158292  0.326091  0.922044  1
  Al  Al16  1  0.165051  0.836907  0.575169  1
  Al  Al17  1  0.323810  0.162797  0.079759  1
  Al  Al18  1  0.834949  0.163093  0.424831  1
  Al  Al19  1  0.676190  0.837203  0.920241  1
  Al  Al20  1  0.842273  0.168873  0.078629  1
  Al  Al21  1  0.157727  0.831127  0.921371  1
  Al  Al22  1  0.561976  0.124144  0.249718  1
  Al  Al23  1  0.438024  0.875856  0.750282  1
  Al  Al24  1  0.875555  0.438966  0.248974  1
  Al  Al25  1  0.124445  0.561034  0.751026  1
  Al  Al26  1  0.562720  0.438375  0.251616  1
  Al  Al27  1  0.437280  0.561625  0.748384  1
  Al  Al28  1  0.997519  0.999258  0.250653  1
  Al  Al29  1  0.002481  0.000742  0.749347  1
  Cu  Cu30  1  0.500000  0.000000  0.000000  1
  Os  Os31  1  0.000000  0.500000  0.000000  1
  Os  Os32  1  0.500000  0.000000  0.500000  1
  Os  Os33  1  0.000000  0.500000  0.500000  1
  Os  Os34  1  0.500000  0.500000  0.500000  1
  Os  Os35  1  0.000000  0.000000  0.000000  1
  Os  Os36  1  0.000000  0.000000  0.500000  1
  Pd  Pd37  1  0.500000  0.500000  0.000000  1
