# generated using pymatgen
data_Ti10Ga2Sn5Sb
_symmetry_space_group_name_H-M   'P 1'
_cell_length_a   8.26070746
_cell_length_b   8.26070818
_cell_length_c   5.54697000
_cell_angle_alpha   90.00000000
_cell_angle_beta   90.00000000
_cell_angle_gamma   119.88380050
_symmetry_Int_Tables_number   1
_chemical_formula_structural   Ti10Ga2Sn5Sb
_chemical_formula_sum   'Ti10 Ga2 Sn5 Sb1'
_cell_volume   328.19223304
_cell_formula_units_Z   1
loop_
 _symmetry_equiv_pos_site_id
 _symmetry_equiv_pos_as_xyz
  1  'x, y, z'
loop_
 _atom_site_type_symbol
 _atom_site_label
 _atom_site_symmetry_multiplicity
 _atom_site_fract_x
 _atom_site_fract_y
 _atom_site_fract_z
 _atom_site_occupancy
  Ti  Ti0  1  0.731122  0.731122  0.750000  1
  Ti  Ti1  1  0.268426  0.001676  0.750000  1
  Ti  Ti2  1  0.001676  0.268426  0.750000  1
  Ti  Ti3  1  0.269398  0.269398  0.250000  1
  Ti  Ti4  1  0.731304  0.999065  0.250000  1
  Ti  Ti5  1  0.999065  0.731304  0.250000  1
  Ti  Ti6  1  0.665748  0.333413  0.000090  1
  Ti  Ti7  1  0.333413  0.665748  0.000090  1
  Ti  Ti8  1  0.333413  0.665748  0.499910  1
  Ti  Ti9  1  0.665748  0.333413  0.499910  1
  Ga  Ga10  1  0.999329  0.999329  0.000756  1
  Ga  Ga11  1  0.999329  0.999329  0.499244  1
  Sn  Sn12  1  0.611944  0.000128  0.750000  1
  Sn  Sn13  1  0.000128  0.611944  0.750000  1
  Sn  Sn14  1  0.612924  0.612924  0.250000  1
  Sn  Sn15  1  0.387892  0.999186  0.250000  1
  Sn  Sn16  1  0.999186  0.387892  0.250000  1
  Sb  Sb17  1  0.389955  0.389955  0.750000  1
