# generated using pymatgen
data_Nd10Bi9Te
_symmetry_space_group_name_H-M   'P 1'
_cell_length_a   7.96878832
_cell_length_b   9.24562976
_cell_length_c   10.26831943
_cell_angle_alpha   103.02070046
_cell_angle_beta   97.34697531
_cell_angle_gamma   106.99306539
_symmetry_Int_Tables_number   1
_chemical_formula_structural   Nd10Bi9Te
_chemical_formula_sum   'Nd10 Bi9 Te1'
_cell_volume   689.49705651
_cell_formula_units_Z   1
loop_
 _symmetry_equiv_pos_site_id
 _symmetry_equiv_pos_as_xyz
  1  'x, y, z'
loop_
 _atom_site_type_symbol
 _atom_site_label
 _atom_site_symmetry_multiplicity
 _atom_site_fract_x
 _atom_site_fract_y
 _atom_site_fract_z
 _atom_site_occupancy
  Nd  Nd0  1  0.900627  0.549819  0.800326  1
  Nd  Nd1  1  0.698574  0.150905  0.399878  1
  Nd  Nd2  1  0.500055  0.749813  0.000190  1
  Nd  Nd3  1  0.698447  0.648132  0.399407  1
  Nd  Nd4  1  0.301553  0.351868  0.600593  1
  Nd  Nd5  1  0.100362  0.948950  0.198271  1
  Nd  Nd6  1  0.499945  0.250187  0.999810  1
  Nd  Nd7  1  0.301426  0.849095  0.600122  1
  Nd  Nd8  1  0.099373  0.450181  0.199674  1
  Nd  Nd9  1  0.899638  0.051050  0.801729  1
  Bi  Bi10  1  0.799805  0.600415  0.100672  1
  Bi  Bi11  1  0.599492  0.199698  0.699822  1
  Bi  Bi12  1  0.400508  0.800302  0.300178  1
  Bi  Bi13  1  0.799953  0.099917  0.101496  1
  Bi  Bi14  1  0.200195  0.399585  0.899328  1
  Bi  Bi15  1  0.602076  0.700989  0.700402  1
  Bi  Bi16  1  0.397924  0.299011  0.299598  1
  Bi  Bi17  1  0.200047  0.900083  0.898504  1
  Bi  Bi18  1  0.000000  0.500000  0.500000  1
  Te  Te19  1  0.000000  0.000000  0.500000  1
