# generated using pymatgen
data_NdTh3PdPt11
_symmetry_space_group_name_H-M   'P 1'
_cell_length_a   5.97387419
_cell_length_b   5.97387349
_cell_length_c   9.82538638
_cell_angle_alpha   89.97275359
_cell_angle_beta   90.02724925
_cell_angle_gamma   120.03215297
_symmetry_Int_Tables_number   1
_chemical_formula_structural   NdTh3PdPt11
_chemical_formula_sum   'Nd1 Th3 Pd1 Pt11'
_cell_volume   303.56485977
_cell_formula_units_Z   1
loop_
 _symmetry_equiv_pos_site_id
 _symmetry_equiv_pos_as_xyz
  1  'x, y, z'
loop_
 _atom_site_type_symbol
 _atom_site_label
 _atom_site_symmetry_multiplicity
 _atom_site_fract_x
 _atom_site_fract_y
 _atom_site_fract_z
 _atom_site_occupancy
  Nd  Nd0  1  0.999918  0.000082  0.500009  1
  Th  Th1  1  0.999738  0.000262  0.000169  1
  Th  Th2  1  0.333267  0.666733  0.253062  1
  Th  Th3  1  0.667357  0.332643  0.746868  1
  Pd  Pd4  1  0.175380  0.824620  0.751033  1
  Pt  Pt5  1  0.499905  0.500095  0.501048  1
  Pt  Pt6  1  0.500197  0.000099  0.500420  1
  Pt  Pt7  1  0.999901  0.499803  0.500420  1
  Pt  Pt8  1  0.499919  0.500081  0.999059  1
  Pt  Pt9  1  0.499809  0.000201  0.999485  1
  Pt  Pt10  1  0.999799  0.500191  0.999485  1
  Pt  Pt11  1  0.823837  0.647589  0.248801  1
  Pt  Pt12  1  0.352411  0.176163  0.248801  1
  Pt  Pt13  1  0.825061  0.174939  0.248724  1
  Pt  Pt14  1  0.176350  0.352848  0.751307  1
  Pt  Pt15  1  0.647152  0.823650  0.751307  1
