# generated using pymatgen
data_SmEr11(Si3Au)4
_symmetry_space_group_name_H-M   'P 1'
_cell_length_a   4.18684000
_cell_length_b   10.91637228
_cell_length_c   12.27728600
_cell_angle_alpha   90.01294832
_cell_angle_beta   90.00000000
_cell_angle_gamma   90.00000000
_symmetry_Int_Tables_number   1
_chemical_formula_structural   SmEr11(Si3Au)4
_chemical_formula_sum   'Sm1 Er11 Si12 Au4'
_cell_volume   561.13462051
_cell_formula_units_Z   1
loop_
 _symmetry_equiv_pos_site_id
 _symmetry_equiv_pos_as_xyz
  1  'x, y, z'
loop_
 _atom_site_type_symbol
 _atom_site_label
 _atom_site_symmetry_multiplicity
 _atom_site_fract_x
 _atom_site_fract_y
 _atom_site_fract_z
 _atom_site_occupancy
  Sm  Sm0  1  0.750000  0.165337  0.696812  1
  Er  Er1  1  0.250000  0.874480  0.020509  1
  Er  Er2  1  0.250000  0.625098  0.519896  1
  Er  Er3  1  0.750000  0.125042  0.981430  1
  Er  Er4  1  0.750000  0.375243  0.479477  1
  Er  Er5  1  0.250000  0.923112  0.601524  1
  Er  Er6  1  0.250000  0.576359  0.101781  1
  Er  Er7  1  0.750000  0.075838  0.396210  1
  Er  Er8  1  0.750000  0.424528  0.899572  1
  Er  Er9  1  0.250000  0.665626  0.802284  1
  Er  Er10  1  0.250000  0.834231  0.302178  1
  Er  Er11  1  0.750000  0.334936  0.197450  1
  Si  Si12  1  0.250000  0.027266  0.828926  1
  Si  Si13  1  0.250000  0.471878  0.326653  1
  Si  Si14  1  0.750000  0.970965  0.173506  1
  Si  Si15  1  0.750000  0.528408  0.673628  1
  Si  Si16  1  0.250000  0.249757  0.849645  1
  Si  Si17  1  0.250000  0.251862  0.346082  1
  Si  Si18  1  0.750000  0.751064  0.152466  1
  Si  Si19  1  0.750000  0.748575  0.652340  1
  Si  Si20  1  0.250000  0.180412  0.531025  1
  Si  Si21  1  0.250000  0.318859  0.036637  1
  Si  Si22  1  0.750000  0.818655  0.464282  1
  Si  Si23  1  0.750000  0.681770  0.964432  1
  Au  Au24  1  0.250000  0.394416  0.682822  1
  Au  Au25  1  0.250000  0.108218  0.182618  1
  Au  Au26  1  0.750000  0.608112  0.317291  1
  Au  Au27  1  0.750000  0.889948  0.818524  1
