# generated using pymatgen
data_Sm3Cu4(P2O)2
_symmetry_space_group_name_H-M   'P 1'
_cell_length_a   3.94611986
_cell_length_b   3.94612077
_cell_length_c   13.65989121
_cell_angle_alpha   98.30495633
_cell_angle_beta   98.30495795
_cell_angle_gamma   90.00000314
_symmetry_Int_Tables_number   1
_chemical_formula_structural   Sm3Cu4(P2O)2
_chemical_formula_sum   'Sm3 Cu4 P4 O2'
_cell_volume   208.22484111
_cell_formula_units_Z   1
loop_
 _symmetry_equiv_pos_site_id
 _symmetry_equiv_pos_as_xyz
  1  'x, y, z'
loop_
 _atom_site_type_symbol
 _atom_site_label
 _atom_site_symmetry_multiplicity
 _atom_site_fract_x
 _atom_site_fract_y
 _atom_site_fract_z
 _atom_site_occupancy
  Sm  Sm0  1  0.000000  0.000000  0.000000  1
  Sm  Sm1  1  0.705861  0.705861  0.411721  1
  Sm  Sm2  1  0.294139  0.294139  0.588279  1
  Cu  Cu3  1  0.593755  0.093755  0.187509  1
  Cu  Cu4  1  0.093755  0.593755  0.187509  1
  Cu  Cu5  1  0.906246  0.406245  0.812491  1
  Cu  Cu6  1  0.406245  0.906246  0.812491  1
  P  P7  1  0.541487  0.541487  0.082971  1
  P  P8  1  0.141484  0.141484  0.282968  1
  P  P9  1  0.858517  0.858517  0.717031  1
  P  P10  1  0.458514  0.458514  0.917030  1
  O  O11  1  0.750001  0.250000  0.500000  1
  O  O12  1  0.250000  0.750001  0.500000  1
