# generated using pymatgen
data_Pu4CrFe3B16
_symmetry_space_group_name_H-M   'P 1'
_cell_length_a   5.91962509
_cell_length_b   11.47362412
_cell_length_c   3.37490700
_cell_angle_alpha   90.00000695
_cell_angle_beta   89.99951543
_cell_angle_gamma   89.98185945
_symmetry_Int_Tables_number   1
_chemical_formula_structural   Pu4CrFe3B16
_chemical_formula_sum   'Pu4 Cr1 Fe3 B16'
_cell_volume   229.22216400
_cell_formula_units_Z   1
loop_
 _symmetry_equiv_pos_site_id
 _symmetry_equiv_pos_as_xyz
  1  'x, y, z'
loop_
 _atom_site_type_symbol
 _atom_site_label
 _atom_site_symmetry_multiplicity
 _atom_site_fract_x
 _atom_site_fract_y
 _atom_site_fract_z
 _atom_site_occupancy
  Pu  Pu0  1  0.125215  0.151531  0.999991  1
  Pu  Pu1  1  0.874554  0.849252  0.000006  1
  Pu  Pu2  1  0.626256  0.349825  0.999990  1
  Pu  Pu3  1  0.374320  0.649110  0.000000  1
  Cr  Cr4  1  0.369797  0.913225  0.000046  1
  Fe  Fe5  1  0.131175  0.412600  0.999961  1
  Fe  Fe6  1  0.869039  0.587100  0.000024  1
  Fe  Fe7  1  0.631109  0.087835  0.999995  1
  B  B8  1  0.474612  0.190548  0.500017  1
  B  B9  1  0.526976  0.808880  0.499998  1
  B  B10  1  0.975072  0.309805  0.500006  1
  B  B11  1  0.024602  0.690161  0.500004  1
  B  B12  1  0.280019  0.316022  0.500002  1
  B  B13  1  0.720092  0.684113  0.499992  1
  B  B14  1  0.779879  0.184157  0.500000  1
  B  B15  1  0.217390  0.814047  0.500013  1
  B  B16  1  0.361178  0.467249  0.499977  1
  B  B17  1  0.639027  0.533002  0.499986  1
  B  B18  1  0.861816  0.033201  0.499988  1
  B  B19  1  0.136975  0.967540  0.499996  1
  B  B20  1  0.387529  0.046502  0.499997  1
  B  B21  1  0.613677  0.954249  0.500010  1
  B  B22  1  0.887594  0.453976  0.499990  1
  B  B23  1  0.112101  0.546071  0.500003  1
