# generated using pymatgen
data_HfZr3(SiW)4
_symmetry_space_group_name_H-M   'P 1'
_cell_length_a   3.55102100
_cell_length_b   6.97801703
_cell_length_c   8.21958304
_cell_angle_alpha   90.01088418
_cell_angle_beta   90.00000000
_cell_angle_gamma   90.00000000
_symmetry_Int_Tables_number   1
_chemical_formula_structural   HfZr3(SiW)4
_chemical_formula_sum   'Hf1 Zr3 Si4 W4'
_cell_volume   203.67374321
_cell_formula_units_Z   1
loop_
 _symmetry_equiv_pos_site_id
 _symmetry_equiv_pos_as_xyz
  1  'x, y, z'
loop_
 _atom_site_type_symbol
 _atom_site_label
 _atom_site_symmetry_multiplicity
 _atom_site_fract_x
 _atom_site_fract_y
 _atom_site_fract_z
 _atom_site_occupancy
  Hf  Hf0  1  0.750000  0.959136  0.666983  1
  Zr  Zr1  1  0.250000  0.540502  0.167062  1
  Zr  Zr2  1  0.250000  0.040170  0.333951  1
  Zr  Zr3  1  0.750000  0.459997  0.832759  1
  Si  Si4  1  0.250000  0.757116  0.859202  1
  Si  Si5  1  0.250000  0.255198  0.640083  1
  Si  Si6  1  0.750000  0.243357  0.139977  1
  Si  Si7  1  0.750000  0.743770  0.360197  1
  W  W8  1  0.250000  0.631859  0.559999  1
  W  W9  1  0.250000  0.130057  0.939833  1
  W  W10  1  0.750000  0.369400  0.441267  1
  W  W11  1  0.750000  0.869437  0.058686  1
