# generated using pymatgen
data_Li4La3ErPt4
_symmetry_space_group_name_H-M   'P 1'
_cell_length_a   4.06937200
_cell_length_b   7.20795034
_cell_length_c   8.59943300
_cell_angle_alpha   89.46150501
_cell_angle_beta   90.00000000
_cell_angle_gamma   90.00000000
_symmetry_Int_Tables_number   1
_chemical_formula_structural   Li4La3ErPt4
_chemical_formula_sum   'Li4 La3 Er1 Pt4'
_cell_volume   252.22597787
_cell_formula_units_Z   1
loop_
 _symmetry_equiv_pos_site_id
 _symmetry_equiv_pos_as_xyz
  1  'x, y, z'
loop_
 _atom_site_type_symbol
 _atom_site_label
 _atom_site_symmetry_multiplicity
 _atom_site_fract_x
 _atom_site_fract_y
 _atom_site_fract_z
 _atom_site_occupancy
  Li  Li0  1  0.250000  0.378337  0.558943  1
  Li  Li1  1  0.250000  0.872228  0.941906  1
  Li  Li2  1  0.750000  0.620235  0.449120  1
  Li  Li3  1  0.750000  0.128621  0.052766  1
  La  La4  1  0.250000  0.950365  0.315248  1
  La  La5  1  0.250000  0.454212  0.181205  1
  La  La6  1  0.750000  0.045619  0.689289  1
  Er  Er7  1  0.750000  0.549481  0.818230  1
  Pt  Pt8  1  0.250000  0.264084  0.874353  1
  Pt  Pt9  1  0.250000  0.743083  0.628457  1
  Pt  Pt10  1  0.750000  0.747372  0.111401  1
  Pt  Pt11  1  0.750000  0.246363  0.379081  1
