# generated using pymatgen
data_Tb3Pr3Y2(CdOs)2
_symmetry_space_group_name_H-M   'P 1'
_cell_length_a   9.79359886
_cell_length_b   9.80720150
_cell_length_c   9.80720067
_cell_angle_alpha   59.90825260
_cell_angle_beta   60.04586698
_cell_angle_gamma   60.04586514
_symmetry_Int_Tables_number   1
_chemical_formula_structural   Tb3Pr3Y2(CdOs)2
_chemical_formula_sum   'Tb6 Pr6 Y4 Cd4 Os4'
_cell_volume   666.06368437
_cell_formula_units_Z   2
loop_
 _symmetry_equiv_pos_site_id
 _symmetry_equiv_pos_as_xyz
  1  'x, y, z'
loop_
 _atom_site_type_symbol
 _atom_site_label
 _atom_site_symmetry_multiplicity
 _atom_site_fract_x
 _atom_site_fract_y
 _atom_site_fract_z
 _atom_site_occupancy
  Tb  Tb0  1  0.343733  0.345577  0.345577  1
  Tb  Tb1  1  0.345577  0.343733  0.965114  1
  Tb  Tb2  1  0.345577  0.965114  0.343733  1
  Tb  Tb3  1  0.965114  0.345577  0.345577  1
  Tb  Tb4  1  0.811925  0.188075  0.188075  1
  Tb  Tb5  1  0.188075  0.811925  0.811925  1
  Pr  Pr6  1  0.942430  0.557570  0.557570  1
  Pr  Pr7  1  0.557570  0.942430  0.942430  1
  Pr  Pr8  1  0.556292  0.943708  0.556292  1
  Pr  Pr9  1  0.943708  0.556292  0.943708  1
  Pr  Pr10  1  0.556292  0.556292  0.943708  1
  Pr  Pr11  1  0.943708  0.943708  0.556292  1
  Y  Y12  1  0.188070  0.811930  0.188070  1
  Y  Y13  1  0.811930  0.188070  0.811930  1
  Y  Y14  1  0.188070  0.188070  0.811930  1
  Y  Y15  1  0.811930  0.811930  0.188070  1
  Cd  Cd16  1  0.579003  0.578283  0.578283  1
  Cd  Cd17  1  0.578283  0.579003  0.264428  1
  Cd  Cd18  1  0.578283  0.264428  0.579003  1
  Cd  Cd19  1  0.264428  0.578283  0.578283  1
  Os  Os20  1  0.137009  0.140502  0.140502  1
  Os  Os21  1  0.140502  0.137009  0.581987  1
  Os  Os22  1  0.140502  0.581987  0.137009  1
  Os  Os23  1  0.581987  0.140502  0.140502  1
