# generated using pymatgen
data_Li3Yb2TmPb3
_symmetry_space_group_name_H-M   'P 1'
_cell_length_a   4.88194900
_cell_length_b   4.88194888
_cell_length_c   10.89128100
_cell_angle_alpha   90.00000000
_cell_angle_beta   90.00000000
_cell_angle_gamma   119.99999406
_symmetry_Int_Tables_number   1
_chemical_formula_structural   Li3Yb2TmPb3
_chemical_formula_sum   'Li3 Yb2 Tm1 Pb3'
_cell_volume   224.79988579
_cell_formula_units_Z   1
loop_
 _symmetry_equiv_pos_site_id
 _symmetry_equiv_pos_as_xyz
  1  'x, y, z'
loop_
 _atom_site_type_symbol
 _atom_site_label
 _atom_site_symmetry_multiplicity
 _atom_site_fract_x
 _atom_site_fract_y
 _atom_site_fract_z
 _atom_site_occupancy
  Li  Li0  1  0.000000  0.000000  0.804913  1
  Li  Li1  1  0.333333  0.666667  0.500000  1
  Li  Li2  1  0.000000  0.000000  0.195087  1
  Yb  Yb3  1  0.666667  0.333333  0.338557  1
  Yb  Yb4  1  0.666667  0.333333  0.661443  1
  Tm  Tm5  1  0.666667  0.333333  0.000000  1
  Pb  Pb6  1  0.333333  0.666667  0.151051  1
  Pb  Pb7  1  0.333333  0.666667  0.848949  1
  Pb  Pb8  1  0.000000  0.000000  0.500000  1
