# generated using pymatgen
data_LaTb4(CoB3)2
_symmetry_space_group_name_H-M   'P 1'
_cell_length_a   8.43565727
_cell_length_b   8.43565726
_cell_length_c   8.43565677
_cell_angle_alpha   37.56598943
_cell_angle_beta   37.56600402
_cell_angle_gamma   37.56597957
_symmetry_Int_Tables_number   1
_chemical_formula_structural   LaTb4(CoB3)2
_chemical_formula_sum   'La1 Tb4 Co2 B6'
_cell_volume   200.13039608
_cell_formula_units_Z   1
loop_
 _symmetry_equiv_pos_site_id
 _symmetry_equiv_pos_as_xyz
  1  'x, y, z'
loop_
 _atom_site_type_symbol
 _atom_site_label
 _atom_site_symmetry_multiplicity
 _atom_site_fract_x
 _atom_site_fract_y
 _atom_site_fract_z
 _atom_site_occupancy
  La  La0  1  0.000000  0.000000  0.000000  1
  Tb  Tb1  1  0.582947  0.582947  0.582947  1
  Tb  Tb2  1  0.417053  0.417053  0.417053  1
  Tb  Tb3  1  0.749307  0.749307  0.749307  1
  Tb  Tb4  1  0.250693  0.250693  0.250693  1
  Co  Co5  1  0.880853  0.880853  0.880853  1
  Co  Co6  1  0.119147  0.119147  0.119147  1
  B  B7  1  0.500000  0.831952  0.168048  1
  B  B8  1  0.168048  0.500000  0.831952  1
  B  B9  1  0.831952  0.168048  0.500000  1
  B  B10  1  0.500000  0.168048  0.831952  1
  B  B11  1  0.831952  0.500000  0.168048  1
  B  B12  1  0.168048  0.831952  0.500000  1
