# generated using pymatgen
data_DyHo9(SnSb2)2
_symmetry_space_group_name_H-M   'P 1'
_cell_length_a   8.94108268
_cell_length_b   8.92976734
_cell_length_c   6.36798900
_cell_angle_alpha   90.00000000
_cell_angle_beta   90.00000000
_cell_angle_gamma   119.77787192
_symmetry_Int_Tables_number   1
_chemical_formula_structural   DyHo9(SnSb2)2
_chemical_formula_sum   'Dy1 Ho9 Sn2 Sb4'
_cell_volume   441.29695569
_cell_formula_units_Z   1
loop_
 _symmetry_equiv_pos_site_id
 _symmetry_equiv_pos_as_xyz
  1  'x, y, z'
loop_
 _atom_site_type_symbol
 _atom_site_label
 _atom_site_symmetry_multiplicity
 _atom_site_fract_x
 _atom_site_fract_y
 _atom_site_fract_z
 _atom_site_occupancy
  Dy  Dy0  1  0.755179  0.999350  0.750000  1
  Ho  Ho1  1  0.333818  0.666984  0.999825  1
  Ho  Ho2  1  0.665190  0.332351  0.499875  1
  Ho  Ho3  1  0.665190  0.332351  0.000125  1
  Ho  Ho4  1  0.333818  0.666984  0.500175  1
  Ho  Ho5  1  0.754947  0.755785  0.250000  1
  Ho  Ho6  1  0.000901  0.244094  0.250000  1
  Ho  Ho7  1  0.001122  0.757153  0.750000  1
  Ho  Ho8  1  0.244421  0.242842  0.750000  1
  Ho  Ho9  1  0.243488  0.001678  0.250000  1
  Sn  Sn10  1  0.390913  0.998724  0.750000  1
  Sn  Sn11  1  0.390844  0.391437  0.250000  1
  Sb  Sb12  1  0.999475  0.609925  0.250000  1
  Sb  Sb13  1  0.999681  0.389912  0.750000  1
  Sb  Sb14  1  0.610844  0.610245  0.750000  1
  Sb  Sb15  1  0.610169  0.000188  0.250000  1
