# generated using pymatgen
data_Ti12Al3Si5(IrN)4
_symmetry_space_group_name_H-M   'P 1'
_cell_length_a   8.07007910
_cell_length_b   8.06444956
_cell_length_c   8.06853400
_cell_angle_alpha   59.98325274
_cell_angle_beta   60.00634144
_cell_angle_gamma   59.96885920
_symmetry_Int_Tables_number   1
_chemical_formula_structural   Ti12Al3Si5(IrN)4
_chemical_formula_sum   'Ti12 Al3 Si5 Ir4 N4'
_cell_volume   371.18948527
_cell_formula_units_Z   1
loop_
 _symmetry_equiv_pos_site_id
 _symmetry_equiv_pos_as_xyz
  1  'x, y, z'
loop_
 _atom_site_type_symbol
 _atom_site_label
 _atom_site_symmetry_multiplicity
 _atom_site_fract_x
 _atom_site_fract_y
 _atom_site_fract_z
 _atom_site_occupancy
  Ti  Ti0  1  0.814939  0.814924  0.185068  1
  Ti  Ti1  1  0.060604  0.436122  0.436244  1
  Ti  Ti2  1  0.435741  0.061456  0.067277  1
  Ti  Ti3  1  0.064106  0.065033  0.435431  1
  Ti  Ti4  1  0.060604  0.436122  0.067029  1
  Ti  Ti5  1  0.435741  0.061456  0.435525  1
  Ti  Ti6  1  0.185828  0.814273  0.185227  1
  Ti  Ti7  1  0.185828  0.814273  0.814672  1
  Ti  Ti8  1  0.814360  0.182413  0.188511  1
  Ti  Ti9  1  0.814360  0.182413  0.814717  1
  Ti  Ti10  1  0.436045  0.435695  0.064130  1
  Ti  Ti11  1  0.188778  0.182331  0.814446  1
  Al  Al12  1  0.414749  0.414419  0.417398  1
  Al  Al13  1  0.414749  0.414419  0.753432  1
  Al  Al14  1  0.834710  0.495737  0.834778  1
  Si  Si15  1  0.411026  0.758471  0.415251  1
  Si  Si16  1  0.838547  0.833959  0.488613  1
  Si  Si17  1  0.492123  0.833085  0.837397  1
  Si  Si18  1  0.838547  0.833959  0.838884  1
  Si  Si19  1  0.755491  0.412076  0.416215  1
  Ir  Ir20  1  0.633019  0.113821  0.626580  1
  Ir  Ir21  1  0.624816  0.632420  0.125387  1
  Ir  Ir22  1  0.120063  0.637186  0.621376  1
  Ir  Ir23  1  0.624816  0.632420  0.617376  1
  N  N24  1  0.124917  0.625350  0.124866  1
  N  N25  1  0.125335  0.125458  0.624150  1
  N  N26  1  0.624825  0.125251  0.124962  1
  N  N27  1  0.125335  0.125458  0.125057  1
