# generated using pymatgen
data_Tb3Dy5(B6Ru)4
_symmetry_space_group_name_H-M   'P 1'
_cell_length_a   3.66679800
_cell_length_b   9.15778300
_cell_length_c   11.53416100
_cell_angle_alpha   89.99712043
_cell_angle_beta   90.00000000
_cell_angle_gamma   90.00000000
_symmetry_Int_Tables_number   1
_chemical_formula_structural   Tb3Dy5(B6Ru)4
_chemical_formula_sum   'Tb3 Dy5 B24 Ru4'
_cell_volume   387.31413174
_cell_formula_units_Z   1
loop_
 _symmetry_equiv_pos_site_id
 _symmetry_equiv_pos_as_xyz
  1  'x, y, z'
loop_
 _atom_site_type_symbol
 _atom_site_label
 _atom_site_symmetry_multiplicity
 _atom_site_fract_x
 _atom_site_fract_y
 _atom_site_fract_z
 _atom_site_occupancy
  Tb  Tb0  1  0.000000  0.323319  0.413965  1
  Tb  Tb1  1  0.000000  0.676680  0.586050  1
  Tb  Tb2  1  0.000000  0.823359  0.085993  1
  Dy  Dy3  1  0.000000  0.176787  0.914043  1
  Dy  Dy4  1  0.000000  0.944103  0.372183  1
  Dy  Dy5  1  0.000000  0.055956  0.627865  1
  Dy  Dy6  1  0.000000  0.444015  0.127702  1
  Dy  Dy7  1  0.000000  0.555865  0.872228  1
  B  B8  1  0.500000  0.554597  0.432748  1
  B  B9  1  0.500000  0.445352  0.567302  1
  B  B10  1  0.500000  0.054681  0.067043  1
  B  B11  1  0.500000  0.945632  0.932778  1
  B  B12  1  0.500000  0.747976  0.419604  1
  B  B13  1  0.500000  0.252027  0.580466  1
  B  B14  1  0.500000  0.247880  0.080141  1
  B  B15  1  0.500000  0.752118  0.919586  1
  B  B16  1  0.500000  0.791329  0.266532  1
  B  B17  1  0.500000  0.208548  0.733670  1
  B  B18  1  0.500000  0.291294  0.233365  1
  B  B19  1  0.500000  0.708726  0.766573  1
  B  B20  1  0.500000  0.632421  0.185441  1
  B  B21  1  0.500000  0.367354  0.814674  1
  B  B22  1  0.500000  0.132467  0.314494  1
  B  B23  1  0.500000  0.867612  0.685517  1
  B  B24  1  0.500000  0.984662  0.212817  1
  B  B25  1  0.500000  0.015670  0.787240  1
  B  B26  1  0.500000  0.484583  0.287080  1
  B  B27  1  0.500000  0.515299  0.712949  1
  B  B28  1  0.500000  0.608888  0.030054  1
  B  B29  1  0.500000  0.390717  0.969829  1
  B  B30  1  0.500000  0.108817  0.469978  1
  B  B31  1  0.500000  0.891209  0.530057  1
  Ru  Ru32  1  0.000000  0.638286  0.321179  1
  Ru  Ru33  1  0.000000  0.361588  0.678924  1
  Ru  Ru34  1  0.000000  0.138282  0.178656  1
  Ru  Ru35  1  0.000000  0.861904  0.821272  1
