# generated using pymatgen
data_Y2Al5Ga4Ir3
_symmetry_space_group_name_H-M   'P 1'
_cell_length_a   7.54609037
_cell_length_b   7.54059177
_cell_length_c   9.57621364
_cell_angle_alpha   90.08313525
_cell_angle_beta   89.86568192
_cell_angle_gamma   119.64182051
_symmetry_Int_Tables_number   1
_chemical_formula_structural   Y2Al5Ga4Ir3
_chemical_formula_sum   'Y4 Al10 Ga8 Ir6'
_cell_volume   473.59473266
_cell_formula_units_Z   2
loop_
 _symmetry_equiv_pos_site_id
 _symmetry_equiv_pos_as_xyz
  1  'x, y, z'
loop_
 _atom_site_type_symbol
 _atom_site_label
 _atom_site_symmetry_multiplicity
 _atom_site_fract_x
 _atom_site_fract_y
 _atom_site_fract_z
 _atom_site_occupancy
  Y  Y0  1  0.995736  0.667671  0.246628  1
  Y  Y1  1  0.004264  0.332329  0.753372  1
  Y  Y2  1  0.672050  0.997664  0.249034  1
  Y  Y3  1  0.327950  0.002336  0.750966  1
  Al  Al4  1  0.998221  0.665428  0.570996  1
  Al  Al5  1  0.334633  0.000967  0.427671  1
  Al  Al6  1  0.001779  0.334572  0.429004  1
  Al  Al7  1  0.665367  0.999033  0.572329  1
  Al  Al8  1  0.664224  0.997185  0.926539  1
  Al  Al9  1  0.335776  0.002815  0.073461  1
  Al  Al10  1  0.333557  0.333484  0.554078  1
  Al  Al11  1  0.666443  0.666516  0.445922  1
  Al  Al12  1  0.666556  0.666221  0.053535  1
  Al  Al13  1  0.333444  0.333779  0.946465  1
  Ga  Ga14  1  0.129750  0.127262  0.250466  1
  Ga  Ga15  1  0.870250  0.872738  0.749534  1
  Ga  Ga16  1  0.999407  0.333797  0.078390  1
  Ga  Ga17  1  0.000593  0.666203  0.921610  1
  Ga  Ga18  1  0.340605  0.548193  0.250597  1
  Ga  Ga19  1  0.659395  0.451807  0.749403  1
  Ga  Ga20  1  0.546665  0.339783  0.250214  1
  Ga  Ga21  1  0.453335  0.660217  0.749786  1
  Ir  Ir22  1  0.666534  0.325759  0.999374  1
  Ir  Ir23  1  0.333466  0.674241  0.000626  1
  Ir  Ir24  1  0.328271  0.671569  0.500530  1
  Ir  Ir25  1  0.671729  0.328431  0.499470  1
  Ir  Ir26  1  0.000000  0.000000  0.000000  1
  Ir  Ir27  1  0.000000  0.000000  0.500000  1
