# generated using pymatgen
data_Np3HgO12
_symmetry_space_group_name_H-M   'P 1'
_cell_length_a   7.17584790
_cell_length_b   7.21965555
_cell_length_c   7.15320580
_cell_angle_alpha   109.59701098
_cell_angle_beta   109.76597453
_cell_angle_gamma   109.50103392
_symmetry_Int_Tables_number   1
_chemical_formula_structural   Np3HgO12
_chemical_formula_sum   'Np3 Hg1 O12'
_cell_volume   283.68034336
_cell_formula_units_Z   1
loop_
 _symmetry_equiv_pos_site_id
 _symmetry_equiv_pos_as_xyz
  1  'x, y, z'
loop_
 _atom_site_type_symbol
 _atom_site_label
 _atom_site_symmetry_multiplicity
 _atom_site_fract_x
 _atom_site_fract_y
 _atom_site_fract_z
 _atom_site_occupancy
  Np  Np0  1  0.500046  0.496603  0.496613  1
  Np  Np1  1  0.999976  0.496600  0.996607  1
  Np  Np2  1  0.000013  0.996643  0.496623  1
  Hg  Hg3  1  0.499920  0.996566  0.996551  1
  O  O4  1  0.240093  0.417277  0.223276  1
  O  O5  1  0.759922  0.575937  0.769911  1
  O  O6  1  0.182335  0.993587  0.753987  1
  O  O7  1  0.817751  0.000023  0.239504  1
  O  O8  1  0.270280  0.205602  0.521203  1
  O  O9  1  0.729885  0.787612  0.472033  1
  O  O10  1  0.745040  0.249351  0.938869  1
  O  O11  1  0.254975  0.743685  0.054300  1
  O  O12  1  0.009120  0.695158  0.262192  1
  O  O13  1  0.990641  0.297974  0.730838  1
  O  O14  1  0.564913  0.298172  0.317595  1
  O  O15  1  0.435089  0.694934  0.675619  1
