# generated using pymatgen
data_CsRbZn2(SiAs2)2
_symmetry_space_group_name_H-M   'P 1'
_cell_length_a   8.61500649
_cell_length_b   8.30933171
_cell_length_c   8.47878101
_cell_angle_alpha   71.48766199
_cell_angle_beta   76.85043698
_cell_angle_gamma   73.32553979
_symmetry_Int_Tables_number   1
_chemical_formula_structural   CsRbZn2(SiAs2)2
_chemical_formula_sum   'Cs2 Rb2 Zn4 Si4 As8'
_cell_volume   545.09490418
_cell_formula_units_Z   2
loop_
 _symmetry_equiv_pos_site_id
 _symmetry_equiv_pos_as_xyz
  1  'x, y, z'
loop_
 _atom_site_type_symbol
 _atom_site_label
 _atom_site_symmetry_multiplicity
 _atom_site_fract_x
 _atom_site_fract_y
 _atom_site_fract_z
 _atom_site_occupancy
  Cs  Cs0  1  0.454184  0.770789  0.321582  1
  Cs  Cs1  1  0.545816  0.229211  0.678418  1
  Rb  Rb2  1  0.436740  0.794863  0.821333  1
  Rb  Rb3  1  0.563260  0.205137  0.178667  1
  Zn  Zn4  1  0.996785  0.893894  0.686686  1
  Zn  Zn5  1  0.003215  0.106106  0.313314  1
  Zn  Zn6  1  0.963665  0.810297  0.175152  1
  Zn  Zn7  1  0.036335  0.189703  0.824848  1
  Si  Si8  1  0.962180  0.589090  0.593535  1
  Si  Si9  1  0.037820  0.410910  0.406465  1
  Si  Si10  1  0.140426  0.446964  0.980181  1
  Si  Si11  1  0.859574  0.553036  0.019819  1
  As  As12  1  0.826683  0.878347  0.451626  1
  As  As13  1  0.173317  0.121653  0.548374  1
  As  As14  1  0.797224  0.402292  0.310355  1
  As  As15  1  0.202776  0.597708  0.689645  1
  As  As16  1  0.792803  0.865776  0.955024  1
  As  As17  1  0.207197  0.134224  0.044976  1
  As  As18  1  0.784020  0.445361  0.822523  1
  As  As19  1  0.215980  0.554639  0.177477  1
