# generated using pymatgen
data_Y6Al24FeOs7
_symmetry_space_group_name_H-M   'P 1'
_cell_length_a   8.82599100
_cell_length_b   8.82599125
_cell_length_c   9.54404400
_cell_angle_alpha   90.00000000
_cell_angle_beta   90.00000000
_cell_angle_gamma   119.99999531
_symmetry_Int_Tables_number   1
_chemical_formula_structural   Y6Al24FeOs7
_chemical_formula_sum   'Y6 Al24 Fe1 Os7'
_cell_volume   643.85794340
_cell_formula_units_Z   1
loop_
 _symmetry_equiv_pos_site_id
 _symmetry_equiv_pos_as_xyz
  1  'x, y, z'
loop_
 _atom_site_type_symbol
 _atom_site_label
 _atom_site_symmetry_multiplicity
 _atom_site_fract_x
 _atom_site_fract_y
 _atom_site_fract_z
 _atom_site_occupancy
  Y  Y0  1  0.193032  0.386064  0.249846  1
  Y  Y1  1  0.806968  0.613936  0.750154  1
  Y  Y2  1  0.613936  0.806968  0.249846  1
  Y  Y3  1  0.386064  0.193032  0.750154  1
  Y  Y4  1  0.193032  0.806968  0.249846  1
  Y  Y5  1  0.806968  0.193032  0.750154  1
  Al  Al6  1  0.333333  0.666667  0.014024  1
  Al  Al7  1  0.666667  0.333333  0.985976  1
  Al  Al8  1  0.666667  0.333333  0.515346  1
  Al  Al9  1  0.333333  0.666667  0.484654  1
  Al  Al10  1  0.162233  0.324466  0.576326  1
  Al  Al11  1  0.837767  0.675534  0.423674  1
  Al  Al12  1  0.675534  0.837767  0.576326  1
  Al  Al13  1  0.840358  0.680716  0.075151  1
  Al  Al14  1  0.324466  0.162233  0.423674  1
  Al  Al15  1  0.159642  0.319284  0.924849  1
  Al  Al16  1  0.162233  0.837767  0.576326  1
  Al  Al17  1  0.319284  0.159642  0.075151  1
  Al  Al18  1  0.837767  0.162233  0.423674  1
  Al  Al19  1  0.680716  0.840358  0.924849  1
  Al  Al20  1  0.840358  0.159642  0.075151  1
  Al  Al21  1  0.159642  0.840358  0.924849  1
  Al  Al22  1  0.560611  0.121222  0.249574  1
  Al  Al23  1  0.439389  0.878778  0.750426  1
  Al  Al24  1  0.878778  0.439389  0.249574  1
  Al  Al25  1  0.121222  0.560611  0.750426  1
  Al  Al26  1  0.560611  0.439389  0.249574  1
  Al  Al27  1  0.439389  0.560611  0.750426  1
  Al  Al28  1  0.000000  0.000000  0.242836  1
  Al  Al29  1  0.000000  0.000000  0.757164  1
  Fe  Fe30  1  0.000000  0.000000  0.000000  1
  Os  Os31  1  0.500000  0.000000  0.000000  1
  Os  Os32  1  0.000000  0.500000  0.000000  1
  Os  Os33  1  0.500000  0.000000  0.500000  1
  Os  Os34  1  0.500000  0.500000  0.000000  1
  Os  Os35  1  0.000000  0.500000  0.500000  1
  Os  Os36  1  0.500000  0.500000  0.500000  1
  Os  Os37  1  0.000000  0.000000  0.500000  1
