# generated using pymatgen
data_Ni5(MoP)3
_symmetry_space_group_name_H-M   'P 1'
_cell_length_a   3.57908800
_cell_length_b   5.80663000
_cell_length_c   12.80535800
_cell_angle_alpha   90.00000000
_cell_angle_beta   90.00000000
_cell_angle_gamma   90.00000000
_symmetry_Int_Tables_number   1
_chemical_formula_structural   Ni5(MoP)3
_chemical_formula_sum   'Ni10 Mo6 P6'
_cell_volume   266.12658116
_cell_formula_units_Z   2
loop_
 _symmetry_equiv_pos_site_id
 _symmetry_equiv_pos_as_xyz
  1  'x, y, z'
loop_
 _atom_site_type_symbol
 _atom_site_label
 _atom_site_symmetry_multiplicity
 _atom_site_fract_x
 _atom_site_fract_y
 _atom_site_fract_z
 _atom_site_occupancy
  Ni  Ni0  1  0.500000  0.446734  0.100413  1
  Ni  Ni1  1  0.500000  0.073049  0.000000  1
  Ni  Ni2  1  0.500000  0.361643  0.710325  1
  Ni  Ni3  1  0.000000  0.926951  0.500000  1
  Ni  Ni4  1  0.000000  0.638357  0.789675  1
  Ni  Ni5  1  0.000000  0.638357  0.210325  1
  Ni  Ni6  1  0.500000  0.446734  0.899587  1
  Ni  Ni7  1  0.500000  0.361643  0.289675  1
  Ni  Ni8  1  0.000000  0.553266  0.600413  1
  Ni  Ni9  1  0.000000  0.553266  0.399587  1
  Mo  Mo10  1  0.500000  0.258921  0.500000  1
  Mo  Mo11  1  0.000000  0.741079  0.000000  1
  Mo  Mo12  1  0.500000  0.882529  0.667693  1
  Mo  Mo13  1  0.000000  0.117471  0.832307  1
  Mo  Mo14  1  0.000000  0.117471  0.167693  1
  Mo  Mo15  1  0.500000  0.882529  0.332307  1
  P  P16  1  0.000000  0.179427  0.360963  1
  P  P17  1  0.500000  0.820573  0.860963  1
  P  P18  1  0.000000  0.327541  0.000000  1
  P  P19  1  0.500000  0.672459  0.500000  1
  P  P20  1  0.500000  0.820573  0.139037  1
  P  P21  1  0.000000  0.179427  0.639037  1
