# generated using pymatgen
data_Hf9ZrAlSn6Ge
_symmetry_space_group_name_H-M   'P 1'
_cell_length_a   8.67001759
_cell_length_b   8.66873140
_cell_length_c   5.82750640
_cell_angle_alpha   90.02111457
_cell_angle_beta   89.95778374
_cell_angle_gamma   120.00491199
_symmetry_Int_Tables_number   1
_chemical_formula_structural   Hf9ZrAlSn6Ge
_chemical_formula_sum   'Hf9 Zr1 Al1 Sn6 Ge1'
_cell_volume   379.28642547
_cell_formula_units_Z   1
loop_
 _symmetry_equiv_pos_site_id
 _symmetry_equiv_pos_as_xyz
  1  'x, y, z'
loop_
 _atom_site_type_symbol
 _atom_site_label
 _atom_site_symmetry_multiplicity
 _atom_site_fract_x
 _atom_site_fract_y
 _atom_site_fract_z
 _atom_site_occupancy
  Hf  Hf0  1  0.332921  0.666362  0.000289  1
  Hf  Hf1  1  0.666584  0.333552  0.499788  1
  Hf  Hf2  1  0.666560  0.333638  0.000289  1
  Hf  Hf3  1  0.333030  0.666448  0.499788  1
  Hf  Hf4  1  0.268559  0.000000  0.246822  1
  Hf  Hf5  1  0.267899  0.268228  0.753315  1
  Hf  Hf6  1  0.999671  0.731772  0.753315  1
  Hf  Hf7  1  0.000425  0.268900  0.246611  1
  Hf  Hf8  1  0.731525  0.731100  0.246611  1
  Zr  Zr9  1  0.732385  0.000000  0.752705  1
  Al  Al10  1  0.000296  0.000000  0.499319  1
  Sn  Sn11  1  0.610744  0.000000  0.252299  1
  Sn  Sn12  1  0.610274  0.609906  0.747679  1
  Sn  Sn13  1  0.000368  0.390094  0.747679  1
  Sn  Sn14  1  0.999943  0.610542  0.252317  1
  Sn  Sn15  1  0.389400  0.389458  0.252317  1
  Sn  Sn16  1  0.388756  0.000000  0.747718  1
  Ge  Ge17  1  0.000661  0.000000  0.001136  1
