# generated using pymatgen
data_Cs2Tb5DySe10
_symmetry_space_group_name_H-M   'P 1'
_cell_length_a   4.17674200
_cell_length_b   12.54122817
_cell_length_c   22.37259131
_cell_angle_alpha   90.01909058
_cell_angle_beta   90.00000000
_cell_angle_gamma   90.00000000
_symmetry_Int_Tables_number   1
_chemical_formula_structural   Cs2Tb5DySe10
_chemical_formula_sum   'Cs4 Tb10 Dy2 Se20'
_cell_volume   1171.90925497
_cell_formula_units_Z   2
loop_
 _symmetry_equiv_pos_site_id
 _symmetry_equiv_pos_as_xyz
  1  'x, y, z'
loop_
 _atom_site_type_symbol
 _atom_site_label
 _atom_site_symmetry_multiplicity
 _atom_site_fract_x
 _atom_site_fract_y
 _atom_site_fract_z
 _atom_site_occupancy
  Cs  Cs0  1  0.250000  0.853423  0.092382  1
  Cs  Cs1  1  0.750000  0.146577  0.907618  1
  Cs  Cs2  1  0.750000  0.353406  0.407626  1
  Cs  Cs3  1  0.250000  0.646594  0.592374  1
  Tb  Tb4  1  0.750000  0.797126  0.825375  1
  Tb  Tb5  1  0.250000  0.202874  0.174625  1
  Tb  Tb6  1  0.250000  0.297095  0.674605  1
  Tb  Tb7  1  0.750000  0.702905  0.325395  1
  Tb  Tb8  1  0.250000  0.957320  0.697864  1
  Tb  Tb9  1  0.750000  0.042680  0.302136  1
  Tb  Tb10  1  0.750000  0.457317  0.802107  1
  Tb  Tb11  1  0.250000  0.542683  0.197893  1
  Tb  Tb12  1  0.750000  0.391666  0.053921  1
  Tb  Tb13  1  0.250000  0.608334  0.946079  1
  Dy  Dy14  1  0.250000  0.891746  0.446069  1
  Dy  Dy15  1  0.750000  0.108254  0.553931  1
  Se  Se16  1  0.250000  0.948385  0.568774  1
  Se  Se17  1  0.750000  0.051615  0.431226  1
  Se  Se18  1  0.750000  0.448063  0.931011  1
  Se  Se19  1  0.250000  0.551937  0.068989  1
  Se  Se20  1  0.750000  0.764541  0.952457  1
  Se  Se21  1  0.250000  0.235459  0.047543  1
  Se  Se22  1  0.250000  0.264048  0.547536  1
  Se  Se23  1  0.750000  0.735952  0.452464  1
  Se  Se24  1  0.250000  0.949592  0.825527  1
  Se  Se25  1  0.750000  0.050408  0.174473  1
  Se  Se26  1  0.750000  0.449587  0.674468  1
  Se  Se27  1  0.250000  0.550413  0.325532  1
  Se  Se28  1  0.750000  0.126161  0.684575  1
  Se  Se29  1  0.250000  0.873839  0.315425  1
  Se  Se30  1  0.250000  0.626181  0.815260  1
  Se  Se31  1  0.750000  0.373819  0.184740  1
  Se  Se32  1  0.750000  0.693839  0.197586  1
  Se  Se33  1  0.250000  0.306161  0.802414  1
  Se  Se34  1  0.250000  0.193835  0.302413  1
  Se  Se35  1  0.750000  0.806165  0.697587  1
