# generated using pymatgen
data_Dy5Cr3(P3Rh4)4
_symmetry_space_group_name_H-M   'P 1'
_cell_length_a   12.71082900
_cell_length_b   12.71082891
_cell_length_c   3.90444900
_cell_angle_alpha   90.00000000
_cell_angle_beta   90.00000000
_cell_angle_gamma   119.99999764
_symmetry_Int_Tables_number   1
_chemical_formula_structural   Dy5Cr3(P3Rh4)4
_chemical_formula_sum   'Dy5 Cr3 P12 Rh16'
_cell_volume   546.30873638
_cell_formula_units_Z   1
loop_
 _symmetry_equiv_pos_site_id
 _symmetry_equiv_pos_as_xyz
  1  'x, y, z'
loop_
 _atom_site_type_symbol
 _atom_site_label
 _atom_site_symmetry_multiplicity
 _atom_site_fract_x
 _atom_site_fract_y
 _atom_site_fract_z
 _atom_site_occupancy
  Dy  Dy0  1  0.333333  0.666667  0.500000  1
  Dy  Dy1  1  0.666667  0.333333  0.500000  1
  Dy  Dy2  1  0.000000  0.810483  0.000000  1
  Dy  Dy3  1  0.189517  0.189517  0.000000  1
  Dy  Dy4  1  0.810483  0.000000  0.000000  1
  Cr  Cr5  1  0.000000  0.450888  0.500000  1
  Cr  Cr6  1  0.549112  0.549112  0.500000  1
  Cr  Cr7  1  0.450888  0.000000  0.500000  1
  P  P8  1  0.000000  0.636037  0.500000  1
  P  P9  1  0.363963  0.363963  0.500000  1
  P  P10  1  0.636037  0.000000  0.500000  1
  P  P11  1  0.517403  0.683256  0.000000  1
  P  P12  1  0.316744  0.834147  0.000000  1
  P  P13  1  0.165853  0.482597  0.000000  1
  P  P14  1  0.482597  0.165853  0.000000  1
  P  P15  1  0.683256  0.517403  0.000000  1
  P  P16  1  0.834147  0.316744  0.000000  1
  P  P17  1  0.000000  0.177358  0.500000  1
  P  P18  1  0.822642  0.822642  0.500000  1
  P  P19  1  0.177358  0.000000  0.500000  1
  Rh  Rh20  1  0.511740  0.870060  0.000000  1
  Rh  Rh21  1  0.129940  0.641681  0.000000  1
  Rh  Rh22  1  0.358319  0.488260  0.000000  1
  Rh  Rh23  1  0.488260  0.358319  0.000000  1
  Rh  Rh24  1  0.870060  0.511740  0.000000  1
  Rh  Rh25  1  0.641681  0.129940  0.000000  1
  Rh  Rh26  1  0.000000  0.282686  0.000000  1
  Rh  Rh27  1  0.717314  0.717314  0.000000  1
  Rh  Rh28  1  0.282686  0.000000  0.000000  1
  Rh  Rh29  1  0.623610  0.801738  0.500000  1
  Rh  Rh30  1  0.198262  0.821872  0.500000  1
  Rh  Rh31  1  0.178128  0.376390  0.500000  1
  Rh  Rh32  1  0.376390  0.178128  0.500000  1
  Rh  Rh33  1  0.801738  0.623610  0.500000  1
  Rh  Rh34  1  0.821872  0.198262  0.500000  1
  Rh  Rh35  1  0.000000  0.000000  0.500000  1
