# generated using pymatgen
data_Y5HoMn2(Co4P3)4
_symmetry_space_group_name_H-M   'P 1'
_cell_length_a   3.69452200
_cell_length_b   10.54686500
_cell_length_c   12.20776401
_cell_angle_alpha   89.99659050
_cell_angle_beta   90.00000000
_cell_angle_gamma   90.00000000
_symmetry_Int_Tables_number   1
_chemical_formula_structural   Y5HoMn2(Co4P3)4
_chemical_formula_sum   'Y5 Ho1 Mn2 Co16 P12'
_cell_volume   475.68315093
_cell_formula_units_Z   1
loop_
 _symmetry_equiv_pos_site_id
 _symmetry_equiv_pos_as_xyz
  1  'x, y, z'
loop_
 _atom_site_type_symbol
 _atom_site_label
 _atom_site_symmetry_multiplicity
 _atom_site_fract_x
 _atom_site_fract_y
 _atom_site_fract_z
 _atom_site_occupancy
  Y  Y0  1  0.000000  0.499986  0.522571  1
  Y  Y1  1  0.500000  0.000007  0.477341  1
  Y  Y2  1  0.500000  0.181952  0.205205  1
  Y  Y3  1  0.000000  0.682021  0.794833  1
  Y  Y4  1  0.000000  0.317973  0.794798  1
  Ho  Ho5  1  0.500000  0.818023  0.205152  1
  Mn  Mn6  1  0.500000  0.500105  0.158635  1
  Mn  Mn7  1  0.000000  0.999965  0.841455  1
  Co  Co8  1  0.500000  0.500018  0.702788  1
  Co  Co9  1  0.000000  0.999472  0.296948  1
  Co  Co10  1  0.000000  0.500163  0.986322  1
  Co  Co11  1  0.500000  0.999818  0.013931  1
  Co  Co12  1  0.500000  0.333077  0.993865  1
  Co  Co13  1  0.500000  0.667084  0.994058  1
  Co  Co14  1  0.000000  0.166715  0.006216  1
  Co  Co15  1  0.000000  0.833125  0.006425  1
  Co  Co16  1  0.500000  0.296648  0.430448  1
  Co  Co17  1  0.500000  0.703467  0.430223  1
  Co  Co18  1  0.000000  0.203351  0.569528  1
  Co  Co19  1  0.000000  0.796650  0.569453  1
  Co  Co20  1  0.500000  0.879718  0.709331  1
  Co  Co21  1  0.500000  0.120301  0.709333  1
  Co  Co22  1  0.000000  0.620665  0.290474  1
  Co  Co23  1  0.000000  0.379730  0.290683  1
  P  P24  1  0.500000  0.500042  0.882810  1
  P  P25  1  0.000000  0.999552  0.117368  1
  P  P26  1  0.500000  0.499997  0.344556  1
  P  P27  1  0.000000  0.999995  0.655457  1
  P  P28  1  0.500000  0.310920  0.616064  1
  P  P29  1  0.500000  0.689089  0.616011  1
  P  P30  1  0.000000  0.189027  0.383920  1
  P  P31  1  0.000000  0.810898  0.383475  1
  P  P32  1  0.500000  0.847710  0.893074  1
  P  P33  1  0.500000  0.152259  0.893122  1
  P  P34  1  0.000000  0.652808  0.107187  1
  P  P35  1  0.000000  0.347669  0.106942  1
