# generated using pymatgen
data_Sc11FeRu2Rh
_symmetry_space_group_name_H-M   'P 1'
_cell_length_a   9.42383791
_cell_length_b   9.43385530
_cell_length_c   9.43385431
_cell_angle_alpha   59.92976464
_cell_angle_beta   60.03511646
_cell_angle_gamma   60.03511484
_symmetry_Int_Tables_number   1
_chemical_formula_structural   Sc11FeRu2Rh
_chemical_formula_sum   'Sc22 Fe2 Ru4 Rh2'
_cell_volume   593.04847558
_cell_formula_units_Z   2
loop_
 _symmetry_equiv_pos_site_id
 _symmetry_equiv_pos_as_xyz
  1  'x, y, z'
loop_
 _atom_site_type_symbol
 _atom_site_label
 _atom_site_symmetry_multiplicity
 _atom_site_fract_x
 _atom_site_fract_y
 _atom_site_fract_z
 _atom_site_occupancy
  Sc  Sc0  1  0.808442  0.808442  0.191558  1
  Sc  Sc1  1  0.191558  0.808442  0.191558  1
  Sc  Sc2  1  0.807376  0.192624  0.192624  1
  Sc  Sc3  1  0.191558  0.191558  0.808442  1
  Sc  Sc4  1  0.808442  0.191558  0.808442  1
  Sc  Sc5  1  0.192624  0.807376  0.807376  1
  Sc  Sc6  1  0.615064  0.612598  0.157274  1
  Sc  Sc7  1  0.615064  0.157274  0.612598  1
  Sc  Sc8  1  0.157274  0.615064  0.615064  1
  Sc  Sc9  1  0.612598  0.615064  0.615064  1
  Sc  Sc10  1  0.384936  0.387402  0.842726  1
  Sc  Sc11  1  0.384936  0.842726  0.387402  1
  Sc  Sc12  1  0.842726  0.384936  0.384936  1
  Sc  Sc13  1  0.387402  0.384936  0.384936  1
  Sc  Sc14  1  0.840676  0.843796  0.474852  1
  Sc  Sc15  1  0.840676  0.474852  0.843796  1
  Sc  Sc16  1  0.474852  0.840676  0.840676  1
  Sc  Sc17  1  0.843796  0.840676  0.840676  1
  Sc  Sc18  1  0.159324  0.156204  0.525148  1
  Sc  Sc19  1  0.159324  0.525148  0.156204  1
  Sc  Sc20  1  0.525148  0.159324  0.159324  1
  Sc  Sc21  1  0.156204  0.159324  0.159324  1
  Fe  Fe22  1  0.000000  0.000000  0.000000  1
  Fe  Fe23  1  0.500000  0.500000  0.500000  1
  Ru  Ru24  1  0.000000  0.000000  0.500000  1
  Ru  Ru25  1  0.500000  0.000000  0.500000  1
  Ru  Ru26  1  0.500000  0.500000  0.000000  1
  Ru  Ru27  1  0.000000  0.500000  0.000000  1
  Rh  Rh28  1  0.000000  0.500000  0.500000  1
  Rh  Rh29  1  0.500000  0.000000  0.000000  1
