# generated using pymatgen
data_Tb2Ho3Tm5(CoSb2)2
_symmetry_space_group_name_H-M   'P 1'
_cell_length_a   7.81616400
_cell_length_b   8.76159900
_cell_length_c   12.10760700
_cell_angle_alpha   90.00000000
_cell_angle_beta   90.00000000
_cell_angle_gamma   90.00000000
_symmetry_Int_Tables_number   1
_chemical_formula_structural   Tb2Ho3Tm5(CoSb2)2
_chemical_formula_sum   'Tb4 Ho6 Tm10 Co4 Sb8'
_cell_volume   829.15428900
_cell_formula_units_Z   2
loop_
 _symmetry_equiv_pos_site_id
 _symmetry_equiv_pos_as_xyz
  1  'x, y, z'
loop_
 _atom_site_type_symbol
 _atom_site_label
 _atom_site_symmetry_multiplicity
 _atom_site_fract_x
 _atom_site_fract_y
 _atom_site_fract_z
 _atom_site_occupancy
  Tb  Tb0  1  0.622181  0.750000  0.306851  1
  Tb  Tb1  1  0.122181  0.250000  0.193149  1
  Tb  Tb2  1  0.377717  0.250000  0.693158  1
  Tb  Tb3  1  0.877717  0.750000  0.806842  1
  Ho  Ho4  1  0.154500  0.750000  0.203658  1
  Ho  Ho5  1  0.654500  0.250000  0.296342  1
  Ho  Ho6  1  0.845279  0.250000  0.796615  1
  Ho  Ho7  1  0.345279  0.750000  0.703385  1
  Ho  Ho8  1  0.450728  0.750000  0.997636  1
  Ho  Ho9  1  0.950728  0.250000  0.502364  1
  Tm  Tm10  1  0.549674  0.250000  0.002329  1
  Tm  Tm11  1  0.049674  0.750000  0.497671  1
  Tm  Tm12  1  0.823150  0.963844  0.064937  1
  Tm  Tm13  1  0.323150  0.036156  0.435063  1
  Tm  Tm14  1  0.176785  0.463193  0.934969  1
  Tm  Tm15  1  0.676785  0.536807  0.565031  1
  Tm  Tm16  1  0.176785  0.036807  0.934969  1
  Tm  Tm17  1  0.676785  0.963193  0.565031  1
  Tm  Tm18  1  0.823150  0.536156  0.064937  1
  Tm  Tm19  1  0.323150  0.463844  0.435063  1
  Co  Co20  1  0.432619  0.750000  0.490882  1
  Co  Co21  1  0.932619  0.250000  0.009118  1
  Co  Co22  1  0.566898  0.250000  0.509079  1
  Co  Co23  1  0.066898  0.750000  0.990921  1
  Sb  Sb24  1  0.929914  0.991225  0.328406  1
  Sb  Sb25  1  0.429914  0.008775  0.171594  1
  Sb  Sb26  1  0.070352  0.492094  0.671552  1
  Sb  Sb27  1  0.570352  0.507906  0.828448  1
  Sb  Sb28  1  0.070352  0.007906  0.671552  1
  Sb  Sb29  1  0.570352  0.992094  0.828448  1
  Sb  Sb30  1  0.929914  0.508775  0.328406  1
  Sb  Sb31  1  0.429914  0.491225  0.171594  1
