# generated using pymatgen
data_AcTh5H8Br15
_symmetry_space_group_name_H-M   'P 1'
_cell_length_a   10.17966970
_cell_length_b   10.17965906
_cell_length_c   10.17960494
_cell_angle_alpha   110.08347926
_cell_angle_beta   110.08368816
_cell_angle_gamma   108.25322222
_symmetry_Int_Tables_number   1
_chemical_formula_structural   AcTh5H8Br15
_chemical_formula_sum   'Ac1 Th5 H8 Br15'
_cell_volume   811.76370322
_cell_formula_units_Z   1
loop_
 _symmetry_equiv_pos_site_id
 _symmetry_equiv_pos_as_xyz
  1  'x, y, z'
loop_
 _atom_site_type_symbol
 _atom_site_label
 _atom_site_symmetry_multiplicity
 _atom_site_fract_x
 _atom_site_fract_y
 _atom_site_fract_z
 _atom_site_occupancy
  Ac  Ac0  1  0.249107  0.249108  0.000001  1
  Th  Th1  1  0.766909  0.766905  0.000003  1
  Th  Th2  1  0.238850  0.001330  0.237521  1
  Th  Th3  1  0.001332  0.238858  0.237525  1
  Th  Th4  1  0.763812  0.001332  0.762479  1
  Th  Th5  1  0.001330  0.763806  0.762471  1
  H  H6  1  0.176427  0.993708  0.999999  1
  H  H7  1  0.823686  0.001851  0.000000  1
  H  H8  1  0.993709  0.176430  0.000000  1
  H  H9  1  0.001851  0.823684  0.999999  1
  H  H10  1  0.001851  0.001851  0.178167  1
  H  H11  1  0.176427  0.176428  0.182720  1
  H  H12  1  0.993709  0.993709  0.817280  1
  H  H13  1  0.823685  0.823684  0.821833  1
  Br  Br14  1  0.744067  0.250755  0.999999  1
  Br  Br15  1  0.518648  0.518648  0.000001  1
  Br  Br16  1  0.250755  0.744069  0.000000  1
  Br  Br17  1  0.752375  0.003974  0.251600  1
  Br  Br18  1  0.003978  0.752375  0.251603  1
  Br  Br19  1  0.509735  0.243090  0.266644  1
  Br  Br20  1  0.243090  0.509733  0.266644  1
  Br  Br21  1  0.744068  0.744069  0.493311  1
  Br  Br22  1  0.498581  0.998580  0.500001  1
  Br  Br23  1  0.998579  0.498580  0.500000  1
  Br  Br24  1  0.250755  0.250757  0.506689  1
  Br  Br25  1  0.243089  0.976447  0.733356  1
  Br  Br26  1  0.976448  0.243094  0.733356  1
  Br  Br27  1  0.752375  0.500775  0.748401  1
  Br  Br28  1  0.500777  0.752377  0.748400  1
