# generated using pymatgen
data_Zr5Sc3Ta11Si16W
_symmetry_space_group_name_H-M   'P 1'
_cell_length_a   6.67321225
_cell_length_b   6.85085326
_cell_length_c   13.10347622
_cell_angle_alpha   89.97308544
_cell_angle_beta   90.07998706
_cell_angle_gamma   90.02985142
_symmetry_Int_Tables_number   1
_chemical_formula_structural   Zr5Sc3Ta11Si16W
_chemical_formula_sum   'Zr5 Sc3 Ta11 Si16 W1'
_cell_volume   599.05348506
_cell_formula_units_Z   1
loop_
 _symmetry_equiv_pos_site_id
 _symmetry_equiv_pos_as_xyz
  1  'x, y, z'
loop_
 _atom_site_type_symbol
 _atom_site_label
 _atom_site_symmetry_multiplicity
 _atom_site_fract_x
 _atom_site_fract_y
 _atom_site_fract_z
 _atom_site_occupancy
  Zr  Zr0  1  0.498415  0.672627  0.593455  1
  Zr  Zr1  1  0.999486  0.827336  0.905578  1
  Zr  Zr2  1  0.502017  0.328009  0.092872  1
  Zr  Zr3  1  0.005698  0.173414  0.406365  1
  Zr  Zr4  1  0.502629  0.327295  0.407799  1
  Sc  Sc5  1  0.004824  0.171692  0.092526  1
  Sc  Sc6  1  0.497503  0.672643  0.907453  1
  Sc  Sc7  1  0.996486  0.828606  0.592698  1
  Ta  Ta8  1  0.663086  0.171889  0.623335  1
  Ta  Ta9  1  0.165375  0.328363  0.876307  1
  Ta  Ta10  1  0.334593  0.829395  0.124883  1
  Ta  Ta11  1  0.834765  0.668165  0.375553  1
  Ta  Ta12  1  0.334829  0.831079  0.375031  1
  Ta  Ta13  1  0.834156  0.666811  0.125227  1
  Ta  Ta14  1  0.665698  0.169873  0.875929  1
  Ta  Ta15  1  0.166074  0.329812  0.624581  1
  Ta  Ta16  1  0.838430  0.494290  0.751166  1
  Ta  Ta17  1  0.339141  0.006149  0.748919  1
  Ta  Ta18  1  0.161222  0.505922  0.251337  1
  Si  Si19  1  0.670305  0.963338  0.459238  1
  Si  Si20  1  0.168116  0.535149  0.039474  1
  Si  Si21  1  0.331477  0.034626  0.960933  1
  Si  Si22  1  0.830724  0.464254  0.539199  1
  Si  Si23  1  0.328477  0.035895  0.538613  1
  Si  Si24  1  0.829282  0.464546  0.960920  1
  Si  Si25  1  0.670914  0.964529  0.041474  1
  Si  Si26  1  0.169505  0.537653  0.461443  1
  Si  Si27  1  0.462498  0.388286  0.751185  1
  Si  Si28  1  0.962143  0.112462  0.749324  1
  Si  Si29  1  0.538436  0.613670  0.250172  1
  Si  Si30  1  0.032567  0.890208  0.249437  1
  Si  Si31  1  0.705117  0.860410  0.750041  1
  Si  Si32  1  0.204777  0.639990  0.750055  1
  Si  Si33  1  0.297217  0.139531  0.248739  1
  Si  Si34  1  0.794643  0.355131  0.249116  1
  W  W35  1  0.659371  0.996947  0.249626  1
