# generated using pymatgen
data_Zr10Ga5BiC2
_symmetry_space_group_name_H-M   'P 1'
_cell_length_a   8.25665600
_cell_length_b   8.26323187
_cell_length_c   5.79815100
_cell_angle_alpha   90.00000000
_cell_angle_beta   90.00000000
_cell_angle_gamma   119.97367868
_symmetry_Int_Tables_number   1
_chemical_formula_structural   Zr10Ga5BiC2
_chemical_formula_sum   'Zr10 Ga5 Bi1 C2'
_cell_volume   342.68051478
_cell_formula_units_Z   1
loop_
 _symmetry_equiv_pos_site_id
 _symmetry_equiv_pos_as_xyz
  1  'x, y, z'
loop_
 _atom_site_type_symbol
 _atom_site_label
 _atom_site_symmetry_multiplicity
 _atom_site_fract_x
 _atom_site_fract_y
 _atom_site_fract_z
 _atom_site_occupancy
  Zr  Zr0  1  0.322241  0.649871  0.495008  1
  Zr  Zr1  1  0.672371  0.350129  0.495008  1
  Zr  Zr2  1  0.672371  0.350129  0.004992  1
  Zr  Zr3  1  0.322241  0.649871  0.004992  1
  Zr  Zr4  1  0.219900  0.000000  0.750000  1
  Zr  Zr5  1  0.779223  0.000000  0.250000  1
  Zr  Zr6  1  0.009056  0.227946  0.750000  1
  Zr  Zr7  1  0.001332  0.775659  0.250000  1
  Zr  Zr8  1  0.781110  0.772054  0.750000  1
  Zr  Zr9  1  0.225672  0.224341  0.250000  1
  Ga  Ga10  1  0.401329  0.000000  0.250000  1
  Ga  Ga11  1  0.002993  0.602581  0.750000  1
  Ga  Ga12  1  0.993909  0.393712  0.250000  1
  Ga  Ga13  1  0.400412  0.397419  0.750000  1
  Ga  Ga14  1  0.600198  0.606288  0.250000  1
  Bi  Bi15  1  0.593506  0.000000  0.750000  1
  C  C16  1  0.001069  0.000000  0.499582  1
  C  C17  1  0.001069  0.000000  0.000418  1
