# generated using pymatgen
data_Al7(InSe4)3
_symmetry_space_group_name_H-M   'P 1'
_cell_length_a   9.66398800
_cell_length_b   10.22253139
_cell_length_c   13.26063600
_cell_angle_alpha   90.00000000
_cell_angle_beta   90.00000000
_cell_angle_gamma   96.10231218
_symmetry_Int_Tables_number   1
_chemical_formula_structural   Al7(InSe4)3
_chemical_formula_sum   'Al14 In6 Se24'
_cell_volume   1302.60076205
_cell_formula_units_Z   2
loop_
 _symmetry_equiv_pos_site_id
 _symmetry_equiv_pos_as_xyz
  1  'x, y, z'
loop_
 _atom_site_type_symbol
 _atom_site_label
 _atom_site_symmetry_multiplicity
 _atom_site_fract_x
 _atom_site_fract_y
 _atom_site_fract_z
 _atom_site_occupancy
  Al  Al0  1  0.971294  0.031034  0.283303  1
  Al  Al1  1  0.028706  0.968966  0.783303  1
  Al  Al2  1  0.711194  0.193369  0.765631  1
  Al  Al3  1  0.288806  0.806631  0.265631  1
  Al  Al4  1  0.303456  0.179346  0.373891  1
  Al  Al5  1  0.696544  0.820654  0.873891  1
  Al  Al6  1  0.522846  0.478990  0.767277  1
  Al  Al7  1  0.477154  0.521010  0.267277  1
  Al  Al8  1  0.330087  0.174190  0.671099  1
  Al  Al9  1  0.669913  0.825810  0.171099  1
  Al  Al10  1  0.977842  0.197292  0.537500  1
  Al  Al11  1  0.022158  0.802708  0.037500  1
  Al  Al12  1  0.628503  0.358002  0.514950  1
  Al  Al13  1  0.371497  0.641998  0.014950  1
  In  In14  1  0.966642  0.476781  0.256164  1
  In  In15  1  0.033358  0.523219  0.756164  1
  In  In16  1  0.873553  0.214259  0.025602  1
  In  In17  1  0.126447  0.785741  0.525602  1
  In  In18  1  0.377851  0.171105  0.018985  1
  In  In19  1  0.622149  0.828895  0.518985  1
  Se  Se20  1  0.075788  0.012945  0.960221  1
  Se  Se21  1  0.753924  0.051660  0.201602  1
  Se  Se22  1  0.672653  0.679730  0.312047  1
  Se  Se23  1  0.327347  0.320270  0.812047  1
  Se  Se24  1  0.246076  0.948340  0.701603  1
  Se  Se25  1  0.570766  0.151562  0.611947  1
  Se  Se26  1  0.469873  0.691138  0.843641  1
  Se  Se27  1  0.530127  0.308862  0.343641  1
  Se  Se28  1  0.266598  0.590311  0.334642  1
  Se  Se29  1  0.733402  0.409689  0.834642  1
  Se  Se30  1  0.527069  0.534808  0.591514  1
  Se  Se31  1  0.472931  0.465192  0.091514  1
  Se  Se32  1  0.353968  0.954739  0.402071  1
  Se  Se33  1  0.646032  0.045261  0.902071  1
  Se  Se34  1  0.859176  0.787986  0.743110  1
  Se  Se35  1  0.140824  0.212014  0.243110  1
  Se  Se36  1  0.224683  0.280130  0.528121  1
  Se  Se37  1  0.775317  0.719870  0.028121  1
  Se  Se38  1  0.954217  0.177912  0.721657  1
  Se  Se39  1  0.045783  0.822088  0.221657  1
  Se  Se40  1  0.876569  0.392412  0.491984  1
  Se  Se41  1  0.123431  0.607588  0.991984  1
  Se  Se42  1  0.429234  0.848438  0.111946  1
  Se  Se43  1  0.924212  0.987055  0.460221  1
