# generated using pymatgen
data_Nd16Cd4TcPd2Pt
_symmetry_space_group_name_H-M   'P 1'
_cell_length_a   10.05196794
_cell_length_b   10.04206162
_cell_length_c   10.04206013
_cell_angle_alpha   59.42068573
_cell_angle_beta   59.42924207
_cell_angle_gamma   59.42925490
_symmetry_Int_Tables_number   1
_chemical_formula_structural   Nd16Cd4TcPd2Pt
_chemical_formula_sum   'Nd16 Cd4 Tc1 Pd2 Pt1'
_cell_volume   707.41853967
_cell_formula_units_Z   1
loop_
 _symmetry_equiv_pos_site_id
 _symmetry_equiv_pos_as_xyz
  1  'x, y, z'
loop_
 _atom_site_type_symbol
 _atom_site_label
 _atom_site_symmetry_multiplicity
 _atom_site_fract_x
 _atom_site_fract_y
 _atom_site_fract_z
 _atom_site_occupancy
  Nd  Nd0  1  0.353270  0.352148  0.352148  1
  Nd  Nd1  1  0.348434  0.347002  0.952241  1
  Nd  Nd2  1  0.348434  0.952241  0.347002  1
  Nd  Nd3  1  0.950802  0.347600  0.347600  1
  Nd  Nd4  1  0.815612  0.188720  0.188720  1
  Nd  Nd5  1  0.190075  0.807522  0.807522  1
  Nd  Nd6  1  0.189107  0.816593  0.188823  1
  Nd  Nd7  1  0.806699  0.189076  0.808678  1
  Nd  Nd8  1  0.189107  0.188823  0.816593  1
  Nd  Nd9  1  0.806699  0.808678  0.189076  1
  Nd  Nd10  1  0.934861  0.564796  0.564796  1
  Nd  Nd11  1  0.556171  0.938275  0.938275  1
  Nd  Nd12  1  0.564955  0.935015  0.563670  1
  Nd  Nd13  1  0.938010  0.556432  0.937735  1
  Nd  Nd14  1  0.564955  0.563670  0.935015  1
  Nd  Nd15  1  0.938010  0.937735  0.556432  1
  Cd  Cd16  1  0.579883  0.579551  0.579551  1
  Cd  Cd17  1  0.580629  0.580472  0.257385  1
  Cd  Cd18  1  0.580629  0.257385  0.580472  1
  Cd  Cd19  1  0.257640  0.580329  0.580329  1
  Tc  Tc20  1  0.143066  0.142849  0.142849  1
  Pd  Pd21  1  0.145128  0.146289  0.572547  1
  Pd  Pd22  1  0.145128  0.572547  0.146289  1
  Pt  Pt23  1  0.572698  0.146252  0.146252  1
