# generated using pymatgen
data_Dy3Ni9As5P
_symmetry_space_group_name_H-M   'P 1'
_cell_length_a   3.86894000
_cell_length_b   10.78720400
_cell_length_c   12.62514600
_cell_angle_alpha   90.00000000
_cell_angle_beta   90.00000000
_cell_angle_gamma   90.00000000
_symmetry_Int_Tables_number   1
_chemical_formula_structural   Dy3Ni9As5P
_chemical_formula_sum   'Dy6 Ni18 As10 P2'
_cell_volume   526.91103699
_cell_formula_units_Z   2
loop_
 _symmetry_equiv_pos_site_id
 _symmetry_equiv_pos_as_xyz
  1  'x, y, z'
loop_
 _atom_site_type_symbol
 _atom_site_label
 _atom_site_symmetry_multiplicity
 _atom_site_fract_x
 _atom_site_fract_y
 _atom_site_fract_z
 _atom_site_occupancy
  Dy  Dy0  1  0.000000  0.500000  0.524266  1
  Dy  Dy1  1  0.500000  0.000000  0.475734  1
  Dy  Dy2  1  0.500000  0.819446  0.203870  1
  Dy  Dy3  1  0.500000  0.180554  0.203870  1
  Dy  Dy4  1  0.000000  0.680554  0.796130  1
  Dy  Dy5  1  0.000000  0.319446  0.796130  1
  Ni  Ni6  1  0.500000  0.500000  0.154942  1
  Ni  Ni7  1  0.000000  0.000000  0.845058  1
  Ni  Ni8  1  0.500000  0.500000  0.707275  1
  Ni  Ni9  1  0.000000  0.000000  0.292725  1
  Ni  Ni10  1  0.000000  0.500000  0.974660  1
  Ni  Ni11  1  0.500000  0.000000  0.025340  1
  Ni  Ni12  1  0.500000  0.338300  0.992651  1
  Ni  Ni13  1  0.500000  0.661700  0.992651  1
  Ni  Ni14  1  0.000000  0.161700  0.007349  1
  Ni  Ni15  1  0.000000  0.838300  0.007349  1
  Ni  Ni16  1  0.500000  0.302473  0.426901  1
  Ni  Ni17  1  0.500000  0.697527  0.426901  1
  Ni  Ni18  1  0.000000  0.197527  0.573099  1
  Ni  Ni19  1  0.000000  0.802473  0.573099  1
  Ni  Ni20  1  0.500000  0.879378  0.707781  1
  Ni  Ni21  1  0.500000  0.120622  0.707781  1
  Ni  Ni22  1  0.000000  0.620622  0.292219  1
  Ni  Ni23  1  0.000000  0.379378  0.292219  1
  As  As24  1  0.500000  0.500000  0.344839  1
  As  As25  1  0.000000  0.000000  0.655161  1
  As  As26  1  0.500000  0.316146  0.615109  1
  As  As27  1  0.500000  0.683854  0.615109  1
  As  As28  1  0.000000  0.183854  0.384891  1
  As  As29  1  0.000000  0.816146  0.384891  1
  As  As30  1  0.500000  0.848191  0.892076  1
  As  As31  1  0.500000  0.151809  0.892076  1
  As  As32  1  0.000000  0.651809  0.107924  1
  As  As33  1  0.000000  0.348191  0.107924  1
  P  P34  1  0.500000  0.500000  0.878257  1
  P  P35  1  0.000000  0.000000  0.121743  1
