# generated using pymatgen
data_Ta9Si2B4W
_symmetry_space_group_name_H-M   'P 1'
_cell_length_a   7.27704024
_cell_length_b   7.27704067
_cell_length_c   7.27704036
_cell_angle_alpha   129.42493162
_cell_angle_beta   129.42492686
_cell_angle_gamma   74.32779372
_symmetry_Int_Tables_number   1
_chemical_formula_structural   Ta9Si2B4W
_chemical_formula_sum   'Ta9 Si2 B4 W1'
_cell_volume   224.13906948
_cell_formula_units_Z   1
loop_
 _symmetry_equiv_pos_site_id
 _symmetry_equiv_pos_as_xyz
  1  'x, y, z'
loop_
 _atom_site_type_symbol
 _atom_site_label
 _atom_site_symmetry_multiplicity
 _atom_site_fract_x
 _atom_site_fract_y
 _atom_site_fract_z
 _atom_site_occupancy
  Ta  Ta0  1  0.807816  0.973764  0.503654  1
  Ta  Ta1  1  0.304161  0.807816  0.834051  1
  Ta  Ta2  1  0.192184  0.026236  0.496346  1
  Ta  Ta3  1  0.529890  0.695839  0.503654  1
  Ta  Ta4  1  0.026236  0.529890  0.834051  1
  Ta  Ta5  1  0.695839  0.192184  0.165949  1
  Ta  Ta6  1  0.973764  0.470110  0.165949  1
  Ta  Ta7  1  0.500000  0.500000  0.000000  1
  Ta  Ta8  1  0.470110  0.304161  0.496346  1
  Si  Si9  1  0.747343  0.747343  0.000000  1
  Si  Si10  1  0.252657  0.252657  0.000000  1
  B  B11  1  0.381172  0.881318  0.262491  1
  B  B12  1  0.881318  0.618828  0.500144  1
  B  B13  1  0.618828  0.118682  0.737509  1
  B  B14  1  0.118682  0.381172  0.499856  1
  W  W15  1  0.000000  0.000000  0.000000  1
