# generated using pymatgen
data_ScNb5Re5Si6Mo
_symmetry_space_group_name_H-M   'P 1'
_cell_length_a   7.67796705
_cell_length_b   7.62824515
_cell_length_c   7.67811465
_cell_angle_alpha   126.19176221
_cell_angle_beta   128.32924194
_cell_angle_gamma   77.97347729
_symmetry_Int_Tables_number   1
_chemical_formula_structural   ScNb5Re5Si6Mo
_chemical_formula_sum   'Sc1 Nb5 Re5 Si6 Mo1'
_cell_volume   275.71350622
_cell_formula_units_Z   1
loop_
 _symmetry_equiv_pos_site_id
 _symmetry_equiv_pos_as_xyz
  1  'x, y, z'
loop_
 _atom_site_type_symbol
 _atom_site_label
 _atom_site_symmetry_multiplicity
 _atom_site_fract_x
 _atom_site_fract_y
 _atom_site_fract_z
 _atom_site_occupancy
  Sc  Sc0  1  0.548411  0.093366  0.043901  1
  Nb  Nb1  1  0.451040  0.490499  0.541437  1
  Nb  Nb2  1  0.947987  0.492368  0.042521  1
  Nb  Nb3  1  0.053228  0.096198  0.545579  1
  Nb  Nb4  1  0.746941  0.901002  0.652045  1
  Nb  Nb5  1  0.249959  0.899283  0.150975  1
  Re  Re6  1  0.002221  0.243299  0.243926  1
  Re  Re7  1  0.120207  0.754295  0.618372  1
  Re  Re8  1  0.878943  0.498261  0.631703  1
  Re  Re9  1  0.636746  0.755882  0.134949  1
  Re  Re10  1  0.365371  0.498262  0.119437  1
  Si  Si11  1  0.747162  0.496570  0.248444  1
  Si  Si12  1  0.254650  0.504450  0.750157  1
  Si  Si13  1  0.330847  0.824788  0.492769  1
  Si  Si14  1  0.669404  0.161579  0.496386  1
  Si  Si15  1  0.833233  0.827828  0.996050  1
  Si  Si16  1  0.164517  0.162320  0.994721  1
  Mo  Mo17  1  0.499135  0.241950  0.738829  1
