# generated using pymatgen
data_La3Pr7(Cd2Ru3)2
_symmetry_space_group_name_H-M   'P 1'
_cell_length_a   8.74246028
_cell_length_b   8.74246049
_cell_length_c   8.74246103
_cell_angle_alpha   109.47560524
_cell_angle_beta   109.47560292
_cell_angle_gamma   109.47559902
_symmetry_Int_Tables_number   1
_chemical_formula_structural   La3Pr7(Cd2Ru3)2
_chemical_formula_sum   'La3 Pr7 Cd4 Ru6'
_cell_volume   514.29071626
_cell_formula_units_Z   1
loop_
 _symmetry_equiv_pos_site_id
 _symmetry_equiv_pos_as_xyz
  1  'x, y, z'
loop_
 _atom_site_type_symbol
 _atom_site_label
 _atom_site_symmetry_multiplicity
 _atom_site_fract_x
 _atom_site_fract_y
 _atom_site_fract_z
 _atom_site_occupancy
  La  La0  1  0.498118  0.999187  0.289170  1
  La  La1  1  0.289170  0.498118  0.999187  1
  La  La2  1  0.999187  0.289170  0.498118  1
  Pr  Pr3  1  0.249540  0.682256  0.433214  1
  Pr  Pr4  1  0.751718  0.818954  0.067292  1
  Pr  Pr5  1  0.433214  0.249540  0.682256  1
  Pr  Pr6  1  0.682256  0.433214  0.249540  1
  Pr  Pr7  1  0.067292  0.751718  0.818954  1
  Pr  Pr8  1  0.818954  0.067292  0.751718  1
  Pr  Pr9  1  0.218237  0.218237  0.218237  1
  Cd  Cd10  1  0.498708  0.998771  0.906207  1
  Cd  Cd11  1  0.593571  0.593571  0.593571  1
  Cd  Cd12  1  0.906207  0.498708  0.998771  1
  Cd  Cd13  1  0.998771  0.906207  0.498708  1
  Ru  Ru14  1  0.250797  0.142928  0.888994  1
  Ru  Ru15  1  0.748201  0.356927  0.607212  1
  Ru  Ru16  1  0.888994  0.250797  0.142928  1
  Ru  Ru17  1  0.142928  0.888994  0.250797  1
  Ru  Ru18  1  0.607212  0.748201  0.356927  1
  Ru  Ru19  1  0.356927  0.607212  0.748201  1
