# generated using pymatgen
data_Zr6Ta2Fe11Co5P12
_symmetry_space_group_name_H-M   'P 1'
_cell_length_a   12.09197998
_cell_length_b   12.05454975
_cell_length_c   3.64862200
_cell_angle_alpha   90.00000000
_cell_angle_beta   90.00000000
_cell_angle_gamma   119.80200196
_symmetry_Int_Tables_number   1
_chemical_formula_structural   Zr6Ta2Fe11Co5P12
_chemical_formula_sum   'Zr6 Ta2 Fe11 Co5 P12'
_cell_volume   461.49919843
_cell_formula_units_Z   1
loop_
 _symmetry_equiv_pos_site_id
 _symmetry_equiv_pos_as_xyz
  1  'x, y, z'
loop_
 _atom_site_type_symbol
 _atom_site_label
 _atom_site_symmetry_multiplicity
 _atom_site_fract_x
 _atom_site_fract_y
 _atom_site_fract_z
 _atom_site_occupancy
  Zr  Zr0  1  0.000806  0.559929  0.000000  1
  Zr  Zr1  1  0.664801  0.332856  0.000000  1
  Zr  Zr2  1  0.334648  0.668301  0.000000  1
  Zr  Zr3  1  0.813001  0.813719  0.500000  1
  Zr  Zr4  1  0.187843  0.001812  0.500000  1
  Zr  Zr5  1  0.000282  0.180038  0.500000  1
  Ta  Ta6  1  0.438928  0.440308  0.000000  1
  Ta  Ta7  1  0.559942  0.000348  0.000000  1
  Fe  Fe8  1  0.195435  0.373134  0.000000  1
  Fe  Fe9  1  0.182030  0.809145  0.000000  1
  Fe  Fe10  1  0.123975  0.477845  0.500000  1
  Fe  Fe11  1  0.360181  0.879416  0.500000  1
  Fe  Fe12  1  0.516672  0.644116  0.500000  1
  Fe  Fe13  1  0.640868  0.518326  0.500000  1
  Fe  Fe14  1  0.873193  0.352206  0.500000  1
  Fe  Fe15  1  0.484505  0.128293  0.500000  1
  Fe  Fe16  1  0.722816  0.999447  0.500000  1
  Fe  Fe17  1  0.997324  0.724743  0.500000  1
  Fe  Fe18  1  0.278407  0.276163  0.500000  1
  Co  Co19  1  0.817264  0.627768  0.000000  1
  Co  Co20  1  0.805448  0.176417  0.000000  1
  Co  Co21  1  0.373052  0.193460  0.000000  1
  Co  Co22  1  0.000352  0.999322  0.000000  1
  Co  Co23  1  0.628150  0.821760  0.000000  1
  P  P24  1  0.643445  0.645456  0.000000  1
  P  P25  1  0.355172  0.000750  0.000000  1
  P  P26  1  0.999871  0.347362  0.000000  1
  P  P27  1  0.481127  0.310697  0.500000  1
  P  P28  1  0.688902  0.170462  0.500000  1
  P  P29  1  0.824061  0.518948  0.500000  1
  P  P30  1  0.518936  0.829556  0.500000  1
  P  P31  1  0.175988  0.697875  0.500000  1
  P  P32  1  0.822827  0.998654  0.000000  1
  P  P33  1  0.001876  0.822907  0.000000  1
  P  P34  1  0.309870  0.480816  0.500000  1
  P  P35  1  0.178005  0.177641  0.000000  1
