# generated using pymatgen
data_CaY2Zn11
_symmetry_space_group_name_H-M   'P 1'
_cell_length_a   8.20217976
_cell_length_b   8.20218039
_cell_length_c   8.20217978
_cell_angle_alpha   148.35114144
_cell_angle_beta   115.77387148
_cell_angle_gamma   73.37536837
_symmetry_Int_Tables_number   1
_chemical_formula_structural   CaY2Zn11
_chemical_formula_sum   'Ca1 Y2 Zn11'
_cell_volume   256.57745591
_cell_formula_units_Z   1
loop_
 _symmetry_equiv_pos_site_id
 _symmetry_equiv_pos_as_xyz
  1  'x, y, z'
loop_
 _atom_site_type_symbol
 _atom_site_label
 _atom_site_symmetry_multiplicity
 _atom_site_fract_x
 _atom_site_fract_y
 _atom_site_fract_z
 _atom_site_occupancy
  Ca  Ca0  1  0.000000  0.000000  0.000000  1
  Y  Y1  1  0.298169  0.298169  0.000000  1
  Y  Y2  1  0.701831  0.701831  0.000000  1
  Zn  Zn3  1  0.500000  0.000000  0.500000  1
  Zn  Zn4  1  0.678735  0.500000  0.178735  1
  Zn  Zn5  1  0.321265  0.500000  0.821265  1
  Zn  Zn6  1  0.693587  0.337558  0.356029  1
  Zn  Zn7  1  0.306413  0.662442  0.643971  1
  Zn  Zn8  1  0.981529  0.337558  0.643971  1
  Zn  Zn9  1  0.018471  0.662442  0.356029  1
  Zn  Zn10  1  0.422588  0.137276  0.285312  1
  Zn  Zn11  1  0.577412  0.862724  0.714688  1
  Zn  Zn12  1  0.851964  0.137276  0.714688  1
  Zn  Zn13  1  0.148036  0.862724  0.285312  1
