# generated using pymatgen
data_LaEu3Mg(Si2Pt)5
_symmetry_space_group_name_H-M   'P 1'
_cell_length_a   8.39951267
_cell_length_b   8.39929490
_cell_length_c   8.39808360
_cell_angle_alpha   137.84921056
_cell_angle_beta   105.13046002
_cell_angle_gamma   89.88326601
_symmetry_Int_Tables_number   1
_chemical_formula_structural   LaEu3Mg(Si2Pt)5
_chemical_formula_sum   'La1 Eu3 Mg1 Si10 Pt5'
_cell_volume   366.67475107
_cell_formula_units_Z   1
loop_
 _symmetry_equiv_pos_site_id
 _symmetry_equiv_pos_as_xyz
  1  'x, y, z'
loop_
 _atom_site_type_symbol
 _atom_site_label
 _atom_site_symmetry_multiplicity
 _atom_site_fract_x
 _atom_site_fract_y
 _atom_site_fract_z
 _atom_site_occupancy
  La  La0  1  0.108981  0.868514  0.229146  1
  Eu  Eu1  1  0.890984  0.120297  0.759519  1
  Eu  Eu2  1  0.639487  0.379122  0.270769  1
  Eu  Eu3  1  0.360818  0.631610  0.740203  1
  Mg  Mg4  1  0.500715  0.750178  0.250177  1
  Si  Si5  1  0.999875  0.749749  0.748773  1
  Si  Si6  1  0.999954  0.251433  0.250222  1
  Si  Si7  1  0.270297  0.020342  0.751317  1
  Si  Si8  1  0.728741  0.479066  0.748975  1
  Si  Si9  1  0.734084  0.984787  0.249719  1
  Si  Si10  1  0.265212  0.514811  0.250766  1
  Si  Si11  1  0.771994  0.606587  0.140322  1
  Si  Si12  1  0.228295  0.370472  0.836896  1
  Si  Si13  1  0.467441  0.131634  0.358206  1
  Si  Si14  1  0.533474  0.892022  0.664978  1
  Pt  Pt15  1  0.499365  0.249233  0.749256  1
  Pt  Pt16  1  0.024798  0.634631  0.388699  1
  Pt  Pt17  1  0.974356  0.363302  0.609353  1
  Pt  Pt18  1  0.246094  0.136552  0.111570  1
  Pt  Pt19  1  0.755035  0.865658  0.891133  1
