# generated using pymatgen
data_BaNiPd3O8
_symmetry_space_group_name_H-M   'P 1'
_cell_length_a   6.15960714
_cell_length_b   6.15960669
_cell_length_c   7.28297054
_cell_angle_alpha   90.00000082
_cell_angle_beta   115.01638624
_cell_angle_gamma   60.00000792
_symmetry_Int_Tables_number   1
_chemical_formula_structural   BaNiPd3O8
_chemical_formula_sum   'Ba1 Ni1 Pd3 O8'
_cell_volume   208.83297054
_cell_formula_units_Z   1
loop_
 _symmetry_equiv_pos_site_id
 _symmetry_equiv_pos_as_xyz
  1  'x, y, z'
loop_
 _atom_site_type_symbol
 _atom_site_label
 _atom_site_symmetry_multiplicity
 _atom_site_fract_x
 _atom_site_fract_y
 _atom_site_fract_z
 _atom_site_occupancy
  Ba  Ba0  1  0.000001  0.499999  0.500001  1
  Ni  Ni1  1  0.000000  0.000000  0.000000  1
  Pd  Pd2  1  0.500000  0.999999  0.000000  1
  Pd  Pd3  1  0.500000  0.500000  0.000000  1
  Pd  Pd4  1  0.999999  0.500000  0.000000  1
  O  O5  1  0.439053  0.280473  0.158580  1
  O  O6  1  0.938818  0.287020  0.164658  1
  O  O7  1  0.451679  0.774160  0.164658  1
  O  O8  1  0.938819  0.774161  0.164658  1
  O  O9  1  0.061182  0.225838  0.835343  1
  O  O10  1  0.548323  0.225840  0.835343  1
  O  O11  1  0.061182  0.712982  0.835343  1
  O  O12  1  0.560947  0.719526  0.841420  1
