# generated using pymatgen
data_Dy5HoAl24Ru7Pt
_symmetry_space_group_name_H-M   'P 1'
_cell_length_a   8.82429523
_cell_length_b   8.82429503
_cell_length_c   9.55594470
_cell_angle_alpha   89.82001639
_cell_angle_beta   90.17998594
_cell_angle_gamma   119.85763364
_symmetry_Int_Tables_number   1
_chemical_formula_structural   Dy5HoAl24Ru7Pt
_chemical_formula_sum   'Dy5 Ho1 Al24 Ru7 Pt1'
_cell_volume   645.33124203
_cell_formula_units_Z   1
loop_
 _symmetry_equiv_pos_site_id
 _symmetry_equiv_pos_as_xyz
  1  'x, y, z'
loop_
 _atom_site_type_symbol
 _atom_site_label
 _atom_site_symmetry_multiplicity
 _atom_site_fract_x
 _atom_site_fract_y
 _atom_site_fract_z
 _atom_site_occupancy
  Dy  Dy0  1  0.192491  0.386432  0.250084  1
  Dy  Dy1  1  0.807614  0.613616  0.749854  1
  Dy  Dy2  1  0.613568  0.807509  0.250084  1
  Dy  Dy3  1  0.386384  0.192386  0.749854  1
  Dy  Dy4  1  0.194390  0.805610  0.251629  1
  Ho  Ho5  1  0.805250  0.194750  0.748532  1
  Al  Al6  1  0.330743  0.669257  0.020512  1
  Al  Al7  1  0.669241  0.330759  0.979004  1
  Al  Al8  1  0.666807  0.333193  0.516539  1
  Al  Al9  1  0.333351  0.666649  0.483869  1
  Al  Al10  1  0.162519  0.323981  0.578736  1
  Al  Al11  1  0.837273  0.675808  0.421559  1
  Al  Al12  1  0.676019  0.837481  0.578736  1
  Al  Al13  1  0.842547  0.676212  0.077860  1
  Al  Al14  1  0.324192  0.162727  0.421559  1
  Al  Al15  1  0.157215  0.323567  0.921858  1
  Al  Al16  1  0.162552  0.837448  0.579036  1
  Al  Al17  1  0.323788  0.157453  0.077860  1
  Al  Al18  1  0.837499  0.162501  0.421482  1
  Al  Al19  1  0.676433  0.842785  0.921858  1
  Al  Al20  1  0.837445  0.162555  0.076831  1
  Al  Al21  1  0.162567  0.837433  0.922744  1
  Al  Al22  1  0.560853  0.121745  0.248500  1
  Al  Al23  1  0.439537  0.878513  0.751497  1
  Al  Al24  1  0.878255  0.439147  0.248500  1
  Al  Al25  1  0.121487  0.560463  0.751497  1
  Al  Al26  1  0.562277  0.437723  0.251931  1
  Al  Al27  1  0.437739  0.562261  0.747965  1
  Al  Al28  1  0.999731  0.000269  0.249959  1
  Al  Al29  1  0.999892  0.000108  0.750073  1
  Ru  Ru30  1  0.500149  0.000064  0.999899  1
  Ru  Ru31  1  0.999936  0.499851  0.999899  1
  Ru  Ru32  1  0.500158  0.000007  0.500155  1
  Ru  Ru33  1  0.999993  0.499842  0.500155  1
  Ru  Ru34  1  0.500086  0.499914  0.500093  1
  Ru  Ru35  1  0.000050  0.999950  0.999997  1
  Ru  Ru36  1  0.000053  0.999947  0.500020  1
  Pt  Pt37  1  0.499918  0.500082  0.999778  1
