# generated using pymatgen
data_RbH6IrPb
_symmetry_space_group_name_H-M   'P 1'
_cell_length_a   6.67538457
_cell_length_b   6.67983796
_cell_length_c   6.68391656
_cell_angle_alpha   45.99391540
_cell_angle_beta   46.00585460
_cell_angle_gamma   46.01615465
_symmetry_Int_Tables_number   1
_chemical_formula_structural   RbH6IrPb
_chemical_formula_sum   'Rb1 H6 Ir1 Pb1'
_cell_volume   140.69502290
_cell_formula_units_Z   1
loop_
 _symmetry_equiv_pos_site_id
 _symmetry_equiv_pos_as_xyz
  1  'x, y, z'
loop_
 _atom_site_type_symbol
 _atom_site_label
 _atom_site_symmetry_multiplicity
 _atom_site_fract_x
 _atom_site_fract_y
 _atom_site_fract_z
 _atom_site_occupancy
  Rb  Rb0  1  0.778232  0.777984  0.777744  1
  H  H1  1  0.782960  0.782994  0.242699  1
  H  H2  1  0.195213  0.751660  0.196485  1
  H  H3  1  0.750517  0.195579  0.196172  1
  H  H4  1  0.195443  0.196131  0.752859  1
  H  H5  1  0.783019  0.244899  0.782828  1
  H  H6  1  0.246865  0.783022  0.782778  1
  Ir  Ir7  1  0.988751  0.988624  0.988493  1
  Pb  Pb8  1  0.279000  0.279104  0.279941  1
