# generated using pymatgen
data_Dy3Mg3Hg2Rh
_symmetry_space_group_name_H-M   'P 1'
_cell_length_a   7.99444300
_cell_length_b   7.99444312
_cell_length_c   3.83513900
_cell_angle_alpha   90.00000000
_cell_angle_beta   90.00000000
_cell_angle_gamma   120.00001192
_symmetry_Int_Tables_number   1
_chemical_formula_structural   Dy3Mg3Hg2Rh
_chemical_formula_sum   'Dy3 Mg3 Hg2 Rh1'
_cell_volume   212.26975364
_cell_formula_units_Z   1
loop_
 _symmetry_equiv_pos_site_id
 _symmetry_equiv_pos_as_xyz
  1  'x, y, z'
loop_
 _atom_site_type_symbol
 _atom_site_label
 _atom_site_symmetry_multiplicity
 _atom_site_fract_x
 _atom_site_fract_y
 _atom_site_fract_z
 _atom_site_occupancy
  Dy  Dy0  1  0.036372  0.429787  0.500000  1
  Dy  Dy1  1  0.570213  0.606585  0.500000  1
  Dy  Dy2  1  0.393415  0.963628  0.500000  1
  Mg  Mg3  1  0.995570  0.733287  0.000000  1
  Mg  Mg4  1  0.266713  0.262284  0.000000  1
  Mg  Mg5  1  0.737716  0.004430  0.000000  1
  Hg  Hg6  1  0.666667  0.333333  0.000000  1
  Hg  Hg7  1  0.000000  0.000000  0.500000  1
  Rh  Rh8  1  0.333333  0.666667  0.000000  1
