# generated using pymatgen
data_Pr3SmZr4F28
_symmetry_space_group_name_H-M   'P 1'
_cell_length_a   5.90487113
_cell_length_b   9.38357420
_cell_length_c   12.59180549
_cell_angle_alpha   62.03245054
_cell_angle_beta   90.01921759
_cell_angle_gamma   89.94871572
_symmetry_Int_Tables_number   1
_chemical_formula_structural   Pr3SmZr4F28
_chemical_formula_sum   'Pr3 Sm1 Zr4 F28'
_cell_volume   616.21464094
_cell_formula_units_Z   1
loop_
 _symmetry_equiv_pos_site_id
 _symmetry_equiv_pos_as_xyz
  1  'x, y, z'
loop_
 _atom_site_type_symbol
 _atom_site_label
 _atom_site_symmetry_multiplicity
 _atom_site_fract_x
 _atom_site_fract_y
 _atom_site_fract_z
 _atom_site_occupancy
  Pr  Pr0  1  0.743440  0.811023  0.266872  1
  Pr  Pr1  1  0.243188  0.187170  0.233177  1
  Pr  Pr2  1  0.256727  0.184957  0.733294  1
  Sm  Sm3  1  0.757074  0.811620  0.766778  1
  Zr  Zr4  1  0.745529  0.271231  0.456909  1
  Zr  Zr5  1  0.244968  0.726500  0.041874  1
  Zr  Zr6  1  0.255537  0.726097  0.547405  1
  Zr  Zr7  1  0.755178  0.276504  0.953940  1
  F  F8  1  0.464893  0.713447  0.921705  1
  F  F9  1  0.962120  0.287893  0.576718  1
  F  F10  1  0.539389  0.289838  0.075327  1
  F  F11  1  0.039682  0.712375  0.425979  1
  F  F12  1  0.461798  0.282408  0.546846  1
  F  F13  1  0.961300  0.718941  0.949540  1
  F  F14  1  0.536704  0.716967  0.454738  1
  F  F15  1  0.038528  0.285107  0.045211  1
  F  F16  1  0.765015  0.522804  0.859325  1
  F  F17  1  0.265546  0.480713  0.641234  1
  F  F18  1  0.233012  0.481532  0.138189  1
  F  F19  1  0.734172  0.517176  0.361560  1
  F  F20  1  0.760365  0.031663  0.055431  1
  F  F21  1  0.260524  0.970748  0.445169  1
  F  F22  1  0.239946  0.971631  0.943246  1
  F  F23  1  0.739850  0.026646  0.559135  1
  F  F24  1  0.989875  0.734760  0.648567  1
  F  F25  1  0.489810  0.267471  0.853428  1
  F  F26  1  0.011389  0.266702  0.355212  1
  F  F27  1  0.509525  0.732891  0.143968  1
  F  F28  1  0.039060  0.744592  0.166789  1
  F  F29  1  0.540302  0.254603  0.331573  1
  F  F30  1  0.960972  0.256695  0.830090  1
  F  F31  1  0.465453  0.746747  0.670239  1
  F  F32  1  0.422863  0.969580  0.233701  1
  F  F33  1  0.921544  0.029401  0.266369  1
  F  F34  1  0.576342  0.023119  0.765464  1
  F  F35  1  0.068377  0.968448  0.734996  1
