# generated using pymatgen
data_Ca10TiMoN10
_symmetry_space_group_name_H-M   'P 1'
_cell_length_a   6.91431842
_cell_length_b   6.91431713
_cell_length_c   8.81250744
_cell_angle_alpha   81.00940740
_cell_angle_beta   81.00941154
_cell_angle_gamma   60.14046810
_symmetry_Int_Tables_number   1
_chemical_formula_structural   Ca10TiMoN10
_chemical_formula_sum   'Ca10 Ti1 Mo1 N10'
_cell_volume   359.37108487
_cell_formula_units_Z   1
loop_
 _symmetry_equiv_pos_site_id
 _symmetry_equiv_pos_as_xyz
  1  'x, y, z'
loop_
 _atom_site_type_symbol
 _atom_site_label
 _atom_site_symmetry_multiplicity
 _atom_site_fract_x
 _atom_site_fract_y
 _atom_site_fract_z
 _atom_site_occupancy
  Ca  Ca0  1  0.878094  0.357085  0.835026  1
  Ca  Ca1  1  0.873748  0.873748  0.821473  1
  Ca  Ca2  1  0.734282  0.734282  0.538213  1
  Ca  Ca3  1  0.742144  0.257252  0.513479  1
  Ca  Ca4  1  0.619952  0.142957  0.142298  1
  Ca  Ca5  1  0.357085  0.878094  0.835026  1
  Ca  Ca6  1  0.257252  0.742144  0.513479  1
  Ca  Ca7  1  0.240665  0.240665  0.499012  1
  Ca  Ca8  1  0.145538  0.145538  0.160181  1
  Ca  Ca9  1  0.142957  0.619952  0.142298  1
  Ti  Ti10  1  0.369086  0.369086  0.771391  1
  Mo  Mo11  1  0.633876  0.633876  0.225430  1
  N  N12  1  0.911155  0.472680  0.319691  1
  N  N13  1  0.994268  0.994268  0.029513  1
  N  N14  1  0.680248  0.680248  0.013549  1
  N  N15  1  0.537161  0.537161  0.692635  1
  N  N16  1  0.472680  0.911155  0.319691  1
  N  N17  1  0.538913  0.085238  0.672130  1
  N  N18  1  0.472680  0.472680  0.294564  1
  N  N19  1  0.317389  0.317389  0.988553  1
  N  N20  1  0.057873  0.057873  0.646040  1
  N  N21  1  0.085238  0.538913  0.672130  1
