# generated using pymatgen
data_Tm10Si5Bi
_symmetry_space_group_name_H-M   'P 1'
_cell_length_a   8.44677895
_cell_length_b   8.44677776
_cell_length_c   6.25916300
_cell_angle_alpha   90.00000000
_cell_angle_beta   90.00000000
_cell_angle_gamma   120.26125474
_symmetry_Int_Tables_number   1
_chemical_formula_structural   Tm10Si5Bi
_chemical_formula_sum   'Tm10 Si5 Bi1'
_cell_volume   385.72673954
_cell_formula_units_Z   1
loop_
 _symmetry_equiv_pos_site_id
 _symmetry_equiv_pos_as_xyz
  1  'x, y, z'
loop_
 _atom_site_type_symbol
 _atom_site_label
 _atom_site_symmetry_multiplicity
 _atom_site_fract_x
 _atom_site_fract_y
 _atom_site_fract_z
 _atom_site_occupancy
  Tm  Tm0  1  0.677035  0.330800  0.505099  1
  Tm  Tm1  1  0.330800  0.677035  0.505099  1
  Tm  Tm2  1  0.330800  0.677035  0.994901  1
  Tm  Tm3  1  0.677035  0.330800  0.994901  1
  Tm  Tm4  1  0.768735  0.768735  0.250000  1
  Tm  Tm5  1  0.238951  0.984036  0.250000  1
  Tm  Tm6  1  0.984036  0.238951  0.250000  1
  Tm  Tm7  1  0.239279  0.239279  0.750000  1
  Tm  Tm8  1  0.755684  0.998767  0.750000  1
  Tm  Tm9  1  0.998767  0.755684  0.750000  1
  Si  Si10  1  0.603948  0.998706  0.250000  1
  Si  Si11  1  0.998706  0.603948  0.250000  1
  Si  Si12  1  0.607170  0.607170  0.750000  1
  Si  Si13  1  0.393464  0.002524  0.750000  1
  Si  Si14  1  0.002524  0.393464  0.750000  1
  Bi  Bi15  1  0.393067  0.393067  0.250000  1
