# generated using pymatgen
data_RbLi6UO6
_symmetry_space_group_name_H-M   'P 1'
_cell_length_a   5.54405356
_cell_length_b   5.54405268
_cell_length_c   5.54405468
_cell_angle_alpha   101.40520110
_cell_angle_beta   101.40519810
_cell_angle_gamma   101.40519813
_symmetry_Int_Tables_number   1
_chemical_formula_structural   RbLi6UO6
_chemical_formula_sum   'Rb1 Li6 U1 O6'
_cell_volume   158.68940147
_cell_formula_units_Z   1
loop_
 _symmetry_equiv_pos_site_id
 _symmetry_equiv_pos_as_xyz
  1  'x, y, z'
loop_
 _atom_site_type_symbol
 _atom_site_label
 _atom_site_symmetry_multiplicity
 _atom_site_fract_x
 _atom_site_fract_y
 _atom_site_fract_z
 _atom_site_occupancy
  Rb  Rb0  1  0.500000  0.500000  0.500000  1
  Li  Li1  1  0.000000  0.346741  0.653259  1
  Li  Li2  1  0.653259  0.000000  0.346741  1
  Li  Li3  1  0.653259  0.346741  0.000000  1
  Li  Li4  1  0.346741  0.000000  0.653259  1
  Li  Li5  1  0.000000  0.653259  0.346741  1
  Li  Li6  1  0.346741  0.653259  0.000000  1
  U  U7  1  0.000000  0.000000  0.000000  1
  O  O8  1  0.276916  0.901240  0.276916  1
  O  O9  1  0.901240  0.276916  0.276916  1
  O  O10  1  0.723084  0.723084  0.098760  1
  O  O11  1  0.723084  0.098760  0.723084  1
  O  O12  1  0.098760  0.723084  0.723084  1
  O  O13  1  0.276916  0.276916  0.901240  1
