# generated using pymatgen
data_La3Nd12Th(CdIr)4
_symmetry_space_group_name_H-M   'P 1'
_cell_length_a   10.01488380
_cell_length_b   10.01488484
_cell_length_c   10.01488512
_cell_angle_alpha   60.05754840
_cell_angle_beta   60.05754330
_cell_angle_gamma   60.05755539
_symmetry_Int_Tables_number   1
_chemical_formula_structural   La3Nd12Th(CdIr)4
_chemical_formula_sum   'La3 Nd12 Th1 Cd4 Ir4'
_cell_volume   711.19538934
_cell_formula_units_Z   1
loop_
 _symmetry_equiv_pos_site_id
 _symmetry_equiv_pos_as_xyz
  1  'x, y, z'
loop_
 _atom_site_type_symbol
 _atom_site_label
 _atom_site_symmetry_multiplicity
 _atom_site_fract_x
 _atom_site_fract_y
 _atom_site_fract_z
 _atom_site_occupancy
  La  La0  1  0.348850  0.348850  0.954370  1
  La  La1  1  0.348850  0.954370  0.348850  1
  La  La2  1  0.954370  0.348850  0.348850  1
  Nd  Nd3  1  0.810557  0.189374  0.189374  1
  Nd  Nd4  1  0.189031  0.809811  0.809811  1
  Nd  Nd5  1  0.189374  0.810557  0.189374  1
  Nd  Nd6  1  0.809811  0.189031  0.809811  1
  Nd  Nd7  1  0.189374  0.189374  0.810557  1
  Nd  Nd8  1  0.809811  0.809811  0.189031  1
  Nd  Nd9  1  0.940331  0.562499  0.562499  1
  Nd  Nd10  1  0.560503  0.938394  0.938394  1
  Nd  Nd11  1  0.562499  0.940331  0.562499  1
  Nd  Nd12  1  0.938394  0.560503  0.938394  1
  Nd  Nd13  1  0.562499  0.562499  0.940331  1
  Nd  Nd14  1  0.938394  0.938394  0.560503  1
  Th  Th15  1  0.345218  0.345218  0.345218  1
  Cd  Cd16  1  0.580000  0.580000  0.580000  1
  Cd  Cd17  1  0.579152  0.579152  0.258131  1
  Cd  Cd18  1  0.579152  0.258131  0.579152  1
  Cd  Cd19  1  0.258131  0.579152  0.579152  1
  Ir  Ir20  1  0.142139  0.142139  0.142139  1
  Ir  Ir21  1  0.146233  0.146233  0.571089  1
  Ir  Ir22  1  0.146233  0.571089  0.146233  1
  Ir  Ir23  1  0.571089  0.146233  0.146233  1
