# generated using pymatgen
data_Dy2ErAlC3
_symmetry_space_group_name_H-M   'P 1'
_cell_length_a   3.55798900
_cell_length_b   7.03435055
_cell_length_c   9.95768263
_cell_angle_alpha   89.79147770
_cell_angle_beta   90.00000000
_cell_angle_gamma   90.00000000
_symmetry_Int_Tables_number   1
_chemical_formula_structural   Dy2ErAlC3
_chemical_formula_sum   'Dy4 Er2 Al2 C6'
_cell_volume   249.22064299
_cell_formula_units_Z   2
loop_
 _symmetry_equiv_pos_site_id
 _symmetry_equiv_pos_as_xyz
  1  'x, y, z'
loop_
 _atom_site_type_symbol
 _atom_site_label
 _atom_site_symmetry_multiplicity
 _atom_site_fract_x
 _atom_site_fract_y
 _atom_site_fract_z
 _atom_site_occupancy
  Dy  Dy0  1  0.500000  0.510603  0.198998  1
  Dy  Dy1  1  0.500000  0.489397  0.801002  1
  Dy  Dy2  1  0.000000  0.750059  0.458981  1
  Dy  Dy3  1  0.000000  0.249941  0.541019  1
  Er  Er4  1  0.500000  0.988554  0.201120  1
  Er  Er5  1  0.500000  0.011446  0.798880  1
  Al  Al6  1  0.000000  0.757094  0.004978  1
  Al  Al7  1  0.000000  0.242906  0.995022  1
  C  C8  1  0.500000  0.509067  0.566266  1
  C  C9  1  0.500000  0.490933  0.433734  1
  C  C10  1  0.500000  0.990969  0.566312  1
  C  C11  1  0.500000  0.009031  0.433688  1
  C  C12  1  0.000000  0.752071  0.208290  1
  C  C13  1  0.000000  0.247929  0.791710  1
