# generated using pymatgen
data_Y3Er5Si8Pd3Pt5
_symmetry_space_group_name_H-M   'P 1'
_cell_length_a   4.26419700
_cell_length_b   7.50671640
_cell_length_c   13.98258204
_cell_angle_alpha   89.96070479
_cell_angle_beta   90.00000000
_cell_angle_gamma   90.00000000
_symmetry_Int_Tables_number   1
_chemical_formula_structural   Y3Er5Si8Pd3Pt5
_chemical_formula_sum   'Y3 Er5 Si8 Pd3 Pt5'
_cell_volume   447.58398968
_cell_formula_units_Z   1
loop_
 _symmetry_equiv_pos_site_id
 _symmetry_equiv_pos_as_xyz
  1  'x, y, z'
loop_
 _atom_site_type_symbol
 _atom_site_label
 _atom_site_symmetry_multiplicity
 _atom_site_fract_x
 _atom_site_fract_y
 _atom_site_fract_z
 _atom_site_occupancy
  Y  Y0  1  0.000000  0.300966  0.000058  1
  Y  Y1  1  0.500000  0.699589  0.500223  1
  Y  Y2  1  0.000000  0.292953  0.499626  1
  Er  Er3  1  0.500000  0.707360  0.999960  1
  Er  Er4  1  0.000000  0.202982  0.249835  1
  Er  Er5  1  0.500000  0.795938  0.249481  1
  Er  Er6  1  0.000000  0.203385  0.749769  1
  Er  Er7  1  0.500000  0.796487  0.750977  1
  Si  Si8  1  0.000000  0.906855  0.592798  1
  Si  Si9  1  0.500000  0.092676  0.907592  1
  Si  Si10  1  0.000000  0.907123  0.407483  1
  Si  Si11  1  0.500000  0.094305  0.093392  1
  Si  Si12  1  0.000000  0.594314  0.144293  1
  Si  Si13  1  0.500000  0.403239  0.352800  1
  Si  Si14  1  0.000000  0.596813  0.857384  1
  Si  Si15  1  0.500000  0.403249  0.643964  1
  Pd  Pd16  1  0.000000  0.580825  0.342720  1
  Pd  Pd17  1  0.500000  0.421964  0.839760  1
  Pd  Pd18  1  0.000000  0.579171  0.659564  1
  Pt  Pt19  1  0.500000  0.073907  0.609915  1
  Pt  Pt20  1  0.000000  0.925152  0.891058  1
  Pt  Pt21  1  0.500000  0.073910  0.390538  1
  Pt  Pt22  1  0.000000  0.923746  0.109187  1
  Pt  Pt23  1  0.500000  0.423089  0.157622  1
