# generated using pymatgen
data_Nd4Ga8Ge2IrRh5
_symmetry_space_group_name_H-M   'P 1'
_cell_length_a   8.61513243
_cell_length_b   8.70906573
_cell_length_c   8.70906566
_cell_angle_alpha   141.16574025
_cell_angle_beta   108.42678713
_cell_angle_gamma   84.68416930
_symmetry_Int_Tables_number   1
_chemical_formula_structural   Nd4Ga8Ge2IrRh5
_chemical_formula_sum   'Nd4 Ga8 Ge2 Ir1 Rh5'
_cell_volume   375.56657667
_cell_formula_units_Z   1
loop_
 _symmetry_equiv_pos_site_id
 _symmetry_equiv_pos_as_xyz
  1  'x, y, z'
loop_
 _atom_site_type_symbol
 _atom_site_label
 _atom_site_symmetry_multiplicity
 _atom_site_fract_x
 _atom_site_fract_y
 _atom_site_fract_z
 _atom_site_occupancy
  Nd  Nd0  1  0.862743  0.634294  0.228449  1
  Nd  Nd1  1  0.136387  0.365349  0.771038  1
  Nd  Nd2  1  0.409380  0.137991  0.271389  1
  Nd  Nd3  1  0.591194  0.861915  0.729280  1
  Ga  Ga4  1  0.499786  0.752042  0.252037  1
  Ga  Ga5  1  0.499786  0.247749  0.747744  1
  Ga  Ga6  1  0.209236  0.959936  0.749039  1
  Ga  Ga7  1  0.790791  0.538833  0.749091  1
  Ga  Ga8  1  0.790791  0.041700  0.251958  1
  Ga  Ga9  1  0.209236  0.460198  0.249301  1
  Ga  Ga10  1  0.079032  0.909166  0.169867  1
  Ga  Ga11  1  0.921379  0.090716  0.830662  1
  Ge  Ge12  1  0.739066  0.407744  0.331323  1
  Ge  Ge13  1  0.260623  0.592439  0.668183  1
  Ir  Ir14  1  0.548330  0.645599  0.902732  1
  Rh  Rh15  1  0.000104  0.749091  0.749442  1
  Rh  Rh16  1  0.000104  0.250662  0.251013  1
  Rh  Rh17  1  0.257320  0.853272  0.404049  1
  Rh  Rh18  1  0.743774  0.146760  0.597014  1
  Rh  Rh19  1  0.450935  0.354544  0.096390  1
