# generated using pymatgen
data_Dy16Ho4Bi11Sb
_symmetry_space_group_name_H-M   'P 1'
_cell_length_a   8.24064741
_cell_length_b   9.51543200
_cell_length_c   12.03818500
_cell_angle_alpha   90.00038783
_cell_angle_beta   90.03388018
_cell_angle_gamma   89.99814787
_symmetry_Int_Tables_number   1
_chemical_formula_structural   Dy16Ho4Bi11Sb
_chemical_formula_sum   'Dy16 Ho4 Bi11 Sb1'
_cell_volume   943.95388857
_cell_formula_units_Z   1
loop_
 _symmetry_equiv_pos_site_id
 _symmetry_equiv_pos_as_xyz
  1  'x, y, z'
loop_
 _atom_site_type_symbol
 _atom_site_label
 _atom_site_symmetry_multiplicity
 _atom_site_fract_x
 _atom_site_fract_y
 _atom_site_fract_z
 _atom_site_occupancy
  Dy  Dy0  1  0.353155  0.750002  0.212764  1
  Dy  Dy1  1  0.852484  0.749995  0.284201  1
  Dy  Dy2  1  0.647692  0.250007  0.784340  1
  Dy  Dy3  1  0.147586  0.249998  0.715855  1
  Dy  Dy4  1  0.308563  0.439806  0.941534  1
  Dy  Dy5  1  0.807351  0.063630  0.558555  1
  Dy  Dy6  1  0.690104  0.934093  0.057357  1
  Dy  Dy7  1  0.192679  0.563919  0.441323  1
  Dy  Dy8  1  0.475074  0.250006  0.487931  1
  Dy  Dy9  1  0.975645  0.249996  0.011756  1
  Dy  Dy10  1  0.525149  0.750001  0.512150  1
  Dy  Dy11  1  0.028190  0.749994  0.987802  1
  Dy  Dy12  1  0.312977  0.249960  0.218838  1
  Dy  Dy13  1  0.812707  0.250038  0.281223  1
  Dy  Dy14  1  0.683078  0.749959  0.783688  1
  Dy  Dy15  1  0.188607  0.750042  0.720377  1
  Ho  Ho16  1  0.689999  0.566029  0.057347  1
  Ho  Ho17  1  0.192619  0.935984  0.441327  1
  Ho  Ho18  1  0.308641  0.060259  0.941533  1
  Ho  Ho19  1  0.807417  0.436282  0.558547  1
  Bi  Bi20  1  0.907828  0.749821  0.543385  1
  Bi  Bi21  1  0.592872  0.250173  0.042977  1
  Bi  Bi22  1  0.092618  0.249822  0.457155  1
  Bi  Bi23  1  0.565313  0.995361  0.325386  1
  Bi  Bi24  1  0.065277  0.504370  0.174377  1
  Bi  Bi25  1  0.434612  0.495392  0.674483  1
  Bi  Bi26  1  0.934396  0.004184  0.825543  1
  Bi  Bi27  1  0.434520  0.004610  0.674496  1
  Bi  Bi28  1  0.934309  0.495815  0.825529  1
  Bi  Bi29  1  0.565405  0.504642  0.325380  1
  Bi  Bi30  1  0.065367  0.995630  0.174384  1
  Sb  Sb31  1  0.407771  0.750180  0.958460  1
