# generated using pymatgen
data_Nd2TlZn(Ir2O7)2
_symmetry_space_group_name_H-M   'P 1'
_cell_length_a   7.24463943
_cell_length_b   7.24464004
_cell_length_c   7.19091022
_cell_angle_alpha   61.13972104
_cell_angle_beta   61.13971418
_cell_angle_gamma   61.91385042
_symmetry_Int_Tables_number   1
_chemical_formula_structural   Nd2TlZn(Ir2O7)2
_chemical_formula_sum   'Nd2 Tl1 Zn1 Ir4 O14'
_cell_volume   275.21875472
_cell_formula_units_Z   1
loop_
 _symmetry_equiv_pos_site_id
 _symmetry_equiv_pos_as_xyz
  1  'x, y, z'
loop_
 _atom_site_type_symbol
 _atom_site_label
 _atom_site_symmetry_multiplicity
 _atom_site_fract_x
 _atom_site_fract_y
 _atom_site_fract_z
 _atom_site_occupancy
  Nd  Nd0  1  0.625000  0.125000  0.125000  1
  Nd  Nd1  1  0.125000  0.625000  0.125000  1
  Tl  Tl2  1  0.125000  0.125000  0.625000  1
  Zn  Zn3  1  0.125000  0.125000  0.125000  1
  Ir  Ir4  1  0.125000  0.625000  0.625000  1
  Ir  Ir5  1  0.625000  0.125000  0.625000  1
  Ir  Ir6  1  0.625000  0.625000  0.125000  1
  Ir  Ir7  1  0.625000  0.625000  0.625000  1
  O  O8  1  0.711992  0.711992  0.289359  1
  O  O9  1  0.301721  0.301721  0.689905  1
  O  O10  1  0.708078  0.296526  0.703209  1
  O  O11  1  0.301284  0.697466  0.301288  1
  O  O12  1  0.296526  0.708078  0.703209  1
  O  O13  1  0.697466  0.301284  0.301288  1
  O  O14  1  0.538008  0.538008  0.960641  1
  O  O15  1  0.948279  0.948279  0.560095  1
  O  O16  1  0.541922  0.953474  0.546791  1
  O  O17  1  0.948716  0.552534  0.948712  1
  O  O18  1  0.953474  0.541922  0.546791  1
  O  O19  1  0.552534  0.948716  0.948712  1
  O  O20  1  0.238829  0.238829  0.222515  1
  O  O21  1  0.011171  0.011171  0.027485  1
