# generated using pymatgen
data_Ce2Co3P4Rh
_symmetry_space_group_name_H-M   'P 1'
_cell_length_a   4.05647200
_cell_length_b   4.05647200
_cell_length_c   9.17479300
_cell_angle_alpha   90.00000000
_cell_angle_beta   90.00000000
_cell_angle_gamma   90.00000000
_symmetry_Int_Tables_number   1
_chemical_formula_structural   Ce2Co3P4Rh
_chemical_formula_sum   'Ce2 Co3 P4 Rh1'
_cell_volume   150.97089849
_cell_formula_units_Z   1
loop_
 _symmetry_equiv_pos_site_id
 _symmetry_equiv_pos_as_xyz
  1  'x, y, z'
loop_
 _atom_site_type_symbol
 _atom_site_label
 _atom_site_symmetry_multiplicity
 _atom_site_fract_x
 _atom_site_fract_y
 _atom_site_fract_z
 _atom_site_occupancy
  Ce  Ce0  1  0.500000  0.000000  0.753995  1
  Ce  Ce1  1  0.000000  0.500000  0.244360  1
  Co  Co2  1  0.000000  0.500000  0.616115  1
  Co  Co3  1  0.000000  0.000000  0.995174  1
  Co  Co4  1  0.500000  0.500000  0.995174  1
  P  P5  1  0.500000  0.500000  0.510956  1
  P  P6  1  0.500000  0.000000  0.120533  1
  P  P7  1  0.000000  0.000000  0.510956  1
  P  P8  1  0.000000  0.500000  0.867349  1
  Rh  Rh9  1  0.500000  0.000000  0.385388  1
