# generated using pymatgen
data_Tb3Sm7(Bi3C)2
_symmetry_space_group_name_H-M   'P 1'
_cell_length_a   9.30921100
_cell_length_b   9.30921106
_cell_length_c   6.59845000
_cell_angle_alpha   90.00000000
_cell_angle_beta   90.00000000
_cell_angle_gamma   120.00000333
_symmetry_Int_Tables_number   1
_chemical_formula_structural   Tb3Sm7(Bi3C)2
_chemical_formula_sum   'Tb3 Sm7 Bi6 C2'
_cell_volume   495.22013965
_cell_formula_units_Z   1
loop_
 _symmetry_equiv_pos_site_id
 _symmetry_equiv_pos_as_xyz
  1  'x, y, z'
loop_
 _atom_site_type_symbol
 _atom_site_label
 _atom_site_symmetry_multiplicity
 _atom_site_fract_x
 _atom_site_fract_y
 _atom_site_fract_z
 _atom_site_occupancy
  Tb  Tb0  1  0.794099  0.794099  0.750000  1
  Tb  Tb1  1  0.205901  0.000000  0.750000  1
  Tb  Tb2  1  0.000000  0.205901  0.750000  1
  Sm  Sm3  1  0.666667  0.333333  0.000361  1
  Sm  Sm4  1  0.333333  0.666667  0.000361  1
  Sm  Sm5  1  0.333333  0.666667  0.499639  1
  Sm  Sm6  1  0.666667  0.333333  0.499639  1
  Sm  Sm7  1  0.211444  0.211444  0.250000  1
  Sm  Sm8  1  0.788556  0.000000  0.250000  1
  Sm  Sm9  1  0.000000  0.788556  0.250000  1
  Bi  Bi10  1  0.400149  0.400149  0.750000  1
  Bi  Bi11  1  0.599851  0.000000  0.750000  1
  Bi  Bi12  1  0.000000  0.599851  0.750000  1
  Bi  Bi13  1  0.598972  0.598972  0.250000  1
  Bi  Bi14  1  0.401028  0.000000  0.250000  1
  Bi  Bi15  1  0.000000  0.401028  0.250000  1
  C  C16  1  0.000000  0.000000  0.995369  1
  C  C17  1  0.000000  0.000000  0.504631  1
