# generated using pymatgen
data_Nb6Re4Si5BRu2
_symmetry_space_group_name_H-M   'P 1'
_cell_length_a   7.50267334
_cell_length_b   7.49732038
_cell_length_c   7.50267229
_cell_angle_alpha   127.54886643
_cell_angle_beta   125.09311455
_cell_angle_gamma   79.39475907
_symmetry_Int_Tables_number   1
_chemical_formula_structural   Nb6Re4Si5BRu2
_chemical_formula_sum   'Nb6 Re4 Si5 B1 Ru2'
_cell_volume   264.62053563
_cell_formula_units_Z   1
loop_
 _symmetry_equiv_pos_site_id
 _symmetry_equiv_pos_as_xyz
  1  'x, y, z'
loop_
 _atom_site_type_symbol
 _atom_site_label
 _atom_site_symmetry_multiplicity
 _atom_site_fract_x
 _atom_site_fract_y
 _atom_site_fract_z
 _atom_site_occupancy
  Nb  Nb0  1  0.541370  0.082903  0.041532  1
  Nb  Nb1  1  0.451321  0.503503  0.552182  1
  Nb  Nb2  1  0.958592  0.500036  0.041443  1
  Nb  Nb3  1  0.048699  0.100912  0.552215  1
  Nb  Nb4  1  0.749950  0.897204  0.647254  1
  Nb  Nb5  1  0.249987  0.897033  0.147045  1
  Re  Re6  1  0.094812  0.741114  0.591482  1
  Re  Re7  1  0.850542  0.496643  0.591368  1
  Re  Re8  1  0.649632  0.741114  0.146302  1
  Re  Re9  1  0.405275  0.496643  0.146102  1
  Si  Si10  1  0.250079  0.488794  0.738715  1
  Si  Si11  1  0.333872  0.834524  0.498613  1
  Si  Si12  1  0.664108  0.164622  0.498538  1
  Si  Si13  1  0.835911  0.834524  0.000651  1
  Si  Si14  1  0.166084  0.164622  0.000515  1
  B  B15  1  0.749927  0.495686  0.245760  1
  Ru  Ru16  1  0.534324  0.251161  0.785646  1
  Ru  Ru17  1  0.965516  0.251161  0.216837  1
