# generated using pymatgen
data_Sr6HoTl(CoO6)2
_symmetry_space_group_name_H-M   'P 1'
_cell_length_a   6.77937323
_cell_length_b   6.77937326
_cell_length_c   6.77937269
_cell_angle_alpha   91.78602343
_cell_angle_beta   91.78602029
_cell_angle_gamma   91.78601309
_symmetry_Int_Tables_number   1
_chemical_formula_structural   Sr6HoTl(CoO6)2
_chemical_formula_sum   'Sr6 Ho1 Tl1 Co2 O12'
_cell_volume   311.11553335
_cell_formula_units_Z   1
loop_
 _symmetry_equiv_pos_site_id
 _symmetry_equiv_pos_as_xyz
  1  'x, y, z'
loop_
 _atom_site_type_symbol
 _atom_site_label
 _atom_site_symmetry_multiplicity
 _atom_site_fract_x
 _atom_site_fract_y
 _atom_site_fract_z
 _atom_site_occupancy
  Sr  Sr0  1  0.883095  0.616905  0.250000  1
  Sr  Sr1  1  0.250000  0.883095  0.616905  1
  Sr  Sr2  1  0.616905  0.250000  0.883095  1
  Sr  Sr3  1  0.750000  0.119574  0.380426  1
  Sr  Sr4  1  0.380426  0.750000  0.119574  1
  Sr  Sr5  1  0.119574  0.380426  0.750000  1
  Ho  Ho6  1  0.750000  0.750000  0.750000  1
  Tl  Tl7  1  0.250000  0.250000  0.250000  1
  Co  Co8  1  0.504001  0.504001  0.504001  1
  Co  Co9  1  0.995999  0.995999  0.995999  1
  O  O10  1  0.225328  0.550931  0.419618  1
  O  O11  1  0.419618  0.225328  0.550931  1
  O  O12  1  0.550931  0.419618  0.225328  1
  O  O13  1  0.911560  0.042768  0.715792  1
  O  O14  1  0.715792  0.911560  0.042768  1
  O  O15  1  0.042768  0.715792  0.911560  1
  O  O16  1  0.784208  0.457232  0.588440  1
  O  O17  1  0.588440  0.784208  0.457232  1
  O  O18  1  0.457232  0.588440  0.784208  1
  O  O19  1  0.080382  0.949069  0.274672  1
  O  O20  1  0.274672  0.080382  0.949069  1
  O  O21  1  0.949069  0.274672  0.080382  1
