# generated using pymatgen
data_Ba3ScRhO6
_symmetry_space_group_name_H-M   'P 1'
_cell_length_a   7.06751877
_cell_length_b   7.06751844
_cell_length_c   7.06751872
_cell_angle_alpha   93.83685823
_cell_angle_beta   93.83685784
_cell_angle_gamma   93.83684691
_symmetry_Int_Tables_number   1
_chemical_formula_structural   Ba3ScRhO6
_chemical_formula_sum   'Ba6 Sc2 Rh2 O12'
_cell_volume   350.53566499
_cell_formula_units_Z   2
loop_
 _symmetry_equiv_pos_site_id
 _symmetry_equiv_pos_as_xyz
  1  'x, y, z'
loop_
 _atom_site_type_symbol
 _atom_site_label
 _atom_site_symmetry_multiplicity
 _atom_site_fract_x
 _atom_site_fract_y
 _atom_site_fract_z
 _atom_site_occupancy
  Ba  Ba0  1  0.380448  0.119551  0.750000  1
  Ba  Ba1  1  0.750000  0.380449  0.119552  1
  Ba  Ba2  1  0.249999  0.619552  0.880449  1
  Ba  Ba3  1  0.619551  0.880448  0.250001  1
  Ba  Ba4  1  0.119552  0.750000  0.380449  1
  Ba  Ba5  1  0.880448  0.250000  0.619552  1
  Sc  Sc6  1  0.750000  0.750001  0.750000  1
  Sc  Sc7  1  0.250001  0.250000  0.250000  1
  Rh  Rh8  1  0.500000  0.500000  0.500000  1
  Rh  Rh9  1  0.000000  0.000000  0.000000  1
  O  O10  1  0.785240  0.600739  0.476661  1
  O  O11  1  0.600740  0.476660  0.785240  1
  O  O12  1  0.476660  0.785240  0.600740  1
  O  O13  1  0.023339  0.899261  0.714761  1
  O  O14  1  0.899260  0.714760  0.023339  1
  O  O15  1  0.714761  0.023339  0.899260  1
  O  O16  1  0.214761  0.399260  0.523340  1
  O  O17  1  0.399260  0.523339  0.214761  1
  O  O18  1  0.523339  0.214761  0.399259  1
  O  O19  1  0.976661  0.100740  0.285240  1
  O  O20  1  0.285240  0.976660  0.100739  1
  O  O21  1  0.100739  0.285239  0.976660  1
