# generated using pymatgen
data_Tb5TmGa7Co16
_symmetry_space_group_name_H-M   'P 1'
_cell_length_a   8.48438154
_cell_length_b   8.48438205
_cell_length_c   8.47584800
_cell_angle_alpha   60.03327559
_cell_angle_beta   60.03327364
_cell_angle_gamma   59.93346636
_symmetry_Int_Tables_number   1
_chemical_formula_structural   Tb5TmGa7Co16
_chemical_formula_sum   'Tb5 Tm1 Ga7 Co16'
_cell_volume   431.42741813
_cell_formula_units_Z   1
loop_
 _symmetry_equiv_pos_site_id
 _symmetry_equiv_pos_as_xyz
  1  'x, y, z'
loop_
 _atom_site_type_symbol
 _atom_site_label
 _atom_site_symmetry_multiplicity
 _atom_site_fract_x
 _atom_site_fract_y
 _atom_site_fract_z
 _atom_site_occupancy
  Tb  Tb0  1  0.719962  0.280666  0.280038  1
  Tb  Tb1  1  0.280666  0.719962  0.719334  1
  Tb  Tb2  1  0.280666  0.719962  0.280038  1
  Tb  Tb3  1  0.279510  0.279510  0.720490  1
  Tb  Tb4  1  0.719962  0.280666  0.719334  1
  Tm  Tm5  1  0.722172  0.722172  0.277828  1
  Ga  Ga6  1  0.500862  0.999255  0.000745  1
  Ga  Ga7  1  0.999255  0.500862  0.499138  1
  Ga  Ga8  1  0.999255  0.500862  0.000745  1
  Ga  Ga9  1  0.999882  0.999882  0.500118  1
  Ga  Ga10  1  0.500862  0.999255  0.499138  1
  Ga  Ga11  1  0.499882  0.499882  0.000118  1
  Ga  Ga12  1  0.000066  0.000066  0.999934  1
  Co  Co13  1  0.320785  0.320785  0.320973  1
  Co  Co14  1  0.320785  0.320785  0.037459  1
  Co  Co15  1  0.036673  0.321052  0.321139  1
  Co  Co16  1  0.321052  0.036673  0.321139  1
  Co  Co17  1  0.678861  0.678861  0.678948  1
  Co  Co18  1  0.678861  0.678861  0.963327  1
  Co  Co19  1  0.679027  0.962541  0.679215  1
  Co  Co20  1  0.962541  0.679027  0.679215  1
  Co  Co21  1  0.126555  0.126555  0.126305  1
  Co  Co22  1  0.126555  0.126555  0.620586  1
  Co  Co23  1  0.621227  0.124871  0.126951  1
  Co  Co24  1  0.124871  0.621227  0.126951  1
  Co  Co25  1  0.873049  0.873049  0.875129  1
  Co  Co26  1  0.873049  0.873049  0.378773  1
  Co  Co27  1  0.873695  0.379414  0.873445  1
  Co  Co28  1  0.379414  0.873695  0.873445  1
