# generated using pymatgen
data_K2LaB2Pt7
_symmetry_space_group_name_H-M   'P 1'
_cell_length_a   8.57304398
_cell_length_b   8.57304411
_cell_length_c   8.57304589
_cell_angle_alpha   38.17573292
_cell_angle_beta   38.17573112
_cell_angle_gamma   38.17572535
_symmetry_Int_Tables_number   1
_chemical_formula_structural   K2LaB2Pt7
_chemical_formula_sum   'K2 La1 B2 Pt7'
_cell_volume   216.13915730
_cell_formula_units_Z   1
loop_
 _symmetry_equiv_pos_site_id
 _symmetry_equiv_pos_as_xyz
  1  'x, y, z'
loop_
 _atom_site_type_symbol
 _atom_site_label
 _atom_site_symmetry_multiplicity
 _atom_site_fract_x
 _atom_site_fract_y
 _atom_site_fract_z
 _atom_site_occupancy
  K  K0  1  0.851763  0.851763  0.851763  1
  K  K1  1  0.148237  0.148237  0.148237  1
  La  La2  1  0.000000  0.000000  0.000000  1
  B  B3  1  0.669547  0.669547  0.669547  1
  B  B4  1  0.330453  0.330453  0.330453  1
  Pt  Pt5  1  0.439416  0.930913  0.439416  1
  Pt  Pt6  1  0.439416  0.439416  0.930913  1
  Pt  Pt7  1  0.930913  0.439416  0.439416  1
  Pt  Pt8  1  0.560584  0.069087  0.560584  1
  Pt  Pt9  1  0.560584  0.560584  0.069087  1
  Pt  Pt10  1  0.069087  0.560584  0.560584  1
  Pt  Pt11  1  0.500000  0.500000  0.500000  1
