# generated using pymatgen
data_NbAlCo20B6W
_symmetry_space_group_name_H-M   'P 1'
_cell_length_a   7.42449601
_cell_length_b   7.43392006
_cell_length_c   7.43181419
_cell_angle_alpha   59.93635815
_cell_angle_beta   59.89195819
_cell_angle_gamma   59.91657213
_symmetry_Int_Tables_number   1
_chemical_formula_structural   NbAlCo20B6W
_chemical_formula_sum   'Nb1 Al1 Co20 B6 W1'
_cell_volume   289.48495685
_cell_formula_units_Z   1
loop_
 _symmetry_equiv_pos_site_id
 _symmetry_equiv_pos_as_xyz
  1  'x, y, z'
loop_
 _atom_site_type_symbol
 _atom_site_label
 _atom_site_symmetry_multiplicity
 _atom_site_fract_x
 _atom_site_fract_y
 _atom_site_fract_z
 _atom_site_occupancy
  Nb  Nb0  1  0.250089  0.249948  0.249966  1
  Al  Al1  1  0.000133  0.000107  0.999948  1
  Co  Co2  1  0.618523  0.144518  0.618548  1
  Co  Co3  1  0.384193  0.384152  0.847304  1
  Co  Co4  1  0.847196  0.384194  0.384217  1
  Co  Co5  1  0.384198  0.384165  0.384206  1
  Co  Co6  1  0.144739  0.618412  0.618473  1
  Co  Co7  1  0.618539  0.618487  0.618532  1
  Co  Co8  1  0.618539  0.618477  0.144570  1
  Co  Co9  1  0.384183  0.847293  0.384191  1
  Co  Co10  1  0.658722  0.342637  0.999313  1
  Co  Co11  1  0.999271  0.342667  0.658725  1
  Co  Co12  1  0.658690  0.999401  0.999334  1
  Co  Co13  1  0.999244  0.999287  0.342732  1
  Co  Co14  1  0.999317  0.999363  0.658676  1
  Co  Co15  1  0.999260  0.342723  0.999313  1
  Co  Co16  1  0.658758  0.999333  0.342618  1
  Co  Co17  1  0.342644  0.999260  0.999279  1
  Co  Co18  1  0.999317  0.658749  0.999301  1
  Co  Co19  1  0.342606  0.999270  0.658823  1
  Co  Co20  1  0.999249  0.658819  0.342683  1
  Co  Co21  1  0.342640  0.658883  0.999236  1
  B  B22  1  0.275015  0.274967  0.724968  1
  B  B23  1  0.275334  0.724808  0.724691  1
  B  B24  1  0.724856  0.275031  0.275143  1
  B  B25  1  0.275173  0.724834  0.275192  1
  B  B26  1  0.724851  0.275161  0.724885  1
  B  B27  1  0.724821  0.725008  0.275181  1
  W  W28  1  0.749899  0.750048  0.749948  1
