# generated using pymatgen
data_Na4ErP12Ir19
_symmetry_space_group_name_H-M   'P 1'
_cell_length_a   12.65027416
_cell_length_b   12.62648920
_cell_length_c   3.95281300
_cell_angle_alpha   90.00000000
_cell_angle_beta   90.00000000
_cell_angle_gamma   119.93781973
_symmetry_Int_Tables_number   1
_chemical_formula_structural   Na4ErP12Ir19
_chemical_formula_sum   'Na4 Er1 P12 Ir19'
_cell_volume   547.13087721
_cell_formula_units_Z   1
loop_
 _symmetry_equiv_pos_site_id
 _symmetry_equiv_pos_as_xyz
  1  'x, y, z'
loop_
 _atom_site_type_symbol
 _atom_site_label
 _atom_site_symmetry_multiplicity
 _atom_site_fract_x
 _atom_site_fract_y
 _atom_site_fract_z
 _atom_site_occupancy
  Na  Na0  1  0.181466  0.182443  0.500000  1
  Na  Na1  1  0.818534  0.000977  0.500000  1
  Na  Na2  1  0.332878  0.666289  0.000000  1
  Na  Na3  1  0.667122  0.333412  0.000000  1
  Er  Er4  1  0.000000  0.822865  0.500000  1
  P  P5  1  0.817116  0.821934  0.000000  1
  P  P6  1  0.182884  0.004819  0.000000  1
  P  P7  1  0.000000  0.180343  0.000000  1
  P  P8  1  0.176533  0.486522  0.500000  1
  P  P9  1  0.512922  0.688508  0.500000  1
  P  P10  1  0.311943  0.824068  0.500000  1
  P  P11  1  0.688057  0.512124  0.500000  1
  P  P12  1  0.823467  0.309990  0.500000  1
  P  P13  1  0.487078  0.175585  0.500000  1
  P  P14  1  0.360792  0.360422  0.000000  1
  P  P15  1  0.639208  0.999628  0.000000  1
  P  P16  1  0.000000  0.639316  0.000000  1
  Ir  Ir17  1  0.544570  0.540359  0.000000  1
  Ir  Ir18  1  0.455430  0.995789  0.000000  1
  Ir  Ir19  1  0.000000  0.458096  0.000000  1
  Ir  Ir20  1  0.710537  0.708739  0.500000  1
  Ir  Ir21  1  0.289463  0.998202  0.500000  1
  Ir  Ir22  1  0.000000  0.291165  0.500000  1
  Ir  Ir23  1  0.182704  0.378688  0.000000  1
  Ir  Ir24  1  0.620056  0.802332  0.000000  1
  Ir  Ir25  1  0.192240  0.819325  0.000000  1
  Ir  Ir26  1  0.807760  0.627085  0.000000  1
  Ir  Ir27  1  0.817296  0.195984  0.000000  1
  Ir  Ir28  1  0.379944  0.182277  0.000000  1
  Ir  Ir29  1  0.362432  0.489763  0.500000  1
  Ir  Ir30  1  0.509473  0.869994  0.500000  1
  Ir  Ir31  1  0.129710  0.639314  0.500000  1
  Ir  Ir32  1  0.870290  0.509603  0.500000  1
  Ir  Ir33  1  0.637568  0.127330  0.500000  1
  Ir  Ir34  1  0.490527  0.360520  0.500000  1
  Ir  Ir35  1  0.000000  0.996190  0.000000  1
