# generated using pymatgen
data_Ta4Be3SiPt4
_symmetry_space_group_name_H-M   'P 1'
_cell_length_a   3.63607700
_cell_length_b   6.36823725
_cell_length_c   7.31659925
_cell_angle_alpha   90.16093758
_cell_angle_beta   90.00000000
_cell_angle_gamma   90.00000000
_symmetry_Int_Tables_number   1
_chemical_formula_structural   Ta4Be3SiPt4
_chemical_formula_sum   'Ta4 Be3 Si1 Pt4'
_cell_volume   169.41812124
_cell_formula_units_Z   1
loop_
 _symmetry_equiv_pos_site_id
 _symmetry_equiv_pos_as_xyz
  1  'x, y, z'
loop_
 _atom_site_type_symbol
 _atom_site_label
 _atom_site_symmetry_multiplicity
 _atom_site_fract_x
 _atom_site_fract_y
 _atom_site_fract_z
 _atom_site_occupancy
  Ta  Ta0  1  0.250000  0.525476  0.166506  1
  Ta  Ta1  1  0.750000  0.480080  0.836555  1
  Ta  Ta2  1  0.750000  0.965512  0.672414  1
  Ta  Ta3  1  0.250000  0.020754  0.324123  1
  Be  Be4  1  0.250000  0.769899  0.876109  1
  Be  Be5  1  0.750000  0.230705  0.125280  1
  Be  Be6  1  0.750000  0.730438  0.372039  1
  Si  Si7  1  0.250000  0.267549  0.628212  1
  Pt  Pt8  1  0.250000  0.656740  0.564089  1
  Pt  Pt9  1  0.750000  0.354456  0.423223  1
  Pt  Pt10  1  0.750000  0.849116  0.067402  1
  Pt  Pt11  1  0.250000  0.149274  0.944049  1
