# generated using pymatgen
data_La2Dy5Co4Sn13
_symmetry_space_group_name_H-M   'P 1'
_cell_length_a   11.22388500
_cell_length_b   11.22388500
_cell_length_c   4.53163100
_cell_angle_alpha   90.00000000
_cell_angle_beta   90.00000000
_cell_angle_gamma   90.00000000
_symmetry_Int_Tables_number   1
_chemical_formula_structural   La2Dy5Co4Sn13
_chemical_formula_sum   'La2 Dy5 Co4 Sn13'
_cell_volume   570.87490925
_cell_formula_units_Z   1
loop_
 _symmetry_equiv_pos_site_id
 _symmetry_equiv_pos_as_xyz
  1  'x, y, z'
loop_
 _atom_site_type_symbol
 _atom_site_label
 _atom_site_symmetry_multiplicity
 _atom_site_fract_x
 _atom_site_fract_y
 _atom_site_fract_z
 _atom_site_occupancy
  La  La0  1  0.500000  0.000000  0.500000  1
  La  La1  1  0.000000  0.500000  0.500000  1
  Dy  Dy2  1  0.000000  0.000000  0.000000  1
  Dy  Dy3  1  0.335852  0.673212  0.500000  1
  Dy  Dy4  1  0.664148  0.326788  0.500000  1
  Dy  Dy5  1  0.326788  0.335852  0.500000  1
  Dy  Dy6  1  0.673212  0.664148  0.500000  1
  Co  Co7  1  0.120983  0.723802  0.000000  1
  Co  Co8  1  0.879017  0.276198  0.000000  1
  Co  Co9  1  0.276198  0.120983  0.000000  1
  Co  Co10  1  0.723802  0.879017  0.000000  1
  Sn  Sn11  1  0.283478  0.888497  0.000000  1
  Sn  Sn12  1  0.716522  0.111503  0.000000  1
  Sn  Sn13  1  0.111503  0.283478  0.000000  1
  Sn  Sn14  1  0.888497  0.716522  0.000000  1
  Sn  Sn15  1  0.077635  0.807303  0.500000  1
  Sn  Sn16  1  0.922365  0.192697  0.500000  1
  Sn  Sn17  1  0.192697  0.077635  0.500000  1
  Sn  Sn18  1  0.807303  0.922365  0.500000  1
  Sn  Sn19  1  0.520907  0.780112  0.000000  1
  Sn  Sn20  1  0.479093  0.219888  0.000000  1
  Sn  Sn21  1  0.219888  0.520907  0.000000  1
  Sn  Sn22  1  0.780112  0.479093  0.000000  1
  Sn  Sn23  1  0.500000  0.500000  0.000000  1
