# generated using pymatgen
data_La4TcCl5
_symmetry_space_group_name_H-M   'P 1'
_cell_length_a   9.27930361
_cell_length_b   9.27930255
_cell_length_c   8.66145200
_cell_angle_alpha   76.47965465
_cell_angle_beta   76.47965623
_cell_angle_gamma   25.41914359
_symmetry_Int_Tables_number   1
_chemical_formula_structural   La4TcCl5
_chemical_formula_sum   'La4 Tc1 Cl5'
_cell_volume   310.79455261
_cell_formula_units_Z   1
loop_
 _symmetry_equiv_pos_site_id
 _symmetry_equiv_pos_as_xyz
  1  'x, y, z'
loop_
 _atom_site_type_symbol
 _atom_site_label
 _atom_site_symmetry_multiplicity
 _atom_site_fract_x
 _atom_site_fract_y
 _atom_site_fract_z
 _atom_site_occupancy
  La  La0  1  0.847264  0.847264  0.084000  1
  La  La1  1  0.152736  0.152736  0.916000  1
  La  La2  1  0.500974  0.500974  0.234755  1
  La  La3  1  0.499026  0.499026  0.765245  1
  Tc  Tc4  1  0.000000  0.000000  0.000000  1
  Cl  Cl5  1  0.671245  0.671245  0.157271  1
  Cl  Cl6  1  0.328755  0.328755  0.842729  1
  Cl  Cl7  1  0.665502  0.665502  0.668329  1
  Cl  Cl8  1  0.334498  0.334498  0.331671  1
  Cl  Cl9  1  0.000000  0.000000  0.500000  1
