# generated using pymatgen
data_Zr6Be15(CuNi3)2
_symmetry_space_group_name_H-M   'P 1'
_cell_length_a   7.85437753
_cell_length_b   7.85437716
_cell_length_c   7.85437791
_cell_angle_alpha   60.04511568
_cell_angle_beta   60.04511290
_cell_angle_gamma   60.04511655
_symmetry_Int_Tables_number   1
_chemical_formula_structural   Zr6Be15(CuNi3)2
_chemical_formula_sum   'Zr6 Be15 Cu2 Ni6'
_cell_volume   342.97636527
_cell_formula_units_Z   1
loop_
 _symmetry_equiv_pos_site_id
 _symmetry_equiv_pos_as_xyz
  1  'x, y, z'
loop_
 _atom_site_type_symbol
 _atom_site_label
 _atom_site_symmetry_multiplicity
 _atom_site_fract_x
 _atom_site_fract_y
 _atom_site_fract_z
 _atom_site_occupancy
  Zr  Zr0  1  0.704188  0.291024  0.291024  1
  Zr  Zr1  1  0.295812  0.708976  0.708976  1
  Zr  Zr2  1  0.291024  0.704188  0.291024  1
  Zr  Zr3  1  0.708976  0.295812  0.708976  1
  Zr  Zr4  1  0.291024  0.291024  0.704188  1
  Zr  Zr5  1  0.708976  0.708976  0.295812  1
  Be  Be6  1  0.322353  0.322353  0.322353  1
  Be  Be7  1  0.677647  0.677647  0.677647  1
  Be  Be8  1  0.324920  0.324920  0.031362  1
  Be  Be9  1  0.324920  0.031362  0.324920  1
  Be  Be10  1  0.675080  0.675080  0.968638  1
  Be  Be11  1  0.675080  0.968638  0.675080  1
  Be  Be12  1  0.031362  0.324920  0.324920  1
  Be  Be13  1  0.968638  0.675080  0.675080  1
  Be  Be14  1  0.500000  0.000000  0.000000  1
  Be  Be15  1  0.000000  0.500000  0.500000  1
  Be  Be16  1  0.000000  0.500000  0.000000  1
  Be  Be17  1  0.500000  0.000000  0.500000  1
  Be  Be18  1  0.000000  0.000000  0.500000  1
  Be  Be19  1  0.500000  0.500000  0.000000  1
  Be  Be20  1  0.000000  0.000000  0.000000  1
  Cu  Cu21  1  0.124004  0.124004  0.124004  1
  Cu  Cu22  1  0.875996  0.875996  0.875996  1
  Ni  Ni23  1  0.123808  0.123808  0.626680  1
  Ni  Ni24  1  0.123808  0.626680  0.123808  1
  Ni  Ni25  1  0.876192  0.876192  0.373320  1
  Ni  Ni26  1  0.876192  0.373320  0.876192  1
  Ni  Ni27  1  0.626680  0.123808  0.123808  1
  Ni  Ni28  1  0.373320  0.876192  0.876192  1
