# generated using pymatgen
data_Ce3Cu(Sb2Pt)2
_symmetry_space_group_name_H-M   'P 1'
_cell_length_a   8.53533208
_cell_length_b   8.53533165
_cell_length_c   8.53533243
_cell_angle_alpha   109.11568131
_cell_angle_beta   109.11568272
_cell_angle_gamma   110.18466003
_symmetry_Int_Tables_number   1
_chemical_formula_structural   Ce3Cu(Sb2Pt)2
_chemical_formula_sum   'Ce6 Cu2 Sb8 Pt4'
_cell_volume   478.61775580
_cell_formula_units_Z   2
loop_
 _symmetry_equiv_pos_site_id
 _symmetry_equiv_pos_as_xyz
  1  'x, y, z'
loop_
 _atom_site_type_symbol
 _atom_site_label
 _atom_site_symmetry_multiplicity
 _atom_site_fract_x
 _atom_site_fract_y
 _atom_site_fract_z
 _atom_site_occupancy
  Ce  Ce0  1  0.876509  0.250000  0.126509  1
  Ce  Ce1  1  0.623491  0.750000  0.373491  1
  Ce  Ce2  1  0.250000  0.123491  0.873491  1
  Ce  Ce3  1  0.750000  0.376509  0.626509  1
  Ce  Ce4  1  0.125000  0.875000  0.250000  1
  Ce  Ce5  1  0.375000  0.625000  0.750000  1
  Cu  Cu6  1  0.625000  0.375000  0.250000  1
  Cu  Cu7  1  0.875000  0.125000  0.750000  1
  Sb  Sb8  1  0.665752  0.495899  0.003259  1
  Sb  Sb9  1  0.507360  0.004101  0.669854  1
  Sb  Sb10  1  0.992640  0.662494  0.496741  1
  Sb  Sb11  1  0.834248  0.837506  0.830146  1
  Sb  Sb12  1  0.504101  0.007360  0.169854  1
  Sb  Sb13  1  0.162494  0.492640  0.996741  1
  Sb  Sb14  1  0.995899  0.165752  0.503259  1
  Sb  Sb15  1  0.337506  0.334248  0.330146  1
  Pt  Pt16  1  0.373951  0.250000  0.623951  1
  Pt  Pt17  1  0.126049  0.750000  0.876049  1
  Pt  Pt18  1  0.250000  0.626049  0.376049  1
  Pt  Pt19  1  0.750000  0.873951  0.123951  1
