# generated using pymatgen
data_Eu2Cd2InSnPd2
_symmetry_space_group_name_H-M   'P 1'
_cell_length_a   5.72499231
_cell_length_b   5.72499224
_cell_length_c   7.98243993
_cell_angle_alpha   89.70952496
_cell_angle_beta   90.29047542
_cell_angle_gamma   132.82758731
_symmetry_Int_Tables_number   1
_chemical_formula_structural   Eu2Cd2InSnPd2
_chemical_formula_sum   'Eu2 Cd2 In1 Sn1 Pd2'
_cell_volume   191.87628017
_cell_formula_units_Z   1
loop_
 _symmetry_equiv_pos_site_id
 _symmetry_equiv_pos_as_xyz
  1  'x, y, z'
loop_
 _atom_site_type_symbol
 _atom_site_label
 _atom_site_symmetry_multiplicity
 _atom_site_fract_x
 _atom_site_fract_y
 _atom_site_fract_z
 _atom_site_occupancy
  Eu  Eu0  1  0.066752  0.933248  0.255230  1
  Eu  Eu1  1  0.933707  0.066293  0.755136  1
  Cd  Cd2  1  0.360271  0.639729  0.441148  1
  Cd  Cd3  1  0.643022  0.356978  0.946281  1
  In  In4  1  0.353042  0.646958  0.052569  1
  Sn  Sn5  1  0.645445  0.354555  0.554691  1
  Pd  Pd6  1  0.217689  0.782311  0.742822  1
  Pd  Pd7  1  0.780071  0.219929  0.252123  1
