# generated using pymatgen
data_SmEuDy2(Si5Pt3)2
_symmetry_space_group_name_H-M   'P 1'
_cell_length_a   8.18288400
_cell_length_b   8.18675065
_cell_length_c   8.18675011
_cell_angle_alpha   136.74182040
_cell_angle_beta   104.66652989
_cell_angle_gamma   91.06933276
_symmetry_Int_Tables_number   1
_chemical_formula_structural   SmEuDy2(Si5Pt3)2
_chemical_formula_sum   'Sm1 Eu1 Dy2 Si10 Pt6'
_cell_volume   346.11804017
_cell_formula_units_Z   1
loop_
 _symmetry_equiv_pos_site_id
 _symmetry_equiv_pos_as_xyz
  1  'x, y, z'
loop_
 _atom_site_type_symbol
 _atom_site_label
 _atom_site_symmetry_multiplicity
 _atom_site_fract_x
 _atom_site_fract_y
 _atom_site_fract_z
 _atom_site_occupancy
  Sm  Sm0  1  0.897692  0.128795  0.768897  1
  Eu  Eu1  1  0.638843  0.370850  0.267994  1
  Dy  Dy2  1  0.358823  0.628835  0.729988  1
  Dy  Dy3  1  0.101429  0.871093  0.230335  1
  Si  Si4  1  0.272816  0.521369  0.250533  1
  Si  Si5  1  0.728356  0.477234  0.749093  1
  Si  Si6  1  0.728356  0.979264  0.251123  1
  Si  Si7  1  0.272816  0.022284  0.751447  1
  Si  Si8  1  0.459335  0.111084  0.348251  1
  Si  Si9  1  0.538911  0.886899  0.652012  1
  Si  Si10  1  0.763964  0.612870  0.151093  1
  Si  Si11  1  0.238461  0.389260  0.849201  1
  Si  Si12  1  0.999584  0.251522  0.251324  1
  Si  Si13  1  0.999584  0.748260  0.748062  1
  Pt  Pt14  1  0.247250  0.134842  0.112407  1
  Pt  Pt15  1  0.750714  0.861596  0.889118  1
  Pt  Pt16  1  0.027142  0.639286  0.387856  1
  Pt  Pt17  1  0.978042  0.363779  0.614263  1
  Pt  Pt18  1  0.498941  0.249570  0.747633  1
  Pt  Pt19  1  0.498941  0.751308  0.249371  1
