# generated using pymatgen
data_Er2Mg(PRh2)6
_symmetry_space_group_name_H-M   'P 1'
_cell_length_a   9.70464900
_cell_length_b   9.70464826
_cell_length_c   3.89054100
_cell_angle_alpha   90.00000000
_cell_angle_beta   90.00000000
_cell_angle_gamma   119.99999912
_symmetry_Int_Tables_number   1
_chemical_formula_structural   Er2Mg(PRh2)6
_chemical_formula_sum   'Er2 Mg1 P6 Rh12'
_cell_volume   317.32205886
_cell_formula_units_Z   1
loop_
 _symmetry_equiv_pos_site_id
 _symmetry_equiv_pos_as_xyz
  1  'x, y, z'
loop_
 _atom_site_type_symbol
 _atom_site_label
 _atom_site_symmetry_multiplicity
 _atom_site_fract_x
 _atom_site_fract_y
 _atom_site_fract_z
 _atom_site_occupancy
  Er  Er0  1  0.333333  0.666667  0.751887  1
  Er  Er1  1  0.666667  0.333333  0.248113  1
  Mg  Mg2  1  0.000000  0.000000  0.500000  1
  P  P3  1  0.402775  0.285228  0.746581  1
  P  P4  1  0.714772  0.117547  0.746581  1
  P  P5  1  0.882453  0.597225  0.746581  1
  P  P6  1  0.597225  0.714772  0.253419  1
  P  P7  1  0.285228  0.882453  0.253419  1
  P  P8  1  0.117547  0.402775  0.253419  1
  Rh  Rh9  1  0.454006  0.066741  0.748525  1
  Rh  Rh10  1  0.933259  0.387264  0.748525  1
  Rh  Rh11  1  0.612736  0.545994  0.748525  1
  Rh  Rh12  1  0.545994  0.933259  0.251475  1
  Rh  Rh13  1  0.066741  0.612736  0.251475  1
  Rh  Rh14  1  0.387264  0.454006  0.251475  1
  Rh  Rh15  1  0.160935  0.288792  0.754485  1
  Rh  Rh16  1  0.711208  0.872144  0.754485  1
  Rh  Rh17  1  0.127856  0.839065  0.754485  1
  Rh  Rh18  1  0.839065  0.711208  0.245515  1
  Rh  Rh19  1  0.288792  0.127856  0.245515  1
  Rh  Rh20  1  0.872144  0.160935  0.245515  1
