# generated using pymatgen
data_Nb12Ga8Fe3ReC4
_symmetry_space_group_name_H-M   'P 1'
_cell_length_a   8.28268531
_cell_length_b   8.26764365
_cell_length_c   8.27112224
_cell_angle_alpha   60.01369274
_cell_angle_beta   60.07274682
_cell_angle_gamma   60.05831787
_symmetry_Int_Tables_number   1
_chemical_formula_structural   Nb12Ga8Fe3ReC4
_chemical_formula_sum   'Nb12 Ga8 Fe3 Re1 C4'
_cell_volume   400.93762873
_cell_formula_units_Z   1
loop_
 _symmetry_equiv_pos_site_id
 _symmetry_equiv_pos_as_xyz
  1  'x, y, z'
loop_
 _atom_site_type_symbol
 _atom_site_label
 _atom_site_symmetry_multiplicity
 _atom_site_fract_x
 _atom_site_fract_y
 _atom_site_fract_z
 _atom_site_occupancy
  Nb  Nb0  1  0.804258  0.803894  0.195916  1
  Nb  Nb1  1  0.195269  0.200578  0.801953  1
  Nb  Nb2  1  0.804222  0.196133  0.803538  1
  Nb  Nb3  1  0.195088  0.802235  0.200436  1
  Nb  Nb4  1  0.195274  0.802202  0.801966  1
  Nb  Nb5  1  0.804223  0.195961  0.195921  1
  Nb  Nb6  1  0.445742  0.446106  0.054084  1
  Nb  Nb7  1  0.054731  0.049422  0.448047  1
  Nb  Nb8  1  0.445778  0.053867  0.446462  1
  Nb  Nb9  1  0.054912  0.447765  0.049564  1
  Nb  Nb10  1  0.054726  0.447798  0.448034  1
  Nb  Nb11  1  0.445777  0.054039  0.054079  1
  Ga  Ga12  1  0.755118  0.414832  0.415253  1
  Ga  Ga13  1  0.424946  0.754729  0.410373  1
  Ga  Ga14  1  0.425249  0.410150  0.754487  1
  Ga  Ga15  1  0.424909  0.409961  0.410346  1
  Ga  Ga16  1  0.494882  0.835168  0.834747  1
  Ga  Ga17  1  0.825054  0.495271  0.839627  1
  Ga  Ga18  1  0.824751  0.839850  0.495513  1
  Ga  Ga19  1  0.825091  0.840039  0.839654  1
  Fe  Fe20  1  0.625000  0.125000  0.625000  1
  Fe  Fe21  1  0.625000  0.625000  0.125000  1
  Fe  Fe22  1  0.625000  0.625000  0.625000  1
  Re  Re23  1  0.125000  0.625000  0.625000  1
  C  C24  1  0.625000  0.125000  0.125000  1
  C  C25  1  0.125000  0.625000  0.125000  1
  C  C26  1  0.125000  0.125000  0.625000  1
  C  C27  1  0.125000  0.125000  0.125000  1
