# generated using pymatgen
data_LiPr9Se10
_symmetry_space_group_name_H-M   'P 1'
_cell_length_a   7.32320342
_cell_length_b   8.48393132
_cell_length_c   9.52490197
_cell_angle_alpha   103.19454952
_cell_angle_beta   97.15106768
_cell_angle_gamma   106.64631436
_symmetry_Int_Tables_number   1
_chemical_formula_structural   LiPr9Se10
_chemical_formula_sum   'Li1 Pr9 Se10'
_cell_volume   540.45259371
_cell_formula_units_Z   1
loop_
 _symmetry_equiv_pos_site_id
 _symmetry_equiv_pos_as_xyz
  1  'x, y, z'
loop_
 _atom_site_type_symbol
 _atom_site_label
 _atom_site_symmetry_multiplicity
 _atom_site_fract_x
 _atom_site_fract_y
 _atom_site_fract_z
 _atom_site_occupancy
  Li  Li0  1  0.000000  0.500000  0.000000  1
  Pr  Pr1  1  0.800568  0.600097  0.597920  1
  Pr  Pr2  1  0.597732  0.199708  0.203089  1
  Pr  Pr3  1  0.402268  0.800292  0.796911  1
  Pr  Pr4  1  0.600314  0.702222  0.203939  1
  Pr  Pr5  1  0.199432  0.399903  0.402080  1
  Pr  Pr6  1  0.399686  0.297778  0.796061  1
  Pr  Pr7  1  0.000000  0.000000  0.000000  1
  Pr  Pr8  1  0.201631  0.900963  0.403539  1
  Pr  Pr9  1  0.798369  0.099037  0.596461  1
  Se  Se10  1  0.708200  0.645407  0.904195  1
  Se  Se11  1  0.500601  0.251329  0.499556  1
  Se  Se12  1  0.709146  0.161738  0.904971  1
  Se  Se13  1  0.290854  0.838262  0.095029  1
  Se  Se14  1  0.499399  0.748671  0.500444  1
  Se  Se15  1  0.096720  0.452616  0.711123  1
  Se  Se16  1  0.291800  0.354593  0.095805  1
  Se  Se17  1  0.901185  0.050204  0.298492  1
  Se  Se18  1  0.098815  0.949796  0.701508  1
  Se  Se19  1  0.903280  0.547384  0.288877  1
