# generated using pymatgen
data_Li4La4Si5Hg
_symmetry_space_group_name_H-M   'P 1'
_cell_length_a   9.71829343
_cell_length_b   9.71829323
_cell_length_c   6.96867000
_cell_angle_alpha   90.00000000
_cell_angle_beta   90.00000000
_cell_angle_gamma   152.89178766
_symmetry_Int_Tables_number   1
_chemical_formula_structural   Li4La4Si5Hg
_chemical_formula_sum   'Li4 La4 Si5 Hg1'
_cell_volume   299.90432185
_cell_formula_units_Z   1
loop_
 _symmetry_equiv_pos_site_id
 _symmetry_equiv_pos_as_xyz
  1  'x, y, z'
loop_
 _atom_site_type_symbol
 _atom_site_label
 _atom_site_symmetry_multiplicity
 _atom_site_fract_x
 _atom_site_fract_y
 _atom_site_fract_z
 _atom_site_occupancy
  Li  Li0  1  0.814600  0.185400  0.430733  1
  Li  Li1  1  0.186793  0.813207  0.548484  1
  Li  Li2  1  0.814600  0.185400  0.069267  1
  Li  Li3  1  0.186793  0.813207  0.951516  1
  La  La4  1  0.547951  0.452049  0.750000  1
  La  La5  1  0.448853  0.551147  0.250000  1
  La  La6  1  0.345999  0.654001  0.750000  1
  La  La7  1  0.656154  0.343846  0.250000  1
  Si  Si8  1  0.942789  0.057211  0.922509  1
  Si  Si9  1  0.056839  0.943161  0.077247  1
  Si  Si10  1  0.942789  0.057211  0.577491  1
  Si  Si11  1  0.056839  0.943161  0.422753  1
  Si  Si12  1  0.279628  0.720372  0.250000  1
  Hg  Hg13  1  0.719374  0.280626  0.750000  1
