# generated using pymatgen
data_Nd6Al24PdRu5Pt2
_symmetry_space_group_name_H-M   'P 1'
_cell_length_a   8.92993621
_cell_length_b   8.94792449
_cell_length_c   9.65465962
_cell_angle_alpha   90.08222326
_cell_angle_beta   89.91262004
_cell_angle_gamma   120.04940542
_symmetry_Int_Tables_number   1
_chemical_formula_structural   Nd6Al24PdRu5Pt2
_chemical_formula_sum   'Nd6 Al24 Pd1 Ru5 Pt2'
_cell_volume   667.76123629
_cell_formula_units_Z   1
loop_
 _symmetry_equiv_pos_site_id
 _symmetry_equiv_pos_as_xyz
  1  'x, y, z'
loop_
 _atom_site_type_symbol
 _atom_site_label
 _atom_site_symmetry_multiplicity
 _atom_site_fract_x
 _atom_site_fract_y
 _atom_site_fract_z
 _atom_site_occupancy
  Nd  Nd0  1  0.193230  0.381803  0.251130  1
  Nd  Nd1  1  0.806770  0.618197  0.748870  1
  Nd  Nd2  1  0.618007  0.807909  0.249240  1
  Nd  Nd3  1  0.381993  0.192091  0.750760  1
  Nd  Nd4  1  0.191699  0.811044  0.249198  1
  Nd  Nd5  1  0.808301  0.188956  0.750802  1
  Al  Al6  1  0.336267  0.663912  0.021252  1
  Al  Al7  1  0.663733  0.336088  0.978748  1
  Al  Al8  1  0.660502  0.330125  0.520375  1
  Al  Al9  1  0.339498  0.669875  0.479625  1
  Al  Al10  1  0.168541  0.325443  0.576131  1
  Al  Al11  1  0.831459  0.674557  0.423869  1
  Al  Al12  1  0.672255  0.835939  0.575432  1
  Al  Al13  1  0.832173  0.674812  0.075699  1
  Al  Al14  1  0.327745  0.164061  0.424568  1
  Al  Al15  1  0.167827  0.325188  0.924301  1
  Al  Al16  1  0.167883  0.843669  0.576438  1
  Al  Al17  1  0.325875  0.168143  0.077310  1
  Al  Al18  1  0.832117  0.156331  0.423562  1
  Al  Al19  1  0.674125  0.831857  0.922690  1
  Al  Al20  1  0.838678  0.161967  0.078083  1
  Al  Al21  1  0.161322  0.838033  0.921917  1
  Al  Al22  1  0.563288  0.126399  0.253369  1
  Al  Al23  1  0.436712  0.873601  0.746631  1
  Al  Al24  1  0.871342  0.435853  0.249539  1
  Al  Al25  1  0.128658  0.564147  0.750461  1
  Al  Al26  1  0.561862  0.438349  0.249387  1
  Al  Al27  1  0.438138  0.561651  0.750613  1
  Al  Al28  1  0.002573  0.000721  0.250089  1
  Al  Al29  1  0.997427  0.999279  0.749911  1
  Pd  Pd30  1  0.000000  0.500000  0.500000  1
  Ru  Ru31  1  0.500000  0.000000  0.500000  1
  Ru  Ru32  1  0.500000  0.500000  0.000000  1
  Ru  Ru33  1  0.500000  0.500000  0.500000  1
  Ru  Ru34  1  0.000000  0.000000  0.000000  1
  Ru  Ru35  1  0.000000  0.000000  0.500000  1
  Pt  Pt36  1  0.500000  0.000000  0.000000  1
  Pt  Pt37  1  0.000000  0.500000  0.000000  1
