# generated using pymatgen
data_Hf18Ti2Re6SiP
_symmetry_space_group_name_H-M   'P 1'
_cell_length_a   8.62280200
_cell_length_b   8.62275316
_cell_length_c   8.59340300
_cell_angle_alpha   90.00000000
_cell_angle_beta   90.00000000
_cell_angle_gamma   119.99991740
_symmetry_Int_Tables_number   1
_chemical_formula_structural   Hf18Ti2Re6SiP
_chemical_formula_sum   'Hf18 Ti2 Re6 Si1 P1'
_cell_volume   553.33805583
_cell_formula_units_Z   1
loop_
 _symmetry_equiv_pos_site_id
 _symmetry_equiv_pos_as_xyz
  1  'x, y, z'
loop_
 _atom_site_type_symbol
 _atom_site_label
 _atom_site_symmetry_multiplicity
 _atom_site_fract_x
 _atom_site_fract_y
 _atom_site_fract_z
 _atom_site_occupancy
  Hf  Hf0  1  0.195554  0.804447  0.451174  1
  Hf  Hf1  1  0.195554  0.391106  0.451174  1
  Hf  Hf2  1  0.608892  0.804445  0.451179  1
  Hf  Hf3  1  0.803478  0.196529  0.549875  1
  Hf  Hf4  1  0.803479  0.606951  0.549877  1
  Hf  Hf5  1  0.393055  0.196529  0.549871  1
  Hf  Hf6  1  0.803478  0.196529  0.950125  1
  Hf  Hf7  1  0.803479  0.606951  0.950123  1
  Hf  Hf8  1  0.393055  0.196529  0.950129  1
  Hf  Hf9  1  0.195554  0.804447  0.048826  1
  Hf  Hf10  1  0.195554  0.391106  0.048826  1
  Hf  Hf11  1  0.608892  0.804445  0.048821  1
  Hf  Hf12  1  0.539792  0.460208  0.250000  1
  Hf  Hf13  1  0.539790  0.079583  0.250000  1
  Hf  Hf14  1  0.920416  0.460207  0.250000  1
  Hf  Hf15  1  0.459575  0.540418  0.750000  1
  Hf  Hf16  1  0.459575  0.919158  0.750000  1
  Hf  Hf17  1  0.080837  0.540419  0.750000  1
  Ti  Ti18  1  0.999997  0.999998  0.500135  1
  Ti  Ti19  1  0.999997  0.999998  0.999865  1
  Re  Re20  1  0.888274  0.111724  0.250000  1
  Re  Re21  1  0.888272  0.776549  0.250000  1
  Re  Re22  1  0.223443  0.111722  0.250000  1
  Re  Re23  1  0.111623  0.888371  0.750000  1
  Re  Re24  1  0.111624  0.223253  0.750000  1
  Re  Re25  1  0.776754  0.888376  0.750000  1
  Si  Si26  1  0.333335  0.666667  0.250000  1
  P  P27  1  0.666674  0.333337  0.750000  1
