# generated using pymatgen
data_Gd3ThCrTc3B16
_symmetry_space_group_name_H-M   'P 1'
_cell_length_a   3.62013600
_cell_length_b   6.00694878
_cell_length_c   11.62546850
_cell_angle_alpha   90.00108872
_cell_angle_beta   90.00000000
_cell_angle_gamma   90.00000000
_symmetry_Int_Tables_number   1
_chemical_formula_structural   Gd3ThCrTc3B16
_chemical_formula_sum   'Gd3 Th1 Cr1 Tc3 B16'
_cell_volume   252.80710696
_cell_formula_units_Z   1
loop_
 _symmetry_equiv_pos_site_id
 _symmetry_equiv_pos_as_xyz
  1  'x, y, z'
loop_
 _atom_site_type_symbol
 _atom_site_label
 _atom_site_symmetry_multiplicity
 _atom_site_fract_x
 _atom_site_fract_y
 _atom_site_fract_z
 _atom_site_occupancy
  Gd  Gd0  1  0.500000  0.125341  0.850507  1
  Gd  Gd1  1  0.500000  0.875938  0.147310  1
  Gd  Gd2  1  0.500000  0.626407  0.652485  1
  Th  Th3  1  0.500000  0.374422  0.347410  1
  Cr  Cr4  1  0.500000  0.371989  0.083494  1
  Tc  Tc5  1  0.500000  0.133065  0.590020  1
  Tc  Tc6  1  0.500000  0.866027  0.411639  1
  Tc  Tc7  1  0.500000  0.627857  0.915303  1
  B  B8  1  0.000000  0.283878  0.686853  1
  B  B9  1  0.000000  0.718709  0.314289  1
  B  B10  1  0.000000  0.784414  0.816436  1
  B  B11  1  0.000000  0.216648  0.180814  1
  B  B12  1  0.000000  0.386525  0.953634  1
  B  B13  1  0.000000  0.613275  0.045513  1
  B  B14  1  0.000000  0.886148  0.548202  1
  B  B15  1  0.000000  0.109402  0.455183  1
  B  B16  1  0.000000  0.137905  0.031283  1
  B  B17  1  0.000000  0.863066  0.968040  1
  B  B18  1  0.000000  0.638503  0.469555  1
  B  B19  1  0.000000  0.361276  0.533726  1
  B  B20  1  0.000000  0.023688  0.308358  1
  B  B21  1  0.000000  0.975226  0.693020  1
  B  B22  1  0.000000  0.524281  0.187543  1
  B  B23  1  0.000000  0.476009  0.809382  1
