# generated using pymatgen
data_Y5Sc3(Co4As3)4
_symmetry_space_group_name_H-M   'P 1'
_cell_length_a   12.72021400
_cell_length_b   12.72021273
_cell_length_c   3.86093800
_cell_angle_alpha   90.00000000
_cell_angle_beta   90.00000000
_cell_angle_gamma   120.00000330
_symmetry_Int_Tables_number   1
_chemical_formula_structural   Y5Sc3(Co4As3)4
_chemical_formula_sum   'Y5 Sc3 Co16 As12'
_cell_volume   541.01865095
_cell_formula_units_Z   1
loop_
 _symmetry_equiv_pos_site_id
 _symmetry_equiv_pos_as_xyz
  1  'x, y, z'
loop_
 _atom_site_type_symbol
 _atom_site_label
 _atom_site_symmetry_multiplicity
 _atom_site_fract_x
 _atom_site_fract_y
 _atom_site_fract_z
 _atom_site_occupancy
  Y  Y0  1  0.184463  0.184463  0.500000  1
  Y  Y1  1  0.815537  0.000000  0.500000  1
  Y  Y2  1  0.000000  0.815537  0.500000  1
  Y  Y3  1  0.333333  0.666667  0.000000  1
  Y  Y4  1  0.666667  0.333333  0.000000  1
  Sc  Sc5  1  0.561358  0.561358  0.000000  1
  Sc  Sc6  1  0.438642  0.000000  0.000000  1
  Sc  Sc7  1  0.000000  0.438642  0.000000  1
  Co  Co8  1  0.719474  0.719474  0.500000  1
  Co  Co9  1  0.280526  0.000000  0.500000  1
  Co  Co10  1  0.000000  0.280526  0.500000  1
  Co  Co11  1  0.178067  0.374707  0.000000  1
  Co  Co12  1  0.625293  0.803360  0.000000  1
  Co  Co13  1  0.196640  0.821933  0.000000  1
  Co  Co14  1  0.803360  0.625293  0.000000  1
  Co  Co15  1  0.821933  0.196640  0.000000  1
  Co  Co16  1  0.374707  0.178067  0.000000  1
  Co  Co17  1  0.355240  0.478421  0.500000  1
  Co  Co18  1  0.521579  0.876821  0.500000  1
  Co  Co19  1  0.123179  0.644760  0.500000  1
  Co  Co20  1  0.876821  0.521579  0.500000  1
  Co  Co21  1  0.644760  0.123179  0.500000  1
  Co  Co22  1  0.478421  0.355240  0.500000  1
  Co  Co23  1  0.000000  0.000000  0.000000  1
  As  As24  1  0.821449  0.821449  0.000000  1
  As  As25  1  0.178551  0.000000  0.000000  1
  As  As26  1  0.000000  0.178551  0.000000  1
  As  As27  1  0.171258  0.481399  0.500000  1
  As  As28  1  0.518601  0.689859  0.500000  1
  As  As29  1  0.310141  0.828742  0.500000  1
  As  As30  1  0.689859  0.518601  0.500000  1
  As  As31  1  0.828742  0.310141  0.500000  1
  As  As32  1  0.481399  0.171258  0.500000  1
  As  As33  1  0.355150  0.355150  0.000000  1
  As  As34  1  0.644850  0.000000  0.000000  1
  As  As35  1  0.000000  0.644850  0.000000  1
