# generated using pymatgen
data_NaBiIr2O7
_symmetry_space_group_name_H-M   'P 1'
_cell_length_a   7.27189409
_cell_length_b   7.27189382
_cell_length_c   7.31587800
_cell_angle_alpha   59.79971412
_cell_angle_beta   59.79971537
_cell_angle_gamma   59.35910685
_symmetry_Int_Tables_number   1
_chemical_formula_structural   NaBiIr2O7
_chemical_formula_sum   'Na2 Bi2 Ir4 O14'
_cell_volume   271.38762477
_cell_formula_units_Z   2
loop_
 _symmetry_equiv_pos_site_id
 _symmetry_equiv_pos_as_xyz
  1  'x, y, z'
loop_
 _atom_site_type_symbol
 _atom_site_label
 _atom_site_symmetry_multiplicity
 _atom_site_fract_x
 _atom_site_fract_y
 _atom_site_fract_z
 _atom_site_occupancy
  Na  Na0  1  0.625000  0.125000  0.125000  1
  Na  Na1  1  0.125000  0.625000  0.125000  1
  Bi  Bi2  1  0.125000  0.125000  0.625000  1
  Bi  Bi3  1  0.125000  0.125000  0.125000  1
  Ir  Ir4  1  0.125000  0.625000  0.625000  1
  Ir  Ir5  1  0.625000  0.125000  0.625000  1
  Ir  Ir6  1  0.625000  0.625000  0.125000  1
  Ir  Ir7  1  0.625000  0.625000  0.625000  1
  O  O8  1  0.691007  0.691007  0.308993  1
  O  O9  1  0.294598  0.294598  0.705402  1
  O  O10  1  0.714749  0.295352  0.689901  1
  O  O11  1  0.295352  0.714749  0.299999  1
  O  O12  1  0.295352  0.714749  0.689901  1
  O  O13  1  0.714749  0.295352  0.299999  1
  O  O14  1  0.558993  0.558993  0.941007  1
  O  O15  1  0.955402  0.955402  0.544598  1
  O  O16  1  0.535251  0.954648  0.560099  1
  O  O17  1  0.954648  0.535251  0.950001  1
  O  O18  1  0.954648  0.535251  0.560099  1
  O  O19  1  0.535251  0.954648  0.950001  1
  O  O20  1  0.242086  0.242086  0.257914  1
  O  O21  1  0.007914  0.007914  0.992086  1
