# generated using pymatgen
data_Ac4Zn3GaIr4
_symmetry_space_group_name_H-M   'P 1'
_cell_length_a   4.30158400
_cell_length_b   7.41948262
_cell_length_c   8.56651700
_cell_angle_alpha   89.94878185
_cell_angle_beta   90.00000000
_cell_angle_gamma   90.00000000
_symmetry_Int_Tables_number   1
_chemical_formula_structural   Ac4Zn3GaIr4
_chemical_formula_sum   'Ac4 Zn3 Ga1 Ir4'
_cell_volume   273.40480135
_cell_formula_units_Z   1
loop_
 _symmetry_equiv_pos_site_id
 _symmetry_equiv_pos_as_xyz
  1  'x, y, z'
loop_
 _atom_site_type_symbol
 _atom_site_label
 _atom_site_symmetry_multiplicity
 _atom_site_fract_x
 _atom_site_fract_y
 _atom_site_fract_z
 _atom_site_occupancy
  Ac  Ac0  1  0.250000  0.972868  0.309196  1
  Ac  Ac1  1  0.250000  0.474462  0.192770  1
  Ac  Ac2  1  0.750000  0.028637  0.690370  1
  Ac  Ac3  1  0.750000  0.526439  0.806858  1
  Zn  Zn4  1  0.250000  0.351899  0.561727  1
  Zn  Zn5  1  0.250000  0.850576  0.935393  1
  Zn  Zn6  1  0.750000  0.647280  0.438983  1
  Ga  Ga7  1  0.750000  0.146358  0.063754  1
  Ir  Ir8  1  0.250000  0.222963  0.901251  1
  Ir  Ir9  1  0.250000  0.729744  0.608892  1
  Ir  Ir10  1  0.750000  0.776751  0.106691  1
  Ir  Ir11  1  0.750000  0.272023  0.384115  1
