# generated using pymatgen
data_Y4Er8Co2Ni3Bi
_symmetry_space_group_name_H-M   'P 1'
_cell_length_a   8.28470639
_cell_length_b   8.28470589
_cell_length_c   8.28470687
_cell_angle_alpha   109.36383737
_cell_angle_beta   111.08198257
_cell_angle_gamma   107.98275396
_symmetry_Int_Tables_number   1
_chemical_formula_structural   Y4Er8Co2Ni3Bi
_chemical_formula_sum   'Y4 Er8 Co2 Ni3 Bi1'
_cell_volume   437.41123728
_cell_formula_units_Z   1
loop_
 _symmetry_equiv_pos_site_id
 _symmetry_equiv_pos_as_xyz
  1  'x, y, z'
loop_
 _atom_site_type_symbol
 _atom_site_label
 _atom_site_symmetry_multiplicity
 _atom_site_fract_x
 _atom_site_fract_y
 _atom_site_fract_z
 _atom_site_occupancy
  Y  Y0  1  0.288507  0.181633  0.470140  1
  Y  Y1  1  0.711493  0.818367  0.529860  1
  Y  Y2  1  0.288507  0.818367  0.106875  1
  Y  Y3  1  0.711493  0.181633  0.893125  1
  Er  Er4  1  0.625572  0.315319  0.310252  1
  Er  Er5  1  0.374428  0.684681  0.689748  1
  Er  Er6  1  0.005068  0.315319  0.689748  1
  Er  Er7  1  0.994932  0.684681  0.310252  1
  Er  Er8  1  0.210160  0.404686  0.194526  1
  Er  Er9  1  0.789840  0.595314  0.805474  1
  Er  Er10  1  0.210160  0.015635  0.805474  1
  Er  Er11  1  0.789840  0.984365  0.194526  1
  Co  Co12  1  0.384940  0.884940  0.500000  1
  Co  Co13  1  0.615060  0.115060  0.500000  1
  Ni  Ni14  1  0.000000  0.367585  0.367585  1
  Ni  Ni15  1  0.000000  0.632415  0.632415  1
  Ni  Ni16  1  0.000000  0.000000  0.000000  1
  Bi  Bi17  1  0.500000  0.500000  0.000000  1
