# generated using pymatgen
data_CsPa3S4
_symmetry_space_group_name_H-M   'P 1'
_cell_length_a   3.97764600
_cell_length_b   3.97764645
_cell_length_c   28.65803800
_cell_angle_alpha   90.00000000
_cell_angle_beta   90.00000000
_cell_angle_gamma   119.99999628
_symmetry_Int_Tables_number   1
_chemical_formula_structural   CsPa3S4
_chemical_formula_sum   'Cs2 Pa6 S8'
_cell_volume   392.67152578
_cell_formula_units_Z   2
loop_
 _symmetry_equiv_pos_site_id
 _symmetry_equiv_pos_as_xyz
  1  'x, y, z'
loop_
 _atom_site_type_symbol
 _atom_site_label
 _atom_site_symmetry_multiplicity
 _atom_site_fract_x
 _atom_site_fract_y
 _atom_site_fract_z
 _atom_site_occupancy
  Cs  Cs0  1  0.666667  0.333333  0.250000  1
  Cs  Cs1  1  0.333333  0.666667  0.750000  1
  Pa  Pa2  1  0.666667  0.333333  0.605534  1
  Pa  Pa3  1  0.666667  0.333333  0.894466  1
  Pa  Pa4  1  0.333333  0.666667  0.394466  1
  Pa  Pa5  1  0.333333  0.666667  0.105534  1
  Pa  Pa6  1  0.000000  0.000000  0.500000  1
  Pa  Pa7  1  0.000000  0.000000  0.000000  1
  S  S8  1  0.000000  0.000000  0.160887  1
  S  S9  1  0.666667  0.333333  0.446572  1
  S  S10  1  0.000000  0.000000  0.660887  1
  S  S11  1  0.333333  0.666667  0.946572  1
  S  S12  1  0.333333  0.666667  0.553428  1
  S  S13  1  0.000000  0.000000  0.339113  1
  S  S14  1  0.666667  0.333333  0.053428  1
  S  S15  1  0.000000  0.000000  0.839113  1
