# generated using pymatgen
data_YTm5Ni12(B2Ir)2
_symmetry_space_group_name_H-M   'P 1'
_cell_length_a   5.05112000
_cell_length_b   5.05112029
_cell_length_c   14.55789800
_cell_angle_alpha   90.00000000
_cell_angle_beta   90.00000000
_cell_angle_gamma   120.00001117
_symmetry_Int_Tables_number   1
_chemical_formula_structural   YTm5Ni12(B2Ir)2
_chemical_formula_sum   'Y1 Tm5 Ni12 B4 Ir2'
_cell_volume   321.66562536
_cell_formula_units_Z   1
loop_
 _symmetry_equiv_pos_site_id
 _symmetry_equiv_pos_as_xyz
  1  'x, y, z'
loop_
 _atom_site_type_symbol
 _atom_site_label
 _atom_site_symmetry_multiplicity
 _atom_site_fract_x
 _atom_site_fract_y
 _atom_site_fract_z
 _atom_site_occupancy
  Y  Y0  1  0.333333  0.666667  0.532580  1
  Tm  Tm1  1  0.666667  0.333333  0.031632  1
  Tm  Tm2  1  0.666667  0.333333  0.467291  1
  Tm  Tm3  1  0.333333  0.666667  0.968863  1
  Tm  Tm4  1  0.333333  0.666667  0.751256  1
  Tm  Tm5  1  0.666667  0.333333  0.249486  1
  Ni  Ni6  1  0.165634  0.331269  0.151146  1
  Ni  Ni7  1  0.834422  0.668843  0.652370  1
  Ni  Ni8  1  0.668731  0.834366  0.151146  1
  Ni  Ni9  1  0.165634  0.834366  0.151146  1
  Ni  Ni10  1  0.834422  0.165578  0.652370  1
  Ni  Ni11  1  0.331157  0.165578  0.652370  1
  Ni  Ni12  1  0.834433  0.668866  0.848798  1
  Ni  Ni13  1  0.834433  0.165567  0.848798  1
  Ni  Ni14  1  0.331134  0.165567  0.848798  1
  Ni  Ni15  1  0.669280  0.834640  0.347654  1
  Ni  Ni16  1  0.165360  0.834640  0.347654  1
  Ni  Ni17  1  0.165360  0.330720  0.347654  1
  B  B18  1  0.333333  0.666667  0.249686  1
  B  B19  1  0.666667  0.333333  0.750241  1
  B  B20  1  0.000000  0.000000  0.249137  1
  B  B21  1  0.000000  0.000000  0.750473  1
  Ir  Ir22  1  0.000000  0.000000  0.999919  1
  Ir  Ir23  1  0.000000  0.000000  0.499531  1
