# generated using pymatgen
data_La4NdY3(CdRu)2
_symmetry_space_group_name_H-M   'P 1'
_cell_length_a   9.90274816
_cell_length_b   9.94985158
_cell_length_c   9.89846661
_cell_angle_alpha   59.85664824
_cell_angle_beta   60.32934472
_cell_angle_gamma   59.53724046
_symmetry_Int_Tables_number   1
_chemical_formula_structural   La4NdY3(CdRu)2
_chemical_formula_sum   'La8 Nd2 Y6 Cd4 Ru4'
_cell_volume   688.13425927
_cell_formula_units_Z   2
loop_
 _symmetry_equiv_pos_site_id
 _symmetry_equiv_pos_as_xyz
  1  'x, y, z'
loop_
 _atom_site_type_symbol
 _atom_site_label
 _atom_site_symmetry_multiplicity
 _atom_site_fract_x
 _atom_site_fract_y
 _atom_site_fract_z
 _atom_site_occupancy
  La  La0  1  0.435779  0.066527  0.062264  1
  La  La1  1  0.842496  0.847780  0.844728  1
  La  La2  1  0.688952  0.312685  0.309485  1
  La  La3  1  0.066527  0.435779  0.435430  1
  La  La4  1  0.312685  0.688952  0.688878  1
  La  La5  1  0.310880  0.310880  0.689120  1
  La  La6  1  0.847780  0.842496  0.464996  1
  La  La7  1  0.688155  0.688155  0.311845  1
  Nd  Nd8  1  0.435560  0.435560  0.064440  1
  Nd  Nd9  1  0.068989  0.068989  0.431011  1
  Y  Y10  1  0.461957  0.839430  0.852041  1
  Y  Y11  1  0.055573  0.445334  0.052961  1
  Y  Y12  1  0.839430  0.461957  0.846570  1
  Y  Y13  1  0.445334  0.055573  0.446131  1
  Y  Y14  1  0.307562  0.694454  0.304874  1
  Y  Y15  1  0.694454  0.307562  0.693110  1
  Cd  Cd16  1  0.084801  0.763124  0.075896  1
  Cd  Cd17  1  0.079554  0.081237  0.761234  1
  Cd  Cd18  1  0.763124  0.084801  0.076178  1
  Cd  Cd19  1  0.081237  0.079554  0.077974  1
  Ru  Ru20  1  0.626857  0.087346  0.634516  1
  Ru  Ru21  1  0.625992  0.648973  0.633653  1
  Ru  Ru22  1  0.648973  0.625992  0.091383  1
  Ru  Ru23  1  0.087346  0.626857  0.651281  1
