# generated using pymatgen
data_Sc4Al5Fe2Mo
_symmetry_space_group_name_H-M   'P 1'
_cell_length_a   5.33270900
_cell_length_b   5.33243330
_cell_length_c   8.24041398
_cell_angle_alpha   90.04713584
_cell_angle_beta   90.00254735
_cell_angle_gamma   120.00105613
_symmetry_Int_Tables_number   1
_chemical_formula_structural   Sc4Al5Fe2Mo
_chemical_formula_sum   'Sc4 Al5 Fe2 Mo1'
_cell_volume   202.93088518
_cell_formula_units_Z   1
loop_
 _symmetry_equiv_pos_site_id
 _symmetry_equiv_pos_as_xyz
  1  'x, y, z'
loop_
 _atom_site_type_symbol
 _atom_site_label
 _atom_site_symmetry_multiplicity
 _atom_site_fract_x
 _atom_site_fract_y
 _atom_site_fract_z
 _atom_site_occupancy
  Sc  Sc0  1  0.666302  0.332605  0.057964  1
  Sc  Sc1  1  0.666373  0.332706  0.442077  1
  Sc  Sc2  1  0.329866  0.659702  0.556843  1
  Sc  Sc3  1  0.329883  0.659775  0.943134  1
  Al  Al4  1  0.157226  0.818757  0.250079  1
  Al  Al5  1  0.661553  0.818757  0.250081  1
  Al  Al6  1  0.327430  0.163417  0.749915  1
  Al  Al7  1  0.836004  0.163416  0.749913  1
  Al  Al8  1  0.837129  0.674236  0.749959  1
  Fe  Fe9  1  0.014120  0.028484  0.007599  1
  Fe  Fe10  1  0.014411  0.028795  0.492424  1
  Mo  Mo11  1  0.159700  0.319349  0.250012  1
