# generated using pymatgen
data_Rb8SmGd3F20
_symmetry_space_group_name_H-M   'P 1'
_cell_length_a   7.00012503
_cell_length_b   7.64628910
_cell_length_c   11.56105000
_cell_angle_alpha   89.99965531
_cell_angle_beta   89.96898717
_cell_angle_gamma   90.00928399
_symmetry_Int_Tables_number   1
_chemical_formula_structural   Rb8SmGd3F20
_chemical_formula_sum   'Rb8 Sm1 Gd3 F20'
_cell_volume   618.80486760
_cell_formula_units_Z   1
loop_
 _symmetry_equiv_pos_site_id
 _symmetry_equiv_pos_as_xyz
  1  'x, y, z'
loop_
 _atom_site_type_symbol
 _atom_site_label
 _atom_site_symmetry_multiplicity
 _atom_site_fract_x
 _atom_site_fract_y
 _atom_site_fract_z
 _atom_site_occupancy
  Rb  Rb0  1  0.532241  0.020820  0.170815  1
  Rb  Rb1  1  0.467828  0.521324  0.829127  1
  Rb  Rb2  1  0.967453  0.020594  0.671841  1
  Rb  Rb3  1  0.032148  0.521485  0.328263  1
  Rb  Rb4  1  0.031993  0.015807  0.328314  1
  Rb  Rb5  1  0.967572  0.516783  0.671752  1
  Rb  Rb6  1  0.467852  0.016053  0.829276  1
  Rb  Rb7  1  0.532180  0.516489  0.170765  1
  Sm  Sm8  1  0.439555  0.268271  0.501456  1
  Gd  Gd9  1  0.560796  0.768309  0.498411  1
  Gd  Gd10  1  0.059746  0.268436  0.001532  1
  Gd  Gd11  1  0.940428  0.768405  0.998882  1
  F  F12  1  0.141130  0.985512  0.072765  1
  F  F13  1  0.858981  0.485610  0.927422  1
  F  F14  1  0.358699  0.984542  0.572948  1
  F  F15  1  0.641574  0.486527  0.426598  1
  F  F16  1  0.379616  0.268864  0.014146  1
  F  F17  1  0.620398  0.768819  0.985766  1
  F  F18  1  0.117293  0.268759  0.513886  1
  F  F19  1  0.880824  0.768708  0.486160  1
  F  F20  1  0.140162  0.551178  0.073536  1
  F  F21  1  0.860023  0.050991  0.926629  1
  F  F22  1  0.359892  0.551740  0.573743  1
  F  F23  1  0.640628  0.049828  0.425841  1
  F  F24  1  0.344431  0.268500  0.313130  1
  F  F25  1  0.654792  0.768762  0.685279  1
  F  F26  1  0.154846  0.268748  0.814679  1
  F  F27  1  0.845332  0.768642  0.185292  1
  F  F28  1  0.374904  0.767271  0.339523  1
  F  F29  1  0.626721  0.267389  0.662142  1
  F  F30  1  0.125611  0.767428  0.839628  1
  F  F31  1  0.874347  0.267415  0.160457  1
