# generated using pymatgen
data_Ce3Dy(TaOs3)2
_symmetry_space_group_name_H-M   'P 1'
_cell_length_a   5.71055800
_cell_length_b   5.71055911
_cell_length_c   8.17907000
_cell_angle_alpha   90.00000000
_cell_angle_beta   90.00000000
_cell_angle_gamma   120.00000517
_symmetry_Int_Tables_number   1
_chemical_formula_structural   Ce3Dy(TaOs3)2
_chemical_formula_sum   'Ce3 Dy1 Ta2 Os6'
_cell_volume   230.98921991
_cell_formula_units_Z   1
loop_
 _symmetry_equiv_pos_site_id
 _symmetry_equiv_pos_as_xyz
  1  'x, y, z'
loop_
 _atom_site_type_symbol
 _atom_site_label
 _atom_site_symmetry_multiplicity
 _atom_site_fract_x
 _atom_site_fract_y
 _atom_site_fract_z
 _atom_site_occupancy
  Ce  Ce0  1  0.333333  0.666667  0.437517  1
  Ce  Ce1  1  0.666667  0.333333  0.566828  1
  Ce  Ce2  1  0.666667  0.333333  0.934076  1
  Dy  Dy3  1  0.333333  0.666667  0.065907  1
  Ta  Ta4  1  0.000000  0.000000  0.498710  1
  Ta  Ta5  1  0.000000  0.000000  0.000167  1
  Os  Os6  1  0.827853  0.172147  0.249105  1
  Os  Os7  1  0.827853  0.655705  0.249105  1
  Os  Os8  1  0.344295  0.172147  0.249105  1
  Os  Os9  1  0.172101  0.827899  0.749826  1
  Os  Os10  1  0.172101  0.344204  0.749826  1
  Os  Os11  1  0.655796  0.827899  0.749826  1
