# generated using pymatgen
data_Dy4MnReRu6
_symmetry_space_group_name_H-M   'P 1'
_cell_length_a   5.19221183
_cell_length_b   5.41562888
_cell_length_c   8.97623200
_cell_angle_alpha   90.00000000
_cell_angle_beta   90.00000000
_cell_angle_gamma   120.88043848
_symmetry_Int_Tables_number   1
_chemical_formula_structural   Dy4MnReRu6
_chemical_formula_sum   'Dy4 Mn1 Re1 Ru6'
_cell_volume   216.62282359
_cell_formula_units_Z   1
loop_
 _symmetry_equiv_pos_site_id
 _symmetry_equiv_pos_as_xyz
  1  'x, y, z'
loop_
 _atom_site_type_symbol
 _atom_site_label
 _atom_site_symmetry_multiplicity
 _atom_site_fract_x
 _atom_site_fract_y
 _atom_site_fract_z
 _atom_site_occupancy
  Dy  Dy0  1  0.332231  0.667255  0.435583  1
  Dy  Dy1  1  0.658502  0.327425  0.565042  1
  Dy  Dy2  1  0.658502  0.327425  0.934958  1
  Dy  Dy3  1  0.332231  0.667255  0.064417  1
  Mn  Mn4  1  0.834121  0.164263  0.250000  1
  Re  Re5  1  0.675035  0.837221  0.750000  1
  Ru  Ru6  1  0.983278  0.992502  0.498349  1
  Ru  Ru7  1  0.983278  0.992502  0.001651  1
  Ru  Ru8  1  0.829319  0.663219  0.250000  1
  Ru  Ru9  1  0.353016  0.178072  0.250000  1
  Ru  Ru10  1  0.179091  0.832278  0.750000  1
  Ru  Ru11  1  0.181397  0.350584  0.750000  1
