# generated using pymatgen
data_Tm2Lu(AlNi2)3
_symmetry_space_group_name_H-M   'P 1'
_cell_length_a   5.14256500
_cell_length_b   5.14256344
_cell_length_c   15.74816000
_cell_angle_alpha   90.00000000
_cell_angle_beta   90.00000000
_cell_angle_gamma   119.99999071
_symmetry_Int_Tables_number   1
_chemical_formula_structural   Tm2Lu(AlNi2)3
_chemical_formula_sum   'Tm4 Lu2 Al6 Ni12'
_cell_volume   360.67823761
_cell_formula_units_Z   2
loop_
 _symmetry_equiv_pos_site_id
 _symmetry_equiv_pos_as_xyz
  1  'x, y, z'
loop_
 _atom_site_type_symbol
 _atom_site_label
 _atom_site_symmetry_multiplicity
 _atom_site_fract_x
 _atom_site_fract_y
 _atom_site_fract_z
 _atom_site_occupancy
  Tm  Tm0  1  0.333333  0.666667  0.544505  1
  Tm  Tm1  1  0.666667  0.333333  0.455495  1
  Tm  Tm2  1  0.333333  0.666667  0.752756  1
  Tm  Tm3  1  0.666667  0.333333  0.247244  1
  Lu  Lu4  1  0.666667  0.333333  0.041340  1
  Lu  Lu5  1  0.333333  0.666667  0.958660  1
  Al  Al6  1  0.000000  0.000000  0.248839  1
  Al  Al7  1  0.000000  0.000000  0.751161  1
  Al  Al8  1  0.333333  0.666667  0.249184  1
  Al  Al9  1  0.666667  0.333333  0.750816  1
  Al  Al10  1  0.000000  0.000000  0.000000  1
  Al  Al11  1  0.000000  0.000000  0.500000  1
  Ni  Ni12  1  0.168487  0.336973  0.124345  1
  Ni  Ni13  1  0.831513  0.663027  0.875655  1
  Ni  Ni14  1  0.663027  0.831513  0.124345  1
  Ni  Ni15  1  0.832087  0.664177  0.626737  1
  Ni  Ni16  1  0.336973  0.168487  0.875655  1
  Ni  Ni17  1  0.167913  0.335823  0.373263  1
  Ni  Ni18  1  0.168487  0.831513  0.124345  1
  Ni  Ni19  1  0.335823  0.167913  0.626737  1
  Ni  Ni20  1  0.831513  0.168487  0.875655  1
  Ni  Ni21  1  0.664177  0.832087  0.373263  1
  Ni  Ni22  1  0.832087  0.167913  0.626737  1
  Ni  Ni23  1  0.167913  0.832087  0.373263  1
