# generated using pymatgen
data_Ca10CuHg2Ir3
_symmetry_space_group_name_H-M   'P 1'
_cell_length_a   9.20874711
_cell_length_b   9.20874731
_cell_length_c   9.22915688
_cell_angle_alpha   130.42649089
_cell_angle_beta   130.42648209
_cell_angle_gamma   72.55330818
_symmetry_Int_Tables_number   1
_chemical_formula_structural   Ca10CuHg2Ir3
_chemical_formula_sum   'Ca10 Cu1 Hg2 Ir3'
_cell_volume   443.58203743
_cell_formula_units_Z   1
loop_
 _symmetry_equiv_pos_site_id
 _symmetry_equiv_pos_as_xyz
  1  'x, y, z'
loop_
 _atom_site_type_symbol
 _atom_site_label
 _atom_site_symmetry_multiplicity
 _atom_site_fract_x
 _atom_site_fract_y
 _atom_site_fract_z
 _atom_site_occupancy
  Ca  Ca0  1  0.527909  0.027909  0.822930  1
  Ca  Ca1  1  0.197897  0.697897  0.156670  1
  Ca  Ca2  1  0.045722  0.198339  0.509414  1
  Ca  Ca3  1  0.698339  0.545722  0.509414  1
  Ca  Ca4  1  0.458774  0.958774  0.156670  1
  Ca  Ca5  1  0.795020  0.295020  0.822930  1
  Ca  Ca6  1  0.963692  0.811076  0.509414  1
  Ca  Ca7  1  0.311076  0.463692  0.509414  1
  Ca  Ca8  1  0.494115  0.502708  0.996824  1
  Ca  Ca9  1  0.002708  0.994115  0.996824  1
  Cu  Cu10  1  0.883651  0.383651  0.267302  1
  Hg  Hg11  1  0.252106  0.252106  0.004212  1
  Hg  Hg12  1  0.752106  0.752106  0.004212  1
  Ir  Ir13  1  0.623720  0.877030  0.500750  1
  Ir  Ir14  1  0.377030  0.123720  0.500750  1
  Ir  Ir15  1  0.116135  0.616135  0.732270  1
