# generated using pymatgen
data_DyTmReB6
_symmetry_space_group_name_H-M   'P 1'
_cell_length_a   3.66025300
_cell_length_b   9.13376800
_cell_length_c   11.52200400
_cell_angle_alpha   90.00000000
_cell_angle_beta   90.00000000
_cell_angle_gamma   90.00000000
_symmetry_Int_Tables_number   1
_chemical_formula_structural   DyTmReB6
_chemical_formula_sum   'Dy4 Tm4 Re4 B24'
_cell_volume   385.20250538
_cell_formula_units_Z   4
loop_
 _symmetry_equiv_pos_site_id
 _symmetry_equiv_pos_as_xyz
  1  'x, y, z'
loop_
 _atom_site_type_symbol
 _atom_site_label
 _atom_site_symmetry_multiplicity
 _atom_site_fract_x
 _atom_site_fract_y
 _atom_site_fract_z
 _atom_site_occupancy
  Dy  Dy0  1  0.000000  0.323395  0.413887  1
  Dy  Dy1  1  0.000000  0.676605  0.586113  1
  Dy  Dy2  1  0.000000  0.823395  0.086113  1
  Dy  Dy3  1  0.000000  0.176605  0.913887  1
  Tm  Tm4  1  0.000000  0.943679  0.370487  1
  Tm  Tm5  1  0.000000  0.056321  0.629513  1
  Tm  Tm6  1  0.000000  0.443679  0.129513  1
  Tm  Tm7  1  0.000000  0.556321  0.870487  1
  Re  Re8  1  0.000000  0.639274  0.320366  1
  Re  Re9  1  0.000000  0.360726  0.679634  1
  Re  Re10  1  0.000000  0.139274  0.179634  1
  Re  Re11  1  0.000000  0.860726  0.820366  1
  B  B12  1  0.500000  0.553669  0.432672  1
  B  B13  1  0.500000  0.446331  0.567328  1
  B  B14  1  0.500000  0.053669  0.067328  1
  B  B15  1  0.500000  0.946331  0.932672  1
  B  B16  1  0.500000  0.750109  0.418549  1
  B  B17  1  0.500000  0.249891  0.581451  1
  B  B18  1  0.500000  0.250109  0.081451  1
  B  B19  1  0.500000  0.749891  0.918549  1
  B  B20  1  0.500000  0.792933  0.265737  1
  B  B21  1  0.500000  0.207067  0.734263  1
  B  B22  1  0.500000  0.292933  0.234263  1
  B  B23  1  0.500000  0.707067  0.765737  1
  B  B24  1  0.500000  0.630566  0.185350  1
  B  B25  1  0.500000  0.369434  0.814650  1
  B  B26  1  0.500000  0.130566  0.314650  1
  B  B27  1  0.500000  0.869434  0.685350  1
  B  B28  1  0.500000  0.982188  0.212455  1
  B  B29  1  0.500000  0.017812  0.787545  1
  B  B30  1  0.500000  0.482188  0.287545  1
  B  B31  1  0.500000  0.517812  0.712455  1
  B  B32  1  0.500000  0.599075  0.027611  1
  B  B33  1  0.500000  0.400925  0.972389  1
  B  B34  1  0.500000  0.099075  0.472389  1
  B  B35  1  0.500000  0.900925  0.527611  1
