# generated using pymatgen
data_Nd2CrCo11As7
_symmetry_space_group_name_H-M   'P 1'
_cell_length_a   3.80772300
_cell_length_b   9.41376584
_cell_length_c   9.42892215
_cell_angle_alpha   119.83693067
_cell_angle_beta   90.00000000
_cell_angle_gamma   90.00000000
_symmetry_Int_Tables_number   1
_chemical_formula_structural   Nd2CrCo11As7
_chemical_formula_sum   'Nd2 Cr1 Co11 As7'
_cell_volume   293.17889788
_cell_formula_units_Z   1
loop_
 _symmetry_equiv_pos_site_id
 _symmetry_equiv_pos_as_xyz
  1  'x, y, z'
loop_
 _atom_site_type_symbol
 _atom_site_label
 _atom_site_symmetry_multiplicity
 _atom_site_fract_x
 _atom_site_fract_y
 _atom_site_fract_z
 _atom_site_occupancy
  Nd  Nd0  1  0.000000  0.667605  0.336366  1
  Nd  Nd1  1  0.500000  0.331376  0.665726  1
  Cr  Cr2  1  0.500000  0.784284  0.896699  1
  Co  Co3  1  0.000000  0.569581  0.942365  1
  Co  Co4  1  0.000000  0.372698  0.428474  1
  Co  Co5  1  0.000000  0.057917  0.626831  1
  Co  Co6  1  0.500000  0.118760  0.218365  1
  Co  Co7  1  0.500000  0.099482  0.880536  1
  Co  Co8  1  0.000000  0.877462  0.154549  1
  Co  Co9  1  0.000000  0.277245  0.123507  1
  Co  Co10  1  0.000000  0.848137  0.726101  1
  Co  Co11  1  0.500000  0.949170  0.379303  1
  Co  Co12  1  0.500000  0.428743  0.049463  1
  Co  Co13  1  0.500000  0.620141  0.569794  1
  As  As14  1  0.000000  0.003423  0.002856  1
  As  As15  1  0.500000  0.704927  0.111912  1
  As  As16  1  0.500000  0.400213  0.291557  1
  As  As17  1  0.500000  0.892370  0.599741  1
  As  As18  1  0.000000  0.591077  0.701920  1
  As  As19  1  0.000000  0.110244  0.404942  1
  As  As20  1  0.000000  0.295142  0.888993  1
