# generated using pymatgen
data_Ba4LaPr(Nd3Se8)2
_symmetry_space_group_name_H-M   'P 1'
_cell_length_a   4.35953400
_cell_length_b   13.04748419
_cell_length_c   15.63830136
_cell_angle_alpha   89.59996605
_cell_angle_beta   90.00000000
_cell_angle_gamma   90.00000000
_symmetry_Int_Tables_number   1
_chemical_formula_structural   Ba4LaPr(Nd3Se8)2
_chemical_formula_sum   'Ba4 La1 Pr1 Nd6 Se16'
_cell_volume   889.49977207
_cell_formula_units_Z   1
loop_
 _symmetry_equiv_pos_site_id
 _symmetry_equiv_pos_as_xyz
  1  'x, y, z'
loop_
 _atom_site_type_symbol
 _atom_site_label
 _atom_site_symmetry_multiplicity
 _atom_site_fract_x
 _atom_site_fract_y
 _atom_site_fract_z
 _atom_site_occupancy
  Ba  Ba0  1  0.250000  0.756219  0.339085  1
  Ba  Ba1  1  0.250000  0.256178  0.160400  1
  Ba  Ba2  1  0.750000  0.242609  0.661433  1
  Ba  Ba3  1  0.750000  0.743743  0.838098  1
  La  La4  1  0.250000  0.425947  0.393176  1
  Pr  Pr5  1  0.750000  0.078225  0.396753  1
  Nd  Nd6  1  0.250000  0.928993  0.108574  1
  Nd  Nd7  1  0.750000  0.571747  0.610431  1
  Nd  Nd8  1  0.750000  0.070564  0.891338  1
  Nd  Nd9  1  0.250000  0.420810  0.898929  1
  Nd  Nd10  1  0.250000  0.923053  0.600889  1
  Nd  Nd11  1  0.750000  0.578981  0.101398  1
  Se  Se12  1  0.250000  0.208234  0.825651  1
  Se  Se13  1  0.250000  0.709989  0.673448  1
  Se  Se14  1  0.750000  0.791341  0.174504  1
  Se  Se15  1  0.750000  0.290478  0.322469  1
  Se  Se16  1  0.250000  0.133281  0.522624  1
  Se  Se17  1  0.250000  0.629841  0.974858  1
  Se  Se18  1  0.750000  0.868746  0.476190  1
  Se  Se19  1  0.750000  0.370210  0.025066  1
  Se  Se20  1  0.250000  0.521499  0.216789  1
  Se  Se21  1  0.250000  0.020231  0.281293  1
  Se  Se22  1  0.750000  0.479030  0.784292  1
  Se  Se23  1  0.750000  0.979474  0.716168  1
  Se  Se24  1  0.250000  0.418138  0.583764  1
  Se  Se25  1  0.250000  0.917435  0.921074  1
  Se  Se26  1  0.750000  0.582175  0.422571  1
  Se  Se27  1  0.750000  0.082828  0.078733  1
