# generated using pymatgen
data_Tm12Fe3SnAu
_symmetry_space_group_name_H-M   'P 1'
_cell_length_a   8.16696714
_cell_length_b   8.16696751
_cell_length_c   8.16696727
_cell_angle_alpha   107.63898279
_cell_angle_beta   110.29717170
_cell_angle_gamma   110.49296752
_symmetry_Int_Tables_number   1
_chemical_formula_structural   Tm12Fe3SnAu
_chemical_formula_sum   'Tm12 Fe3 Sn1 Au1'
_cell_volume   419.01281570
_cell_formula_units_Z   1
loop_
 _symmetry_equiv_pos_site_id
 _symmetry_equiv_pos_as_xyz
  1  'x, y, z'
loop_
 _atom_site_type_symbol
 _atom_site_label
 _atom_site_symmetry_multiplicity
 _atom_site_fract_x
 _atom_site_fract_y
 _atom_site_fract_z
 _atom_site_occupancy
  Tm  Tm0  1  0.188674  0.411765  0.223091  1
  Tm  Tm1  1  0.811326  0.588235  0.776909  1
  Tm  Tm2  1  0.188674  0.965583  0.776909  1
  Tm  Tm3  1  0.934907  0.193772  0.741135  1
  Tm  Tm4  1  0.811326  0.034417  0.223091  1
  Tm  Tm5  1  0.065093  0.806228  0.258865  1
  Tm  Tm6  1  0.452637  0.193772  0.258865  1
  Tm  Tm7  1  0.547363  0.806228  0.741135  1
  Tm  Tm8  1  0.310791  0.305246  0.616037  1
  Tm  Tm9  1  0.689209  0.694754  0.383963  1
  Tm  Tm10  1  0.689209  0.305246  0.994455  1
  Tm  Tm11  1  0.310791  0.694754  0.005545  1
  Fe  Fe12  1  0.383269  0.383269  0.000000  1
  Fe  Fe13  1  0.616731  0.616731  0.000000  1
  Fe  Fe14  1  0.000000  0.000000  0.000000  1
  Sn  Sn15  1  0.000000  0.500000  0.500000  1
  Au  Au16  1  0.500000  0.000000  0.500000  1
