# generated using pymatgen
data_AcHf2F11
_symmetry_space_group_name_H-M   'P 1'
_cell_length_a   8.64363338
_cell_length_b   8.64363447
_cell_length_c   8.64363366
_cell_angle_alpha   126.18098379
_cell_angle_beta   107.24495883
_cell_angle_gamma   96.50008327
_symmetry_Int_Tables_number   1
_chemical_formula_structural   AcHf2F11
_chemical_formula_sum   'Ac2 Hf4 F22'
_cell_volume   461.71488817
_cell_formula_units_Z   2
loop_
 _symmetry_equiv_pos_site_id
 _symmetry_equiv_pos_as_xyz
  1  'x, y, z'
loop_
 _atom_site_type_symbol
 _atom_site_label
 _atom_site_symmetry_multiplicity
 _atom_site_fract_x
 _atom_site_fract_y
 _atom_site_fract_z
 _atom_site_occupancy
  Ac  Ac0  1  0.750000  0.250000  0.500000  1
  Ac  Ac1  1  0.250000  0.750000  0.500000  1
  Hf  Hf2  1  0.679894  0.629790  0.309686  1
  Hf  Hf3  1  0.320106  0.370210  0.690314  1
  Hf  Hf4  1  0.179894  0.870210  0.050104  1
  Hf  Hf5  1  0.820106  0.129790  0.949896  1
  F  F6  1  0.703444  0.881930  0.336135  1
  F  F7  1  0.296556  0.118070  0.663865  1
  F  F8  1  0.545795  0.367308  0.663865  1
  F  F9  1  0.954205  0.618070  0.821514  1
  F  F10  1  0.454205  0.632692  0.336135  1
  F  F11  1  0.045795  0.381930  0.178486  1
  F  F12  1  0.796556  0.132692  0.178486  1
  F  F13  1  0.203444  0.867308  0.821514  1
  F  F14  1  0.500000  0.500000  0.000000  1
  F  F15  1  0.000000  0.000000  0.000000  1
  F  F16  1  0.778737  0.869388  0.648125  1
  F  F17  1  0.221263  0.130612  0.351875  1
  F  F18  1  0.278737  0.630612  0.909349  1
  F  F19  1  0.721263  0.369388  0.090651  1
  F  F20  1  0.941536  0.736054  0.414362  1
  F  F21  1  0.058464  0.263946  0.585638  1
  F  F22  1  0.321691  0.527174  0.585638  1
  F  F23  1  0.178309  0.763946  0.205482  1
  F  F24  1  0.678309  0.472826  0.414362  1
  F  F25  1  0.821691  0.236054  0.794518  1
  F  F26  1  0.558464  0.972826  0.794518  1
  F  F27  1  0.441536  0.027174  0.205482  1
