# generated using pymatgen
data_LiNd2(DySi2)2
_symmetry_space_group_name_H-M   'P 1'
_cell_length_a   7.25611400
_cell_length_b   7.76072700
_cell_length_c   14.84218300
_cell_angle_alpha   90.00000000
_cell_angle_beta   90.00000000
_cell_angle_gamma   90.00000000
_symmetry_Int_Tables_number   1
_chemical_formula_structural   LiNd2(DySi2)2
_chemical_formula_sum   'Li4 Nd8 Dy8 Si16'
_cell_volume   835.80369302
_cell_formula_units_Z   4
loop_
 _symmetry_equiv_pos_site_id
 _symmetry_equiv_pos_as_xyz
  1  'x, y, z'
loop_
 _atom_site_type_symbol
 _atom_site_label
 _atom_site_symmetry_multiplicity
 _atom_site_fract_x
 _atom_site_fract_y
 _atom_site_fract_z
 _atom_site_occupancy
  Li  Li0  1  0.649712  0.986546  0.250000  1
  Li  Li1  1  0.149712  0.513454  0.250000  1
  Li  Li2  1  0.850288  0.486546  0.750000  1
  Li  Li3  1  0.350288  0.013454  0.750000  1
  Nd  Nd4  1  0.971942  0.813412  0.103062  1
  Nd  Nd5  1  0.471942  0.686588  0.396938  1
  Nd  Nd6  1  0.528058  0.313412  0.896938  1
  Nd  Nd7  1  0.028058  0.186588  0.603062  1
  Nd  Nd8  1  0.028058  0.186588  0.896938  1
  Nd  Nd9  1  0.528058  0.313412  0.603062  1
  Nd  Nd10  1  0.471942  0.686588  0.103062  1
  Nd  Nd11  1  0.971942  0.813412  0.396938  1
  Dy  Dy12  1  0.677335  0.819359  0.873719  1
  Dy  Dy13  1  0.177335  0.680641  0.626281  1
  Dy  Dy14  1  0.822665  0.319359  0.126281  1
  Dy  Dy15  1  0.322665  0.180641  0.373719  1
  Dy  Dy16  1  0.322665  0.180641  0.126281  1
  Dy  Dy17  1  0.822665  0.319359  0.373719  1
  Dy  Dy18  1  0.177335  0.680641  0.873719  1
  Dy  Dy19  1  0.677335  0.819359  0.626281  1
  Si  Si20  1  0.765792  0.617598  0.250000  1
  Si  Si21  1  0.265792  0.882402  0.250000  1
  Si  Si22  1  0.734208  0.117598  0.750000  1
  Si  Si23  1  0.234208  0.382402  0.750000  1
  Si  Si24  1  0.021677  0.094020  0.250000  1
  Si  Si25  1  0.521677  0.405980  0.250000  1
  Si  Si26  1  0.478323  0.594020  0.750000  1
  Si  Si27  1  0.978323  0.905980  0.750000  1
  Si  Si28  1  0.851710  0.533497  0.964376  1
  Si  Si29  1  0.351710  0.966503  0.535624  1
  Si  Si30  1  0.648290  0.033497  0.035624  1
  Si  Si31  1  0.148290  0.466503  0.464376  1
  Si  Si32  1  0.148290  0.466503  0.035624  1
  Si  Si33  1  0.648290  0.033497  0.464376  1
  Si  Si34  1  0.351710  0.966503  0.964376  1
  Si  Si35  1  0.851710  0.533497  0.535624  1
