# generated using pymatgen
data_PrLuB6Ru
_symmetry_space_group_name_H-M   'P 1'
_cell_length_a   3.69334000
_cell_length_b   9.18252900
_cell_length_c   11.62613700
_cell_angle_alpha   90.00000000
_cell_angle_beta   90.00000000
_cell_angle_gamma   90.00000000
_symmetry_Int_Tables_number   1
_chemical_formula_structural   PrLuB6Ru
_chemical_formula_sum   'Pr4 Lu4 B24 Ru4'
_cell_volume   394.29115471
_cell_formula_units_Z   4
loop_
 _symmetry_equiv_pos_site_id
 _symmetry_equiv_pos_as_xyz
  1  'x, y, z'
loop_
 _atom_site_type_symbol
 _atom_site_label
 _atom_site_symmetry_multiplicity
 _atom_site_fract_x
 _atom_site_fract_y
 _atom_site_fract_z
 _atom_site_occupancy
  Pr  Pr0  1  0.000000  0.322552  0.414657  1
  Pr  Pr1  1  0.000000  0.677448  0.585343  1
  Pr  Pr2  1  0.000000  0.822552  0.085343  1
  Pr  Pr3  1  0.000000  0.177448  0.914657  1
  Lu  Lu4  1  0.000000  0.944430  0.372214  1
  Lu  Lu5  1  0.000000  0.055570  0.627786  1
  Lu  Lu6  1  0.000000  0.444430  0.127786  1
  Lu  Lu7  1  0.000000  0.555570  0.872214  1
  B  B8  1  0.500000  0.557299  0.429388  1
  B  B9  1  0.500000  0.442701  0.570612  1
  B  B10  1  0.500000  0.057299  0.070612  1
  B  B11  1  0.500000  0.942701  0.929388  1
  B  B12  1  0.500000  0.751417  0.416538  1
  B  B13  1  0.500000  0.248583  0.583462  1
  B  B14  1  0.500000  0.251417  0.083462  1
  B  B15  1  0.500000  0.748583  0.916538  1
  B  B16  1  0.500000  0.791535  0.266565  1
  B  B17  1  0.500000  0.208465  0.733435  1
  B  B18  1  0.500000  0.291535  0.233435  1
  B  B19  1  0.500000  0.708465  0.766565  1
  B  B20  1  0.500000  0.629925  0.184405  1
  B  B21  1  0.500000  0.370075  0.815595  1
  B  B22  1  0.500000  0.129925  0.315595  1
  B  B23  1  0.500000  0.870075  0.684405  1
  B  B24  1  0.500000  0.985673  0.214969  1
  B  B25  1  0.500000  0.014327  0.785031  1
  B  B26  1  0.500000  0.485673  0.285031  1
  B  B27  1  0.500000  0.514327  0.714969  1
  B  B28  1  0.500000  0.599642  0.027008  1
  B  B29  1  0.500000  0.400358  0.972992  1
  B  B30  1  0.500000  0.099642  0.472992  1
  B  B31  1  0.500000  0.900358  0.527008  1
  Ru  Ru32  1  0.000000  0.640398  0.318346  1
  Ru  Ru33  1  0.000000  0.359602  0.681654  1
  Ru  Ru34  1  0.000000  0.140398  0.181654  1
  Ru  Ru35  1  0.000000  0.859602  0.818346  1
