# generated using pymatgen
data_HoEr(ZrIr)2
_symmetry_space_group_name_H-M   'P 1'
_cell_length_a   4.55465800
_cell_length_b   7.12762800
_cell_length_c   8.31124900
_cell_angle_alpha   90.00000000
_cell_angle_beta   90.00000000
_cell_angle_gamma   90.00000000
_symmetry_Int_Tables_number   1
_chemical_formula_structural   HoEr(ZrIr)2
_chemical_formula_sum   'Ho2 Er2 Zr4 Ir4'
_cell_volume   269.81562200
_cell_formula_units_Z   2
loop_
 _symmetry_equiv_pos_site_id
 _symmetry_equiv_pos_as_xyz
  1  'x, y, z'
loop_
 _atom_site_type_symbol
 _atom_site_label
 _atom_site_symmetry_multiplicity
 _atom_site_fract_x
 _atom_site_fract_y
 _atom_site_fract_z
 _atom_site_occupancy
  Ho  Ho0  1  0.750000  0.015387  0.675452  1
  Ho  Ho1  1  0.750000  0.515387  0.824548  1
  Er  Er2  1  0.250000  0.984201  0.324427  1
  Er  Er3  1  0.250000  0.484201  0.175573  1
  Zr  Zr4  1  0.250000  0.357074  0.574133  1
  Zr  Zr5  1  0.250000  0.857074  0.925867  1
  Zr  Zr6  1  0.750000  0.643160  0.423870  1
  Zr  Zr7  1  0.750000  0.143160  0.076130  1
  Ir  Ir8  1  0.250000  0.233672  0.908086  1
  Ir  Ir9  1  0.250000  0.733672  0.591914  1
  Ir  Ir10  1  0.750000  0.766503  0.093292  1
  Ir  Ir11  1  0.750000  0.266503  0.406708  1
