# generated using pymatgen
data_Sr6Tc2N6Cl
_symmetry_space_group_name_H-M   'P 1'
_cell_length_a   6.45605877
_cell_length_b   6.45605961
_cell_length_c   6.45606000
_cell_angle_alpha   95.94770129
_cell_angle_beta   95.94771099
_cell_angle_gamma   95.94771702
_symmetry_Int_Tables_number   1
_chemical_formula_structural   Sr6Tc2N6Cl
_chemical_formula_sum   'Sr6 Tc2 N6 Cl1'
_cell_volume   264.41912930
_cell_formula_units_Z   1
loop_
 _symmetry_equiv_pos_site_id
 _symmetry_equiv_pos_as_xyz
  1  'x, y, z'
loop_
 _atom_site_type_symbol
 _atom_site_label
 _atom_site_symmetry_multiplicity
 _atom_site_fract_x
 _atom_site_fract_y
 _atom_site_fract_z
 _atom_site_occupancy
  Sr  Sr0  1  0.614509  0.114450  0.783300  1
  Sr  Sr1  1  0.114450  0.783300  0.614509  1
  Sr  Sr2  1  0.783300  0.614509  0.114450  1
  Sr  Sr3  1  0.385491  0.885550  0.216700  1
  Sr  Sr4  1  0.885550  0.216700  0.385491  1
  Sr  Sr5  1  0.216700  0.385491  0.885550  1
  Tc  Tc6  1  0.620897  0.620897  0.620897  1
  Tc  Tc7  1  0.379103  0.379103  0.379103  1
  N  N8  1  0.726057  0.849219  0.477789  1
  N  N9  1  0.849219  0.477789  0.726057  1
  N  N10  1  0.477789  0.726057  0.849219  1
  N  N11  1  0.273943  0.150781  0.522211  1
  N  N12  1  0.150781  0.522211  0.273943  1
  N  N13  1  0.522211  0.273943  0.150781  1
  Cl  Cl14  1  0.000000  0.000000  0.000000  1
