# generated using pymatgen
data_La5Pr5InBi3(PbBr)2
_symmetry_space_group_name_H-M   'P 1'
_cell_length_a   9.80191700
_cell_length_b   9.76469389
_cell_length_c   6.90410600
_cell_angle_alpha   90.00000000
_cell_angle_beta   90.00000000
_cell_angle_gamma   120.32806606
_symmetry_Int_Tables_number   1
_chemical_formula_structural   La5Pr5InBi3(PbBr)2
_chemical_formula_sum   'La5 Pr5 In1 Bi3 Pb2 Br2'
_cell_volume   570.37768688
_cell_formula_units_Z   1
loop_
 _symmetry_equiv_pos_site_id
 _symmetry_equiv_pos_as_xyz
  1  'x, y, z'
loop_
 _atom_site_type_symbol
 _atom_site_label
 _atom_site_symmetry_multiplicity
 _atom_site_fract_x
 _atom_site_fract_y
 _atom_site_fract_z
 _atom_site_occupancy
  La  La0  1  0.267025  0.996760  0.750000  1
  La  La1  1  0.730277  0.999612  0.250000  1
  La  La2  1  0.998284  0.267881  0.750000  1
  La  La3  1  0.003186  0.735498  0.250000  1
  La  La4  1  0.267818  0.265001  0.250000  1
  Pr  Pr5  1  0.733643  0.732451  0.750000  1
  Pr  Pr6  1  0.333413  0.670763  0.502429  1
  Pr  Pr7  1  0.665513  0.330291  0.502802  1
  Pr  Pr8  1  0.665513  0.330291  0.997198  1
  Pr  Pr9  1  0.333413  0.670763  0.997571  1
  In  In10  1  0.389120  0.000594  0.250000  1
  Bi  Bi11  1  0.001061  0.385957  0.250000  1
  Bi  Bi12  1  0.386123  0.385234  0.750000  1
  Bi  Bi13  1  0.615672  0.614308  0.250000  1
  Pb  Pb14  1  0.613424  0.998351  0.750000  1
  Pb  Pb15  1  0.998768  0.614608  0.750000  1
  Br  Br16  1  0.998874  0.000817  0.500380  1
  Br  Br17  1  0.998874  0.000817  0.999620  1
