# generated using pymatgen
data_Ta6Be3As
_symmetry_space_group_name_H-M   'P 1'
_cell_length_a   6.58583825
_cell_length_b   6.58583825
_cell_length_c   3.39544300
_cell_angle_alpha   90.00000000
_cell_angle_beta   90.00000000
_cell_angle_gamma   89.92928765
_symmetry_Int_Tables_number   1
_chemical_formula_structural   Ta6Be3As
_chemical_formula_sum   'Ta6 Be3 As1'
_cell_volume   147.27133859
_cell_formula_units_Z   1
loop_
 _symmetry_equiv_pos_site_id
 _symmetry_equiv_pos_as_xyz
  1  'x, y, z'
loop_
 _atom_site_type_symbol
 _atom_site_label
 _atom_site_symmetry_multiplicity
 _atom_site_fract_x
 _atom_site_fract_y
 _atom_site_fract_z
 _atom_site_occupancy
  Ta  Ta0  1  0.506349  0.497651  0.000000  1
  Ta  Ta1  1  0.997651  0.006349  0.000000  1
  Ta  Ta2  1  0.677894  0.177894  0.500000  1
  Ta  Ta3  1  0.333680  0.833680  0.500000  1
  Ta  Ta4  1  0.180597  0.308887  0.500000  1
  Ta  Ta5  1  0.808887  0.680597  0.500000  1
  Be  Be6  1  0.875994  0.375994  0.000000  1
  Be  Be7  1  0.615303  0.886654  0.000000  1
  Be  Be8  1  0.386654  0.115303  0.000000  1
  As  As9  1  0.116991  0.616991  0.000000  1
