# generated using pymatgen
data_Tb7Th(CdPt)2
_symmetry_space_group_name_H-M   'P 1'
_cell_length_a   9.80548945
_cell_length_b   9.80548941
_cell_length_c   9.79279900
_cell_angle_alpha   60.04279970
_cell_angle_beta   60.04279980
_cell_angle_gamma   59.98482649
_symmetry_Int_Tables_number   1
_chemical_formula_structural   Tb7Th(CdPt)2
_chemical_formula_sum   'Tb14 Th2 Cd4 Pt4'
_cell_volume   666.13331356
_cell_formula_units_Z   2
loop_
 _symmetry_equiv_pos_site_id
 _symmetry_equiv_pos_as_xyz
  1  'x, y, z'
loop_
 _atom_site_type_symbol
 _atom_site_label
 _atom_site_symmetry_multiplicity
 _atom_site_fract_x
 _atom_site_fract_y
 _atom_site_fract_z
 _atom_site_occupancy
  Tb  Tb0  1  0.351852  0.943456  0.352346  1
  Tb  Tb1  1  0.943456  0.351852  0.352346  1
  Tb  Tb2  1  0.811130  0.190051  0.189898  1
  Tb  Tb3  1  0.190051  0.811130  0.808921  1
  Tb  Tb4  1  0.190051  0.811130  0.189898  1
  Tb  Tb5  1  0.811130  0.190051  0.808921  1
  Tb  Tb6  1  0.189284  0.189284  0.810716  1
  Tb  Tb7  1  0.809518  0.809518  0.190482  1
  Tb  Tb8  1  0.935566  0.565331  0.566145  1
  Tb  Tb9  1  0.565331  0.935566  0.932958  1
  Tb  Tb10  1  0.565331  0.935566  0.566145  1
  Tb  Tb11  1  0.935566  0.565331  0.932958  1
  Tb  Tb12  1  0.566502  0.566502  0.933498  1
  Tb  Tb13  1  0.934938  0.934938  0.565062  1
  Th  Th14  1  0.349892  0.349892  0.352804  1
  Th  Th15  1  0.349892  0.349892  0.947412  1
  Cd  Cd16  1  0.582363  0.582363  0.580866  1
  Cd  Cd17  1  0.582363  0.582363  0.254408  1
  Cd  Cd18  1  0.583349  0.253122  0.581764  1
  Cd  Cd19  1  0.253122  0.583349  0.581764  1
  Pt  Pt20  1  0.142709  0.142709  0.144207  1
  Pt  Pt21  1  0.142709  0.142709  0.570376  1
  Pt  Pt22  1  0.143615  0.570281  0.143053  1
  Pt  Pt23  1  0.570281  0.143615  0.143053  1
