# generated using pymatgen
data_Zr2Pa(Co3B2)3
_symmetry_space_group_name_H-M   'P 1'
_cell_length_a   5.73562148
_cell_length_b   5.73562097
_cell_length_c   5.73562068
_cell_angle_alpha   94.57645546
_cell_angle_beta   94.57645533
_cell_angle_gamma   94.57646674
_symmetry_Int_Tables_number   1
_chemical_formula_structural   Zr2Pa(Co3B2)3
_chemical_formula_sum   'Zr2 Pa1 Co9 B6'
_cell_volume   186.77937182
_cell_formula_units_Z   1
loop_
 _symmetry_equiv_pos_site_id
 _symmetry_equiv_pos_as_xyz
  1  'x, y, z'
loop_
 _atom_site_type_symbol
 _atom_site_label
 _atom_site_symmetry_multiplicity
 _atom_site_fract_x
 _atom_site_fract_y
 _atom_site_fract_z
 _atom_site_occupancy
  Zr  Zr0  1  0.667339  0.667339  0.667339  1
  Zr  Zr1  1  0.332661  0.332661  0.332661  1
  Pa  Pa2  1  0.000000  0.000000  0.000000  1
  Co  Co3  1  0.000000  0.000000  0.500000  1
  Co  Co4  1  0.500000  0.000000  0.000000  1
  Co  Co5  1  0.000000  0.500000  0.000000  1
  Co  Co6  1  0.692401  0.196893  0.692401  1
  Co  Co7  1  0.692401  0.692401  0.196893  1
  Co  Co8  1  0.196893  0.692401  0.692401  1
  Co  Co9  1  0.307599  0.803107  0.307599  1
  Co  Co10  1  0.307599  0.307599  0.803107  1
  Co  Co11  1  0.803107  0.307599  0.307599  1
  B  B12  1  0.624009  0.375991  0.000000  1
  B  B13  1  0.000000  0.624009  0.375991  1
  B  B14  1  0.375991  0.000000  0.624009  1
  B  B15  1  0.000000  0.375991  0.624009  1
  B  B16  1  0.624009  0.000000  0.375991  1
  B  B17  1  0.375991  0.624009  0.000000  1
