# generated using pymatgen
data_LaY2IrO7
_symmetry_space_group_name_H-M   'P 1'
_cell_length_a   6.50724985
_cell_length_b   6.50724995
_cell_length_c   7.53894000
_cell_angle_alpha   90.00000000
_cell_angle_beta   90.00000000
_cell_angle_gamma   109.77224652
_symmetry_Int_Tables_number   1
_chemical_formula_structural   LaY2IrO7
_chemical_formula_sum   'La2 Y4 Ir2 O14'
_cell_volume   300.41079082
_cell_formula_units_Z   2
loop_
 _symmetry_equiv_pos_site_id
 _symmetry_equiv_pos_as_xyz
  1  'x, y, z'
loop_
 _atom_site_type_symbol
 _atom_site_label
 _atom_site_symmetry_multiplicity
 _atom_site_fract_x
 _atom_site_fract_y
 _atom_site_fract_z
 _atom_site_occupancy
  La  La0  1  0.000000  0.000000  0.500000  1
  La  La1  1  0.000000  0.000000  0.000000  1
  Y  Y2  1  0.516567  0.063930  0.250000  1
  Y  Y3  1  0.936070  0.483433  0.750000  1
  Y  Y4  1  0.483433  0.936070  0.750000  1
  Y  Y5  1  0.063930  0.516567  0.250000  1
  Ir  Ir6  1  0.500000  0.500000  0.500000  1
  Ir  Ir7  1  0.500000  0.500000  0.000000  1
  O  O8  1  0.442410  0.182384  0.534447  1
  O  O9  1  0.817616  0.557590  0.465553  1
  O  O10  1  0.442410  0.182384  0.965553  1
  O  O11  1  0.817616  0.557590  0.034447  1
  O  O12  1  0.557590  0.817616  0.465553  1
  O  O13  1  0.182384  0.442410  0.534447  1
  O  O14  1  0.557590  0.817616  0.034447  1
  O  O15  1  0.182384  0.442410  0.965553  1
  O  O16  1  0.161091  0.879627  0.250000  1
  O  O17  1  0.120373  0.838909  0.750000  1
  O  O18  1  0.838909  0.120373  0.750000  1
  O  O19  1  0.879627  0.161091  0.250000  1
  O  O20  1  0.409280  0.409280  0.250000  1
  O  O21  1  0.590720  0.590720  0.750000  1
