# generated using pymatgen
data_HoLuTaB2Ru5
_symmetry_space_group_name_H-M   'P 1'
_cell_length_a   9.64432376
_cell_length_b   9.64432376
_cell_length_c   3.11788500
_cell_angle_alpha   90.00000000
_cell_angle_beta   90.00000000
_cell_angle_gamma   90.29866031
_symmetry_Int_Tables_number   1
_chemical_formula_structural   HoLuTaB2Ru5
_chemical_formula_sum   'Ho2 Lu2 Ta2 B4 Ru10'
_cell_volume   289.99983749
_cell_formula_units_Z   2
loop_
 _symmetry_equiv_pos_site_id
 _symmetry_equiv_pos_as_xyz
  1  'x, y, z'
loop_
 _atom_site_type_symbol
 _atom_site_label
 _atom_site_symmetry_multiplicity
 _atom_site_fract_x
 _atom_site_fract_y
 _atom_site_fract_z
 _atom_site_occupancy
  Ho  Ho0  1  0.825253  0.674747  0.000000  1
  Ho  Ho1  1  0.174747  0.325253  0.000000  1
  Lu  Lu2  1  0.325301  0.825301  0.000000  1
  Lu  Lu3  1  0.674699  0.174699  0.000000  1
  Ta  Ta4  1  0.500000  0.500000  0.000000  1
  Ta  Ta5  1  0.000000  0.000000  0.000000  1
  B  B6  1  0.619764  0.880236  0.000000  1
  B  B7  1  0.380236  0.119764  0.000000  1
  B  B8  1  0.120796  0.620796  0.000000  1
  B  B9  1  0.879204  0.379204  0.000000  1
  Ru  Ru10  1  0.569492  0.718690  0.500000  1
  Ru  Ru11  1  0.430508  0.281310  0.500000  1
  Ru  Ru12  1  0.073203  0.782557  0.500000  1
  Ru  Ru13  1  0.926797  0.217443  0.500000  1
  Ru  Ru14  1  0.282557  0.573203  0.500000  1
  Ru  Ru15  1  0.717443  0.426797  0.500000  1
  Ru  Ru16  1  0.218690  0.069492  0.500000  1
  Ru  Ru17  1  0.781310  0.930508  0.500000  1
  Ru  Ru18  1  0.500000  0.000000  0.500000  1
  Ru  Ru19  1  0.000000  0.500000  0.500000  1
