# generated using pymatgen
data_Li2NdSi(PPd4)5
_symmetry_space_group_name_H-M   'P 1'
_cell_length_a   8.63390985
_cell_length_b   8.63029504
_cell_length_c   8.63028649
_cell_angle_alpha   60.01627808
_cell_angle_beta   59.98622156
_cell_angle_gamma   59.98616839
_symmetry_Int_Tables_number   1
_chemical_formula_structural   Li2NdSi(PPd4)5
_chemical_formula_sum   'Li2 Nd1 Si1 P5 Pd20'
_cell_volume   454.68025228
_cell_formula_units_Z   1
loop_
 _symmetry_equiv_pos_site_id
 _symmetry_equiv_pos_as_xyz
  1  'x, y, z'
loop_
 _atom_site_type_symbol
 _atom_site_label
 _atom_site_symmetry_multiplicity
 _atom_site_fract_x
 _atom_site_fract_y
 _atom_site_fract_z
 _atom_site_occupancy
  Li  Li0  1  0.250090  0.249910  0.249910  1
  Li  Li1  1  0.999811  0.000189  0.000189  1
  Nd  Nd2  1  0.750171  0.749829  0.749829  1
  Si  Si3  1  0.736832  0.263168  0.263168  1
  P  P4  1  0.261975  0.738026  0.738026  1
  P  P5  1  0.262791  0.736871  0.262024  1
  P  P6  1  0.738314  0.262024  0.736871  1
  P  P7  1  0.262791  0.262023  0.736871  1
  P  P8  1  0.738314  0.736871  0.262024  1
  Pd  Pd9  1  0.379715  0.380748  0.380749  1
  Pd  Pd10  1  0.611297  0.611346  0.611346  1
  Pd  Pd11  1  0.380615  0.380604  0.858167  1
  Pd  Pd12  1  0.380615  0.858167  0.380603  1
  Pd  Pd13  1  0.610923  0.613148  0.165006  1
  Pd  Pd14  1  0.610923  0.165006  0.613148  1
  Pd  Pd15  1  0.858787  0.380749  0.380749  1
  Pd  Pd16  1  0.166010  0.611346  0.611346  1
  Pd  Pd17  1  0.343792  0.999613  0.999613  1
  Pd  Pd18  1  0.656980  0.999614  0.999614  1
  Pd  Pd19  1  0.998879  0.344677  0.657566  1
  Pd  Pd20  1  0.998879  0.657566  0.344677  1
  Pd  Pd21  1  0.000806  0.345302  0.997626  1
  Pd  Pd22  1  0.656265  0.997625  0.345304  1
  Pd  Pd23  1  0.998886  0.657227  0.999094  1
  Pd  Pd24  1  0.344792  0.999095  0.657227  1
  Pd  Pd25  1  0.000806  0.997626  0.345303  1
  Pd  Pd26  1  0.998887  0.999094  0.657227  1
  Pd  Pd27  1  0.656266  0.345303  0.997625  1
  Pd  Pd28  1  0.344792  0.657227  0.999095  1
