# generated using pymatgen
data_Ba6Ca2UBiSe12
_symmetry_space_group_name_H-M   'P 1'
_cell_length_a   8.93158676
_cell_length_b   8.93158586
_cell_length_c   8.93158737
_cell_angle_alpha   92.00603139
_cell_angle_beta   92.00602380
_cell_angle_gamma   92.00603304
_symmetry_Int_Tables_number   1
_chemical_formula_structural   Ba6Ca2UBiSe12
_chemical_formula_sum   'Ba6 Ca2 U1 Bi1 Se12'
_cell_volume   711.16021468
_cell_formula_units_Z   1
loop_
 _symmetry_equiv_pos_site_id
 _symmetry_equiv_pos_as_xyz
  1  'x, y, z'
loop_
 _atom_site_type_symbol
 _atom_site_label
 _atom_site_symmetry_multiplicity
 _atom_site_fract_x
 _atom_site_fract_y
 _atom_site_fract_z
 _atom_site_occupancy
  Ba  Ba0  1  0.865247  0.624519  0.255166  1
  Ba  Ba1  1  0.255166  0.865247  0.624519  1
  Ba  Ba2  1  0.624519  0.255166  0.865247  1
  Ba  Ba3  1  0.744834  0.134753  0.375481  1
  Ba  Ba4  1  0.375481  0.744834  0.134753  1
  Ba  Ba5  1  0.134753  0.375481  0.744834  1
  Ca  Ca6  1  0.256082  0.256082  0.256082  1
  Ca  Ca7  1  0.743918  0.743918  0.743918  1
  U  U8  1  0.000000  0.000000  0.000000  1
  Bi  Bi9  1  0.500000  0.500000  0.500000  1
  Se  Se10  1  0.189403  0.548012  0.407149  1
  Se  Se11  1  0.407149  0.189403  0.548012  1
  Se  Se12  1  0.548012  0.407149  0.189403  1
  Se  Se13  1  0.919384  0.044529  0.703781  1
  Se  Se14  1  0.703781  0.919384  0.044529  1
  Se  Se15  1  0.044529  0.703781  0.919384  1
  Se  Se16  1  0.810597  0.451988  0.592851  1
  Se  Se17  1  0.592851  0.810597  0.451988  1
  Se  Se18  1  0.451988  0.592851  0.810597  1
  Se  Se19  1  0.080616  0.955471  0.296219  1
  Se  Se20  1  0.296219  0.080616  0.955471  1
  Se  Se21  1  0.955471  0.296219  0.080616  1
