# generated using pymatgen
data_Sc8Ir4OsRh3
_symmetry_space_group_name_H-M   'P 1'
_cell_length_a   6.48765801
_cell_length_b   6.49357000
_cell_length_c   6.41595301
_cell_angle_alpha   89.99862417
_cell_angle_beta   89.99447599
_cell_angle_gamma   89.99653078
_symmetry_Int_Tables_number   1
_chemical_formula_structural   Sc8Ir4OsRh3
_chemical_formula_sum   'Sc8 Ir4 Os1 Rh3'
_cell_volume   270.29166075
_cell_formula_units_Z   1
loop_
 _symmetry_equiv_pos_site_id
 _symmetry_equiv_pos_as_xyz
  1  'x, y, z'
loop_
 _atom_site_type_symbol
 _atom_site_label
 _atom_site_symmetry_multiplicity
 _atom_site_fract_x
 _atom_site_fract_y
 _atom_site_fract_z
 _atom_site_occupancy
  Sc  Sc0  1  0.500998  0.998783  0.249656  1
  Sc  Sc1  1  0.500998  0.501198  0.249651  1
  Sc  Sc2  1  0.998722  0.998773  0.249680  1
  Sc  Sc3  1  0.998721  0.501249  0.249680  1
  Sc  Sc4  1  0.999006  0.998782  0.750341  1
  Sc  Sc5  1  0.999000  0.501203  0.750341  1
  Sc  Sc6  1  0.501277  0.998770  0.750322  1
  Sc  Sc7  1  0.501275  0.501237  0.750334  1
  Ir  Ir8  1  0.750004  0.249996  0.000002  1
  Ir  Ir9  1  0.249997  0.750002  0.000012  1
  Ir  Ir10  1  0.749996  0.249998  0.499991  1
  Ir  Ir11  1  0.250000  0.750000  0.500010  1
  Os  Os12  1  0.750005  0.749999  0.000019  1
  Rh  Rh13  1  0.250005  0.249994  0.499974  1
  Rh  Rh14  1  0.749999  0.750021  0.500028  1
  Rh  Rh15  1  0.249997  0.249996  0.999960  1
