# generated using pymatgen
data_Tb4Dy6Y6TlCd3Pt4
_symmetry_space_group_name_H-M   'P 1'
_cell_length_a   9.71296970
_cell_length_b   9.71296969
_cell_length_c   9.71297000
_cell_angle_alpha   60.00000575
_cell_angle_beta   60.00000580
_cell_angle_gamma   60.00000382
_symmetry_Int_Tables_number   1
_chemical_formula_structural   Tb4Dy6Y6TlCd3Pt4
_chemical_formula_sum   'Tb4 Dy6 Y6 Tl1 Cd3 Pt4'
_cell_volume   647.94951256
_cell_formula_units_Z   1
loop_
 _symmetry_equiv_pos_site_id
 _symmetry_equiv_pos_as_xyz
  1  'x, y, z'
loop_
 _atom_site_type_symbol
 _atom_site_label
 _atom_site_symmetry_multiplicity
 _atom_site_fract_x
 _atom_site_fract_y
 _atom_site_fract_z
 _atom_site_occupancy
  Tb  Tb0  1  0.352714  0.352714  0.352714  1
  Tb  Tb1  1  0.352298  0.352298  0.942654  1
  Tb  Tb2  1  0.352298  0.942654  0.352298  1
  Tb  Tb3  1  0.942654  0.352298  0.352298  1
  Dy  Dy4  1  0.810962  0.189074  0.189074  1
  Dy  Dy5  1  0.189045  0.810567  0.810567  1
  Dy  Dy6  1  0.189074  0.810962  0.189074  1
  Dy  Dy7  1  0.810567  0.189045  0.810567  1
  Dy  Dy8  1  0.189074  0.189074  0.810962  1
  Dy  Dy9  1  0.810567  0.810567  0.189045  1
  Y  Y10  1  0.936787  0.564184  0.564184  1
  Y  Y11  1  0.564742  0.935669  0.935669  1
  Y  Y12  1  0.564184  0.936787  0.564184  1
  Y  Y13  1  0.935669  0.564742  0.935669  1
  Y  Y14  1  0.564184  0.564184  0.936787  1
  Y  Y15  1  0.935669  0.935669  0.564742  1
  Tl  Tl16  1  0.583351  0.583351  0.583351  1
  Cd  Cd17  1  0.581924  0.581924  0.252264  1
  Cd  Cd18  1  0.581924  0.252264  0.581924  1
  Cd  Cd19  1  0.252264  0.581924  0.581924  1
  Pt  Pt20  1  0.143112  0.143112  0.143112  1
  Pt  Pt21  1  0.143228  0.143228  0.570479  1
  Pt  Pt22  1  0.143228  0.570479  0.143228  1
  Pt  Pt23  1  0.570479  0.143228  0.143228  1
