# generated using pymatgen
data_Pr8DyHoPb6
_symmetry_space_group_name_H-M   'P 1'
_cell_length_a   9.38722100
_cell_length_b   9.38722087
_cell_length_c   6.90405900
_cell_angle_alpha   90.00000000
_cell_angle_beta   90.00000000
_cell_angle_gamma   119.99999692
_symmetry_Int_Tables_number   1
_chemical_formula_structural   Pr8DyHoPb6
_chemical_formula_sum   'Pr8 Dy1 Ho1 Pb6'
_cell_volume   526.87697298
_cell_formula_units_Z   1
loop_
 _symmetry_equiv_pos_site_id
 _symmetry_equiv_pos_as_xyz
  1  'x, y, z'
loop_
 _atom_site_type_symbol
 _atom_site_label
 _atom_site_symmetry_multiplicity
 _atom_site_fract_x
 _atom_site_fract_y
 _atom_site_fract_z
 _atom_site_occupancy
  Pr  Pr0  1  0.333333  0.666667  0.500000  1
  Pr  Pr1  1  0.666667  0.333333  0.500000  1
  Pr  Pr2  1  0.759238  0.759278  0.751995  1
  Pr  Pr3  1  0.240722  0.999960  0.751995  1
  Pr  Pr4  1  0.000040  0.240762  0.751995  1
  Pr  Pr5  1  0.240722  0.240762  0.248005  1
  Pr  Pr6  1  0.759238  0.999960  0.248005  1
  Pr  Pr7  1  0.000040  0.759278  0.248005  1
  Dy  Dy8  1  0.666667  0.333333  0.000000  1
  Ho  Ho9  1  0.333333  0.666667  0.000000  1
  Pb  Pb10  1  0.396441  0.396574  0.757048  1
  Pb  Pb11  1  0.603426  0.999868  0.757048  1
  Pb  Pb12  1  0.000132  0.603559  0.757048  1
  Pb  Pb13  1  0.603426  0.603559  0.242952  1
  Pb  Pb14  1  0.396441  0.999868  0.242952  1
  Pb  Pb15  1  0.000132  0.396574  0.242952  1
