# generated using pymatgen
data_YEr3FeSi4Rh
_symmetry_space_group_name_H-M   'P 1'
_cell_length_a   5.63239238
_cell_length_b   5.63239267
_cell_length_c   9.99998008
_cell_angle_alpha   63.38541205
_cell_angle_beta   63.38540816
_cell_angle_gamma   43.44657771
_symmetry_Int_Tables_number   1
_chemical_formula_structural   YEr3FeSi4Rh
_chemical_formula_sum   'Y1 Er3 Fe1 Si4 Rh1'
_cell_volume   191.11519471
_cell_formula_units_Z   1
loop_
 _symmetry_equiv_pos_site_id
 _symmetry_equiv_pos_as_xyz
  1  'x, y, z'
loop_
 _atom_site_type_symbol
 _atom_site_label
 _atom_site_symmetry_multiplicity
 _atom_site_fract_x
 _atom_site_fract_y
 _atom_site_fract_z
 _atom_site_occupancy
  Y  Y0  1  0.813674  0.813674  0.108739  1
  Er  Er1  1  0.187295  0.187295  0.890997  1
  Er  Er2  1  0.999508  0.999508  0.327924  1
  Er  Er3  1  0.997397  0.997397  0.675504  1
  Fe  Fe4  1  0.727333  0.727333  0.623308  1
  Si  Si5  1  0.514100  0.514100  0.118364  1
  Si  Si6  1  0.500406  0.500406  0.871084  1
  Si  Si7  1  0.639056  0.639056  0.442545  1
  Si  Si8  1  0.348704  0.348704  0.569554  1
  Rh  Rh9  1  0.272528  0.272528  0.371980  1
