# generated using pymatgen
data_U4Mo2W2C7N
_symmetry_space_group_name_H-M   'P 1'
_cell_length_a   3.21641900
_cell_length_b   5.64098003
_cell_length_c   11.08672766
_cell_angle_alpha   90.28196568
_cell_angle_beta   90.00000000
_cell_angle_gamma   90.00000000
_symmetry_Int_Tables_number   1
_chemical_formula_structural   U4Mo2W2C7N
_chemical_formula_sum   'U4 Mo2 W2 C7 N1'
_cell_volume   201.15243835
_cell_formula_units_Z   1
loop_
 _symmetry_equiv_pos_site_id
 _symmetry_equiv_pos_as_xyz
  1  'x, y, z'
loop_
 _atom_site_type_symbol
 _atom_site_label
 _atom_site_symmetry_multiplicity
 _atom_site_fract_x
 _atom_site_fract_y
 _atom_site_fract_z
 _atom_site_occupancy
  U  U0  1  0.250000  0.079181  0.858822  1
  U  U1  1  0.250000  0.579426  0.641344  1
  U  U2  1  0.750000  0.924727  0.143681  1
  U  U3  1  0.750000  0.417077  0.356685  1
  Mo  Mo4  1  0.250000  0.427022  0.099922  1
  Mo  Mo5  1  0.250000  0.918321  0.399049  1
  W  W6  1  0.750000  0.578806  0.898461  1
  W  W7  1  0.750000  0.078313  0.602457  1
  C  C8  1  0.250000  0.660670  0.255684  1
  C  C9  1  0.750000  0.835684  0.755735  1
  C  C10  1  0.750000  0.337135  0.744147  1
  C  C11  1  0.250000  0.752161  0.993225  1
  C  C12  1  0.250000  0.249916  0.507572  1
  C  C13  1  0.750000  0.251934  0.005975  1
  C  C14  1  0.750000  0.748294  0.493230  1
  N  N15  1  0.250000  0.161333  0.244011  1
