# generated using pymatgen
data_Nb3Ni19B6Ru
_symmetry_space_group_name_H-M   'P 1'
_cell_length_a   7.52726734
_cell_length_b   7.52726768
_cell_length_c   7.52726723
_cell_angle_alpha   60.02333797
_cell_angle_beta   60.02333643
_cell_angle_gamma   60.02333307
_symmetry_Int_Tables_number   1
_chemical_formula_structural   Nb3Ni19B6Ru
_chemical_formula_sum   'Nb3 Ni19 B6 Ru1'
_cell_volume   301.73571663
_cell_formula_units_Z   1
loop_
 _symmetry_equiv_pos_site_id
 _symmetry_equiv_pos_as_xyz
  1  'x, y, z'
loop_
 _atom_site_type_symbol
 _atom_site_label
 _atom_site_symmetry_multiplicity
 _atom_site_fract_x
 _atom_site_fract_y
 _atom_site_fract_z
 _atom_site_occupancy
  Nb  Nb0  1  0.248283  0.248283  0.248283  1
  Nb  Nb1  1  0.749955  0.749955  0.749955  1
  Nb  Nb2  1  0.000127  0.000127  0.000127  1
  Ni  Ni3  1  0.615122  0.615122  0.615122  1
  Ni  Ni4  1  0.385505  0.385505  0.843188  1
  Ni  Ni5  1  0.385505  0.843188  0.385505  1
  Ni  Ni6  1  0.620348  0.620348  0.147942  1
  Ni  Ni7  1  0.620348  0.147942  0.620348  1
  Ni  Ni8  1  0.843188  0.385505  0.385505  1
  Ni  Ni9  1  0.147942  0.620348  0.620348  1
  Ni  Ni10  1  0.343601  0.000050  0.000050  1
  Ni  Ni11  1  0.656960  0.000102  0.000102  1
  Ni  Ni12  1  0.995850  0.343311  0.660197  1
  Ni  Ni13  1  0.995850  0.660197  0.343311  1
  Ni  Ni14  1  0.000050  0.343601  0.000050  1
  Ni  Ni15  1  0.660197  0.995850  0.343311  1
  Ni  Ni16  1  0.000102  0.656960  0.000102  1
  Ni  Ni17  1  0.343311  0.995850  0.660197  1
  Ni  Ni18  1  0.000050  0.000050  0.343601  1
  Ni  Ni19  1  0.000102  0.000102  0.656960  1
  Ni  Ni20  1  0.660197  0.343311  0.995850  1
  Ni  Ni21  1  0.343311  0.660197  0.995850  1
  B  B22  1  0.737150  0.266381  0.266381  1
  B  B23  1  0.267217  0.732293  0.732293  1
  B  B24  1  0.266381  0.737150  0.266381  1
  B  B25  1  0.732293  0.267217  0.732293  1
  B  B26  1  0.266381  0.266381  0.737150  1
  B  B27  1  0.732293  0.732293  0.267217  1
  Ru  Ru28  1  0.382380  0.382380  0.382380  1
