# generated using pymatgen
data_Ca2ScRhO6
_symmetry_space_group_name_H-M   'P 1'
_cell_length_a   5.66047600
_cell_length_b   5.49188061
_cell_length_c   9.60353925
_cell_angle_alpha   54.78252402
_cell_angle_beta   90.00000000
_cell_angle_gamma   90.00000000
_symmetry_Int_Tables_number   1
_chemical_formula_structural   Ca2ScRhO6
_chemical_formula_sum   'Ca4 Sc2 Rh2 O12'
_cell_volume   243.89952553
_cell_formula_units_Z   2
loop_
 _symmetry_equiv_pos_site_id
 _symmetry_equiv_pos_as_xyz
  1  'x, y, z'
loop_
 _atom_site_type_symbol
 _atom_site_label
 _atom_site_symmetry_multiplicity
 _atom_site_fract_x
 _atom_site_fract_y
 _atom_site_fract_z
 _atom_site_occupancy
  Ca  Ca0  1  0.445691  0.235532  0.750727  1
  Ca  Ca1  1  0.554309  0.764468  0.249273  1
  Ca  Ca2  1  0.945691  0.764468  0.749273  1
  Ca  Ca3  1  0.054309  0.235532  0.250727  1
  Sc  Sc4  1  0.000000  0.000000  0.000000  1
  Sc  Sc5  1  0.500000  0.000000  0.500000  1
  Rh  Rh6  1  0.000000  0.500000  0.500000  1
  Rh  Rh7  1  0.500000  0.500000  0.000000  1
  O  O8  1  0.031732  0.353550  0.743004  1
  O  O9  1  0.968268  0.646450  0.256996  1
  O  O10  1  0.531732  0.646450  0.756996  1
  O  O11  1  0.468268  0.353550  0.243004  1
  O  O12  1  0.698048  0.840839  0.950720  1
  O  O13  1  0.301952  0.159161  0.049280  1
  O  O14  1  0.198048  0.159161  0.549280  1
  O  O15  1  0.801952  0.840839  0.450720  1
  O  O16  1  0.211168  0.745564  0.947806  1
  O  O17  1  0.788832  0.254436  0.052194  1
  O  O18  1  0.711168  0.254436  0.552194  1
  O  O19  1  0.288832  0.745564  0.447806  1
