# generated using pymatgen
data_Tb4Al12Ga3(SiIr2)3
_symmetry_space_group_name_H-M   'P 1'
_cell_length_a   7.53306315
_cell_length_b   7.50229769
_cell_length_c   9.44080491
_cell_angle_alpha   90.09210147
_cell_angle_beta   89.87961917
_cell_angle_gamma   119.83894640
_symmetry_Int_Tables_number   1
_chemical_formula_structural   Tb4Al12Ga3(SiIr2)3
_chemical_formula_sum   'Tb4 Al12 Ga3 Si3 Ir6'
_cell_volume   462.81457867
_cell_formula_units_Z   1
loop_
 _symmetry_equiv_pos_site_id
 _symmetry_equiv_pos_as_xyz
  1  'x, y, z'
loop_
 _atom_site_type_symbol
 _atom_site_label
 _atom_site_symmetry_multiplicity
 _atom_site_fract_x
 _atom_site_fract_y
 _atom_site_fract_z
 _atom_site_occupancy
  Tb  Tb0  1  0.996386  0.669174  0.249157  1
  Tb  Tb1  1  0.006093  0.338377  0.753810  1
  Tb  Tb2  1  0.676397  0.000391  0.248441  1
  Tb  Tb3  1  0.315017  0.991736  0.746146  1
  Al  Al4  1  0.002933  0.329788  0.429698  1
  Al  Al5  1  0.666087  0.001176  0.575212  1
  Al  Al6  1  0.660065  0.996939  0.923657  1
  Al  Al7  1  0.339959  0.005340  0.073908  1
  Al  Al8  1  0.334434  0.331998  0.558341  1
  Al  Al9  1  0.662106  0.666897  0.442275  1
  Al  Al10  1  0.662375  0.666983  0.059511  1
  Al  Al11  1  0.337011  0.332805  0.940992  1
  Al  Al12  1  0.335736  0.548275  0.250708  1
  Al  Al13  1  0.662939  0.451066  0.750988  1
  Al  Al14  1  0.550856  0.342996  0.250491  1
  Al  Al15  1  0.453184  0.659964  0.750281  1
  Ga  Ga16  1  0.135426  0.131943  0.251035  1
  Ga  Ga17  1  0.861515  0.867913  0.750657  1
  Ga  Ga18  1  0.343795  0.004856  0.416984  1
  Si  Si19  1  0.001865  0.330064  0.074162  1
  Si  Si20  1  0.997322  0.670344  0.932689  1
  Si  Si21  1  0.996369  0.662472  0.564797  1
  Ir  Ir22  1  0.687690  0.337720  0.001718  1
  Ir  Ir23  1  0.312132  0.662800  0.998898  1
  Ir  Ir24  1  0.319600  0.667807  0.503274  1
  Ir  Ir25  1  0.682559  0.339251  0.500825  1
  Ir  Ir26  1  0.000810  0.000174  0.000067  1
  Ir  Ir27  1  0.999337  0.990753  0.501276  1
