# generated using pymatgen
data_YLuAl2Co2(Ni2B)2
_symmetry_space_group_name_H-M   'P 1'
_cell_length_a   5.13882400
_cell_length_b   5.13882352
_cell_length_c   6.64186000
_cell_angle_alpha   90.00000000
_cell_angle_beta   90.00000000
_cell_angle_gamma   120.00001595
_symmetry_Int_Tables_number   1
_chemical_formula_structural   YLuAl2Co2(Ni2B)2
_chemical_formula_sum   'Y1 Lu1 Al2 Co2 Ni4 B2'
_cell_volume   151.89648570
_cell_formula_units_Z   1
loop_
 _symmetry_equiv_pos_site_id
 _symmetry_equiv_pos_as_xyz
  1  'x, y, z'
loop_
 _atom_site_type_symbol
 _atom_site_label
 _atom_site_symmetry_multiplicity
 _atom_site_fract_x
 _atom_site_fract_y
 _atom_site_fract_z
 _atom_site_occupancy
  Y  Y0  1  0.000000  0.000000  0.500000  1
  Lu  Lu1  1  0.000000  0.000000  0.000000  1
  Al  Al2  1  0.329327  0.664664  0.500000  1
  Al  Al3  1  0.670673  0.335336  0.500000  1
  Co  Co4  1  0.000000  0.500000  0.201958  1
  Co  Co5  1  0.000000  0.500000  0.798042  1
  Ni  Ni6  1  0.500000  0.000000  0.205684  1
  Ni  Ni7  1  0.500000  0.000000  0.794316  1
  Ni  Ni8  1  0.500000  0.500000  0.205684  1
  Ni  Ni9  1  0.500000  0.500000  0.794316  1
  B  B10  1  0.326793  0.663397  0.000000  1
  B  B11  1  0.673207  0.336603  0.000000  1
