# generated using pymatgen
data_Hf6InFeF30
_symmetry_space_group_name_H-M   'P 1'
_cell_length_a   7.91184090
_cell_length_b   7.91184092
_cell_length_c   7.91184060
_cell_angle_alpha   99.87924102
_cell_angle_beta   99.87924982
_cell_angle_gamma   99.87926055
_symmetry_Int_Tables_number   1
_chemical_formula_structural   Hf6InFeF30
_chemical_formula_sum   'Hf6 In1 Fe1 F30'
_cell_volume   470.25843390
_cell_formula_units_Z   1
loop_
 _symmetry_equiv_pos_site_id
 _symmetry_equiv_pos_as_xyz
  1  'x, y, z'
loop_
 _atom_site_type_symbol
 _atom_site_label
 _atom_site_symmetry_multiplicity
 _atom_site_fract_x
 _atom_site_fract_y
 _atom_site_fract_z
 _atom_site_occupancy
  Hf  Hf0  1  0.679351  0.820649  0.250000  1
  Hf  Hf1  1  0.750000  0.319068  0.180932  1
  Hf  Hf2  1  0.820649  0.250000  0.679351  1
  Hf  Hf3  1  0.180932  0.750000  0.319068  1
  Hf  Hf4  1  0.250000  0.679351  0.820649  1
  Hf  Hf5  1  0.319068  0.180932  0.750000  1
  In  In6  1  0.250000  0.250000  0.250000  1
  Fe  Fe7  1  0.750000  0.750000  0.750000  1
  F  F8  1  0.965318  0.534682  0.250000  1
  F  F9  1  0.287508  0.522988  0.279021  1
  F  F10  1  0.147605  0.673286  0.047570  1
  F  F11  1  0.750000  0.041438  0.458562  1
  F  F12  1  0.777247  0.007815  0.774745  1
  F  F13  1  0.550973  0.182186  0.653180  1
  F  F14  1  0.977012  0.212492  0.220979  1
  F  F15  1  0.212492  0.220979  0.977012  1
  F  F16  1  0.673286  0.047570  0.147605  1
  F  F17  1  0.826714  0.352395  0.452430  1
  F  F18  1  0.534682  0.250000  0.965318  1
  F  F19  1  0.047570  0.147605  0.673286  1
  F  F20  1  0.352395  0.452430  0.826714  1
  F  F21  1  0.522988  0.279021  0.287508  1
  F  F22  1  0.279021  0.287508  0.522988  1
  F  F23  1  0.722753  0.725255  0.492185  1
  F  F24  1  0.492185  0.722753  0.725255  1
  F  F25  1  0.653180  0.550973  0.182186  1
  F  F26  1  0.949027  0.846820  0.317814  1
  F  F27  1  0.458562  0.750000  0.041438  1
  F  F28  1  0.182186  0.653180  0.550973  1
  F  F29  1  0.317814  0.949027  0.846820  1
  F  F30  1  0.774745  0.777247  0.007815  1
  F  F31  1  0.007815  0.774745  0.777247  1
  F  F32  1  0.452430  0.826714  0.352395  1
  F  F33  1  0.220979  0.977012  0.212492  1
  F  F34  1  0.250000  0.965318  0.534682  1
  F  F35  1  0.846820  0.317814  0.949027  1
  F  F36  1  0.725255  0.492185  0.722753  1
  F  F37  1  0.041438  0.458562  0.750000  1
