# generated using pymatgen
data_Ce7HoTm2(SiB4)4
_symmetry_space_group_name_H-M   'P 1'
_cell_length_a   7.30148028
_cell_length_b   7.30148126
_cell_length_c   8.22357501
_cell_angle_alpha   89.98374548
_cell_angle_beta   90.01625275
_cell_angle_gamma   90.04550143
_symmetry_Int_Tables_number   1
_chemical_formula_structural   Ce7HoTm2(SiB4)4
_chemical_formula_sum   'Ce7 Ho1 Tm2 Si4 B16'
_cell_volume   438.41194458
_cell_formula_units_Z   1
loop_
 _symmetry_equiv_pos_site_id
 _symmetry_equiv_pos_as_xyz
  1  'x, y, z'
loop_
 _atom_site_type_symbol
 _atom_site_label
 _atom_site_symmetry_multiplicity
 _atom_site_fract_x
 _atom_site_fract_y
 _atom_site_fract_z
 _atom_site_occupancy
  Ce  Ce0  1  0.682328  0.182547  0.227555  1
  Ce  Ce1  1  0.317590  0.817559  0.772590  1
  Ce  Ce2  1  0.317453  0.817672  0.227555  1
  Ce  Ce3  1  0.817675  0.682325  0.227279  1
  Ce  Ce4  1  0.818585  0.681415  0.772525  1
  Ce  Ce5  1  0.682441  0.182410  0.772590  1
  Ce  Ce6  1  0.181695  0.318305  0.773766  1
  Ho  Ho7  1  0.181599  0.318401  0.219497  1
  Tm  Tm8  1  0.000973  0.000491  0.498440  1
  Tm  Tm9  1  0.499509  0.499027  0.498440  1
  Si  Si10  1  0.116529  0.614770  0.498648  1
  Si  Si11  1  0.885230  0.383471  0.498648  1
  Si  Si12  1  0.382837  0.117163  0.498369  1
  Si  Si13  1  0.614984  0.885016  0.499304  1
  B  B14  1  0.173039  0.039408  0.000637  1
  B  B15  1  0.827751  0.961598  0.001391  1
  B  B16  1  0.960980  0.172872  0.000451  1
  B  B17  1  0.327128  0.539020  0.000451  1
  B  B18  1  0.039614  0.827777  0.001375  1
  B  B19  1  0.672223  0.460386  0.001375  1
  B  B20  1  0.538402  0.672249  0.001391  1
  B  B21  1  0.460592  0.326961  0.000637  1
  B  B22  1  0.091520  0.591048  0.001402  1
  B  B23  1  0.908952  0.408480  0.001402  1
  B  B24  1  0.408949  0.091051  0.000049  1
  B  B25  1  0.591138  0.908862  0.000777  1
  B  B26  1  0.000767  0.999908  0.161044  1
  B  B27  1  0.999980  0.000557  0.840685  1
  B  B28  1  0.499443  0.500020  0.840685  1
  B  B29  1  0.500092  0.499233  0.161044  1
