# generated using pymatgen
data_Pr5P12Ru18Pt
_symmetry_space_group_name_H-M   'P 1'
_cell_length_a   12.60247600
_cell_length_b   12.69050304
_cell_length_c   4.03314200
_cell_angle_alpha   90.00000000
_cell_angle_beta   90.00000000
_cell_angle_gamma   119.77080812
_symmetry_Int_Tables_number   1
_chemical_formula_structural   Pr5P12Ru18Pt
_chemical_formula_sum   'Pr5 P12 Ru18 Pt1'
_cell_volume   559.89583141
_cell_formula_units_Z   1
loop_
 _symmetry_equiv_pos_site_id
 _symmetry_equiv_pos_as_xyz
  1  'x, y, z'
loop_
 _atom_site_type_symbol
 _atom_site_label
 _atom_site_symmetry_multiplicity
 _atom_site_fract_x
 _atom_site_fract_y
 _atom_site_fract_z
 _atom_site_occupancy
  Pr  Pr0  1  0.817173  0.000000  0.500000  1
  Pr  Pr1  1  0.000802  0.816086  0.500000  1
  Pr  Pr2  1  0.184716  0.183914  0.500000  1
  Pr  Pr3  1  0.331953  0.663011  0.000000  1
  Pr  Pr4  1  0.668943  0.336989  0.000000  1
  P  P5  1  0.189617  0.000000  0.000000  1
  P  P6  1  0.999408  0.187145  0.000000  1
  P  P7  1  0.812262  0.812855  0.000000  1
  P  P8  1  0.522455  0.694957  0.500000  1
  P  P9  1  0.297115  0.819074  0.500000  1
  P  P10  1  0.169598  0.473855  0.500000  1
  P  P11  1  0.478041  0.180926  0.500000  1
  P  P12  1  0.695743  0.526145  0.500000  1
  P  P13  1  0.827498  0.305043  0.500000  1
  P  P14  1  0.632751  0.000000  0.000000  1
  P  P15  1  0.999214  0.624157  0.000000  1
  P  P16  1  0.375057  0.375843  0.000000  1
  Ru  Ru17  1  0.999005  0.444788  0.000000  1
  Ru  Ru18  1  0.554217  0.555212  0.000000  1
  Ru  Ru19  1  0.291529  0.000000  0.500000  1
  Ru  Ru20  1  0.998485  0.284601  0.500000  1
  Ru  Ru21  1  0.713885  0.715399  0.500000  1
  Ru  Ru22  1  0.619991  0.805447  0.000000  1
  Ru  Ru23  1  0.195451  0.815505  0.000000  1
  Ru  Ru24  1  0.183487  0.376801  0.000000  1
  Ru  Ru25  1  0.379945  0.184495  0.000000  1
  Ru  Ru26  1  0.806686  0.623199  0.000000  1
  Ru  Ru27  1  0.814544  0.194553  0.000000  1
  Ru  Ru28  1  0.506472  0.875226  0.500000  1
  Ru  Ru29  1  0.120631  0.629313  0.500000  1
  Ru  Ru30  1  0.366055  0.491630  0.500000  1
  Ru  Ru31  1  0.491318  0.370687  0.500000  1
  Ru  Ru32  1  0.874425  0.508370  0.500000  1
  Ru  Ru33  1  0.631246  0.124774  0.500000  1
  Ru  Ru34  1  0.001430  0.000000  0.000000  1
  Pt  Pt35  1  0.448852  0.000000  0.000000  1
