# generated using pymatgen
data_LiLa4Nd4CdIr2
_symmetry_space_group_name_H-M   'P 1'
_cell_length_a   10.04657504
_cell_length_b   10.04657539
_cell_length_c   10.15640700
_cell_angle_alpha   59.63769724
_cell_angle_beta   59.63769606
_cell_angle_gamma   60.68410878
_symmetry_Int_Tables_number   1
_chemical_formula_structural   LiLa4Nd4CdIr2
_chemical_formula_sum   'Li2 La8 Nd8 Cd2 Ir4'
_cell_volume   724.48753157
_cell_formula_units_Z   2
loop_
 _symmetry_equiv_pos_site_id
 _symmetry_equiv_pos_as_xyz
  1  'x, y, z'
loop_
 _atom_site_type_symbol
 _atom_site_label
 _atom_site_symmetry_multiplicity
 _atom_site_fract_x
 _atom_site_fract_y
 _atom_site_fract_z
 _atom_site_occupancy
  Li  Li0  1  0.572094  0.572094  0.574582  1
  Li  Li1  1  0.572094  0.572094  0.281229  1
  La  La2  1  0.346009  0.346009  0.349806  1
  La  La3  1  0.346009  0.346009  0.958176  1
  La  La4  1  0.348415  0.962136  0.344724  1
  La  La5  1  0.962136  0.348415  0.344724  1
  La  La6  1  0.812729  0.187982  0.188393  1
  La  La7  1  0.187982  0.812729  0.810897  1
  La  La8  1  0.187982  0.812729  0.188393  1
  La  La9  1  0.812729  0.187982  0.810897  1
  Nd  Nd10  1  0.194838  0.194838  0.805162  1
  Nd  Nd11  1  0.812735  0.812735  0.187265  1
  Nd  Nd12  1  0.936204  0.564301  0.565258  1
  Nd  Nd13  1  0.564301  0.936204  0.934237  1
  Nd  Nd14  1  0.564301  0.936204  0.565258  1
  Nd  Nd15  1  0.936204  0.564301  0.934237  1
  Nd  Nd16  1  0.562465  0.562465  0.937535  1
  Nd  Nd17  1  0.937719  0.937719  0.562281  1
  Cd  Cd18  1  0.582649  0.253730  0.581811  1
  Cd  Cd19  1  0.253730  0.582649  0.581811  1
  Ir  Ir20  1  0.140677  0.140677  0.143260  1
  Ir  Ir21  1  0.140677  0.140677  0.575384  1
  Ir  Ir22  1  0.147728  0.577593  0.137339  1
  Ir  Ir23  1  0.577593  0.147728  0.137339  1
