# generated using pymatgen
data_Sb2PdF12
_symmetry_space_group_name_H-M   'P 1'
_cell_length_a   5.39896898
_cell_length_b   5.69149933
_cell_length_c   9.32632508
_cell_angle_alpha   73.70018026
_cell_angle_beta   88.60344526
_cell_angle_gamma   62.23550904
_symmetry_Int_Tables_number   1
_chemical_formula_structural   Sb2PdF12
_chemical_formula_sum   'Sb2 Pd1 F12'
_cell_volume   241.47808146
_cell_formula_units_Z   1
loop_
 _symmetry_equiv_pos_site_id
 _symmetry_equiv_pos_as_xyz
  1  'x, y, z'
loop_
 _atom_site_type_symbol
 _atom_site_label
 _atom_site_symmetry_multiplicity
 _atom_site_fract_x
 _atom_site_fract_y
 _atom_site_fract_z
 _atom_site_occupancy
  Sb  Sb0  1  0.774913  0.004743  0.240341  1
  Sb  Sb1  1  0.225087  0.995257  0.759659  1
  Pd  Pd2  1  0.500000  0.500000  0.500000  1
  F  F3  1  0.947562  0.233974  0.206789  1
  F  F4  1  0.052438  0.766026  0.793211  1
  F  F5  1  0.021482  0.757974  0.140204  1
  F  F6  1  0.465990  0.782511  0.628908  1
  F  F7  1  0.534010  0.217489  0.371092  1
  F  F8  1  0.957688  0.235722  0.571942  1
  F  F9  1  0.042312  0.764278  0.428058  1
  F  F10  1  0.402833  0.235347  0.689387  1
  F  F11  1  0.597167  0.764653  0.310613  1
  F  F12  1  0.513998  0.775530  0.922166  1
  F  F13  1  0.486002  0.224470  0.077834  1
  F  F14  1  0.978518  0.242026  0.859796  1
