# generated using pymatgen
data_Sm2Sn(PRh2)6
_symmetry_space_group_name_H-M   'P 1'
_cell_length_a   3.88879436
_cell_length_b   9.82040566
_cell_length_c   9.81376953
_cell_angle_alpha   119.98247707
_cell_angle_beta   89.96367052
_cell_angle_gamma   90.02358666
_symmetry_Int_Tables_number   1
_chemical_formula_structural   Sm2Sn(PRh2)6
_chemical_formula_sum   'Sm2 Sn1 P6 Rh12'
_cell_volume   324.62910945
_cell_formula_units_Z   1
loop_
 _symmetry_equiv_pos_site_id
 _symmetry_equiv_pos_as_xyz
  1  'x, y, z'
loop_
 _atom_site_type_symbol
 _atom_site_label
 _atom_site_symmetry_multiplicity
 _atom_site_fract_x
 _atom_site_fract_y
 _atom_site_fract_z
 _atom_site_occupancy
  Sm  Sm0  1  0.247033  0.666691  0.333502  1
  Sm  Sm1  1  0.752967  0.333309  0.666498  1
  Sn  Sn2  1  0.500000  0.000000  0.000000  1
  P  P3  1  0.746044  0.884513  0.596047  1
  P  P4  1  0.746428  0.404117  0.288441  1
  P  P5  1  0.746230  0.711560  0.115736  1
  P  P6  1  0.253956  0.115487  0.403953  1
  P  P7  1  0.253572  0.595883  0.711559  1
  P  P8  1  0.253770  0.288440  0.884264  1
  Rh  Rh9  1  0.759625  0.125778  0.839387  1
  Rh  Rh10  1  0.759885  0.160788  0.286266  1
  Rh  Rh11  1  0.759291  0.713582  0.874385  1
  Rh  Rh12  1  0.240375  0.874222  0.160613  1
  Rh  Rh13  1  0.240115  0.839212  0.713734  1
  Rh  Rh14  1  0.240709  0.286418  0.125615  1
  Rh  Rh15  1  0.747011  0.614320  0.548858  1
  Rh  Rh16  1  0.747159  0.451486  0.065713  1
  Rh  Rh17  1  0.747133  0.934553  0.385745  1
  Rh  Rh18  1  0.252989  0.385680  0.451142  1
  Rh  Rh19  1  0.252841  0.548514  0.934287  1
  Rh  Rh20  1  0.252867  0.065447  0.614255  1
