# generated using pymatgen
data_Eu3Al2Cl2O5
_symmetry_space_group_name_H-M   'P 1'
_cell_length_a   8.16876839
_cell_length_b   8.16853579
_cell_length_c   8.16980006
_cell_angle_alpha   109.46190116
_cell_angle_beta   109.48370451
_cell_angle_gamma   109.47208167
_symmetry_Int_Tables_number   1
_chemical_formula_structural   Eu3Al2Cl2O5
_chemical_formula_sum   'Eu6 Al4 Cl4 O10'
_cell_volume   419.63214343
_cell_formula_units_Z   2
loop_
 _symmetry_equiv_pos_site_id
 _symmetry_equiv_pos_as_xyz
  1  'x, y, z'
loop_
 _atom_site_type_symbol
 _atom_site_label
 _atom_site_symmetry_multiplicity
 _atom_site_fract_x
 _atom_site_fract_y
 _atom_site_fract_z
 _atom_site_occupancy
  Eu  Eu0  1  0.661578  0.411571  0.250002  1
  Eu  Eu1  1  0.250009  0.661497  0.411498  1
  Eu  Eu2  1  0.838426  0.088436  0.749999  1
  Eu  Eu3  1  0.411530  0.249994  0.661525  1
  Eu  Eu4  1  0.088464  0.749996  0.838461  1
  Eu  Eu5  1  0.750000  0.838505  0.088507  1
  Al  Al6  1  0.499986  0.000001  0.306957  1
  Al  Al7  1  0.306942  0.499992  0.999984  1
  Al  Al8  1  0.000010  0.306960  0.500009  1
  Al  Al9  1  0.193049  0.193039  0.193056  1
  Cl  Cl10  1  0.999970  0.889770  0.500005  1
  Cl  Cl11  1  0.610240  0.610237  0.610203  1
  Cl  Cl12  1  0.889762  0.499963  0.999995  1
  Cl  Cl13  1  0.500034  0.000036  0.889803  1
  O  O14  1  0.978271  0.978260  0.978285  1
  O  O15  1  0.000023  0.521736  0.500000  1
  O  O16  1  0.521731  0.500018  0.999988  1
  O  O17  1  0.499974  0.999982  0.521716  1
  O  O18  1  0.104731  0.354736  0.749999  1
  O  O19  1  0.749997  0.104763  0.354758  1
  O  O20  1  0.145270  0.250000  0.395270  1
  O  O21  1  0.249996  0.395242  0.145242  1
  O  O22  1  0.395262  0.145262  0.249998  1
  O  O23  1  0.354741  0.749999  0.104739  1
