# generated using pymatgen
data_MgScTa2Ga2(Co5B2)2
_symmetry_space_group_name_H-M   'P 1'
_cell_length_a   8.57808500
_cell_length_b   8.57808452
_cell_length_c   3.02817100
_cell_angle_alpha   90.00000000
_cell_angle_beta   90.00000000
_cell_angle_gamma   89.54918794
_symmetry_Int_Tables_number   1
_chemical_formula_structural   MgScTa2Ga2(Co5B2)2
_chemical_formula_sum   'Mg1 Sc1 Ta2 Ga2 Co10 B4'
_cell_volume   222.81663918
_cell_formula_units_Z   1
loop_
 _symmetry_equiv_pos_site_id
 _symmetry_equiv_pos_as_xyz
  1  'x, y, z'
loop_
 _atom_site_type_symbol
 _atom_site_label
 _atom_site_symmetry_multiplicity
 _atom_site_fract_x
 _atom_site_fract_y
 _atom_site_fract_z
 _atom_site_occupancy
  Mg  Mg0  1  0.822746  0.322746  0.000000  1
  Sc  Sc1  1  0.174601  0.674601  0.000000  1
  Ta  Ta2  1  0.324496  0.177972  0.000000  1
  Ta  Ta3  1  0.677972  0.824496  0.000000  1
  Ga  Ga4  1  0.000793  0.998248  0.000000  1
  Ga  Ga5  1  0.498248  0.500793  0.000000  1
  Co  Co6  1  0.501037  0.001037  0.500000  1
  Co  Co7  1  0.998907  0.498907  0.500000  1
  Co  Co8  1  0.077368  0.217620  0.500000  1
  Co  Co9  1  0.225327  0.937606  0.500000  1
  Co  Co10  1  0.776344  0.061780  0.500000  1
  Co  Co11  1  0.924359  0.780398  0.500000  1
  Co  Co12  1  0.437606  0.725327  0.500000  1
  Co  Co13  1  0.561780  0.276344  0.500000  1
  Co  Co14  1  0.717620  0.577368  0.500000  1
  Co  Co15  1  0.280398  0.424359  0.500000  1
  B  B16  1  0.621533  0.121533  0.000000  1
  B  B17  1  0.118280  0.378474  0.000000  1
  B  B18  1  0.878474  0.618280  0.000000  1
  B  B19  1  0.382109  0.882109  0.000000  1
