# generated using pymatgen
data_TaTc5As14
_symmetry_space_group_name_H-M   'P 1'
_cell_length_a   7.67657474
_cell_length_b   7.67657456
_cell_length_c   7.67657418
_cell_angle_alpha   109.16205135
_cell_angle_beta   110.09135699
_cell_angle_gamma   109.16204005
_symmetry_Int_Tables_number   1
_chemical_formula_structural   TaTc5As14
_chemical_formula_sum   'Ta1 Tc5 As14'
_cell_volume   348.21085337
_cell_formula_units_Z   1
loop_
 _symmetry_equiv_pos_site_id
 _symmetry_equiv_pos_as_xyz
  1  'x, y, z'
loop_
 _atom_site_type_symbol
 _atom_site_label
 _atom_site_symmetry_multiplicity
 _atom_site_fract_x
 _atom_site_fract_y
 _atom_site_fract_z
 _atom_site_occupancy
  Ta  Ta0  1  0.658748  0.000000  0.658748  1
  Tc  Tc1  1  0.334405  0.000000  0.334405  1
  Tc  Tc2  1  0.999519  0.341268  0.340787  1
  Tc  Tc3  1  0.999519  0.658732  0.658250  1
  Tc  Tc4  1  0.340787  0.341268  0.999519  1
  Tc  Tc5  1  0.658250  0.658732  0.999519  1
  As  As6  1  0.748673  0.500000  0.248673  1
  As  As7  1  0.500162  0.747242  0.247405  1
  As  As8  1  0.500162  0.252758  0.752921  1
  As  As9  1  0.752921  0.252758  0.500162  1
  As  As10  1  0.247405  0.747242  0.500162  1
  As  As11  1  0.248673  0.500000  0.748673  1
  As  As12  1  0.000550  0.000000  0.330823  1
  As  As13  1  0.670003  0.000000  0.004013  1
  As  As14  1  0.000550  0.669728  0.000550  1
  As  As15  1  0.330823  0.330272  0.330823  1
  As  As16  1  0.004013  0.334010  0.004013  1
  As  As17  1  0.670003  0.665990  0.670003  1
  As  As18  1  0.330823  0.000000  0.000550  1
  As  As19  1  0.004013  0.000000  0.670003  1
