# generated using pymatgen
data_Lu8Ta7Ti4Si16Mo
_symmetry_space_group_name_H-M   'P 1'
_cell_length_a   6.80252534
_cell_length_b   6.96550037
_cell_length_c   13.21449329
_cell_angle_alpha   90.05749759
_cell_angle_beta   89.98002036
_cell_angle_gamma   89.92748572
_symmetry_Int_Tables_number   1
_chemical_formula_structural   Lu8Ta7Ti4Si16Mo
_chemical_formula_sum   'Lu8 Ta7 Ti4 Si16 Mo1'
_cell_volume   626.14138518
_cell_formula_units_Z   1
loop_
 _symmetry_equiv_pos_site_id
 _symmetry_equiv_pos_as_xyz
  1  'x, y, z'
loop_
 _atom_site_type_symbol
 _atom_site_label
 _atom_site_symmetry_multiplicity
 _atom_site_fract_x
 _atom_site_fract_y
 _atom_site_fract_z
 _atom_site_occupancy
  Lu  Lu0  1  0.503780  0.328304  0.095880  1
  Lu  Lu1  1  0.002623  0.172660  0.403663  1
  Lu  Lu2  1  0.495737  0.673465  0.596111  1
  Lu  Lu3  1  0.997223  0.828305  0.903101  1
  Lu  Lu4  1  0.498292  0.670639  0.903047  1
  Lu  Lu5  1  0.999505  0.829345  0.595534  1
  Lu  Lu6  1  0.500946  0.328567  0.406059  1
  Lu  Lu7  1  0.001439  0.171379  0.096087  1
  Ta  Ta8  1  0.165060  0.676507  0.375228  1
  Ta  Ta9  1  0.663358  0.824067  0.126510  1
  Ta  Ta10  1  0.837611  0.323259  0.872098  1
  Ta  Ta11  1  0.662527  0.009223  0.749182  1
  Ta  Ta12  1  0.162451  0.491181  0.749154  1
  Ta  Ta13  1  0.337214  0.992533  0.250483  1
  Ta  Ta14  1  0.838125  0.509065  0.250176  1
  Ti  Ti15  1  0.836503  0.323302  0.624738  1
  Ti  Ti16  1  0.333962  0.174959  0.873859  1
  Ti  Ti17  1  0.165255  0.675853  0.125738  1
  Ti  Ti18  1  0.663306  0.824927  0.375239  1
  Si  Si19  1  0.661186  0.035804  0.541791  1
  Si  Si20  1  0.165259  0.465108  0.959609  1
  Si  Si21  1  0.335501  0.965032  0.039894  1
  Si  Si22  1  0.836375  0.534847  0.459919  1
  Si  Si23  1  0.336325  0.966268  0.460976  1
  Si  Si24  1  0.838283  0.535262  0.040826  1
  Si  Si25  1  0.661844  0.035304  0.958506  1
  Si  Si26  1  0.164069  0.460926  0.542288  1
  Si  Si27  1  0.538306  0.376536  0.748279  1
  Si  Si28  1  0.042939  0.120938  0.748156  1
  Si  Si29  1  0.459615  0.621425  0.251041  1
  Si  Si30  1  0.959718  0.878458  0.250182  1
  Si  Si31  1  0.794384  0.629580  0.748405  1
  Si  Si32  1  0.295874  0.870927  0.750813  1
  Si  Si33  1  0.205890  0.369962  0.249467  1
  Si  Si34  1  0.704729  0.131243  0.250944  1
  Mo  Mo35  1  0.334786  0.174839  0.627013  1
