# generated using pymatgen
data_Th3ScGa2NiRu2
_symmetry_space_group_name_H-M   'P 1'
_cell_length_a   7.26543065
_cell_length_b   7.14056156
_cell_length_c   4.13343300
_cell_angle_alpha   90.00000000
_cell_angle_beta   90.00000000
_cell_angle_gamma   119.43309532
_symmetry_Int_Tables_number   1
_chemical_formula_structural   Th3ScGa2NiRu2
_chemical_formula_sum   'Th3 Sc1 Ga2 Ni1 Ru2'
_cell_volume   186.76175063
_cell_formula_units_Z   1
loop_
 _symmetry_equiv_pos_site_id
 _symmetry_equiv_pos_as_xyz
  1  'x, y, z'
loop_
 _atom_site_type_symbol
 _atom_site_label
 _atom_site_symmetry_multiplicity
 _atom_site_fract_x
 _atom_site_fract_y
 _atom_site_fract_z
 _atom_site_occupancy
  Th  Th0  1  0.000000  0.401124  0.500000  1
  Th  Th1  1  0.570292  0.579788  0.500000  1
  Th  Th2  1  0.429708  0.009496  0.500000  1
  Sc  Sc3  1  0.000000  0.771465  0.000000  1
  Ga  Ga4  1  0.232494  0.234918  0.000000  1
  Ga  Ga5  1  0.767506  0.002424  0.000000  1
  Ni  Ni6  1  0.000000  0.003078  0.500000  1
  Ru  Ru7  1  0.335475  0.666591  0.000000  1
  Ru  Ru8  1  0.664525  0.331116  0.000000  1
