# generated using pymatgen
data_AlV3ReSe8
_symmetry_space_group_name_H-M   'P 1'
_cell_length_a   7.27069740
_cell_length_b   7.27069731
_cell_length_c   7.15923667
_cell_angle_alpha   59.48363698
_cell_angle_beta   59.48364312
_cell_angle_gamma   59.99999721
_symmetry_Int_Tables_number   1
_chemical_formula_structural   AlV3ReSe8
_chemical_formula_sum   'Al1 V3 Re1 Se8'
_cell_volume   265.50323202
_cell_formula_units_Z   1
loop_
 _symmetry_equiv_pos_site_id
 _symmetry_equiv_pos_as_xyz
  1  'x, y, z'
loop_
 _atom_site_type_symbol
 _atom_site_label
 _atom_site_symmetry_multiplicity
 _atom_site_fract_x
 _atom_site_fract_y
 _atom_site_fract_z
 _atom_site_occupancy
  Al  Al0  1  0.001169  0.001169  0.996492  1
  V  V1  1  0.606644  0.192589  0.594121  1
  V  V2  1  0.192589  0.606644  0.594121  1
  V  V3  1  0.606644  0.606644  0.594121  1
  Re  Re4  1  0.599035  0.599035  0.202896  1
  Se  Se5  1  0.370415  0.370415  0.888755  1
  Se  Se6  1  0.363076  0.900552  0.373298  1
  Se  Se7  1  0.900552  0.363076  0.373298  1
  Se  Se8  1  0.363076  0.363076  0.373298  1
  Se  Se9  1  0.864064  0.864064  0.407807  1
  Se  Se10  1  0.860416  0.411901  0.867265  1
  Se  Se11  1  0.411901  0.860416  0.867265  1
  Se  Se12  1  0.860416  0.860416  0.867265  1
