# generated using pymatgen
data_Nd2Si(Pd6Au)2
_symmetry_space_group_name_H-M   'P 1'
_cell_length_a   9.08655200
_cell_length_b   9.08655200
_cell_length_c   7.14757500
_cell_angle_alpha   90.00000000
_cell_angle_beta   90.00000000
_cell_angle_gamma   90.00000000
_symmetry_Int_Tables_number   1
_chemical_formula_structural   Nd2Si(Pd6Au)2
_chemical_formula_sum   'Nd4 Si2 Pd24 Au4'
_cell_volume   590.14258367
_cell_formula_units_Z   2
loop_
 _symmetry_equiv_pos_site_id
 _symmetry_equiv_pos_as_xyz
  1  'x, y, z'
loop_
 _atom_site_type_symbol
 _atom_site_label
 _atom_site_symmetry_multiplicity
 _atom_site_fract_x
 _atom_site_fract_y
 _atom_site_fract_z
 _atom_site_occupancy
  Nd  Nd0  1  0.500000  0.000000  0.931390  1
  Nd  Nd1  1  0.000000  0.500000  0.068610  1
  Nd  Nd2  1  0.000000  0.000000  0.500000  1
  Nd  Nd3  1  0.500000  0.500000  0.500000  1
  Si  Si4  1  0.500000  0.000000  0.447882  1
  Si  Si5  1  0.000000  0.500000  0.552118  1
  Pd  Pd6  1  0.335708  0.835708  0.613238  1
  Pd  Pd7  1  0.335708  0.164292  0.613238  1
  Pd  Pd8  1  0.664292  0.835708  0.613238  1
  Pd  Pd9  1  0.664292  0.164292  0.613238  1
  Pd  Pd10  1  0.164292  0.664292  0.386762  1
  Pd  Pd11  1  0.164292  0.335708  0.386762  1
  Pd  Pd12  1  0.835708  0.664292  0.386762  1
  Pd  Pd13  1  0.835708  0.335708  0.386762  1
  Pd  Pd14  1  0.500000  0.771527  0.259168  1
  Pd  Pd15  1  0.500000  0.228473  0.259168  1
  Pd  Pd16  1  0.271527  0.000000  0.259168  1
  Pd  Pd17  1  0.728473  0.000000  0.259168  1
  Pd  Pd18  1  0.000000  0.728473  0.740832  1
  Pd  Pd19  1  0.000000  0.271527  0.740832  1
  Pd  Pd20  1  0.228473  0.500000  0.740832  1
  Pd  Pd21  1  0.771527  0.500000  0.740832  1
  Pd  Pd22  1  0.500000  0.349569  0.852275  1
  Pd  Pd23  1  0.500000  0.650431  0.852275  1
  Pd  Pd24  1  0.849569  0.000000  0.852275  1
  Pd  Pd25  1  0.150431  0.000000  0.852275  1
  Pd  Pd26  1  0.000000  0.150431  0.147725  1
  Pd  Pd27  1  0.000000  0.849569  0.147725  1
  Pd  Pd28  1  0.650431  0.500000  0.147725  1
  Pd  Pd29  1  0.349569  0.500000  0.147725  1
  Au  Au30  1  0.250000  0.750000  0.000000  1
  Au  Au31  1  0.250000  0.250000  0.000000  1
  Au  Au32  1  0.750000  0.750000  0.000000  1
  Au  Au33  1  0.750000  0.250000  0.000000  1
