# generated using pymatgen
data_Ho10Hg8Pd3Rh
_symmetry_space_group_name_H-M   'P 1'
_cell_length_a   3.66141600
_cell_length_b   7.98111611
_cell_length_c   17.87498731
_cell_angle_alpha   90.34121879
_cell_angle_beta   90.00000000
_cell_angle_gamma   90.00000000
_symmetry_Int_Tables_number   1
_chemical_formula_structural   Ho10Hg8Pd3Rh
_chemical_formula_sum   'Ho10 Hg8 Pd3 Rh1'
_cell_volume   522.33694520
_cell_formula_units_Z   1
loop_
 _symmetry_equiv_pos_site_id
 _symmetry_equiv_pos_as_xyz
  1  'x, y, z'
loop_
 _atom_site_type_symbol
 _atom_site_label
 _atom_site_symmetry_multiplicity
 _atom_site_fract_x
 _atom_site_fract_y
 _atom_site_fract_z
 _atom_site_occupancy
  Ho  Ho0  1  0.000000  0.497873  0.499648  1
  Ho  Ho1  1  0.000000  0.999854  0.000671  1
  Ho  Ho2  1  0.000000  0.720340  0.283928  1
  Ho  Ho3  1  0.000000  0.270416  0.713708  1
  Ho  Ho4  1  0.000000  0.771574  0.786780  1
  Ho  Ho5  1  0.000000  0.243792  0.215355  1
  Ho  Ho6  1  0.000000  0.609748  0.087873  1
  Ho  Ho7  1  0.000000  0.389117  0.914942  1
  Ho  Ho8  1  0.000000  0.887314  0.585008  1
  Ho  Ho9  1  0.000000  0.108788  0.413947  1
  Hg  Hg10  1  0.500000  0.712600  0.937492  1
  Hg  Hg11  1  0.500000  0.288416  0.063169  1
  Hg  Hg12  1  0.500000  0.787027  0.437320  1
  Hg  Hg13  1  0.500000  0.209809  0.561823  1
  Hg  Hg14  1  0.500000  0.588170  0.646552  1
  Hg  Hg15  1  0.500000  0.410775  0.353416  1
  Hg  Hg16  1  0.500000  0.914019  0.146096  1
  Hg  Hg17  1  0.500000  0.088311  0.854088  1
  Pd  Pd18  1  0.500000  0.480364  0.803194  1
  Pd  Pd19  1  0.500000  0.980723  0.696795  1
  Pd  Pd20  1  0.500000  0.018367  0.301935  1
  Rh  Rh21  1  0.500000  0.522604  0.196259  1
