# generated using pymatgen
data_RbY10(C2I9)2
_symmetry_space_group_name_H-M   'P 1'
_cell_length_a   11.41055473
_cell_length_b   11.43704518
_cell_length_c   11.50589228
_cell_angle_alpha   113.28446251
_cell_angle_beta   86.93796349
_cell_angle_gamma   119.67969342
_symmetry_Int_Tables_number   1
_chemical_formula_structural   RbY10(C2I9)2
_chemical_formula_sum   'Rb1 Y10 C4 I18'
_cell_volume   1179.10116518
_cell_formula_units_Z   1
loop_
 _symmetry_equiv_pos_site_id
 _symmetry_equiv_pos_as_xyz
  1  'x, y, z'
loop_
 _atom_site_type_symbol
 _atom_site_label
 _atom_site_symmetry_multiplicity
 _atom_site_fract_x
 _atom_site_fract_y
 _atom_site_fract_z
 _atom_site_occupancy
  Rb  Rb0  1  0.500000  0.000000  0.500000  1
  Y  Y1  1  0.677428  0.724658  0.711629  1
  Y  Y2  1  0.276699  0.352630  0.015365  1
  Y  Y3  1  0.092733  0.391158  0.291361  1
  Y  Y4  1  0.964991  0.037408  0.323115  1
  Y  Y5  1  0.907267  0.608842  0.708639  1
  Y  Y6  1  0.105586  0.944256  0.000746  1
  Y  Y7  1  0.035009  0.962592  0.676885  1
  Y  Y8  1  0.322572  0.275342  0.288371  1
  Y  Y9  1  0.723301  0.647370  0.984635  1
  Y  Y10  1  0.894414  0.055744  0.999254  1
  C  C11  1  0.151290  0.219230  0.120179  1
  C  C12  1  0.848710  0.780770  0.879821  1
  C  C13  1  0.924158  0.856707  0.804107  1
  C  C14  1  0.075842  0.143293  0.195893  1
  I  I15  1  0.448143  0.529705  0.831749  1
  I  I16  1  0.385803  0.040057  0.158562  1
  I  I17  1  0.775907  0.856627  0.500834  1
  I  I18  1  0.836340  0.311169  0.153309  1
  I  I19  1  0.551857  0.470295  0.168251  1
  I  I20  1  0.224093  0.143373  0.499166  1
  I  I21  1  0.318675  0.095709  0.828957  1
  I  I22  1  0.681325  0.904291  0.171043  1
  I  I23  1  0.975759  0.754702  0.169479  1
  I  I24  1  0.933217  0.298704  0.501334  1
  I  I25  1  0.024241  0.245298  0.830521  1
  I  I26  1  0.066783  0.701296  0.498666  1
  I  I27  1  0.262734  0.625182  0.185332  1
  I  I28  1  0.737266  0.374818  0.814668  1
  I  I29  1  0.642405  0.433803  0.500006  1
  I  I30  1  0.163660  0.688831  0.846691  1
  I  I31  1  0.614197  0.959943  0.841438  1
  I  I32  1  0.357595  0.566197  0.499994  1
