# generated using pymatgen
data_Dy4Ta(PdPt2)5
_symmetry_space_group_name_H-M   'P 1'
_cell_length_a   4.11479500
_cell_length_b   4.10268300
_cell_length_c   20.53911800
_cell_angle_alpha   90.00000000
_cell_angle_beta   90.00000000
_cell_angle_gamma   90.00000000
_symmetry_Int_Tables_number   1
_chemical_formula_structural   Dy4Ta(PdPt2)5
_chemical_formula_sum   'Dy4 Ta1 Pd5 Pt10'
_cell_volume   346.73521797
_cell_formula_units_Z   1
loop_
 _symmetry_equiv_pos_site_id
 _symmetry_equiv_pos_as_xyz
  1  'x, y, z'
loop_
 _atom_site_type_symbol
 _atom_site_label
 _atom_site_symmetry_multiplicity
 _atom_site_fract_x
 _atom_site_fract_y
 _atom_site_fract_z
 _atom_site_occupancy
  Dy  Dy0  1  0.000000  0.000000  0.199067  1
  Dy  Dy1  1  0.000000  0.000000  0.399212  1
  Dy  Dy2  1  0.000000  0.000000  0.600788  1
  Dy  Dy3  1  0.000000  0.000000  0.800933  1
  Ta  Ta4  1  0.000000  0.000000  0.000000  1
  Pd  Pd5  1  0.500000  0.500000  0.193468  1
  Pd  Pd6  1  0.500000  0.500000  0.398447  1
  Pd  Pd7  1  0.500000  0.500000  0.601553  1
  Pd  Pd8  1  0.500000  0.500000  0.806532  1
  Pd  Pd9  1  0.000000  0.500000  0.500000  1
  Pt  Pt10  1  0.500000  0.500000  0.000000  1
  Pt  Pt11  1  0.500000  0.000000  0.091381  1
  Pt  Pt12  1  0.500000  0.000000  0.297034  1
  Pt  Pt13  1  0.500000  0.000000  0.500000  1
  Pt  Pt14  1  0.500000  0.000000  0.702966  1
  Pt  Pt15  1  0.500000  0.000000  0.908619  1
  Pt  Pt16  1  0.000000  0.500000  0.091362  1
  Pt  Pt17  1  0.000000  0.500000  0.296792  1
  Pt  Pt18  1  0.000000  0.500000  0.703208  1
  Pt  Pt19  1  0.000000  0.500000  0.908638  1
