# generated using pymatgen
data_SrInFe2P3O13
_symmetry_space_group_name_H-M   'P 1'
_cell_length_a   6.54899600
_cell_length_b   7.90214430
_cell_length_c   10.51128197
_cell_angle_alpha   80.10001230
_cell_angle_beta   90.00000000
_cell_angle_gamma   90.00000000
_symmetry_Int_Tables_number   1
_chemical_formula_structural   SrInFe2P3O13
_chemical_formula_sum   'Sr2 In2 Fe4 P6 O26'
_cell_volume   535.87045684
_cell_formula_units_Z   2
loop_
 _symmetry_equiv_pos_site_id
 _symmetry_equiv_pos_as_xyz
  1  'x, y, z'
loop_
 _atom_site_type_symbol
 _atom_site_label
 _atom_site_symmetry_multiplicity
 _atom_site_fract_x
 _atom_site_fract_y
 _atom_site_fract_z
 _atom_site_occupancy
  Sr  Sr0  1  0.250000  0.344909  0.700516  1
  Sr  Sr1  1  0.750000  0.655091  0.299484  1
  In  In2  1  0.000000  0.000000  0.500000  1
  In  In3  1  0.500000  0.000000  0.500000  1
  Fe  Fe4  1  0.250000  0.789295  0.059901  1
  Fe  Fe5  1  0.750000  0.210705  0.940099  1
  Fe  Fe6  1  0.250000  0.351951  0.294411  1
  Fe  Fe7  1  0.750000  0.648049  0.705589  1
  P  P8  1  0.250000  0.207137  0.015540  1
  P  P9  1  0.750000  0.792863  0.984460  1
  P  P10  1  0.750000  0.321668  0.623187  1
  P  P11  1  0.750000  0.259698  0.257732  1
  P  P12  1  0.250000  0.740302  0.742268  1
  P  P13  1  0.250000  0.678332  0.376813  1
  O  O14  1  0.250000  0.783138  0.878677  1
  O  O15  1  0.750000  0.083744  0.355891  1
  O  O16  1  0.061724  0.241113  0.923355  1
  O  O17  1  0.936957  0.367589  0.285279  1
  O  O18  1  0.561724  0.758887  0.076645  1
  O  O19  1  0.444363  0.779890  0.398520  1
  O  O20  1  0.563043  0.367589  0.285279  1
  O  O21  1  0.250000  0.131839  0.403839  1
  O  O22  1  0.938276  0.758887  0.076645  1
  O  O23  1  0.250000  0.019154  0.089027  1
  O  O24  1  0.944363  0.220110  0.601480  1
  O  O25  1  0.063043  0.632411  0.714721  1
  O  O26  1  0.055637  0.779890  0.398520  1
  O  O27  1  0.750000  0.360854  0.765769  1
  O  O28  1  0.250000  0.330701  0.112853  1
  O  O29  1  0.555637  0.220110  0.601480  1
  O  O30  1  0.436957  0.632411  0.714721  1
  O  O31  1  0.750000  0.507871  0.547203  1
  O  O32  1  0.750000  0.216862  0.121323  1
  O  O33  1  0.250000  0.916256  0.644109  1
  O  O34  1  0.250000  0.492129  0.452797  1
  O  O35  1  0.750000  0.868161  0.596161  1
  O  O36  1  0.438276  0.241113  0.923355  1
  O  O37  1  0.750000  0.980846  0.910973  1
  O  O38  1  0.750000  0.669299  0.887147  1
  O  O39  1  0.250000  0.639146  0.234231  1
