# generated using pymatgen
data_Pr6Al24Os7Au
_symmetry_space_group_name_H-M   'P 1'
_cell_length_a   8.96102136
_cell_length_b   8.96380042
_cell_length_c   9.73054580
_cell_angle_alpha   90.00000335
_cell_angle_beta   90.06005326
_cell_angle_gamma   120.01025614
_symmetry_Int_Tables_number   1
_chemical_formula_structural   Pr6Al24Os7Au
_chemical_formula_sum   'Pr6 Al24 Os7 Au1'
_cell_volume   676.81864335
_cell_formula_units_Z   1
loop_
 _symmetry_equiv_pos_site_id
 _symmetry_equiv_pos_as_xyz
  1  'x, y, z'
loop_
 _atom_site_type_symbol
 _atom_site_label
 _atom_site_symmetry_multiplicity
 _atom_site_fract_x
 _atom_site_fract_y
 _atom_site_fract_z
 _atom_site_occupancy
  Pr  Pr0  1  0.190403  0.380911  0.249419  1
  Pr  Pr1  1  0.809597  0.619089  0.750581  1
  Pr  Pr2  1  0.614603  0.807302  0.255508  1
  Pr  Pr3  1  0.385397  0.192698  0.744492  1
  Pr  Pr4  1  0.190403  0.809492  0.249419  1
  Pr  Pr5  1  0.809597  0.190508  0.750581  1
  Al  Al6  1  0.343772  0.671886  0.015632  1
  Al  Al7  1  0.656228  0.328114  0.984368  1
  Al  Al8  1  0.668020  0.334009  0.515622  1
  Al  Al9  1  0.331980  0.665991  0.484378  1
  Al  Al10  1  0.163242  0.327855  0.572004  1
  Al  Al11  1  0.836758  0.672145  0.427996  1
  Al  Al12  1  0.671871  0.835935  0.575917  1
  Al  Al13  1  0.826955  0.676465  0.077818  1
  Al  Al14  1  0.328129  0.164065  0.424083  1
  Al  Al15  1  0.173045  0.323535  0.922182  1
  Al  Al16  1  0.163242  0.835386  0.572004  1
  Al  Al17  1  0.327419  0.163710  0.075291  1
  Al  Al18  1  0.836758  0.164614  0.427996  1
  Al  Al19  1  0.672581  0.836290  0.924709  1
  Al  Al20  1  0.826955  0.150492  0.077818  1
  Al  Al21  1  0.173045  0.849508  0.922182  1
  Al  Al22  1  0.560308  0.123963  0.249650  1
  Al  Al23  1  0.439692  0.876037  0.750350  1
  Al  Al24  1  0.870200  0.435100  0.256420  1
  Al  Al25  1  0.129800  0.564900  0.743580  1
  Al  Al26  1  0.560308  0.436344  0.249650  1
  Al  Al27  1  0.439692  0.563656  0.750350  1
  Al  Al28  1  0.000266  0.000133  0.250508  1
  Al  Al29  1  0.999734  0.999867  0.749492  1
  Os  Os30  1  0.500000  0.000000  0.000000  1
  Os  Os31  1  0.500000  0.000000  0.500000  1
  Os  Os32  1  0.500000  0.500000  0.000000  1
  Os  Os33  1  0.000000  0.500000  0.500000  1
  Os  Os34  1  0.500000  0.500000  0.500000  1
  Os  Os35  1  0.000000  0.000000  0.000000  1
  Os  Os36  1  0.000000  0.000000  0.500000  1
  Au  Au37  1  0.000000  0.500000  0.000000  1
