# generated using pymatgen
data_Y14HoPa(CdIr)4
_symmetry_space_group_name_H-M   'P 1'
_cell_length_a   9.69869825
_cell_length_b   9.69855593
_cell_length_c   9.70154975
_cell_angle_alpha   59.62181704
_cell_angle_beta   59.62173640
_cell_angle_gamma   59.60989544
_symmetry_Int_Tables_number   1
_chemical_formula_structural   Y14HoPa(CdIr)4
_chemical_formula_sum   'Y14 Ho1 Pa1 Cd4 Ir4'
_cell_volume   639.67300350
_cell_formula_units_Z   1
loop_
 _symmetry_equiv_pos_site_id
 _symmetry_equiv_pos_as_xyz
  1  'x, y, z'
loop_
 _atom_site_type_symbol
 _atom_site_label
 _atom_site_symmetry_multiplicity
 _atom_site_fract_x
 _atom_site_fract_y
 _atom_site_fract_z
 _atom_site_occupancy
  Y  Y0  1  0.350753  0.947826  0.350756  1
  Y  Y1  1  0.947812  0.350762  0.350772  1
  Y  Y2  1  0.810939  0.190286  0.190252  1
  Y  Y3  1  0.189605  0.810860  0.811022  1
  Y  Y4  1  0.190287  0.810944  0.190244  1
  Y  Y5  1  0.810868  0.189594  0.811024  1
  Y  Y6  1  0.190372  0.190355  0.810951  1
  Y  Y7  1  0.811054  0.811053  0.189513  1
  Y  Y8  1  0.941112  0.562656  0.562706  1
  Y  Y9  1  0.561705  0.938545  0.938254  1
  Y  Y10  1  0.562657  0.941101  0.562717  1
  Y  Y11  1  0.938541  0.561709  0.938244  1
  Y  Y12  1  0.562530  0.562542  0.941119  1
  Y  Y13  1  0.938220  0.938214  0.561916  1
  Ho  Ho14  1  0.350281  0.350279  0.949448  1
  Pa  Pa15  1  0.342185  0.342180  0.342275  1
  Cd  Cd16  1  0.579270  0.579266  0.579444  1
  Cd  Cd17  1  0.578745  0.578741  0.256161  1
  Cd  Cd18  1  0.578688  0.256216  0.578813  1
  Cd  Cd19  1  0.256212  0.578689  0.578817  1
  Ir  Ir20  1  0.143149  0.143162  0.141865  1
  Ir  Ir21  1  0.147621  0.147625  0.569800  1
  Ir  Ir22  1  0.148225  0.569170  0.146944  1
  Ir  Ir23  1  0.569170  0.148226  0.146944  1
