# generated using pymatgen
data_KSrCrN3
_symmetry_space_group_name_H-M   'P 1'
_cell_length_a   6.35370834
_cell_length_b   6.35370777
_cell_length_c   12.35989600
_cell_angle_alpha   90.00000000
_cell_angle_beta   90.00000000
_cell_angle_gamma   126.44625422
_symmetry_Int_Tables_number   1
_chemical_formula_structural   KSrCrN3
_chemical_formula_sum   'K4 Sr4 Cr4 N12'
_cell_volume   401.37397067
_cell_formula_units_Z   4
loop_
 _symmetry_equiv_pos_site_id
 _symmetry_equiv_pos_as_xyz
  1  'x, y, z'
loop_
 _atom_site_type_symbol
 _atom_site_label
 _atom_site_symmetry_multiplicity
 _atom_site_fract_x
 _atom_site_fract_y
 _atom_site_fract_z
 _atom_site_occupancy
  K  K0  1  0.546267  0.453733  0.642867  1
  K  K1  1  0.453733  0.546267  0.357133  1
  K  K2  1  0.953733  0.046267  0.142867  1
  K  K3  1  0.046267  0.953733  0.857133  1
  Sr  Sr4  1  0.853649  0.146351  0.583460  1
  Sr  Sr5  1  0.146351  0.853649  0.416540  1
  Sr  Sr6  1  0.646351  0.353649  0.083460  1
  Sr  Sr7  1  0.353649  0.646351  0.916540  1
  Cr  Cr8  1  0.729251  0.270749  0.834082  1
  Cr  Cr9  1  0.270749  0.729251  0.165918  1
  Cr  Cr10  1  0.770749  0.229251  0.334082  1
  Cr  Cr11  1  0.229251  0.770749  0.665918  1
  N  N12  1  0.816994  0.183006  0.944409  1
  N  N13  1  0.183006  0.816994  0.055591  1
  N  N14  1  0.683006  0.316994  0.444409  1
  N  N15  1  0.316994  0.683006  0.555591  1
  N  N16  1  0.586469  0.413531  0.874857  1
  N  N17  1  0.413531  0.586469  0.125143  1
  N  N18  1  0.913531  0.086469  0.374857  1
  N  N19  1  0.086469  0.913531  0.625143  1
  N  N20  1  0.515026  0.984974  0.750000  1
  N  N21  1  0.984974  0.515026  0.250000  1
  N  N22  1  0.484974  0.015026  0.250000  1
  N  N23  1  0.015026  0.484974  0.750000  1
