# generated using pymatgen
data_Sm5DyHo2(Si3Rh)4
_symmetry_space_group_name_H-M   'P 1'
_cell_length_a   8.20847302
_cell_length_b   8.20847347
_cell_length_c   8.06333600
_cell_angle_alpha   90.00000000
_cell_angle_beta   90.00000000
_cell_angle_gamma   120.00841846
_symmetry_Int_Tables_number   1
_chemical_formula_structural   Sm5DyHo2(Si3Rh)4
_chemical_formula_sum   'Sm5 Dy1 Ho2 Si12 Rh4'
_cell_volume   470.47149530
_cell_formula_units_Z   1
loop_
 _symmetry_equiv_pos_site_id
 _symmetry_equiv_pos_as_xyz
  1  'x, y, z'
loop_
 _atom_site_type_symbol
 _atom_site_label
 _atom_site_symmetry_multiplicity
 _atom_site_fract_x
 _atom_site_fract_y
 _atom_site_fract_z
 _atom_site_occupancy
  Sm  Sm0  1  0.999978  0.000022  0.250000  1
  Sm  Sm1  1  0.000017  0.999983  0.750000  1
  Sm  Sm2  1  0.507128  0.492872  0.250000  1
  Sm  Sm3  1  0.507124  0.014227  0.250000  1
  Sm  Sm4  1  0.985773  0.492876  0.250000  1
  Dy  Dy5  1  0.491537  0.508463  0.750000  1
  Ho  Ho6  1  0.491604  0.983278  0.750000  1
  Ho  Ho7  1  0.016722  0.508396  0.750000  1
  Si  Si8  1  0.166949  0.833051  0.504711  1
  Si  Si9  1  0.166820  0.333823  0.504582  1
  Si  Si10  1  0.666177  0.833180  0.504582  1
  Si  Si11  1  0.832208  0.167792  0.503030  1
  Si  Si12  1  0.832280  0.664436  0.502982  1
  Si  Si13  1  0.335564  0.167720  0.502982  1
  Si  Si14  1  0.832208  0.167792  0.996970  1
  Si  Si15  1  0.832280  0.664436  0.997018  1
  Si  Si16  1  0.335564  0.167720  0.997018  1
  Si  Si17  1  0.166949  0.833051  0.995289  1
  Si  Si18  1  0.166820  0.333823  0.995418  1
  Si  Si19  1  0.666177  0.833180  0.995418  1
  Rh  Rh20  1  0.333261  0.666739  0.478344  1
  Rh  Rh21  1  0.666797  0.333203  0.542077  1
  Rh  Rh22  1  0.666797  0.333203  0.957923  1
  Rh  Rh23  1  0.333261  0.666739  0.021656  1
