# generated using pymatgen
data_NaN4
_symmetry_space_group_name_H-M   'P 1'
_cell_length_a   4.57706189
_cell_length_b   3.71292822
_cell_length_c   4.94333799
_cell_angle_alpha   89.55833231
_cell_angle_beta   96.55711751
_cell_angle_gamma   90.02516095
_symmetry_Int_Tables_number   1
_chemical_formula_structural   NaN4
_chemical_formula_sum   'Na1 N4'
_cell_volume   83.45655083
_cell_formula_units_Z   1
loop_
 _symmetry_equiv_pos_site_id
 _symmetry_equiv_pos_as_xyz
  1  'x, y, z'
loop_
 _atom_site_type_symbol
 _atom_site_label
 _atom_site_symmetry_multiplicity
 _atom_site_fract_x
 _atom_site_fract_y
 _atom_site_fract_z
 _atom_site_occupancy
  Na  Na0  1  0.779812  0.830695  0.478868  1
  N  N1  1  0.404418  0.328241  0.452150  1
  N  N2  1  0.157192  0.813431  0.924934  1
  N  N3  1  0.406792  0.813414  0.958104  1
  N  N4  1  0.151846  0.328472  0.437547  1
