# generated using pymatgen
data_Ho8Cd2IrPt
_symmetry_space_group_name_H-M   'P 1'
_cell_length_a   9.60994644
_cell_length_b   9.60994726
_cell_length_c   9.58822600
_cell_angle_alpha   60.07474166
_cell_angle_beta   60.07473881
_cell_angle_gamma   60.21169812
_symmetry_Int_Tables_number   1
_chemical_formula_structural   Ho8Cd2IrPt
_chemical_formula_sum   'Ho16 Cd4 Ir2 Pt2'
_cell_volume   627.83644712
_cell_formula_units_Z   2
loop_
 _symmetry_equiv_pos_site_id
 _symmetry_equiv_pos_as_xyz
  1  'x, y, z'
loop_
 _atom_site_type_symbol
 _atom_site_label
 _atom_site_symmetry_multiplicity
 _atom_site_fract_x
 _atom_site_fract_y
 _atom_site_fract_z
 _atom_site_occupancy
  Ho  Ho0  1  0.600975  0.600975  0.596115  1
  Ho  Ho1  1  0.600975  0.600975  0.201936  1
  Ho  Ho2  1  0.606252  0.193988  0.599880  1
  Ho  Ho3  1  0.193988  0.606252  0.599880  1
  Ho  Ho4  1  0.056768  0.439807  0.440937  1
  Ho  Ho5  1  0.439807  0.056768  0.062489  1
  Ho  Ho6  1  0.439807  0.056768  0.440937  1
  Ho  Ho7  1  0.056768  0.439807  0.062489  1
  Ho  Ho8  1  0.441224  0.441224  0.058776  1
  Ho  Ho9  1  0.061060  0.061060  0.438940  1
  Ho  Ho10  1  0.187335  0.814709  0.812211  1
  Ho  Ho11  1  0.814709  0.187335  0.185745  1
  Ho  Ho12  1  0.814709  0.187335  0.812211  1
  Ho  Ho13  1  0.187335  0.814709  0.185745  1
  Ho  Ho14  1  0.813872  0.813872  0.186128  1
  Ho  Ho15  1  0.186746  0.186746  0.813254  1
  Cd  Cd16  1  0.831315  0.831315  0.831936  1
  Cd  Cd17  1  0.831315  0.831315  0.505433  1
  Cd  Cd18  1  0.830593  0.505323  0.832042  1
  Cd  Cd19  1  0.505323  0.830593  0.832042  1
  Ir  Ir20  1  0.391049  0.823589  0.392682  1
  Ir  Ir21  1  0.823589  0.391049  0.392682  1
  Pt  Pt22  1  0.392244  0.392244  0.394717  1
  Pt  Pt23  1  0.392244  0.392244  0.820795  1
