# generated using pymatgen
data_Tb6DyYIn8
_symmetry_space_group_name_H-M   'P 1'
_cell_length_a   6.53313650
_cell_length_b   6.53313708
_cell_length_c   10.42576400
_cell_angle_alpha   90.00000000
_cell_angle_beta   90.00000000
_cell_angle_gamma   104.55427283
_symmetry_Int_Tables_number   1
_chemical_formula_structural   Tb6DyYIn8
_chemical_formula_sum   'Tb6 Dy1 Y1 In8'
_cell_volume   430.71141868
_cell_formula_units_Z   1
loop_
 _symmetry_equiv_pos_site_id
 _symmetry_equiv_pos_as_xyz
  1  'x, y, z'
loop_
 _atom_site_type_symbol
 _atom_site_label
 _atom_site_symmetry_multiplicity
 _atom_site_fract_x
 _atom_site_fract_y
 _atom_site_fract_z
 _atom_site_occupancy
  Tb  Tb0  1  0.517884  0.517884  0.250000  1
  Tb  Tb1  1  0.481752  0.481752  0.750000  1
  Tb  Tb2  1  0.247593  0.752586  0.500214  1
  Tb  Tb3  1  0.247593  0.752586  0.999786  1
  Tb  Tb4  1  0.752586  0.247593  0.500214  1
  Tb  Tb5  1  0.752586  0.247593  0.999786  1
  Dy  Dy6  1  0.013852  0.013852  0.750000  1
  Y  Y7  1  0.986006  0.986006  0.250000  1
  In  In8  1  0.252661  0.252661  0.010259  1
  In  In9  1  0.747388  0.747388  0.989541  1
  In  In10  1  0.252661  0.252661  0.489741  1
  In  In11  1  0.747388  0.747388  0.510459  1
  In  In12  1  0.490580  0.011612  0.250000  1
  In  In13  1  0.988342  0.509516  0.750000  1
  In  In14  1  0.509516  0.988342  0.750000  1
  In  In15  1  0.011612  0.490580  0.250000  1
