# generated using pymatgen
data_TbYbPr5CoI12
_symmetry_space_group_name_H-M   'P 1'
_cell_length_a   10.06324764
_cell_length_b   9.97627052
_cell_length_c   10.06485958
_cell_angle_alpha   107.12044931
_cell_angle_beta   106.81652837
_cell_angle_gamma   107.04366234
_symmetry_Int_Tables_number   1
_chemical_formula_structural   TbYbPr5CoI12
_chemical_formula_sum   'Tb1 Yb1 Pr5 Co1 I12'
_cell_volume   841.65415900
_cell_formula_units_Z   1
loop_
 _symmetry_equiv_pos_site_id
 _symmetry_equiv_pos_as_xyz
  1  'x, y, z'
loop_
 _atom_site_type_symbol
 _atom_site_label
 _atom_site_symmetry_multiplicity
 _atom_site_fract_x
 _atom_site_fract_y
 _atom_site_fract_z
 _atom_site_occupancy
  Tb  Tb0  1  0.704606  0.974849  0.902446  1
  Yb  Yb1  1  0.499687  0.500537  0.500128  1
  Pr  Pr2  1  0.024612  0.100478  0.303797  1
  Pr  Pr3  1  0.092965  0.288097  0.024311  1
  Pr  Pr4  1  0.305211  0.025015  0.099817  1
  Pr  Pr5  1  0.975422  0.899533  0.695957  1
  Pr  Pr6  1  0.903508  0.711163  0.974819  1
  Co  Co7  1  0.999105  0.999333  0.999494  1
  I  I8  1  0.161511  0.463952  0.383204  1
  I  I9  1  0.460293  0.385679  0.160974  1
  I  I10  1  0.382308  0.158696  0.460926  1
  I  I11  1  0.837792  0.535897  0.616861  1
  I  I12  1  0.540047  0.624611  0.840496  1
  I  I13  1  0.618005  0.846644  0.549026  1
  I  I14  1  0.678061  0.068883  0.214533  1
  I  I15  1  0.073408  0.228789  0.681615  1
  I  I16  1  0.222706  0.677537  0.071238  1
  I  I17  1  0.324743  0.928497  0.776018  1
  I  I18  1  0.926274  0.771117  0.318361  1
  I  I19  1  0.769735  0.310691  0.925979  1
