# generated using pymatgen
data_Tm4LuRuRh
_symmetry_space_group_name_H-M   'P 1'
_cell_length_a   6.28357105
_cell_length_b   7.20425373
_cell_length_c   8.36101414
_cell_angle_alpha   96.75765873
_cell_angle_beta   112.41522139
_cell_angle_gamma   90.01989628
_symmetry_Int_Tables_number   1
_chemical_formula_structural   Tm4LuRuRh
_chemical_formula_sum   'Tm8 Lu2 Ru2 Rh2'
_cell_volume   347.04063304
_cell_formula_units_Z   2
loop_
 _symmetry_equiv_pos_site_id
 _symmetry_equiv_pos_as_xyz
  1  'x, y, z'
loop_
 _atom_site_type_symbol
 _atom_site_label
 _atom_site_symmetry_multiplicity
 _atom_site_fract_x
 _atom_site_fract_y
 _atom_site_fract_z
 _atom_site_occupancy
  Tm  Tm0  1  0.524141  0.081794  0.816176  1
  Tm  Tm1  1  0.475859  0.918206  0.183824  1
  Tm  Tm2  1  0.710511  0.415721  0.187448  1
  Tm  Tm3  1  0.289489  0.584279  0.812552  1
  Tm  Tm4  1  0.290269  0.312395  0.435245  1
  Tm  Tm5  1  0.709731  0.687605  0.564755  1
  Tm  Tm6  1  0.858355  0.182885  0.562752  1
  Tm  Tm7  1  0.141645  0.817115  0.437248  1
  Lu  Lu8  1  0.079020  0.247646  0.999346  1
  Lu  Lu9  1  0.920980  0.752354  0.000654  1
  Ru  Ru10  1  0.105528  0.923260  0.782916  1
  Ru  Ru11  1  0.894472  0.076740  0.217084  1
  Rh  Rh12  1  0.323695  0.575180  0.222277  1
  Rh  Rh13  1  0.676305  0.424820  0.777723  1
