# generated using pymatgen
data_La4Nd12Cd4NiPt3
_symmetry_space_group_name_H-M   'P 1'
_cell_length_a   10.01352452
_cell_length_b   10.01352364
_cell_length_c   10.01352299
_cell_angle_alpha   60.37190838
_cell_angle_beta   60.37191224
_cell_angle_gamma   60.37190917
_symmetry_Int_Tables_number   1
_chemical_formula_structural   La4Nd12Cd4NiPt3
_chemical_formula_sum   'La4 Nd12 Cd4 Ni1 Pt3'
_cell_volume   715.95191326
_cell_formula_units_Z   1
loop_
 _symmetry_equiv_pos_site_id
 _symmetry_equiv_pos_as_xyz
  1  'x, y, z'
loop_
 _atom_site_type_symbol
 _atom_site_label
 _atom_site_symmetry_multiplicity
 _atom_site_fract_x
 _atom_site_fract_y
 _atom_site_fract_z
 _atom_site_occupancy
  La  La0  1  0.349722  0.349722  0.349722  1
  La  La1  1  0.347446  0.347446  0.949094  1
  La  La2  1  0.347446  0.949094  0.347446  1
  La  La3  1  0.949094  0.347446  0.347446  1
  Nd  Nd4  1  0.816435  0.189762  0.189762  1
  Nd  Nd5  1  0.191531  0.809699  0.809699  1
  Nd  Nd6  1  0.189762  0.816435  0.189762  1
  Nd  Nd7  1  0.809699  0.191531  0.809699  1
  Nd  Nd8  1  0.189762  0.189762  0.816435  1
  Nd  Nd9  1  0.809699  0.809699  0.191531  1
  Nd  Nd10  1  0.939075  0.563727  0.563727  1
  Nd  Nd11  1  0.565886  0.933558  0.933558  1
  Nd  Nd12  1  0.563727  0.939075  0.563727  1
  Nd  Nd13  1  0.933558  0.565886  0.933558  1
  Nd  Nd14  1  0.563727  0.563727  0.939075  1
  Nd  Nd15  1  0.933558  0.933558  0.565886  1
  Cd  Cd16  1  0.580470  0.580470  0.580470  1
  Cd  Cd17  1  0.581437  0.581437  0.256630  1
  Cd  Cd18  1  0.581437  0.256630  0.581437  1
  Cd  Cd19  1  0.256630  0.581437  0.581437  1
  Ni  Ni20  1  0.142604  0.142604  0.142604  1
  Pt  Pt21  1  0.142302  0.142302  0.572694  1
  Pt  Pt22  1  0.142302  0.572694  0.142302  1
  Pt  Pt23  1  0.572694  0.142302  0.142302  1
