# generated using pymatgen
data_Tb5PrAl24Ru7Au
_symmetry_space_group_name_H-M   'P 1'
_cell_length_a   8.86758896
_cell_length_b   8.85405825
_cell_length_c   9.60529588
_cell_angle_alpha   89.96383193
_cell_angle_beta   89.96684583
_cell_angle_gamma   119.51036550
_symmetry_Int_Tables_number   1
_chemical_formula_structural   Tb5PrAl24Ru7Au
_chemical_formula_sum   'Tb5 Pr1 Al24 Ru7 Au1'
_cell_volume   656.31250143
_cell_formula_units_Z   1
loop_
 _symmetry_equiv_pos_site_id
 _symmetry_equiv_pos_as_xyz
  1  'x, y, z'
loop_
 _atom_site_type_symbol
 _atom_site_label
 _atom_site_symmetry_multiplicity
 _atom_site_fract_x
 _atom_site_fract_y
 _atom_site_fract_z
 _atom_site_occupancy
  Tb  Tb0  1  0.192878  0.387203  0.254623  1
  Tb  Tb1  1  0.807289  0.613508  0.745366  1
  Tb  Tb2  1  0.616819  0.808339  0.249949  1
  Tb  Tb3  1  0.382875  0.191681  0.749838  1
  Tb  Tb4  1  0.191378  0.807245  0.249547  1
  Pr  Pr5  1  0.808791  0.190957  0.751156  1
  Al  Al6  1  0.327297  0.656434  0.020024  1
  Al  Al7  1  0.672298  0.344848  0.982994  1
  Al  Al8  1  0.666158  0.333121  0.516695  1
  Al  Al9  1  0.333096  0.667612  0.480279  1
  Al  Al10  1  0.165317  0.327151  0.576461  1
  Al  Al11  1  0.836666  0.674089  0.421684  1
  Al  Al12  1  0.673281  0.835142  0.573357  1
  Al  Al13  1  0.837248  0.675361  0.078741  1
  Al  Al14  1  0.325305  0.162662  0.424652  1
  Al  Al15  1  0.164831  0.325914  0.923316  1
  Al  Al16  1  0.162902  0.837313  0.574003  1
  Al  Al17  1  0.321888  0.171586  0.080538  1
  Al  Al18  1  0.836801  0.162414  0.422815  1
  Al  Al19  1  0.677297  0.826573  0.921244  1
  Al  Al20  1  0.849341  0.171773  0.082155  1
  Al  Al21  1  0.150983  0.828390  0.920940  1
  Al  Al22  1  0.563345  0.127643  0.256707  1
  Al  Al23  1  0.433754  0.870256  0.742599  1
  Al  Al24  1  0.879109  0.440841  0.249671  1
  Al  Al25  1  0.123098  0.562157  0.750547  1
  Al  Al26  1  0.561318  0.439921  0.249559  1
  Al  Al27  1  0.438672  0.560172  0.750431  1
  Al  Al28  1  0.999162  0.999648  0.250394  1
  Al  Al29  1  0.002842  0.998646  0.749643  1
  Ru  Ru30  1  0.000839  0.501499  0.001145  1
  Ru  Ru31  1  0.498465  0.999039  0.498883  1
  Ru  Ru32  1  0.499583  0.500178  0.000447  1
  Ru  Ru33  1  0.000726  0.501231  0.499056  1
  Ru  Ru34  1  0.499746  0.500110  0.499504  1
  Ru  Ru35  1  0.000176  0.999959  0.000208  1
  Ru  Ru36  1  0.999876  0.000032  0.499852  1
  Au  Au37  1  0.498551  0.999351  0.000981  1
