# generated using pymatgen
data_Tb4Yb2Si24IrOs7
_symmetry_space_group_name_H-M   'P 1'
_cell_length_a   10.13689487
_cell_length_b   10.13689535
_cell_length_c   8.17293746
_cell_angle_alpha   89.94094465
_cell_angle_beta   89.94093449
_cell_angle_gamma   132.41943575
_symmetry_Int_Tables_number   1
_chemical_formula_structural   Tb4Yb2Si24IrOs7
_chemical_formula_sum   'Tb4 Yb2 Si24 Ir1 Os7'
_cell_volume   619.97807460
_cell_formula_units_Z   1
loop_
 _symmetry_equiv_pos_site_id
 _symmetry_equiv_pos_as_xyz
  1  'x, y, z'
loop_
 _atom_site_type_symbol
 _atom_site_label
 _atom_site_symmetry_multiplicity
 _atom_site_fract_x
 _atom_site_fract_y
 _atom_site_fract_z
 _atom_site_occupancy
  Tb  Tb0  1  0.501724  0.000251  0.749154  1
  Tb  Tb1  1  0.998455  0.498356  0.251381  1
  Tb  Tb2  1  0.498356  0.998455  0.251381  1
  Tb  Tb3  1  0.000251  0.501724  0.749154  1
  Yb  Yb4  1  0.499071  0.499071  0.499466  1
  Yb  Yb5  1  0.000647  0.000647  0.001083  1
  Si  Si6  1  0.796817  0.202578  0.499871  1
  Si  Si7  1  0.296967  0.702994  0.000231  1
  Si  Si8  1  0.202578  0.796817  0.499871  1
  Si  Si9  1  0.702994  0.296967  0.000231  1
  Si  Si10  1  0.331699  0.331699  0.831959  1
  Si  Si11  1  0.668771  0.668771  0.167784  1
  Si  Si12  1  0.169295  0.169295  0.331793  1
  Si  Si13  1  0.833861  0.833861  0.665162  1
  Si  Si14  1  0.121323  0.888876  0.730049  1
  Si  Si15  1  0.111300  0.877863  0.269551  1
  Si  Si16  1  0.608592  0.375455  0.230623  1
  Si  Si17  1  0.621229  0.387061  0.769499  1
  Si  Si18  1  0.877863  0.111300  0.269551  1
  Si  Si19  1  0.888876  0.121323  0.730049  1
  Si  Si20  1  0.387061  0.621229  0.769499  1
  Si  Si21  1  0.375455  0.608592  0.230623  1
  Si  Si22  1  0.346488  0.114267  0.504554  1
  Si  Si23  1  0.885139  0.653537  0.495305  1
  Si  Si24  1  0.385925  0.153207  0.008230  1
  Si  Si25  1  0.847527  0.613755  0.996830  1
  Si  Si26  1  0.653537  0.885139  0.495305  1
  Si  Si27  1  0.114267  0.346488  0.504554  1
  Si  Si28  1  0.613755  0.847527  0.996830  1
  Si  Si29  1  0.153207  0.385925  0.008230  1
  Ir  Ir30  1  0.628070  0.628070  0.871536  1
  Os  Os31  1  0.670848  0.329288  0.499653  1
  Os  Os32  1  0.171622  0.829618  0.998990  1
  Os  Os33  1  0.329288  0.670848  0.499653  1
  Os  Os34  1  0.829618  0.171622  0.998990  1
  Os  Os35  1  0.126862  0.126862  0.626002  1
  Os  Os36  1  0.875234  0.875234  0.372130  1
  Os  Os37  1  0.375426  0.375426  0.125242  1
