# generated using pymatgen
data_GdDyCdNi2
_symmetry_space_group_name_H-M   'P 1'
_cell_length_a   7.32590200
_cell_length_b   7.32727300
_cell_length_c   3.73117700
_cell_angle_alpha   90.00000000
_cell_angle_beta   90.00000000
_cell_angle_gamma   90.00000000
_symmetry_Int_Tables_number   1
_chemical_formula_structural   GdDyCdNi2
_chemical_formula_sum   'Gd2 Dy2 Cd2 Ni4'
_cell_volume   200.28541709
_cell_formula_units_Z   2
loop_
 _symmetry_equiv_pos_site_id
 _symmetry_equiv_pos_as_xyz
  1  'x, y, z'
loop_
 _atom_site_type_symbol
 _atom_site_label
 _atom_site_symmetry_multiplicity
 _atom_site_fract_x
 _atom_site_fract_y
 _atom_site_fract_z
 _atom_site_occupancy
  Gd  Gd0  1  0.824062  0.674641  0.500001  1
  Gd  Gd1  1  0.324062  0.825359  0.500001  1
  Dy  Dy2  1  0.675605  0.175267  0.500001  1
  Dy  Dy3  1  0.175606  0.324734  0.500001  1
  Cd  Cd4  1  0.999265  0.002106  0.000000  1
  Cd  Cd5  1  0.499265  0.497894  0.000000  1
  Ni  Ni6  1  0.383077  0.119135  0.000000  1
  Ni  Ni7  1  0.883077  0.380866  0.000000  1
  Ni  Ni8  1  0.117992  0.617081  0.000000  1
  Ni  Ni9  1  0.617992  0.882920  0.000000  1
