# generated using pymatgen
data_SrDy2Lu(Al8Pt3)3
_symmetry_space_group_name_H-M   'P 1'
_cell_length_a   7.53881652
_cell_length_b   7.55889735
_cell_length_c   13.24216320
_cell_angle_alpha   84.59719087
_cell_angle_beta   79.12012743
_cell_angle_gamma   59.94835273
_symmetry_Int_Tables_number   1
_chemical_formula_structural   SrDy2Lu(Al8Pt3)3
_chemical_formula_sum   'Sr1 Dy2 Lu1 Al24 Pt9'
_cell_volume   641.42734763
_cell_formula_units_Z   1
loop_
 _symmetry_equiv_pos_site_id
 _symmetry_equiv_pos_as_xyz
  1  'x, y, z'
loop_
 _atom_site_type_symbol
 _atom_site_label
 _atom_site_symmetry_multiplicity
 _atom_site_fract_x
 _atom_site_fract_y
 _atom_site_fract_z
 _atom_site_occupancy
  Sr  Sr0  1  0.392775  0.167805  0.809959  1
  Dy  Dy1  1  0.604854  0.832292  0.193007  1
  Dy  Dy2  1  0.733352  0.498573  0.807907  1
  Lu  Lu3  1  0.265892  0.501130  0.194373  1
  Al  Al4  1  0.686216  0.831725  0.948394  1
  Al  Al5  1  0.314961  0.167361  0.059055  1
  Al  Al6  1  0.147350  0.832253  0.558975  1
  Al  Al7  1  0.854186  0.167802  0.436694  1
  Al  Al8  1  0.480526  0.166576  0.556873  1
  Al  Al9  1  0.520604  0.833459  0.439665  1
  Al  Al10  1  0.218145  0.165813  0.327581  1
  Al  Al11  1  0.784359  0.834470  0.666326  1
  Al  Al12  1  0.438464  0.506429  0.665934  1
  Al  Al13  1  0.563448  0.493100  0.328033  1
  Al  Al14  1  0.110603  0.159984  0.664698  1
  Al  Al15  1  0.891334  0.839860  0.329203  1
  Al  Al16  1  0.350284  0.502042  0.949292  1
  Al  Al17  1  0.644310  0.501805  0.058252  1
  Al  Al18  1  0.011743  0.167094  0.959449  1
  Al  Al19  1  0.983867  0.830416  0.050786  1
  Al  Al20  1  0.187136  0.499264  0.439710  1
  Al  Al21  1  0.813978  0.500449  0.557025  1
  Al  Al22  1  0.732877  0.165840  0.184035  1
  Al  Al23  1  0.268820  0.825982  0.816491  1
  Al  Al24  1  0.053227  0.636797  0.815629  1
  Al  Al25  1  0.938647  0.369854  0.185137  1
  Al  Al26  1  0.861800  0.044030  0.816352  1
  Al  Al27  1  0.144675  0.957495  0.184436  1
  Pt  Pt28  1  0.119099  0.494519  0.636133  1
  Pt  Pt29  1  0.881171  0.508555  0.360374  1
  Pt  Pt30  1  0.657090  0.170933  0.002374  1
  Pt  Pt31  1  0.341281  0.828842  0.002631  1
  Pt  Pt32  1  0.537651  0.167187  0.360547  1
  Pt  Pt33  1  0.462086  0.831417  0.635955  1
  Pt  Pt34  1  0.782006  0.173769  0.634512  1
  Pt  Pt35  1  0.222188  0.824098  0.361327  1
  Pt  Pt36  1  0.998997  0.500982  0.002878  1
