# generated using pymatgen
data_Be4CrOs
_symmetry_space_group_name_H-M   'P 1'
_cell_length_a   4.26879400
_cell_length_b   4.26879532
_cell_length_c   6.96693900
_cell_angle_alpha   90.00000000
_cell_angle_beta   90.00000000
_cell_angle_gamma   120.00000523
_symmetry_Int_Tables_number   1
_chemical_formula_structural   Be4CrOs
_chemical_formula_sum   'Be8 Cr2 Os2'
_cell_volume   109.94693995
_cell_formula_units_Z   2
loop_
 _symmetry_equiv_pos_site_id
 _symmetry_equiv_pos_as_xyz
  1  'x, y, z'
loop_
 _atom_site_type_symbol
 _atom_site_label
 _atom_site_symmetry_multiplicity
 _atom_site_fract_x
 _atom_site_fract_y
 _atom_site_fract_z
 _atom_site_occupancy
  Be  Be0  1  0.169396  0.338791  0.749982  1
  Be  Be1  1  0.169396  0.830604  0.749982  1
  Be  Be2  1  0.338791  0.169396  0.249982  1
  Be  Be3  1  0.830604  0.661209  0.249982  1
  Be  Be4  1  0.000000  0.000000  0.000433  1
  Be  Be5  1  0.661209  0.830604  0.749982  1
  Be  Be6  1  0.830604  0.169396  0.249982  1
  Be  Be7  1  0.000000  0.000000  0.500433  1
  Cr  Cr8  1  0.333333  0.666667  0.061818  1
  Cr  Cr9  1  0.666667  0.333333  0.561818  1
  Os  Os10  1  0.333333  0.666667  0.437803  1
  Os  Os11  1  0.666667  0.333333  0.937803  1
