# generated using pymatgen
data_SrTa2Fe2(PO4)6
_symmetry_space_group_name_H-M   'P 1'
_cell_length_a   8.64129900
_cell_length_b   9.12446306
_cell_length_c   12.57703532
_cell_angle_alpha   86.41746380
_cell_angle_beta   90.00000000
_cell_angle_gamma   90.00000000
_symmetry_Int_Tables_number   1
_chemical_formula_structural   SrTa2Fe2(PO4)6
_chemical_formula_sum   'Sr2 Ta4 Fe4 P12 O48'
_cell_volume   989.72629982
_cell_formula_units_Z   2
loop_
 _symmetry_equiv_pos_site_id
 _symmetry_equiv_pos_as_xyz
  1  'x, y, z'
loop_
 _atom_site_type_symbol
 _atom_site_label
 _atom_site_symmetry_multiplicity
 _atom_site_fract_x
 _atom_site_fract_y
 _atom_site_fract_z
 _atom_site_occupancy
  Sr  Sr0  1  0.000000  0.000000  0.500000  1
  Sr  Sr1  1  0.500000  0.500000  0.500000  1
  Ta  Ta2  1  0.499346  0.214110  0.852975  1
  Ta  Ta3  1  0.999346  0.285890  0.147025  1
  Ta  Ta4  1  0.500654  0.785890  0.147025  1
  Ta  Ta5  1  0.000654  0.714110  0.852975  1
  Fe  Fe6  1  0.501276  0.800960  0.645828  1
  Fe  Fe7  1  0.001276  0.699040  0.354172  1
  Fe  Fe8  1  0.498724  0.199040  0.354172  1
  Fe  Fe9  1  0.998724  0.300960  0.645828  1
  P  P10  1  0.353586  0.856376  0.396057  1
  P  P11  1  0.284859  0.500100  0.740918  1
  P  P12  1  0.146414  0.356376  0.396057  1
  P  P13  1  0.860844  0.360155  0.890004  1
  P  P14  1  0.360844  0.139845  0.109996  1
  P  P15  1  0.784859  0.999900  0.259082  1
  P  P16  1  0.215141  0.000100  0.740918  1
  P  P17  1  0.639156  0.860155  0.890004  1
  P  P18  1  0.139156  0.639845  0.109996  1
  P  P19  1  0.853586  0.643624  0.603943  1
  P  P20  1  0.715141  0.499900  0.259082  1
  P  P21  1  0.646414  0.143624  0.603943  1
  O  O22  1  0.306573  0.908442  0.665245  1
  O  O23  1  0.177810  0.830230  0.397887  1
  O  O24  1  0.433790  0.771261  0.490135  1
  O  O25  1  0.423811  0.789496  0.294014  1
  O  O26  1  0.397040  0.597080  0.674378  1
  O  O27  1  0.121741  0.522315  0.394364  1
  O  O28  1  0.193427  0.408442  0.665245  1
  O  O29  1  0.380245  0.393671  0.819207  1
  O  O30  1  0.119891  0.471128  0.113306  1
  O  O31  1  0.820305  0.408683  0.188021  1
  O  O32  1  0.322190  0.330230  0.397887  1
  O  O33  1  0.066210  0.271261  0.490135  1
  O  O34  1  0.076189  0.289496  0.294014  1
  O  O35  1  0.683998  0.327504  0.890404  1
  O  O36  1  0.925015  0.295849  0.998594  1
  O  O37  1  0.943018  0.291420  0.799578  1
  O  O38  1  0.443018  0.208580  0.200422  1
  O  O39  1  0.425015  0.204151  0.001406  1
  O  O40  1  0.183998  0.172496  0.109596  1
  O  O41  1  0.880245  0.106329  0.180793  1
  O  O42  1  0.378259  0.022315  0.394364  1
  O  O43  1  0.102960  0.097080  0.674378  1
  O  O44  1  0.320305  0.091317  0.811979  1
  O  O45  1  0.619891  0.028872  0.886694  1
  O  O46  1  0.380109  0.971128  0.113306  1
  O  O47  1  0.679695  0.908683  0.188021  1
  O  O48  1  0.897040  0.902920  0.325622  1
  O  O49  1  0.621741  0.977685  0.605636  1
  O  O50  1  0.119755  0.893671  0.819207  1
  O  O51  1  0.816002  0.827504  0.890404  1
  O  O52  1  0.574985  0.795849  0.998594  1
  O  O53  1  0.556982  0.791420  0.799578  1
  O  O54  1  0.056982  0.708580  0.200422  1
  O  O55  1  0.074985  0.704151  0.001406  1
  O  O56  1  0.316002  0.672496  0.109596  1
  O  O57  1  0.923811  0.710504  0.705986  1
  O  O58  1  0.933790  0.728739  0.509865  1
  O  O59  1  0.677810  0.669770  0.602113  1
  O  O60  1  0.179695  0.591317  0.811979  1
  O  O61  1  0.880109  0.528872  0.886694  1
  O  O62  1  0.619755  0.606329  0.180793  1
  O  O63  1  0.806573  0.591558  0.334755  1
  O  O64  1  0.878259  0.477685  0.605636  1
  O  O65  1  0.602960  0.402920  0.325622  1
  O  O66  1  0.576189  0.210504  0.705986  1
  O  O67  1  0.566210  0.228739  0.509865  1
  O  O68  1  0.822190  0.169770  0.602113  1
  O  O69  1  0.693427  0.091558  0.334755  1
