# generated using pymatgen
data_Dy3Ho2InBi2
_symmetry_space_group_name_H-M   'P 1'
_cell_length_a   9.08315816
_cell_length_b   9.08315748
_cell_length_c   6.49920400
_cell_angle_alpha   90.00000000
_cell_angle_beta   90.00000000
_cell_angle_gamma   119.74739356
_symmetry_Int_Tables_number   1
_chemical_formula_structural   Dy3Ho2InBi2
_chemical_formula_sum   'Dy6 Ho4 In2 Bi4'
_cell_volume   465.54789632
_cell_formula_units_Z   2
loop_
 _symmetry_equiv_pos_site_id
 _symmetry_equiv_pos_as_xyz
  1  'x, y, z'
loop_
 _atom_site_type_symbol
 _atom_site_label
 _atom_site_symmetry_multiplicity
 _atom_site_fract_x
 _atom_site_fract_y
 _atom_site_fract_z
 _atom_site_occupancy
  Dy  Dy0  1  0.761877  0.761877  0.750000  1
  Dy  Dy1  1  0.236023  0.998470  0.750000  1
  Dy  Dy2  1  0.998470  0.236023  0.750000  1
  Dy  Dy3  1  0.234402  0.234402  0.250000  1
  Dy  Dy4  1  0.765071  0.008175  0.250000  1
  Dy  Dy5  1  0.008175  0.765071  0.250000  1
  Ho  Ho6  1  0.668796  0.328838  0.003538  1
  Ho  Ho7  1  0.328838  0.668796  0.003538  1
  Ho  Ho8  1  0.328838  0.668796  0.496462  1
  Ho  Ho9  1  0.668796  0.328838  0.496462  1
  In  In10  1  0.396198  0.001365  0.250000  1
  In  In11  1  0.001365  0.396198  0.250000  1
  Bi  Bi12  1  0.393812  0.393812  0.750000  1
  Bi  Bi13  1  0.603305  0.996961  0.750000  1
  Bi  Bi14  1  0.996961  0.603305  0.750000  1
  Bi  Bi15  1  0.609074  0.609074  0.250000  1
