# generated using pymatgen
data_LiYbTh3Pd11
_symmetry_space_group_name_H-M   'P 1'
_cell_length_a   5.94462100
_cell_length_b   5.91741310
_cell_length_c   9.71926900
_cell_angle_alpha   90.00000000
_cell_angle_beta   90.00000000
_cell_angle_gamma   120.15220990
_symmetry_Int_Tables_number   1
_chemical_formula_structural   LiYbTh3Pd11
_chemical_formula_sum   'Li1 Yb1 Th3 Pd11'
_cell_volume   295.63247658
_cell_formula_units_Z   1
loop_
 _symmetry_equiv_pos_site_id
 _symmetry_equiv_pos_as_xyz
  1  'x, y, z'
loop_
 _atom_site_type_symbol
 _atom_site_label
 _atom_site_symmetry_multiplicity
 _atom_site_fract_x
 _atom_site_fract_y
 _atom_site_fract_z
 _atom_site_occupancy
  Li  Li0  1  0.792260  0.584521  0.250000  1
  Yb  Yb1  1  0.333331  0.666662  0.250000  1
  Th  Th2  1  0.004229  0.008457  0.497599  1
  Th  Th3  1  0.004229  0.008457  0.002401  1
  Th  Th4  1  0.668978  0.337955  0.750000  1
  Pd  Pd5  1  0.505061  0.507778  0.496350  1
  Pd  Pd6  1  0.501709  0.003420  0.496066  1
  Pd  Pd7  1  0.002716  0.507778  0.496350  1
  Pd  Pd8  1  0.505061  0.507778  0.003650  1
  Pd  Pd9  1  0.501709  0.003420  0.003934  1
  Pd  Pd10  1  0.002716  0.507778  0.003650  1
  Pd  Pd11  1  0.346485  0.172637  0.250000  1
  Pd  Pd12  1  0.826151  0.172637  0.250000  1
  Pd  Pd13  1  0.175503  0.351005  0.750000  1
  Pd  Pd14  1  0.653020  0.829859  0.750000  1
  Pd  Pd15  1  0.176839  0.829859  0.750000  1
