# generated using pymatgen
data_YLuGa2NiRu
_symmetry_space_group_name_H-M   'P 1'
_cell_length_a   4.16873900
_cell_length_b   6.78920600
_cell_length_c   7.70847800
_cell_angle_alpha   90.00000000
_cell_angle_beta   90.00000000
_cell_angle_gamma   90.00000000
_symmetry_Int_Tables_number   1
_chemical_formula_structural   YLuGa2NiRu
_chemical_formula_sum   'Y2 Lu2 Ga4 Ni2 Ru2'
_cell_volume   218.16864228
_cell_formula_units_Z   2
loop_
 _symmetry_equiv_pos_site_id
 _symmetry_equiv_pos_as_xyz
  1  'x, y, z'
loop_
 _atom_site_type_symbol
 _atom_site_label
 _atom_site_symmetry_multiplicity
 _atom_site_fract_x
 _atom_site_fract_y
 _atom_site_fract_z
 _atom_site_occupancy
  Y  Y0  1  0.250000  0.023704  0.817409  1
  Y  Y1  1  0.250000  0.523704  0.682591  1
  Lu  Lu2  1  0.750000  0.978499  0.192260  1
  Lu  Lu3  1  0.750000  0.478499  0.307740  1
  Ga  Ga4  1  0.250000  0.159116  0.440241  1
  Ga  Ga5  1  0.250000  0.659116  0.059759  1
  Ga  Ga6  1  0.750000  0.843891  0.573481  1
  Ga  Ga7  1  0.750000  0.343891  0.926519  1
  Ni  Ni8  1  0.750000  0.224263  0.613591  1
  Ni  Ni9  1  0.750000  0.724263  0.886409  1
  Ru  Ru10  1  0.250000  0.770526  0.382907  1
  Ru  Ru11  1  0.250000  0.270526  0.117093  1
