# generated using pymatgen
data_Nd3Sm3(CBr5)2
_symmetry_space_group_name_H-M   'P 1'
_cell_length_a   7.57565638
_cell_length_b   9.13491559
_cell_length_c   9.24809668
_cell_angle_alpha   107.72330856
_cell_angle_beta   96.65971112
_cell_angle_gamma   105.29232958
_symmetry_Int_Tables_number   1
_chemical_formula_structural   Nd3Sm3(CBr5)2
_chemical_formula_sum   'Nd3 Sm3 C2 Br10'
_cell_volume   574.46359689
_cell_formula_units_Z   1
loop_
 _symmetry_equiv_pos_site_id
 _symmetry_equiv_pos_as_xyz
  1  'x, y, z'
loop_
 _atom_site_type_symbol
 _atom_site_label
 _atom_site_symmetry_multiplicity
 _atom_site_fract_x
 _atom_site_fract_y
 _atom_site_fract_z
 _atom_site_occupancy
  Nd  Nd0  1  0.886659  0.955465  0.231278  1
  Nd  Nd1  1  0.114114  0.043705  0.768777  1
  Nd  Nd2  1  0.028136  0.721282  0.916783  1
  Sm  Sm3  1  0.972457  0.275694  0.082540  1
  Sm  Sm4  1  0.614787  0.853912  0.805729  1
  Sm  Sm5  1  0.385309  0.147347  0.194455  1
  C  C6  1  0.907688  0.968887  0.955807  1
  C  C7  1  0.092219  0.033909  0.045109  1
  Br  Br8  1  0.747398  0.913965  0.539650  1
  Br  Br9  1  0.253235  0.086592  0.460407  1
  Br  Br10  1  0.456880  0.819515  0.085034  1
  Br  Br11  1  0.546079  0.182085  0.916589  1
  Br  Br12  1  0.812965  0.267299  0.352324  1
  Br  Br13  1  0.190318  0.733960  0.643841  1
  Br  Br14  1  0.909896  0.625787  0.175280  1
  Br  Br15  1  0.087969  0.371367  0.828357  1
  Br  Br16  1  0.650885  0.539989  0.722864  1
  Br  Br17  1  0.343006  0.459241  0.275176  1
