# generated using pymatgen
data_TbDy9(Bi3Se)2
_symmetry_space_group_name_H-M   'P 1'
_cell_length_a   9.27736901
_cell_length_b   9.27809888
_cell_length_c   6.62102700
_cell_angle_alpha   90.00000000
_cell_angle_beta   90.00000000
_cell_angle_gamma   120.00260405
_symmetry_Int_Tables_number   1
_chemical_formula_structural   TbDy9(Bi3Se)2
_chemical_formula_sum   'Tb1 Dy9 Bi6 Se2'
_cell_volume   493.54689222
_cell_formula_units_Z   1
loop_
 _symmetry_equiv_pos_site_id
 _symmetry_equiv_pos_as_xyz
  1  'x, y, z'
loop_
 _atom_site_type_symbol
 _atom_site_label
 _atom_site_symmetry_multiplicity
 _atom_site_fract_x
 _atom_site_fract_y
 _atom_site_fract_z
 _atom_site_occupancy
  Tb  Tb0  1  0.000000  0.745310  0.750000  1
  Dy  Dy1  1  0.666662  0.333317  0.499997  1
  Dy  Dy2  1  0.333338  0.666656  0.499997  1
  Dy  Dy3  1  0.333338  0.666656  0.000003  1
  Dy  Dy4  1  0.666662  0.333317  0.000003  1
  Dy  Dy5  1  0.745419  0.745438  0.250000  1
  Dy  Dy6  1  0.254581  0.000019  0.250000  1
  Dy  Dy7  1  0.000000  0.254552  0.250000  1
  Dy  Dy8  1  0.254540  0.254540  0.750000  1
  Dy  Dy9  1  0.745460  0.000000  0.750000  1
  Bi  Bi10  1  0.394030  0.394023  0.250000  1
  Bi  Bi11  1  0.605970  0.999993  0.250000  1
  Bi  Bi12  1  0.000000  0.605958  0.250000  1
  Bi  Bi13  1  0.605869  0.605951  0.750000  1
  Bi  Bi14  1  0.394131  0.000082  0.750000  1
  Bi  Bi15  1  0.000000  0.393939  0.750000  1
  Se  Se16  1  0.000000  0.000125  0.499879  1
  Se  Se17  1  0.000000  0.000125  0.000121  1
