# generated using pymatgen
data_Zr10ZnHgBi5Au
_symmetry_space_group_name_H-M   'P 1'
_cell_length_a   8.80481666
_cell_length_b   8.86124833
_cell_length_c   5.97435600
_cell_angle_alpha   89.89970120
_cell_angle_beta   90.20189009
_cell_angle_gamma   119.78956623
_symmetry_Int_Tables_number   1
_chemical_formula_structural   Zr10ZnHgBi5Au
_chemical_formula_sum   'Zr10 Zn1 Hg1 Bi5 Au1'
_cell_volume   404.53049583
_cell_formula_units_Z   1
loop_
 _symmetry_equiv_pos_site_id
 _symmetry_equiv_pos_as_xyz
  1  'x, y, z'
loop_
 _atom_site_type_symbol
 _atom_site_label
 _atom_site_symmetry_multiplicity
 _atom_site_fract_x
 _atom_site_fract_y
 _atom_site_fract_z
 _atom_site_occupancy
  Zr  Zr0  1  0.722641  0.000000  0.241748  1
  Zr  Zr1  1  0.006723  0.731046  0.240061  1
  Zr  Zr2  1  0.275677  0.268954  0.240061  1
  Zr  Zr3  1  0.268137  0.000000  0.767165  1
  Zr  Zr4  1  0.998860  0.269091  0.757765  1
  Zr  Zr5  1  0.729769  0.730909  0.757765  1
  Zr  Zr6  1  0.332718  0.667020  0.497060  1
  Zr  Zr7  1  0.665699  0.332980  0.497060  1
  Zr  Zr8  1  0.665250  0.331862  0.001868  1
  Zr  Zr9  1  0.333388  0.668138  0.001868  1
  Zn  Zn10  1  0.998604  0.000000  0.005758  1
  Hg  Hg11  1  0.383613  0.000000  0.256327  1
  Bi  Bi12  1  0.000371  0.381446  0.252639  1
  Bi  Bi13  1  0.618926  0.618554  0.252639  1
  Bi  Bi14  1  0.611173  0.000000  0.745339  1
  Bi  Bi15  1  0.000683  0.616301  0.745455  1
  Bi  Bi16  1  0.384383  0.383699  0.745455  1
  Au  Au17  1  0.003385  0.000000  0.493971  1
