# generated using pymatgen
data_Th2Sc3CoSb3
_symmetry_space_group_name_H-M   'P 1'
_cell_length_a   7.80108100
_cell_length_b   7.74309300
_cell_length_c   14.76729500
_cell_angle_alpha   90.00000000
_cell_angle_beta   90.00000000
_cell_angle_gamma   90.00000000
_symmetry_Int_Tables_number   1
_chemical_formula_structural   Th2Sc3CoSb3
_chemical_formula_sum   'Th8 Sc12 Co4 Sb12'
_cell_volume   892.01100708
_cell_formula_units_Z   4
loop_
 _symmetry_equiv_pos_site_id
 _symmetry_equiv_pos_as_xyz
  1  'x, y, z'
loop_
 _atom_site_type_symbol
 _atom_site_label
 _atom_site_symmetry_multiplicity
 _atom_site_fract_x
 _atom_site_fract_y
 _atom_site_fract_z
 _atom_site_occupancy
  Th  Th0  1  0.012194  0.698305  0.615823  1
  Th  Th1  1  0.987806  0.301695  0.384177  1
  Th  Th2  1  0.487806  0.198305  0.384177  1
  Th  Th3  1  0.987806  0.301695  0.115823  1
  Th  Th4  1  0.512194  0.801695  0.615823  1
  Th  Th5  1  0.012194  0.698305  0.884177  1
  Th  Th6  1  0.512194  0.801695  0.884177  1
  Th  Th7  1  0.487806  0.198305  0.115823  1
  Sc  Sc8  1  0.188552  0.994825  0.750000  1
  Sc  Sc9  1  0.811448  0.005175  0.250000  1
  Sc  Sc10  1  0.311448  0.494825  0.250000  1
  Sc  Sc11  1  0.688552  0.505175  0.750000  1
  Sc  Sc12  1  0.362035  0.365356  0.628409  1
  Sc  Sc13  1  0.637965  0.634644  0.371591  1
  Sc  Sc14  1  0.137965  0.865356  0.371591  1
  Sc  Sc15  1  0.637965  0.634644  0.128409  1
  Sc  Sc16  1  0.862035  0.134644  0.628409  1
  Sc  Sc17  1  0.362035  0.365356  0.871591  1
  Sc  Sc18  1  0.862035  0.134644  0.871591  1
  Sc  Sc19  1  0.137965  0.865356  0.128409  1
  Co  Co20  1  0.318940  0.638897  0.750000  1
  Co  Co21  1  0.681060  0.361103  0.250000  1
  Co  Co22  1  0.181060  0.138897  0.250000  1
  Co  Co23  1  0.818940  0.861103  0.750000  1
  Sb  Sb24  1  0.061278  0.373076  0.750000  1
  Sb  Sb25  1  0.938722  0.626924  0.250000  1
  Sb  Sb26  1  0.438722  0.873076  0.250000  1
  Sb  Sb27  1  0.561278  0.126924  0.750000  1
  Sb  Sb28  1  0.212336  0.058481  0.543828  1
  Sb  Sb29  1  0.787664  0.941519  0.456172  1
  Sb  Sb30  1  0.287664  0.558481  0.456172  1
  Sb  Sb31  1  0.787664  0.941519  0.043828  1
  Sb  Sb32  1  0.712336  0.441519  0.543828  1
  Sb  Sb33  1  0.212336  0.058481  0.956172  1
  Sb  Sb34  1  0.712336  0.441519  0.956172  1
  Sb  Sb35  1  0.287664  0.558481  0.043828  1
