# generated using pymatgen
data_Ca2TbYbPd4
_symmetry_space_group_name_H-M   'P 1'
_cell_length_a   4.42613700
_cell_length_b   5.74417613
_cell_length_c   7.31744225
_cell_angle_alpha   90.06334491
_cell_angle_beta   90.00000000
_cell_angle_gamma   90.00000000
_symmetry_Int_Tables_number   1
_chemical_formula_structural   Ca2TbYbPd4
_chemical_formula_sum   'Ca2 Tb1 Yb1 Pd4'
_cell_volume   186.04227376
_cell_formula_units_Z   1
loop_
 _symmetry_equiv_pos_site_id
 _symmetry_equiv_pos_as_xyz
  1  'x, y, z'
loop_
 _atom_site_type_symbol
 _atom_site_label
 _atom_site_symmetry_multiplicity
 _atom_site_fract_x
 _atom_site_fract_y
 _atom_site_fract_z
 _atom_site_occupancy
  Ca  Ca0  1  0.250000  0.137911  0.183832  1
  Ca  Ca1  1  0.750000  0.639431  0.317351  1
  Tb  Tb2  1  0.750000  0.865351  0.817662  1
  Yb  Yb3  1  0.250000  0.359599  0.682238  1
  Pd  Pd4  1  0.250000  0.854166  0.556960  1
  Pd  Pd5  1  0.250000  0.649412  0.016215  1
  Pd  Pd6  1  0.750000  0.144069  0.474653  1
  Pd  Pd7  1  0.750000  0.350060  0.951089  1
