# generated using pymatgen
data_Nb6RuS12
_symmetry_space_group_name_H-M   'P 1'
_cell_length_a   5.77543541
_cell_length_b   5.77543575
_cell_length_c   12.74158400
_cell_angle_alpha   85.68832840
_cell_angle_beta   85.68832815
_cell_angle_gamma   119.99988581
_symmetry_Int_Tables_number   1
_chemical_formula_structural   Nb6RuS12
_chemical_formula_sum   'Nb6 Ru1 S12'
_cell_volume   363.87998753
_cell_formula_units_Z   1
loop_
 _symmetry_equiv_pos_site_id
 _symmetry_equiv_pos_as_xyz
  1  'x, y, z'
loop_
 _atom_site_type_symbol
 _atom_site_label
 _atom_site_symmetry_multiplicity
 _atom_site_fract_x
 _atom_site_fract_y
 _atom_site_fract_z
 _atom_site_occupancy
  Nb  Nb0  1  0.079409  0.079409  0.760520  1
  Nb  Nb1  1  0.412008  0.745330  0.762903  1
  Nb  Nb2  1  0.745330  0.412008  0.762903  1
  Nb  Nb3  1  0.254670  0.587992  0.237097  1
  Nb  Nb4  1  0.587992  0.254670  0.237097  1
  Nb  Nb5  1  0.920591  0.920591  0.239480  1
  Ru  Ru6  1  0.000000  0.000000  0.000000  1
  S  S7  1  0.295116  0.295116  0.112694  1
  S  S8  1  0.630070  0.962662  0.112688  1
  S  S9  1  0.962662  0.630070  0.112688  1
  S  S10  1  0.037338  0.369930  0.887312  1
  S  S11  1  0.369930  0.037338  0.887312  1
  S  S12  1  0.704884  0.704884  0.887306  1
  S  S13  1  0.214058  0.214058  0.363063  1
  S  S14  1  0.544869  0.879545  0.363016  1
  S  S15  1  0.879545  0.544869  0.363016  1
  S  S16  1  0.120455  0.455131  0.636984  1
  S  S17  1  0.455131  0.120455  0.636984  1
  S  S18  1  0.785942  0.785942  0.636937  1
