# generated using pymatgen
data_CsTc2Te7Mo4
_symmetry_space_group_name_H-M   'P 1'
_cell_length_a   10.45662133
_cell_length_b   10.44938238
_cell_length_c   10.44298939
_cell_angle_alpha   60.59693381
_cell_angle_beta   60.57353794
_cell_angle_gamma   60.51303049
_symmetry_Int_Tables_number   1
_chemical_formula_structural   CsTc2Te7Mo4
_chemical_formula_sum   'Cs2 Tc4 Te14 Mo8'
_cell_volume   817.07590915
_cell_formula_units_Z   2
loop_
 _symmetry_equiv_pos_site_id
 _symmetry_equiv_pos_as_xyz
  1  'x, y, z'
loop_
 _atom_site_type_symbol
 _atom_site_label
 _atom_site_symmetry_multiplicity
 _atom_site_fract_x
 _atom_site_fract_y
 _atom_site_fract_z
 _atom_site_occupancy
  Cs  Cs0  1  0.620287  0.620279  0.620692  1
  Cs  Cs1  1  0.380556  0.379648  0.378848  1
  Tc  Tc2  1  0.713855  0.878282  0.005935  1
  Tc  Tc3  1  0.006656  0.712129  0.879960  1
  Tc  Tc4  1  0.878744  0.005174  0.713750  1
  Tc  Tc5  1  0.286048  0.122257  0.995120  1
  Te  Te6  1  0.426517  0.816708  0.159826  1
  Te  Te7  1  0.168285  0.423656  0.809679  1
  Te  Te8  1  0.808399  0.165367  0.427527  1
  Te  Te9  1  0.577792  0.181735  0.837818  1
  Te  Te10  1  0.836182  0.579499  0.182976  1
  Te  Te11  1  0.181952  0.835871  0.581040  1
  Te  Te12  1  0.632364  0.978220  0.246299  1
  Te  Te13  1  0.245634  0.633080  0.980061  1
  Te  Te14  1  0.977787  0.245758  0.633722  1
  Te  Te15  1  0.366215  0.020650  0.752779  1
  Te  Te16  1  0.751678  0.365980  0.017040  1
  Te  Te17  1  0.020608  0.750389  0.364418  1
  Te  Te18  1  0.782813  0.779223  0.780495  1
  Te  Te19  1  0.224561  0.222108  0.220169  1
  Mo  Mo20  1  0.995221  0.285440  0.121899  1
  Mo  Mo21  1  0.120160  0.997049  0.285813  1
  Mo  Mo22  1  0.942351  0.811440  0.109098  1
  Mo  Mo23  1  0.106930  0.943171  0.812890  1
  Mo  Mo24  1  0.810004  0.107927  0.944217  1
  Mo  Mo25  1  0.057169  0.188183  0.893423  1
  Mo  Mo26  1  0.892618  0.056652  0.188583  1
  Mo  Mo27  1  0.188613  0.894128  0.055924  1
