# generated using pymatgen
data_Sm3Gd3(WO7)2
_symmetry_space_group_name_H-M   'P 1'
_cell_length_a   6.57979684
_cell_length_b   6.57807081
_cell_length_c   7.61743513
_cell_angle_alpha   89.98806948
_cell_angle_beta   89.98703441
_cell_angle_gamma   109.30179250
_symmetry_Int_Tables_number   1
_chemical_formula_structural   Sm3Gd3(WO7)2
_chemical_formula_sum   'Sm3 Gd3 W2 O14'
_cell_volume   311.16834880
_cell_formula_units_Z   1
loop_
 _symmetry_equiv_pos_site_id
 _symmetry_equiv_pos_as_xyz
  1  'x, y, z'
loop_
 _atom_site_type_symbol
 _atom_site_label
 _atom_site_symmetry_multiplicity
 _atom_site_fract_x
 _atom_site_fract_y
 _atom_site_fract_z
 _atom_site_occupancy
  Sm  Sm0  1  0.516551  0.516221  0.249655  1
  Sm  Sm1  1  0.485407  0.484481  0.750382  1
  Sm  Sm2  1  0.999761  0.465896  0.497623  1
  Gd  Gd3  1  0.531746  0.000738  0.502452  1
  Gd  Gd4  1  0.000792  0.532540  0.997644  1
  Gd  Gd5  1  0.467937  0.999204  0.002295  1
  W  W6  1  0.000208  0.000343  0.249593  1
  W  W7  1  0.999208  0.999225  0.750375  1
  O  O8  1  0.067646  0.315576  0.217892  1
  O  O9  1  0.684376  0.933865  0.781427  1
  O  O10  1  0.931778  0.684175  0.720054  1
  O  O11  1  0.314988  0.066218  0.281141  1
  O  O12  1  0.678594  0.921934  0.222040  1
  O  O13  1  0.079612  0.321492  0.778453  1
  O  O14  1  0.321063  0.078377  0.722574  1
  O  O15  1  0.919820  0.678069  0.276366  1
  O  O16  1  0.371567  0.633909  0.500164  1
  O  O17  1  0.632124  0.367737  0.999948  1
  O  O18  1  0.362246  0.638254  0.000058  1
  O  O19  1  0.634148  0.361538  0.499875  1
  O  O20  1  0.930183  0.069869  0.499999  1
  O  O21  1  0.070245  0.930339  0.999991  1
