# generated using pymatgen
data_Tb3DyAl4RuPt3
_symmetry_space_group_name_H-M   'P 1'
_cell_length_a   4.37070800
_cell_length_b   6.87651131
_cell_length_c   7.88076285
_cell_angle_alpha   89.78665045
_cell_angle_beta   90.00000000
_cell_angle_gamma   90.00000000
_symmetry_Int_Tables_number   1
_chemical_formula_structural   Tb3DyAl4RuPt3
_chemical_formula_sum   'Tb3 Dy1 Al4 Ru1 Pt3'
_cell_volume   236.85644291
_cell_formula_units_Z   1
loop_
 _symmetry_equiv_pos_site_id
 _symmetry_equiv_pos_as_xyz
  1  'x, y, z'
loop_
 _atom_site_type_symbol
 _atom_site_label
 _atom_site_symmetry_multiplicity
 _atom_site_fract_x
 _atom_site_fract_y
 _atom_site_fract_z
 _atom_site_occupancy
  Tb  Tb0  1  0.250000  0.469797  0.181226  1
  Tb  Tb1  1  0.750000  0.532493  0.814391  1
  Tb  Tb2  1  0.250000  0.966645  0.322400  1
  Dy  Dy3  1  0.750000  0.023392  0.680089  1
  Al  Al4  1  0.250000  0.855470  0.936695  1
  Al  Al5  1  0.750000  0.142281  0.062554  1
  Al  Al6  1  0.750000  0.644897  0.439261  1
  Al  Al7  1  0.250000  0.361488  0.563943  1
  Ru  Ru8  1  0.250000  0.735494  0.617618  1
  Pt  Pt9  1  0.750000  0.270646  0.380820  1
  Pt  Pt10  1  0.750000  0.770282  0.118612  1
  Pt  Pt11  1  0.250000  0.227116  0.882390  1
