# generated using pymatgen
data_SmPa3(B4Os)4
_symmetry_space_group_name_H-M   'P 1'
_cell_length_a   3.60796200
_cell_length_b   6.00970701
_cell_length_c   11.64784859
_cell_angle_alpha   89.97352315
_cell_angle_beta   90.00000000
_cell_angle_gamma   90.00000000
_symmetry_Int_Tables_number   1
_chemical_formula_structural   SmPa3(B4Os)4
_chemical_formula_sum   'Sm1 Pa3 B16 Os4'
_cell_volume   252.55788074
_cell_formula_units_Z   1
loop_
 _symmetry_equiv_pos_site_id
 _symmetry_equiv_pos_as_xyz
  1  'x, y, z'
loop_
 _atom_site_type_symbol
 _atom_site_label
 _atom_site_symmetry_multiplicity
 _atom_site_fract_x
 _atom_site_fract_y
 _atom_site_fract_z
 _atom_site_occupancy
  Sm  Sm0  1  0.000000  0.870859  0.149043  1
  Pa  Pa1  1  0.000000  0.628113  0.649444  1
  Pa  Pa2  1  0.000000  0.371601  0.349797  1
  Pa  Pa3  1  0.000000  0.128876  0.850604  1
  B  B4  1  0.500000  0.970913  0.690930  1
  B  B5  1  0.500000  0.027325  0.309918  1
  B  B6  1  0.500000  0.470889  0.809132  1
  B  B7  1  0.500000  0.526381  0.190709  1
  B  B8  1  0.500000  0.790106  0.811716  1
  B  B9  1  0.500000  0.214452  0.187938  1
  B  B10  1  0.500000  0.290883  0.688580  1
  B  B11  1  0.500000  0.709902  0.313630  1
  B  B12  1  0.500000  0.864263  0.967754  1
  B  B13  1  0.500000  0.137660  0.031673  1
  B  B14  1  0.500000  0.364746  0.532319  1
  B  B15  1  0.500000  0.633003  0.467155  1
  B  B16  1  0.500000  0.885527  0.545261  1
  B  B17  1  0.500000  0.112160  0.454048  1
  B  B18  1  0.500000  0.386746  0.954769  1
  B  B19  1  0.500000  0.611970  0.045428  1
  Os  Os20  1  0.000000  0.642471  0.901068  1
  Os  Os21  1  0.000000  0.359717  0.093448  1
  Os  Os22  1  0.000000  0.143083  0.598227  1
  Os  Os23  1  0.000000  0.858352  0.407411  1
