# generated using pymatgen
data_Li6Dy2PaN6
_symmetry_space_group_name_H-M   'P 1'
_cell_length_a   6.07135800
_cell_length_b   6.07135864
_cell_length_c   5.48568800
_cell_angle_alpha   90.00000000
_cell_angle_beta   90.00000000
_cell_angle_gamma   119.99999652
_symmetry_Int_Tables_number   1
_chemical_formula_structural   Li6Dy2PaN6
_chemical_formula_sum   'Li6 Dy2 Pa1 N6'
_cell_volume   175.11908519
_cell_formula_units_Z   1
loop_
 _symmetry_equiv_pos_site_id
 _symmetry_equiv_pos_as_xyz
  1  'x, y, z'
loop_
 _atom_site_type_symbol
 _atom_site_label
 _atom_site_symmetry_multiplicity
 _atom_site_fract_x
 _atom_site_fract_y
 _atom_site_fract_z
 _atom_site_occupancy
  Li  Li0  1  0.987115  0.657438  0.605328  1
  Li  Li1  1  0.342562  0.329677  0.605328  1
  Li  Li2  1  0.670323  0.012885  0.605328  1
  Li  Li3  1  0.011061  0.337512  0.393716  1
  Li  Li4  1  0.662488  0.673548  0.393716  1
  Li  Li5  1  0.326452  0.988939  0.393716  1
  Dy  Dy6  1  0.000000  0.000000  0.997269  1
  Dy  Dy7  1  0.333333  0.666667  0.992522  1
  Pa  Pa8  1  0.666667  0.333333  0.007126  1
  N  N9  1  0.986976  0.653649  0.230047  1
  N  N10  1  0.346351  0.333327  0.230047  1
  N  N11  1  0.666673  0.013024  0.230047  1
  N  N12  1  0.984525  0.333534  0.771937  1
  N  N13  1  0.666466  0.650992  0.771937  1
  N  N14  1  0.349008  0.015475  0.771937  1
