# generated using pymatgen
data_Zr2TcSn2Ir
_symmetry_space_group_name_H-M   'P 1'
_cell_length_a   7.71069100
_cell_length_b   7.71069050
_cell_length_c   6.77041900
_cell_angle_alpha   90.00000000
_cell_angle_beta   90.00000000
_cell_angle_gamma   119.99999785
_symmetry_Int_Tables_number   1
_chemical_formula_structural   Zr2TcSn2Ir
_chemical_formula_sum   'Zr6 Tc3 Sn6 Ir3'
_cell_volume   348.60431510
_cell_formula_units_Z   3
loop_
 _symmetry_equiv_pos_site_id
 _symmetry_equiv_pos_as_xyz
  1  'x, y, z'
loop_
 _atom_site_type_symbol
 _atom_site_label
 _atom_site_symmetry_multiplicity
 _atom_site_fract_x
 _atom_site_fract_y
 _atom_site_fract_z
 _atom_site_occupancy
  Zr  Zr0  1  0.389881  0.004767  0.251685  1
  Zr  Zr1  1  0.613782  0.610893  0.748309  1
  Zr  Zr2  1  0.614887  0.610119  0.251685  1
  Zr  Zr3  1  0.995233  0.385113  0.251685  1
  Zr  Zr4  1  0.997109  0.386218  0.748309  1
  Zr  Zr5  1  0.389107  0.002891  0.748309  1
  Tc  Tc6  1  0.666667  0.333333  0.500856  1
  Tc  Tc7  1  0.000000  0.000000  0.751036  1
  Tc  Tc8  1  0.000000  0.000000  0.248920  1
  Sn  Sn9  1  0.279940  0.280478  0.499988  1
  Sn  Sn10  1  0.279561  0.281710  0.999957  1
  Sn  Sn11  1  0.718290  0.997851  0.999957  1
  Sn  Sn12  1  0.000538  0.720060  0.499988  1
  Sn  Sn13  1  0.719522  0.999462  0.499988  1
  Sn  Sn14  1  0.002149  0.720439  0.999957  1
  Ir  Ir15  1  0.666667  0.333333  0.999111  1
  Ir  Ir16  1  0.333333  0.666667  0.002462  1
  Ir  Ir17  1  0.333333  0.666667  0.497800  1
