# generated using pymatgen
data_MoOs2Br9
_symmetry_space_group_name_H-M   'P 1'
_cell_length_a   8.80079024
_cell_length_b   10.71509700
_cell_length_c   9.49993759
_cell_angle_alpha   90.00000000
_cell_angle_beta   111.46232236
_cell_angle_gamma   90.00000000
_symmetry_Int_Tables_number   1
_chemical_formula_structural   MoOs2Br9
_chemical_formula_sum   'Mo2 Os4 Br18'
_cell_volume   833.73651039
_cell_formula_units_Z   2
loop_
 _symmetry_equiv_pos_site_id
 _symmetry_equiv_pos_as_xyz
  1  'x, y, z'
loop_
 _atom_site_type_symbol
 _atom_site_label
 _atom_site_symmetry_multiplicity
 _atom_site_fract_x
 _atom_site_fract_y
 _atom_site_fract_z
 _atom_site_occupancy
  Mo  Mo0  1  0.830972  0.250000  0.147514  1
  Mo  Mo1  1  0.169027  0.750000  0.852486  1
  Os  Os2  1  0.835915  0.129235  0.371441  1
  Os  Os3  1  0.835915  0.370764  0.371441  1
  Os  Os4  1  0.164085  0.629235  0.628559  1
  Os  Os5  1  0.164085  0.870765  0.628559  1
  Br  Br6  1  0.437826  0.750000  0.044295  1
  Br  Br7  1  0.089829  0.250000  0.109760  1
  Br  Br8  1  0.830523  0.008126  0.142127  1
  Br  Br9  1  0.830523  0.491874  0.142127  1
  Br  Br10  1  0.544261  0.092286  0.305652  1
  Br  Br11  1  0.544261  0.407714  0.305652  1
  Br  Br12  1  0.154556  0.750000  0.397293  1
  Br  Br13  1  0.144276  0.093437  0.487727  1
  Br  Br14  1  0.144276  0.406562  0.487727  1
  Br  Br15  1  0.855723  0.593437  0.512272  1
  Br  Br16  1  0.855723  0.906563  0.512272  1
  Br  Br17  1  0.845444  0.250000  0.602707  1
  Br  Br18  1  0.455739  0.592285  0.694348  1
  Br  Br19  1  0.455739  0.907715  0.694348  1
  Br  Br20  1  0.169477  0.508126  0.857873  1
  Br  Br21  1  0.169477  0.991875  0.857873  1
  Br  Br22  1  0.910170  0.750000  0.890240  1
  Br  Br23  1  0.562174  0.250000  0.955705  1
