# generated using pymatgen
data_V12FeSiPt2
_symmetry_space_group_name_H-M   'P 1'
_cell_length_a   4.75607900
_cell_length_b   4.74540200
_cell_length_c   9.50477000
_cell_angle_alpha   90.00000000
_cell_angle_beta   90.00000000
_cell_angle_gamma   90.00000000
_symmetry_Int_Tables_number   1
_chemical_formula_structural   V12FeSiPt2
_chemical_formula_sum   'V12 Fe1 Si1 Pt2'
_cell_volume   214.51797114
_cell_formula_units_Z   1
loop_
 _symmetry_equiv_pos_site_id
 _symmetry_equiv_pos_as_xyz
  1  'x, y, z'
loop_
 _atom_site_type_symbol
 _atom_site_label
 _atom_site_symmetry_multiplicity
 _atom_site_fract_x
 _atom_site_fract_y
 _atom_site_fract_z
 _atom_site_occupancy
  V  V0  1  0.000000  0.500000  0.118917  1
  V  V1  1  0.000000  0.500000  0.628551  1
  V  V2  1  0.500000  0.254028  0.758686  1
  V  V3  1  0.500000  0.250350  0.243635  1
  V  V4  1  0.744282  0.000000  0.005692  1
  V  V5  1  0.751682  0.000000  0.492036  1
  V  V6  1  0.000000  0.500000  0.877039  1
  V  V7  1  0.000000  0.500000  0.375369  1
  V  V8  1  0.500000  0.745972  0.758686  1
  V  V9  1  0.500000  0.749650  0.243635  1
  V  V10  1  0.255718  0.000000  0.005692  1
  V  V11  1  0.248318  0.000000  0.492036  1
  Fe  Fe12  1  0.500000  0.500000  0.998441  1
  Si  Si13  1  0.000000  0.000000  0.248446  1
  Pt  Pt14  1  0.500000  0.500000  0.503079  1
  Pt  Pt15  1  0.000000  0.000000  0.750062  1
