# generated using pymatgen
data_Hf5Fe2Co14Si7Mo
_symmetry_space_group_name_H-M   'P 1'
_cell_length_a   7.98298837
_cell_length_b   8.01020346
_cell_length_c   8.01020347
_cell_angle_alpha   59.84532788
_cell_angle_beta   60.16516599
_cell_angle_gamma   60.16515608
_symmetry_Int_Tables_number   1
_chemical_formula_structural   Hf5Fe2Co14Si7Mo
_chemical_formula_sum   'Hf5 Fe2 Co14 Si7 Mo1'
_cell_volume   362.66406621
_cell_formula_units_Z   1
loop_
 _symmetry_equiv_pos_site_id
 _symmetry_equiv_pos_as_xyz
  1  'x, y, z'
loop_
 _atom_site_type_symbol
 _atom_site_label
 _atom_site_symmetry_multiplicity
 _atom_site_fract_x
 _atom_site_fract_y
 _atom_site_fract_z
 _atom_site_occupancy
  Hf  Hf0  1  0.703412  0.705680  0.297435  1
  Hf  Hf1  1  0.294377  0.298237  0.704688  1
  Hf  Hf2  1  0.709103  0.290789  0.290789  1
  Hf  Hf3  1  0.703412  0.297435  0.705680  1
  Hf  Hf4  1  0.294377  0.704688  0.298237  1
  Fe  Fe5  1  0.981696  0.673692  0.673692  1
  Fe  Fe6  1  0.356388  0.877768  0.877768  1
  Co  Co7  1  0.887019  0.879018  0.879018  1
  Co  Co8  1  0.005183  0.331901  0.331901  1
  Co  Co9  1  0.121864  0.112961  0.645038  1
  Co  Co10  1  0.332653  0.004346  0.330699  1
  Co  Co11  1  0.332281  0.330913  0.330913  1
  Co  Co12  1  0.671251  0.671856  0.984689  1
  Co  Co13  1  0.882137  0.878729  0.361186  1
  Co  Co14  1  0.672196  0.670865  0.670865  1
  Co  Co15  1  0.671251  0.984689  0.671856  1
  Co  Co16  1  0.332653  0.330699  0.004346  1
  Co  Co17  1  0.882137  0.361186  0.878729  1
  Co  Co18  1  0.639003  0.120571  0.120571  1
  Co  Co19  1  0.121864  0.645038  0.112961  1
  Co  Co20  1  0.121504  0.120007  0.120007  1
  Si  Si21  1  0.002661  0.001875  0.502127  1
  Si  Si22  1  0.002661  0.502127  0.001875  1
  Si  Si23  1  0.993998  0.004774  0.004774  1
  Si  Si24  1  0.494473  0.998054  0.503636  1
  Si  Si25  1  0.002521  0.497829  0.497829  1
  Si  Si26  1  0.499896  0.000022  0.000022  1
  Si  Si27  1  0.494473  0.503636  0.998054  1
  Mo  Mo28  1  0.293561  0.700615  0.700615  1
