# generated using pymatgen
data_DySc2Ti2(Co2Si5)2
_symmetry_space_group_name_H-M   'P 1'
_cell_length_a   11.93715400
_cell_length_b   11.93609100
_cell_length_c   3.90310700
_cell_angle_alpha   90.00000000
_cell_angle_beta   90.00000000
_cell_angle_gamma   90.00000000
_symmetry_Int_Tables_number   1
_chemical_formula_structural   DySc2Ti2(Co2Si5)2
_chemical_formula_sum   'Dy2 Sc4 Ti4 Co8 Si20'
_cell_volume   556.12622460
_cell_formula_units_Z   2
loop_
 _symmetry_equiv_pos_site_id
 _symmetry_equiv_pos_as_xyz
  1  'x, y, z'
loop_
 _atom_site_type_symbol
 _atom_site_label
 _atom_site_symmetry_multiplicity
 _atom_site_fract_x
 _atom_site_fract_y
 _atom_site_fract_z
 _atom_site_occupancy
  Dy  Dy0  1  0.885824  0.386195  0.500000  1
  Dy  Dy1  1  0.385824  0.113805  0.500000  1
  Sc  Sc2  1  0.999416  0.998911  0.000000  1
  Sc  Sc3  1  0.499416  0.501089  0.000000  1
  Sc  Sc4  1  0.613955  0.885764  0.500000  1
  Sc  Sc5  1  0.113955  0.614236  0.500000  1
  Ti  Ti6  1  0.675091  0.173134  0.500000  1
  Ti  Ti7  1  0.175091  0.326866  0.500000  1
  Ti  Ti8  1  0.825393  0.676538  0.500000  1
  Ti  Ti9  1  0.325393  0.823462  0.500000  1
  Co  Co10  1  0.522631  0.254406  0.000000  1
  Co  Co11  1  0.253505  0.478692  0.000000  1
  Co  Co12  1  0.745004  0.524179  0.000000  1
  Co  Co13  1  0.477203  0.745956  0.000000  1
  Co  Co14  1  0.977203  0.754044  0.000000  1
  Co  Co15  1  0.022631  0.245594  0.000000  1
  Co  Co16  1  0.753505  0.021308  0.000000  1
  Co  Co17  1  0.245004  0.975821  0.000000  1
  Si  Si18  1  0.571089  0.068659  0.000000  1
  Si  Si19  1  0.071089  0.431341  0.000000  1
  Si  Si20  1  0.930416  0.571958  0.000000  1
  Si  Si21  1  0.430416  0.928042  0.000000  1
  Si  Si22  1  0.194158  0.160169  0.000000  1
  Si  Si23  1  0.159636  0.803248  0.000000  1
  Si  Si24  1  0.839137  0.193635  0.000000  1
  Si  Si25  1  0.803959  0.839572  0.000000  1
  Si  Si26  1  0.303959  0.660428  0.000000  1
  Si  Si27  1  0.694158  0.339831  0.000000  1
  Si  Si28  1  0.659636  0.696752  0.000000  1
  Si  Si29  1  0.339137  0.306365  0.000000  1
  Si  Si30  1  0.016229  0.162012  0.500000  1
  Si  Si31  1  0.161708  0.983770  0.500000  1
  Si  Si32  1  0.835335  0.009287  0.500000  1
  Si  Si33  1  0.990312  0.835600  0.500000  1
  Si  Si34  1  0.490312  0.664400  0.500000  1
  Si  Si35  1  0.516229  0.337988  0.500000  1
  Si  Si36  1  0.661708  0.516230  0.500000  1
  Si  Si37  1  0.335335  0.490713  0.500000  1
