# generated using pymatgen
data_BaSbRuF12
_symmetry_space_group_name_H-M   'P 1'
_cell_length_a   5.54763381
_cell_length_b   5.81443716
_cell_length_c   9.86366760
_cell_angle_alpha   90.86781431
_cell_angle_beta   106.38557452
_cell_angle_gamma   117.73374282
_symmetry_Int_Tables_number   1
_chemical_formula_structural   BaSbRuF12
_chemical_formula_sum   'Ba1 Sb1 Ru1 F12'
_cell_volume   266.13039889
_cell_formula_units_Z   1
loop_
 _symmetry_equiv_pos_site_id
 _symmetry_equiv_pos_as_xyz
  1  'x, y, z'
loop_
 _atom_site_type_symbol
 _atom_site_label
 _atom_site_symmetry_multiplicity
 _atom_site_fract_x
 _atom_site_fract_y
 _atom_site_fract_z
 _atom_site_occupancy
  Ba  Ba0  1  0.034555  0.980452  0.899391  1
  Sb  Sb1  1  0.445430  0.682201  0.145038  1
  Ru  Ru2  1  0.149318  0.508983  0.587022  1
  F  F3  1  0.108370  0.532597  0.968225  1
  F  F4  1  0.493836  0.653503  0.757542  1
  F  F5  1  0.958171  0.241928  0.693278  1
  F  F6  1  0.040767  0.734450  0.672769  1
  F  F7  1  0.274050  0.294004  0.523717  1
  F  F8  1  0.347064  0.777862  0.495555  1
  F  F9  1  0.811894  0.366963  0.431374  1
  F  F10  1  0.779911  0.835898  0.306193  1
  F  F11  1  0.223666  0.396191  0.224731  1
  F  F12  1  0.290741  0.902391  0.181466  1
  F  F13  1  0.635628  0.943985  0.033729  1
  F  F14  1  0.554592  0.458587  0.057970  1
