# generated using pymatgen
data_TiAl2Os4W
_symmetry_space_group_name_H-M   'P 1'
_cell_length_a   4.35126500
_cell_length_b   4.35232201
_cell_length_c   7.53063485
_cell_angle_alpha   73.17764289
_cell_angle_beta   90.00003920
_cell_angle_gamma   119.99189897
_symmetry_Int_Tables_number   1
_chemical_formula_structural   TiAl2Os4W
_chemical_formula_sum   'Ti1 Al2 Os4 W1'
_cell_volume   116.41929006
_cell_formula_units_Z   1
loop_
 _symmetry_equiv_pos_site_id
 _symmetry_equiv_pos_as_xyz
  1  'x, y, z'
loop_
 _atom_site_type_symbol
 _atom_site_label
 _atom_site_symmetry_multiplicity
 _atom_site_fract_x
 _atom_site_fract_y
 _atom_site_fract_z
 _atom_site_occupancy
  Ti  Ti0  1  0.374999  0.750000  0.875000  1
  Al  Al1  1  0.627270  0.254539  0.118218  1
  Al  Al2  1  0.122731  0.245462  0.631781  1
  Os  Os3  1  0.998801  0.997604  0.003594  1
  Os  Os4  1  0.751198  0.502396  0.746406  1
  Os  Os5  1  0.501170  0.002339  0.496473  1
  Os  Os6  1  0.248832  0.497662  0.253527  1
  W  W7  1  0.875003  0.750000  0.375000  1
