# generated using pymatgen
data_Tm4Lu8Ni4SnOs
_symmetry_space_group_name_H-M   'P 1'
_cell_length_a   8.14744662
_cell_length_b   8.14744651
_cell_length_c   8.14744618
_cell_angle_alpha   111.49338213
_cell_angle_beta   110.45366592
_cell_angle_gamma   106.50843393
_symmetry_Int_Tables_number   1
_chemical_formula_structural   Tm4Lu8Ni4SnOs
_chemical_formula_sum   'Tm4 Lu8 Ni4 Sn1 Os1'
_cell_volume   415.46909218
_cell_formula_units_Z   1
loop_
 _symmetry_equiv_pos_site_id
 _symmetry_equiv_pos_as_xyz
  1  'x, y, z'
loop_
 _atom_site_type_symbol
 _atom_site_label
 _atom_site_symmetry_multiplicity
 _atom_site_fract_x
 _atom_site_fract_y
 _atom_site_fract_z
 _atom_site_occupancy
  Tm  Tm0  1  0.679283  0.873437  0.194154  1
  Tm  Tm1  1  0.320717  0.514871  0.194154  1
  Tm  Tm2  1  0.820693  0.777936  0.598629  1
  Tm  Tm3  1  0.179307  0.777936  0.957243  1
  Lu  Lu4  1  0.820750  0.222445  0.043195  1
  Lu  Lu5  1  0.179250  0.222445  0.401695  1
  Lu  Lu6  1  0.678591  0.484503  0.805912  1
  Lu  Lu7  1  0.321409  0.127321  0.805912  1
  Lu  Lu8  1  0.583776  0.275869  0.307859  1
  Lu  Lu9  1  0.416224  0.724084  0.692093  1
  Lu  Lu10  1  0.031991  0.724084  0.307859  1
  Lu  Lu11  1  0.968009  0.275869  0.692093  1
  Ni  Ni12  1  0.356370  0.499592  0.855961  1
  Ni  Ni13  1  0.643630  0.499592  0.143222  1
  Ni  Ni14  1  0.879548  0.879791  0.000243  1
  Ni  Ni15  1  0.120452  0.120695  0.000243  1
  Sn  Sn16  1  0.500000  0.000177  0.500177  1
  Os  Os17  1  0.000000  0.499354  0.499354  1
