# generated using pymatgen
data_La4PtPb3O14
_symmetry_space_group_name_H-M   'P 1'
_cell_length_a   7.76885939
_cell_length_b   7.78623976
_cell_length_c   7.78623900
_cell_angle_alpha   59.99999897
_cell_angle_beta   59.92596587
_cell_angle_gamma   59.92596103
_symmetry_Int_Tables_number   1
_chemical_formula_structural   La4PtPb3O14
_chemical_formula_sum   'La4 Pt1 Pb3 O14'
_cell_volume   332.66786640
_cell_formula_units_Z   1
loop_
 _symmetry_equiv_pos_site_id
 _symmetry_equiv_pos_as_xyz
  1  'x, y, z'
loop_
 _atom_site_type_symbol
 _atom_site_label
 _atom_site_symmetry_multiplicity
 _atom_site_fract_x
 _atom_site_fract_y
 _atom_site_fract_z
 _atom_site_occupancy
  La  La0  1  0.625000  0.125000  0.125000  1
  La  La1  1  0.125000  0.125000  0.125000  1
  La  La2  1  0.125000  0.625000  0.125000  1
  La  La3  1  0.125000  0.125000  0.625000  1
  Pt  Pt4  1  0.125000  0.625000  0.625000  1
  Pb  Pb5  1  0.625000  0.625000  0.125000  1
  Pb  Pb6  1  0.625000  0.625000  0.625000  1
  Pb  Pb7  1  0.625000  0.125000  0.625000  1
  O  O8  1  0.724380  0.281118  0.281118  1
  O  O9  1  0.724380  0.713385  0.281118  1
  O  O10  1  0.278601  0.709394  0.302611  1
  O  O11  1  0.001777  0.999408  0.999408  1
  O  O12  1  0.724380  0.281118  0.713385  1
  O  O13  1  0.971399  0.540606  0.540606  1
  O  O14  1  0.278601  0.709394  0.709394  1
  O  O15  1  0.525620  0.968882  0.536615  1
  O  O16  1  0.248223  0.250592  0.250592  1
  O  O17  1  0.971399  0.540606  0.947389  1
  O  O18  1  0.525620  0.536615  0.968882  1
  O  O19  1  0.971399  0.947389  0.540606  1
  O  O20  1  0.525620  0.968882  0.968882  1
  O  O21  1  0.278601  0.302611  0.709394  1
