# generated using pymatgen
data_Nd6Mg(SiS7)2
_symmetry_space_group_name_H-M   'P 1'
_cell_length_a   10.24235700
_cell_length_b   10.24235694
_cell_length_c   5.71804100
_cell_angle_alpha   90.00000000
_cell_angle_beta   90.00000000
_cell_angle_gamma   120.00000342
_symmetry_Int_Tables_number   1
_chemical_formula_structural   Nd6Mg(SiS7)2
_chemical_formula_sum   'Nd6 Mg1 Si2 S14'
_cell_volume   519.49060496
_cell_formula_units_Z   1
loop_
 _symmetry_equiv_pos_site_id
 _symmetry_equiv_pos_as_xyz
  1  'x, y, z'
loop_
 _atom_site_type_symbol
 _atom_site_label
 _atom_site_symmetry_multiplicity
 _atom_site_fract_x
 _atom_site_fract_y
 _atom_site_fract_z
 _atom_site_occupancy
  Nd  Nd0  1  0.876708  0.234193  0.248907  1
  Nd  Nd1  1  0.765807  0.642517  0.248907  1
  Nd  Nd2  1  0.357483  0.123292  0.248907  1
  Nd  Nd3  1  0.122977  0.766022  0.751805  1
  Nd  Nd4  1  0.233978  0.356955  0.751805  1
  Nd  Nd5  1  0.643045  0.877023  0.751805  1
  Mg  Mg6  1  0.000000  0.000000  0.487807  1
  Si  Si7  1  0.666667  0.333333  0.836223  1
  Si  Si8  1  0.333333  0.666667  0.338961  1
  S  S9  1  0.666667  0.333333  0.468317  1
  S  S10  1  0.333333  0.666667  0.970490  1
  S  S11  1  0.914354  0.161654  0.727691  1
  S  S12  1  0.838346  0.752700  0.727691  1
  S  S13  1  0.247300  0.085646  0.727691  1
  S  S14  1  0.083379  0.836505  0.246230  1
  S  S15  1  0.163495  0.246874  0.246230  1
  S  S16  1  0.753126  0.916621  0.246230  1
  S  S17  1  0.590665  0.113349  0.980595  1
  S  S18  1  0.886651  0.477317  0.980595  1
  S  S19  1  0.522683  0.409335  0.980595  1
  S  S20  1  0.409594  0.886668  0.482726  1
  S  S21  1  0.113332  0.522926  0.482726  1
  S  S22  1  0.477074  0.590406  0.482726  1
