# generated using pymatgen
data_Ho4Lu2Si24OsRu7
_symmetry_space_group_name_H-M   'P 1'
_cell_length_a   10.08812861
_cell_length_b   10.08812952
_cell_length_c   8.12623703
_cell_angle_alpha   89.99119977
_cell_angle_beta   89.99120030
_cell_angle_gamma   132.53576141
_symmetry_Int_Tables_number   1
_chemical_formula_structural   Ho4Lu2Si24OsRu7
_chemical_formula_sum   'Ho4 Lu2 Si24 Os1 Ru7'
_cell_volume   609.38681839
_cell_formula_units_Z   1
loop_
 _symmetry_equiv_pos_site_id
 _symmetry_equiv_pos_as_xyz
  1  'x, y, z'
loop_
 _atom_site_type_symbol
 _atom_site_label
 _atom_site_symmetry_multiplicity
 _atom_site_fract_x
 _atom_site_fract_y
 _atom_site_fract_z
 _atom_site_occupancy
  Ho  Ho0  1  0.502500  0.002671  0.750276  1
  Ho  Ho1  1  0.997329  0.497500  0.249724  1
  Ho  Ho2  1  0.497611  0.997330  0.249661  1
  Ho  Ho3  1  0.002670  0.502389  0.750339  1
  Lu  Lu4  1  0.500046  0.499954  0.500000  1
  Lu  Lu5  1  0.000032  0.999968  0.000000  1
  Si  Si6  1  0.795733  0.204267  0.500000  1
  Si  Si7  1  0.295017  0.704983  0.000000  1
  Si  Si8  1  0.204881  0.795119  0.500000  1
  Si  Si9  1  0.705127  0.294873  0.000000  1
  Si  Si10  1  0.331731  0.331878  0.833602  1
  Si  Si11  1  0.668122  0.668269  0.166398  1
  Si  Si12  1  0.167414  0.167215  0.332454  1
  Si  Si13  1  0.832785  0.832586  0.667546  1
  Si  Si14  1  0.121933  0.888040  0.729521  1
  Si  Si15  1  0.111960  0.878067  0.270479  1
  Si  Si16  1  0.612256  0.378345  0.227379  1
  Si  Si17  1  0.621655  0.387744  0.772621  1
  Si  Si18  1  0.877232  0.110904  0.269968  1
  Si  Si19  1  0.889096  0.122768  0.730032  1
  Si  Si20  1  0.387427  0.621911  0.771445  1
  Si  Si21  1  0.378089  0.612573  0.228555  1
  Si  Si22  1  0.344071  0.111294  0.505147  1
  Si  Si23  1  0.888706  0.655929  0.494853  1
  Si  Si24  1  0.387088  0.154003  0.004518  1
  Si  Si25  1  0.845997  0.612912  0.995482  1
  Si  Si26  1  0.653954  0.887203  0.493692  1
  Si  Si27  1  0.112797  0.346046  0.506308  1
  Si  Si28  1  0.612614  0.845695  0.995580  1
  Si  Si29  1  0.154305  0.387386  0.004420  1
  Os  Os30  1  0.669184  0.330816  0.500000  1
  Ru  Ru31  1  0.169155  0.830845  0.000000  1
  Ru  Ru32  1  0.330798  0.669202  0.500000  1
  Ru  Ru33  1  0.830882  0.169118  0.000000  1
  Ru  Ru34  1  0.127389  0.127595  0.627185  1
  Ru  Ru35  1  0.872405  0.872611  0.372815  1
  Ru  Ru36  1  0.373966  0.373958  0.128062  1
  Ru  Ru37  1  0.626042  0.626034  0.871938  1
