# generated using pymatgen
data_Zr10TlZn2Sn2Bi2Sb
_symmetry_space_group_name_H-M   'P 1'
_cell_length_a   8.75440500
_cell_length_b   8.75163788
_cell_length_c   5.89875700
_cell_angle_alpha   90.00000000
_cell_angle_beta   90.00000000
_cell_angle_gamma   119.98954599
_symmetry_Int_Tables_number   1
_chemical_formula_structural   Zr10TlZn2Sn2Bi2Sb
_chemical_formula_sum   'Zr10 Tl1 Zn2 Sn2 Bi2 Sb1'
_cell_volume   391.42886688
_cell_formula_units_Z   1
loop_
 _symmetry_equiv_pos_site_id
 _symmetry_equiv_pos_as_xyz
  1  'x, y, z'
loop_
 _atom_site_type_symbol
 _atom_site_label
 _atom_site_symmetry_multiplicity
 _atom_site_fract_x
 _atom_site_fract_y
 _atom_site_fract_z
 _atom_site_occupancy
  Zr  Zr0  1  0.670808  0.334838  0.002683  1
  Zr  Zr1  1  0.328030  0.666215  0.002721  1
  Zr  Zr2  1  0.328030  0.666215  0.497279  1
  Zr  Zr3  1  0.670808  0.334838  0.497317  1
  Zr  Zr4  1  0.739772  0.733532  0.750000  1
  Zr  Zr5  1  0.261966  0.993798  0.750000  1
  Zr  Zr6  1  0.999686  0.269060  0.750000  1
  Zr  Zr7  1  0.267346  0.268086  0.250000  1
  Zr  Zr8  1  0.732306  0.002392  0.250000  1
  Zr  Zr9  1  0.001513  0.730441  0.250000  1
  Tl  Tl10  1  0.617009  0.619062  0.250000  1
  Zn  Zn11  1  0.999527  0.000426  0.004606  1
  Zn  Zn12  1  0.999527  0.000426  0.495394  1
  Sn  Sn13  1  0.384123  0.001819  0.250000  1
  Sn  Sn14  1  0.000186  0.382817  0.250000  1
  Bi  Bi15  1  0.386669  0.385635  0.750000  1
  Bi  Bi16  1  0.613648  0.997955  0.750000  1
  Sb  Sb17  1  0.999042  0.612445  0.750000  1
