# generated using pymatgen
data_SmTm3Co8(PRu)12
_symmetry_space_group_name_H-M   'P 1'
_cell_length_a   3.78369000
_cell_length_b   10.62515240
_cell_length_c   12.10811054
_cell_angle_alpha   90.03292036
_cell_angle_beta   90.00000000
_cell_angle_gamma   90.00000000
_symmetry_Int_Tables_number   1
_chemical_formula_structural   SmTm3Co8(PRu)12
_chemical_formula_sum   'Sm1 Tm3 Co8 P12 Ru12'
_cell_volume   486.77360498
_cell_formula_units_Z   1
loop_
 _symmetry_equiv_pos_site_id
 _symmetry_equiv_pos_as_xyz
  1  'x, y, z'
loop_
 _atom_site_type_symbol
 _atom_site_label
 _atom_site_symmetry_multiplicity
 _atom_site_fract_x
 _atom_site_fract_y
 _atom_site_fract_z
 _atom_site_occupancy
  Sm  Sm0  1  0.250000  0.584144  0.706786  1
  Tm  Tm1  1  0.250000  0.915810  0.206528  1
  Tm  Tm2  1  0.750000  0.415209  0.293525  1
  Tm  Tm3  1  0.750000  0.084459  0.793540  1
  Co  Co4  1  0.250000  0.889311  0.695376  1
  Co  Co5  1  0.250000  0.611664  0.196799  1
  Co  Co6  1  0.750000  0.111733  0.303810  1
  Co  Co7  1  0.750000  0.386248  0.805998  1
  Co  Co8  1  0.250000  0.462193  0.936958  1
  Co  Co9  1  0.250000  0.037182  0.434362  1
  Co  Co10  1  0.750000  0.536952  0.066814  1
  Co  Co11  1  0.750000  0.963794  0.564341  1
  P  P12  1  0.250000  0.425457  0.114529  1
  P  P13  1  0.250000  0.074375  0.612809  1
  P  P14  1  0.750000  0.574928  0.889659  1
  P  P15  1  0.750000  0.926126  0.386155  1
  P  P16  1  0.250000  0.271204  0.871393  1
  P  P17  1  0.250000  0.228431  0.370874  1
  P  P18  1  0.750000  0.729357  0.128662  1
  P  P19  1  0.750000  0.773344  0.627194  1
  P  P20  1  0.250000  0.600272  0.386084  1
  P  P21  1  0.250000  0.899699  0.886286  1
  P  P22  1  0.750000  0.397050  0.612178  1
  P  P23  1  0.750000  0.100369  0.113804  1
  Ru  Ru24  1  0.250000  0.706337  0.986620  1
  Ru  Ru25  1  0.250000  0.794080  0.485683  1
  Ru  Ru26  1  0.750000  0.293157  0.014471  1
  Ru  Ru27  1  0.750000  0.205591  0.512995  1
  Ru  Ru28  1  0.250000  0.404484  0.484258  1
  Ru  Ru29  1  0.250000  0.094453  0.984965  1
  Ru  Ru30  1  0.750000  0.594197  0.511476  1
  Ru  Ru31  1  0.750000  0.905895  0.015346  1
  Ru  Ru32  1  0.250000  0.223753  0.180759  1
  Ru  Ru33  1  0.250000  0.275068  0.680476  1
  Ru  Ru34  1  0.750000  0.778393  0.819899  1
  Ru  Ru35  1  0.750000  0.725281  0.318588  1
