# generated using pymatgen
data_Tm2ZnB2Ir5
_symmetry_space_group_name_H-M   'P 1'
_cell_length_a   9.57451300
_cell_length_b   9.57451300
_cell_length_c   3.11932600
_cell_angle_alpha   90.00000000
_cell_angle_beta   90.00000000
_cell_angle_gamma   90.00000000
_symmetry_Int_Tables_number   1
_chemical_formula_structural   Tm2ZnB2Ir5
_chemical_formula_sum   'Tm4 Zn2 B4 Ir10'
_cell_volume   285.95266701
_cell_formula_units_Z   2
loop_
 _symmetry_equiv_pos_site_id
 _symmetry_equiv_pos_as_xyz
  1  'x, y, z'
loop_
 _atom_site_type_symbol
 _atom_site_label
 _atom_site_symmetry_multiplicity
 _atom_site_fract_x
 _atom_site_fract_y
 _atom_site_fract_z
 _atom_site_occupancy
  Tm  Tm0  1  0.322643  0.822643  0.000000  1
  Tm  Tm1  1  0.677357  0.177357  0.000000  1
  Tm  Tm2  1  0.177357  0.322643  0.000000  1
  Tm  Tm3  1  0.822643  0.677357  0.000000  1
  Zn  Zn4  1  0.500000  0.500000  0.000000  1
  Zn  Zn5  1  0.000000  0.000000  0.000000  1
  B  B6  1  0.125014  0.625014  0.000000  1
  B  B7  1  0.874986  0.374986  0.000000  1
  B  B8  1  0.374986  0.125014  0.000000  1
  B  B9  1  0.625014  0.874986  0.000000  1
  Ir  Ir10  1  0.568090  0.719525  0.500000  1
  Ir  Ir11  1  0.431910  0.280475  0.500000  1
  Ir  Ir12  1  0.931910  0.219525  0.500000  1
  Ir  Ir13  1  0.068090  0.780475  0.500000  1
  Ir  Ir14  1  0.780475  0.931910  0.500000  1
  Ir  Ir15  1  0.219525  0.068090  0.500000  1
  Ir  Ir16  1  0.280475  0.568090  0.500000  1
  Ir  Ir17  1  0.719525  0.431910  0.500000  1
  Ir  Ir18  1  0.000000  0.500000  0.500000  1
  Ir  Ir19  1  0.500000  0.000000  0.500000  1
