# generated using pymatgen
data_YErAl2PdRh
_symmetry_space_group_name_H-M   'P 1'
_cell_length_a   4.33442200
_cell_length_b   6.86733000
_cell_length_c   7.88377000
_cell_angle_alpha   90.00000000
_cell_angle_beta   90.00000000
_cell_angle_gamma   90.00000000
_symmetry_Int_Tables_number   1
_chemical_formula_structural   YErAl2PdRh
_chemical_formula_sum   'Y2 Er2 Al4 Pd2 Rh2'
_cell_volume   234.66755858
_cell_formula_units_Z   2
loop_
 _symmetry_equiv_pos_site_id
 _symmetry_equiv_pos_as_xyz
  1  'x, y, z'
loop_
 _atom_site_type_symbol
 _atom_site_label
 _atom_site_symmetry_multiplicity
 _atom_site_fract_x
 _atom_site_fract_y
 _atom_site_fract_z
 _atom_site_occupancy
  Y  Y0  1  0.250000  0.035799  0.323361  1
  Y  Y1  1  0.250000  0.535799  0.176639  1
  Er  Er2  1  0.750000  0.970127  0.682225  1
  Er  Er3  1  0.750000  0.470127  0.817775  1
  Al  Al4  1  0.250000  0.136528  0.935489  1
  Al  Al5  1  0.250000  0.636528  0.564511  1
  Al  Al6  1  0.750000  0.858886  0.058060  1
  Al  Al7  1  0.750000  0.358886  0.441940  1
  Pd  Pd8  1  0.750000  0.731820  0.379692  1
  Pd  Pd9  1  0.750000  0.231820  0.120308  1
  Rh  Rh10  1  0.250000  0.266840  0.621340  1
  Rh  Rh11  1  0.250000  0.766840  0.878660  1
