# generated using pymatgen
data_PmNdSi3Pt
_symmetry_space_group_name_H-M   'P 1'
_cell_length_a   5.93065431
_cell_length_b   5.93346516
_cell_length_c   5.93346605
_cell_angle_alpha   139.21555597
_cell_angle_beta   105.88774645
_cell_angle_gamma   88.23438319
_symmetry_Int_Tables_number   1
_chemical_formula_structural   PmNdSi3Pt
_chemical_formula_sum   'Pm1 Nd1 Si3 Pt1'
_cell_volume   125.89688384
_cell_formula_units_Z   1
loop_
 _symmetry_equiv_pos_site_id
 _symmetry_equiv_pos_as_xyz
  1  'x, y, z'
loop_
 _atom_site_type_symbol
 _atom_site_label
 _atom_site_symmetry_multiplicity
 _atom_site_fract_x
 _atom_site_fract_y
 _atom_site_fract_z
 _atom_site_occupancy
  Pm  Pm0  1  0.000595  0.000830  0.999765  1
  Nd  Nd1  1  0.498767  0.499028  0.999739  1
  Si  Si2  1  0.086561  0.749517  0.337043  1
  Si  Si3  1  0.914096  0.250510  0.663586  1
  Si  Si4  1  0.417287  0.749479  0.667807  1
  Pt  Pt5  1  0.582692  0.250634  0.332058  1
