# generated using pymatgen
data_Tm4Al6ReRh
_symmetry_space_group_name_H-M   'P 1'
_cell_length_a   5.45287500
_cell_length_b   5.45287588
_cell_length_c   8.82199900
_cell_angle_alpha   90.00000000
_cell_angle_beta   90.00000000
_cell_angle_gamma   120.00000073
_symmetry_Int_Tables_number   1
_chemical_formula_structural   Tm4Al6ReRh
_chemical_formula_sum   'Tm4 Al6 Re1 Rh1'
_cell_volume   227.16885395
_cell_formula_units_Z   1
loop_
 _symmetry_equiv_pos_site_id
 _symmetry_equiv_pos_as_xyz
  1  'x, y, z'
loop_
 _atom_site_type_symbol
 _atom_site_label
 _atom_site_symmetry_multiplicity
 _atom_site_fract_x
 _atom_site_fract_y
 _atom_site_fract_z
 _atom_site_occupancy
  Tm  Tm0  1  0.666667  0.333334  0.053191  1
  Tm  Tm1  1  0.666667  0.333334  0.443210  1
  Tm  Tm2  1  0.333334  0.666668  0.556790  1
  Tm  Tm3  1  0.333334  0.666668  0.946809  1
  Al  Al4  1  0.163401  0.326803  0.247713  1
  Al  Al5  1  0.163402  0.836599  0.247713  1
  Al  Al6  1  0.673197  0.836599  0.247713  1
  Al  Al7  1  0.326804  0.163402  0.752287  1
  Al  Al8  1  0.836600  0.163402  0.752287  1
  Al  Al9  1  0.836598  0.673197  0.752287  1
  Re  Re10  1  0.000000  0.000000  0.500000  1
  Rh  Rh11  1  0.000000  0.000000  0.000000  1
