# generated using pymatgen
data_YbYHf2(Al8Pt3)3
_symmetry_space_group_name_H-M   'P 1'
_cell_length_a   7.50142827
_cell_length_b   7.49374498
_cell_length_c   13.05135799
_cell_angle_alpha   84.49067478
_cell_angle_beta   100.97399966
_cell_angle_gamma   119.91541816
_symmetry_Int_Tables_number   1
_chemical_formula_structural   YbYHf2(Al8Pt3)3
_chemical_formula_sum   'Yb1 Y1 Hf2 Al24 Pt9'
_cell_volume   624.28545881
_cell_formula_units_Z   1
loop_
 _symmetry_equiv_pos_site_id
 _symmetry_equiv_pos_as_xyz
  1  'x, y, z'
loop_
 _atom_site_type_symbol
 _atom_site_label
 _atom_site_symmetry_multiplicity
 _atom_site_fract_x
 _atom_site_fract_y
 _atom_site_fract_z
 _atom_site_occupancy
  Yb  Yb0  1  0.232433  0.498488  0.191575  1
  Y  Y1  1  0.438233  0.831318  0.809434  1
  Hf  Hf2  1  0.562499  0.168846  0.191972  1
  Hf  Hf3  1  0.767564  0.500579  0.807934  1
  Al  Al4  1  0.485363  0.169165  0.943280  1
  Al  Al5  1  0.517903  0.836062  0.058290  1
  Al  Al6  1  0.020899  0.167724  0.562663  1
  Al  Al7  1  0.978662  0.832460  0.437781  1
  Al  Al8  1  0.353289  0.833499  0.559289  1
  Al  Al9  1  0.646986  0.166684  0.439795  1
  Al  Al10  1  0.614081  0.835558  0.325599  1
  Al  Al11  1  0.385518  0.167216  0.674382  1
  Al  Al12  1  0.055629  0.493526  0.674874  1
  Al  Al13  1  0.941923  0.504245  0.325557  1
  Al  Al14  1  0.731133  0.837986  0.673307  1
  Al  Al15  1  0.270831  0.161703  0.326636  1
  Al  Al16  1  0.144664  0.500460  0.943419  1
  Al  Al17  1  0.850359  0.495846  0.056879  1
  Al  Al18  1  0.815908  0.829390  0.950430  1
  Al  Al19  1  0.187058  0.168194  0.049313  1
  Al  Al20  1  0.314083  0.500267  0.440143  1
  Al  Al21  1  0.686142  0.499397  0.560070  1
  Al  Al22  1  0.108590  0.844089  0.182667  1
  Al  Al23  1  0.897990  0.169640  0.816410  1
  Al  Al24  1  0.312577  0.368679  0.815406  1
  Al  Al25  1  0.693883  0.624774  0.183994  1
  Al  Al26  1  0.097894  0.953546  0.816262  1
  Al  Al27  1  0.889588  0.040903  0.183802  1
  Pt  Pt28  1  0.389609  0.509444  0.639463  1
  Pt  Pt29  1  0.612443  0.491175  0.360934  1
  Pt  Pt30  1  0.171547  0.828114  0.998816  1
  Pt  Pt31  1  0.827577  0.170525  0.999131  1
  Pt  Pt32  1  0.295947  0.834368  0.361047  1
  Pt  Pt33  1  0.703189  0.166972  0.639682  1
  Pt  Pt34  1  0.045097  0.823363  0.638237  1
  Pt  Pt35  1  0.953257  0.174419  0.362828  1
  Pt  Pt36  1  0.499653  0.501376  0.998698  1
