# generated using pymatgen
data_Zr6Ti4Al12Fe5Pd2
_symmetry_space_group_name_H-M   'P 1'
_cell_length_a   8.65883137
_cell_length_b   8.65883171
_cell_length_c   8.65105062
_cell_angle_alpha   60.06468170
_cell_angle_beta   60.06467582
_cell_angle_gamma   59.92687634
_symmetry_Int_Tables_number   1
_chemical_formula_structural   Zr6Ti4Al12Fe5Pd2
_chemical_formula_sum   'Zr6 Ti4 Al12 Fe5 Pd2'
_cell_volume   458.83366200
_cell_formula_units_Z   1
loop_
 _symmetry_equiv_pos_site_id
 _symmetry_equiv_pos_as_xyz
  1  'x, y, z'
loop_
 _atom_site_type_symbol
 _atom_site_label
 _atom_site_symmetry_multiplicity
 _atom_site_fract_x
 _atom_site_fract_y
 _atom_site_fract_z
 _atom_site_occupancy
  Zr  Zr0  1  0.700032  0.700032  0.308004  1
  Zr  Zr1  1  0.300427  0.693873  0.305502  1
  Zr  Zr2  1  0.693873  0.300427  0.305502  1
  Zr  Zr3  1  0.299470  0.299470  0.693517  1
  Zr  Zr4  1  0.698007  0.308688  0.691442  1
  Zr  Zr5  1  0.308688  0.698007  0.691442  1
  Ti  Ti6  1  0.880917  0.880917  0.355754  1
  Ti  Ti7  1  0.877492  0.353057  0.876086  1
  Ti  Ti8  1  0.353057  0.877492  0.876086  1
  Ti  Ti9  1  0.889789  0.889789  0.870510  1
  Al  Al10  1  0.119405  0.119405  0.644008  1
  Al  Al11  1  0.120365  0.646563  0.122166  1
  Al  Al12  1  0.646563  0.120365  0.122166  1
  Al  Al13  1  0.112767  0.112767  0.124980  1
  Al  Al14  1  0.661815  0.661815  0.006732  1
  Al  Al15  1  0.668195  0.002839  0.659925  1
  Al  Al16  1  0.002839  0.668195  0.659925  1
  Al  Al17  1  0.666841  0.666841  0.666789  1
  Al  Al18  1  0.339246  0.339246  0.996004  1
  Al  Al19  1  0.329164  0.000042  0.340710  1
  Al  Al20  1  0.000042  0.329164  0.340710  1
  Al  Al21  1  0.332767  0.332767  0.332117  1
  Fe  Fe22  1  0.999888  0.999888  0.997882  1
  Fe  Fe23  1  0.997057  0.997057  0.506701  1
  Fe  Fe24  1  0.501432  0.996546  0.503872  1
  Fe  Fe25  1  0.996546  0.501432  0.503872  1
  Fe  Fe26  1  0.502975  0.502975  0.997167  1
  Pd  Pd27  1  0.001275  0.499063  0.000213  1
  Pd  Pd28  1  0.499063  0.001275  0.000213  1
