# generated using pymatgen
data_Ho7ErTi11Si16Hg
_symmetry_space_group_name_H-M   'P 1'
_cell_length_a   7.06904522
_cell_length_b   7.06866206
_cell_length_c   12.89629301
_cell_angle_alpha   90.12163764
_cell_angle_beta   89.87326391
_cell_angle_gamma   89.61079734
_symmetry_Int_Tables_number   1
_chemical_formula_structural   Ho7ErTi11Si16Hg
_chemical_formula_sum   'Ho7 Er1 Ti11 Si16 Hg1'
_cell_volume   644.39297352
_cell_formula_units_Z   1
loop_
 _symmetry_equiv_pos_site_id
 _symmetry_equiv_pos_as_xyz
  1  'x, y, z'
loop_
 _atom_site_type_symbol
 _atom_site_label
 _atom_site_symmetry_multiplicity
 _atom_site_fract_x
 _atom_site_fract_y
 _atom_site_fract_z
 _atom_site_occupancy
  Ho  Ho0  1  0.340877  0.001468  0.466899  1
  Ho  Ho1  1  0.497744  0.840497  0.716015  1
  Ho  Ho2  1  0.501670  0.156606  0.215035  1
  Ho  Ho3  1  0.840559  0.497773  0.283962  1
  Ho  Ho4  1  0.156618  0.501706  0.785006  1
  Ho  Ho5  1  0.657130  0.001044  0.968519  1
  Ho  Ho6  1  0.001493  0.340878  0.533076  1
  Er  Er7  1  0.001070  0.657190  0.031555  1
  Ti  Ti8  1  0.173903  0.826259  0.250595  1
  Ti  Ti9  1  0.826311  0.173951  0.749365  1
  Ti  Ti10  1  0.672419  0.672403  0.499993  1
  Ti  Ti11  1  0.146590  0.008935  0.876863  1
  Ti  Ti12  1  0.496689  0.649908  0.122910  1
  Ti  Ti13  1  0.506233  0.351639  0.623777  1
  Ti  Ti14  1  0.649975  0.496705  0.877120  1
  Ti  Ti15  1  0.351621  0.506241  0.376197  1
  Ti  Ti16  1  0.850061  0.991086  0.374302  1
  Ti  Ti17  1  0.008987  0.146545  0.123166  1
  Ti  Ti18  1  0.991134  0.850028  0.625688  1
  Si  Si19  1  0.201655  0.132649  0.683724  1
  Si  Si20  1  0.373486  0.725640  0.926414  1
  Si  Si21  1  0.631961  0.293147  0.432072  1
  Si  Si22  1  0.725941  0.373834  0.073549  1
  Si  Si23  1  0.293179  0.631942  0.567928  1
  Si  Si24  1  0.798655  0.866241  0.182652  1
  Si  Si25  1  0.132621  0.201608  0.316293  1
  Si  Si26  1  0.866408  0.798401  0.817343  1
  Si  Si27  1  0.286499  0.932792  0.067393  1
  Si  Si28  1  0.546522  0.790661  0.314604  1
  Si  Si29  1  0.458493  0.206358  0.805376  1
  Si  Si30  1  0.790632  0.546506  0.685430  1
  Si  Si31  1  0.206192  0.458617  0.194538  1
  Si  Si32  1  0.708682  0.047457  0.563781  1
  Si  Si33  1  0.933043  0.286923  0.932649  1
  Si  Si34  1  0.047445  0.708707  0.436185  1
  Hg  Hg35  1  0.327504  0.327659  0.000026  1
