# generated using pymatgen
data_HoTh3Pd5Pt7
_symmetry_space_group_name_H-M   'P 1'
_cell_length_a   5.93433900
_cell_length_b   5.93073097
_cell_length_c   9.75261400
_cell_angle_alpha   90.00000000
_cell_angle_beta   90.00000000
_cell_angle_gamma   120.02012091
_symmetry_Int_Tables_number   1
_chemical_formula_structural   HoTh3Pd5Pt7
_chemical_formula_sum   'Ho1 Th3 Pd5 Pt7'
_cell_volume   297.19681673
_cell_formula_units_Z   1
loop_
 _symmetry_equiv_pos_site_id
 _symmetry_equiv_pos_as_xyz
  1  'x, y, z'
loop_
 _atom_site_type_symbol
 _atom_site_label
 _atom_site_symmetry_multiplicity
 _atom_site_fract_x
 _atom_site_fract_y
 _atom_site_fract_z
 _atom_site_occupancy
  Ho  Ho0  1  0.333258  0.666518  0.250000  1
  Th  Th1  1  0.000228  0.000456  0.495297  1
  Th  Th2  1  0.000228  0.000456  0.004703  1
  Th  Th3  1  0.666061  0.332121  0.750000  1
  Pd  Pd4  1  0.823883  0.647766  0.250000  1
  Pd  Pd5  1  0.350158  0.175104  0.250000  1
  Pd  Pd6  1  0.824946  0.175104  0.250000  1
  Pd  Pd7  1  0.652045  0.826269  0.750000  1
  Pd  Pd8  1  0.174226  0.826269  0.750000  1
  Pt  Pt9  1  0.499498  0.501050  0.497628  1
  Pt  Pt10  1  0.499435  0.998871  0.497147  1
  Pt  Pt11  1  0.001553  0.501050  0.497628  1
  Pt  Pt12  1  0.499498  0.501050  0.002372  1
  Pt  Pt13  1  0.499435  0.998871  0.002853  1
  Pt  Pt14  1  0.001553  0.501050  0.002372  1
  Pt  Pt15  1  0.173997  0.347993  0.750000  1
