# generated using pymatgen
data_ErLu9(CoBi)4
_symmetry_space_group_name_H-M   'P 1'
_cell_length_a   8.05781004
_cell_length_b   8.05781103
_cell_length_c   15.35303500
_cell_angle_alpha   90.00000000
_cell_angle_beta   90.00000000
_cell_angle_gamma   153.96831012
_symmetry_Int_Tables_number   1
_chemical_formula_structural   ErLu9(CoBi)4
_chemical_formula_sum   'Er1 Lu9 Co4 Bi4'
_cell_volume   437.48428064
_cell_formula_units_Z   1
loop_
 _symmetry_equiv_pos_site_id
 _symmetry_equiv_pos_as_xyz
  1  'x, y, z'
loop_
 _atom_site_type_symbol
 _atom_site_label
 _atom_site_symmetry_multiplicity
 _atom_site_fract_x
 _atom_site_fract_y
 _atom_site_fract_z
 _atom_site_occupancy
  Er  Er0  1  0.392274  0.607726  0.750000  1
  Lu  Lu1  1  0.608102  0.391898  0.250000  1
  Lu  Lu2  1  0.734961  0.265039  0.634090  1
  Lu  Lu3  1  0.962249  0.037751  0.128697  1
  Lu  Lu4  1  0.038626  0.961374  0.872925  1
  Lu  Lu5  1  0.962249  0.037751  0.371303  1
  Lu  Lu6  1  0.038626  0.961374  0.627075  1
  Lu  Lu7  1  0.264595  0.735405  0.134722  1
  Lu  Lu8  1  0.264595  0.735405  0.365278  1
  Lu  Lu9  1  0.734961  0.265039  0.865910  1
  Co  Co10  1  0.417296  0.582704  0.250000  1
  Co  Co11  1  0.582430  0.417570  0.750000  1
  Co  Co12  1  0.822507  0.177493  0.250000  1
  Co  Co13  1  0.176415  0.823585  0.750000  1
  Bi  Bi14  1  0.618471  0.381529  0.038609  1
  Bi  Bi15  1  0.618471  0.381529  0.461391  1
  Bi  Bi16  1  0.381585  0.618415  0.538000  1
  Bi  Bi17  1  0.381585  0.618415  0.962000  1
