# generated using pymatgen
data_Ho3Co7(P3Ru)2
_symmetry_space_group_name_H-M   'P 1'
_cell_length_a   3.73127600
_cell_length_b   10.53638700
_cell_length_c   12.29092900
_cell_angle_alpha   90.00000000
_cell_angle_beta   90.00000000
_cell_angle_gamma   90.00000000
_symmetry_Int_Tables_number   1
_chemical_formula_structural   Ho3Co7(P3Ru)2
_chemical_formula_sum   'Ho6 Co14 P12 Ru4'
_cell_volume   483.20764684
_cell_formula_units_Z   2
loop_
 _symmetry_equiv_pos_site_id
 _symmetry_equiv_pos_as_xyz
  1  'x, y, z'
loop_
 _atom_site_type_symbol
 _atom_site_label
 _atom_site_symmetry_multiplicity
 _atom_site_fract_x
 _atom_site_fract_y
 _atom_site_fract_z
 _atom_site_occupancy
  Ho  Ho0  1  0.000000  0.500000  0.528623  1
  Ho  Ho1  1  0.500000  0.000000  0.478503  1
  Ho  Ho2  1  0.500000  0.818128  0.203059  1
  Ho  Ho3  1  0.500000  0.181872  0.203059  1
  Ho  Ho4  1  0.000000  0.683090  0.795594  1
  Ho  Ho5  1  0.000000  0.316910  0.795594  1
  Co  Co6  1  0.000000  0.500000  0.985450  1
  Co  Co7  1  0.500000  0.000000  0.013559  1
  Co  Co8  1  0.000000  0.200099  0.573564  1
  Co  Co9  1  0.000000  0.799901  0.573564  1
  Co  Co10  1  0.500000  0.879679  0.710619  1
  Co  Co11  1  0.500000  0.120321  0.710619  1
  Co  Co12  1  0.000000  0.621176  0.286907  1
  Co  Co13  1  0.000000  0.378824  0.286907  1
  Co  Co14  1  0.500000  0.332292  0.989887  1
  Co  Co15  1  0.500000  0.667708  0.989887  1
  Co  Co16  1  0.000000  0.167095  0.008794  1
  Co  Co17  1  0.000000  0.832905  0.008794  1
  Co  Co18  1  0.500000  0.500000  0.704930  1
  Co  Co19  1  0.000000  0.000000  0.294544  1
  P  P20  1  0.500000  0.309990  0.621540  1
  P  P21  1  0.500000  0.690010  0.621540  1
  P  P22  1  0.000000  0.183223  0.381842  1
  P  P23  1  0.000000  0.816777  0.381842  1
  P  P24  1  0.500000  0.500000  0.881836  1
  P  P25  1  0.000000  0.000000  0.117125  1
  P  P26  1  0.500000  0.846434  0.893561  1
  P  P27  1  0.500000  0.153566  0.893561  1
  P  P28  1  0.000000  0.653889  0.104855  1
  P  P29  1  0.000000  0.346111  0.104855  1
  P  P30  1  0.500000  0.500000  0.345580  1
  P  P31  1  0.000000  0.000000  0.650952  1
  Ru  Ru32  1  0.500000  0.295971  0.430437  1
  Ru  Ru33  1  0.500000  0.704029  0.430437  1
  Ru  Ru34  1  0.500000  0.500000  0.156727  1
  Ru  Ru35  1  0.000000  0.000000  0.840854  1
