# generated using pymatgen
data_Rb2Ce(PSe3)3
_symmetry_space_group_name_H-M   'P 1'
_cell_length_a   7.98201800
_cell_length_b   10.54151411
_cell_length_c   20.90605300
_cell_angle_alpha   93.94148574
_cell_angle_beta   90.00000000
_cell_angle_gamma   90.00000000
_symmetry_Int_Tables_number   1
_chemical_formula_structural   Rb2Ce(PSe3)3
_chemical_formula_sum   'Rb8 Ce4 P12 Se36'
_cell_volume   1754.92807201
_cell_formula_units_Z   4
loop_
 _symmetry_equiv_pos_site_id
 _symmetry_equiv_pos_as_xyz
  1  'x, y, z'
loop_
 _atom_site_type_symbol
 _atom_site_label
 _atom_site_symmetry_multiplicity
 _atom_site_fract_x
 _atom_site_fract_y
 _atom_site_fract_z
 _atom_site_occupancy
  Rb  Rb0  1  0.418391  0.757636  0.000595  1
  Rb  Rb1  1  0.905654  0.733332  0.172800  1
  Rb  Rb2  1  0.581609  0.242364  0.999405  1
  Rb  Rb3  1  0.081609  0.257636  0.500595  1
  Rb  Rb4  1  0.094346  0.266668  0.827200  1
  Rb  Rb5  1  0.918391  0.742364  0.499405  1
  Rb  Rb6  1  0.594346  0.233332  0.672800  1
  Rb  Rb7  1  0.405654  0.766668  0.327200  1
  Ce  Ce8  1  0.405205  0.750385  0.647019  1
  Ce  Ce9  1  0.594795  0.249615  0.352981  1
  Ce  Ce10  1  0.905205  0.749615  0.852981  1
  Ce  Ce11  1  0.094795  0.250385  0.147019  1
  P  P12  1  0.875294  0.964090  0.338735  1
  P  P13  1  0.124706  0.035910  0.661265  1
  P  P14  1  0.112780  0.056421  0.987357  1
  P  P15  1  0.612780  0.443579  0.512643  1
  P  P16  1  0.912918  0.910560  0.693753  1
  P  P17  1  0.087082  0.089440  0.306247  1
  P  P18  1  0.375294  0.535910  0.161265  1
  P  P19  1  0.412918  0.589440  0.806247  1
  P  P20  1  0.887220  0.943579  0.012643  1
  P  P21  1  0.624706  0.464090  0.838735  1
  P  P22  1  0.587082  0.410560  0.193753  1
  P  P23  1  0.387220  0.556421  0.487357  1
  Se  Se24  1  0.172507  0.010219  0.211420  1
  Se  Se25  1  0.043930  0.725763  0.707855  1
  Se  Se26  1  0.278301  0.435338  0.071141  1
  Se  Se27  1  0.323127  0.995155  0.730285  1
  Se  Se28  1  0.038898  0.229722  0.661290  1
  Se  Se29  1  0.213881  0.590473  0.879749  1
  Se  Se30  1  0.700367  0.529175  0.604538  1
  Se  Se31  1  0.799633  0.029175  0.104538  1
  Se  Se32  1  0.672507  0.489781  0.288580  1
  Se  Se33  1  0.299633  0.470825  0.395462  1
  Se  Se34  1  0.823127  0.504845  0.769715  1
  Se  Se35  1  0.538898  0.270278  0.838710  1
  Se  Se36  1  0.713033  0.953605  0.930459  1
  Se  Se37  1  0.526575  0.243671  0.504792  1
  Se  Se38  1  0.973425  0.743671  0.004792  1
  Se  Se39  1  0.286967  0.046395  0.069541  1
  Se  Se40  1  0.327493  0.510219  0.711420  1
  Se  Se41  1  0.461102  0.729722  0.161290  1
  Se  Se42  1  0.221699  0.935338  0.571141  1
  Se  Se43  1  0.456070  0.225763  0.207855  1
  Se  Se44  1  0.473425  0.756329  0.495208  1
  Se  Se45  1  0.786967  0.453605  0.430459  1
  Se  Se46  1  0.200367  0.970825  0.895462  1
  Se  Se47  1  0.778301  0.064662  0.428859  1
  Se  Se48  1  0.176873  0.495155  0.230285  1
  Se  Se49  1  0.543930  0.774237  0.792145  1
  Se  Se50  1  0.676873  0.004845  0.269715  1
  Se  Se51  1  0.721699  0.564662  0.928859  1
  Se  Se52  1  0.956070  0.274237  0.292145  1
  Se  Se53  1  0.961102  0.770278  0.338710  1
  Se  Se54  1  0.827493  0.989781  0.788580  1
  Se  Se55  1  0.286119  0.090473  0.379749  1
  Se  Se56  1  0.213033  0.546395  0.569541  1
  Se  Se57  1  0.786119  0.409527  0.120251  1
  Se  Se58  1  0.026575  0.256329  0.995208  1
  Se  Se59  1  0.713881  0.909527  0.620251  1
