# generated using pymatgen
data_Hf5ScGa6PdPt5
_symmetry_space_group_name_H-M   'P 1'
_cell_length_a   7.20183000
_cell_length_b   7.16316444
_cell_length_c   7.08134700
_cell_angle_alpha   90.00000000
_cell_angle_beta   90.00000000
_cell_angle_gamma   119.94802177
_symmetry_Int_Tables_number   1
_chemical_formula_structural   Hf5ScGa6PdPt5
_chemical_formula_sum   'Hf5 Sc1 Ga6 Pd1 Pt5'
_cell_volume   316.53484501
_cell_formula_units_Z   1
loop_
 _symmetry_equiv_pos_site_id
 _symmetry_equiv_pos_as_xyz
  1  'x, y, z'
loop_
 _atom_site_type_symbol
 _atom_site_label
 _atom_site_symmetry_multiplicity
 _atom_site_fract_x
 _atom_site_fract_y
 _atom_site_fract_z
 _atom_site_occupancy
  Hf  Hf0  1  0.616230  0.593063  0.250000  1
  Hf  Hf1  1  0.406711  0.023054  0.250000  1
  Hf  Hf2  1  0.977779  0.386032  0.250000  1
  Hf  Hf3  1  0.392733  0.974587  0.750000  1
  Hf  Hf4  1  0.581073  0.607160  0.750000  1
  Sc  Sc5  1  0.024072  0.415451  0.750000  1
  Ga  Ga6  1  0.265740  0.267865  0.502414  1
  Ga  Ga7  1  0.733120  0.999986  0.502404  1
  Ga  Ga8  1  0.000927  0.731999  0.501211  1
  Ga  Ga9  1  0.733120  0.999986  0.997596  1
  Ga  Ga10  1  0.265740  0.267865  0.997586  1
  Ga  Ga11  1  0.000927  0.731999  0.998789  1
  Pd  Pd12  1  0.999771  0.995998  0.750000  1
  Pt  Pt13  1  0.335797  0.668845  0.462695  1
  Pt  Pt14  1  0.000005  0.000805  0.250000  1
  Pt  Pt15  1  0.335797  0.668845  0.037305  1
  Pt  Pt16  1  0.665228  0.333229  0.529381  1
  Pt  Pt17  1  0.665228  0.333229  0.970619  1
