# generated using pymatgen
data_Tb3Cd2InGa2Ag
_symmetry_space_group_name_H-M   'P 1'
_cell_length_a   7.32770800
_cell_length_b   7.29300720
_cell_length_c   4.47380100
_cell_angle_alpha   90.00000000
_cell_angle_beta   90.00000000
_cell_angle_gamma   120.15751256
_symmetry_Int_Tables_number   1
_chemical_formula_structural   Tb3Cd2InGa2Ag
_chemical_formula_sum   'Tb3 Cd2 In1 Ga2 Ag1'
_cell_volume   206.72385158
_cell_formula_units_Z   1
loop_
 _symmetry_equiv_pos_site_id
 _symmetry_equiv_pos_as_xyz
  1  'x, y, z'
loop_
 _atom_site_type_symbol
 _atom_site_label
 _atom_site_symmetry_multiplicity
 _atom_site_fract_x
 _atom_site_fract_y
 _atom_site_fract_z
 _atom_site_occupancy
  Tb  Tb0  1  0.576673  0.000000  0.000000  1
  Tb  Tb1  1  0.000615  0.578455  0.000000  1
  Tb  Tb2  1  0.422161  0.421545  0.000000  1
  Cd  Cd3  1  0.998553  0.248884  0.500000  1
  Cd  Cd4  1  0.749669  0.751116  0.500000  1
  In  In5  1  0.247909  0.000000  0.500000  1
  Ga  Ga6  1  0.334911  0.665237  0.500000  1
  Ga  Ga7  1  0.669674  0.334763  0.500000  1
  Ag  Ag8  1  0.999838  0.000000  0.000000  1
