# generated using pymatgen
data_Nd3Th(Ga8Pd3)3
_symmetry_space_group_name_H-M   'P 1'
_cell_length_a   7.61303826
_cell_length_b   7.64190317
_cell_length_c   13.47277291
_cell_angle_alpha   84.91027608
_cell_angle_beta   100.42143082
_cell_angle_gamma   119.75391073
_symmetry_Int_Tables_number   1
_chemical_formula_structural   Nd3Th(Ga8Pd3)3
_chemical_formula_sum   'Nd3 Th1 Ga24 Pd9'
_cell_volume   669.25946849
_cell_formula_units_Z   1
loop_
 _symmetry_equiv_pos_site_id
 _symmetry_equiv_pos_as_xyz
  1  'x, y, z'
loop_
 _atom_site_type_symbol
 _atom_site_label
 _atom_site_symmetry_multiplicity
 _atom_site_fract_x
 _atom_site_fract_y
 _atom_site_fract_z
 _atom_site_occupancy
  Nd  Nd0  1  0.562478  0.168862  0.189920  1
  Nd  Nd1  1  0.771139  0.502898  0.810228  1
  Nd  Nd2  1  0.228859  0.497230  0.189708  1
  Th  Th3  1  0.436842  0.830682  0.808707  1
  Ga  Ga4  1  0.478703  0.168048  0.941540  1
  Ga  Ga5  1  0.522043  0.833385  0.059169  1
  Ga  Ga6  1  0.021843  0.166277  0.558057  1
  Ga  Ga7  1  0.977925  0.833897  0.441852  1
  Ga  Ga8  1  0.354453  0.832858  0.555714  1
  Ga  Ga9  1  0.646074  0.167736  0.443740  1
  Ga  Ga10  1  0.616062  0.835110  0.328606  1
  Ga  Ga11  1  0.384072  0.166979  0.671199  1
  Ga  Ga12  1  0.056624  0.493130  0.669863  1
  Ga  Ga13  1  0.940896  0.504582  0.329542  1
  Ga  Ga14  1  0.732269  0.838476  0.668455  1
  Ga  Ga15  1  0.269603  0.161820  0.330692  1
  Ga  Ga16  1  0.144641  0.496716  0.942526  1
  Ga  Ga17  1  0.854032  0.502009  0.057894  1
  Ga  Ga18  1  0.817642  0.833968  0.949316  1
  Ga  Ga19  1  0.183341  0.165614  0.051332  1
  Ga  Ga20  1  0.312337  0.499473  0.442742  1
  Ga  Ga21  1  0.687449  0.499981  0.557075  1
  Ga  Ga22  1  0.100968  0.836458  0.183060  1
  Ga  Ga23  1  0.899862  0.163341  0.817357  1
  Ga  Ga24  1  0.305798  0.367571  0.816206  1
  Ga  Ga25  1  0.693666  0.631680  0.184128  1
  Ga  Ga26  1  0.102703  0.962561  0.816538  1
  Ga  Ga27  1  0.897817  0.038623  0.184054  1
  Pd  Pd28  1  0.384758  0.502834  0.637254  1
  Pd  Pd29  1  0.615225  0.498168  0.363243  1
  Pd  Pd30  1  0.171516  0.830023  0.998481  1
  Pd  Pd31  1  0.828381  0.169663  0.000715  1
  Pd  Pd32  1  0.290074  0.832928  0.362359  1
  Pd  Pd33  1  0.709392  0.166193  0.638115  1
  Pd  Pd34  1  0.049462  0.829999  0.637145  1
  Pd  Pd35  1  0.951399  0.169950  0.363725  1
  Pd  Pd36  1  0.499654  0.500277  0.999746  1
