# generated using pymatgen
data_Dy7Ho3(IrRu)2
_symmetry_space_group_name_H-M   'P 1'
_cell_length_a   6.40603354
_cell_length_b   7.26893722
_cell_length_c   8.50743789
_cell_angle_alpha   96.67226956
_cell_angle_beta   112.07270111
_cell_angle_gamma   90.09399728
_symmetry_Int_Tables_number   1
_chemical_formula_structural   Dy7Ho3(IrRu)2
_chemical_formula_sum   'Dy7 Ho3 Ir2 Ru2'
_cell_volume   364.18626121
_cell_formula_units_Z   1
loop_
 _symmetry_equiv_pos_site_id
 _symmetry_equiv_pos_as_xyz
  1  'x, y, z'
loop_
 _atom_site_type_symbol
 _atom_site_label
 _atom_site_symmetry_multiplicity
 _atom_site_fract_x
 _atom_site_fract_y
 _atom_site_fract_z
 _atom_site_occupancy
  Dy  Dy0  1  0.978302  0.917588  0.186010  1
  Dy  Dy1  1  0.792605  0.582408  0.814070  1
  Dy  Dy2  1  0.023782  0.084815  0.814861  1
  Dy  Dy3  1  0.209285  0.415009  0.185050  1
  Dy  Dy4  1  0.643251  0.816281  0.435164  1
  Dy  Dy5  1  0.207497  0.683829  0.564556  1
  Dy  Dy6  1  0.355082  0.186036  0.563395  1
  Ho  Ho7  1  0.791919  0.314294  0.436499  1
  Ho  Ho8  1  0.424115  0.749999  0.999945  1
  Ho  Ho9  1  0.575694  0.249871  0.000205  1
  Ir  Ir10  1  0.823273  0.575961  0.221342  1
  Ir  Ir11  1  0.602669  0.923534  0.779505  1
  Ru  Ru12  1  0.175890  0.425102  0.779236  1
  Ru  Ru13  1  0.396634  0.075273  0.220162  1
