# generated using pymatgen
data_Dy2Tm3Cr3(P3Ir4)4
_symmetry_space_group_name_H-M   'P 1'
_cell_length_a   12.61974806
_cell_length_b   12.61768584
_cell_length_c   3.94834100
_cell_angle_alpha   90.00000000
_cell_angle_beta   90.00000000
_cell_angle_gamma   119.99458785
_symmetry_Int_Tables_number   1
_chemical_formula_structural   Dy2Tm3Cr3(P3Ir4)4
_chemical_formula_sum   'Dy2 Tm3 Cr3 P12 Ir16'
_cell_volume   544.50185300
_cell_formula_units_Z   1
loop_
 _symmetry_equiv_pos_site_id
 _symmetry_equiv_pos_as_xyz
  1  'x, y, z'
loop_
 _atom_site_type_symbol
 _atom_site_label
 _atom_site_symmetry_multiplicity
 _atom_site_fract_x
 _atom_site_fract_y
 _atom_site_fract_z
 _atom_site_occupancy
  Dy  Dy0  1  0.189305  0.189333  0.000000  1
  Dy  Dy1  1  0.810695  0.000028  0.000000  1
  Tm  Tm2  1  0.333299  0.666643  0.500000  1
  Tm  Tm3  1  0.666701  0.333343  0.500000  1
  Tm  Tm4  1  0.000000  0.810599  0.000000  1
  Cr  Cr5  1  0.000000  0.453490  0.500000  1
  Cr  Cr6  1  0.546541  0.546518  0.500000  1
  Cr  Cr7  1  0.453459  0.999977  0.500000  1
  P  P8  1  0.000000  0.632909  0.500000  1
  P  P9  1  0.367506  0.367538  0.500000  1
  P  P10  1  0.632494  0.000031  0.500000  1
  P  P11  1  0.515921  0.684271  0.000000  1
  P  P12  1  0.315812  0.831582  0.000000  1
  P  P13  1  0.168383  0.484237  0.000000  1
  P  P14  1  0.484079  0.168350  0.000000  1
  P  P15  1  0.684188  0.515769  0.000000  1
  P  P16  1  0.831617  0.315854  0.000000  1
  P  P17  1  0.000000  0.177496  0.500000  1
  P  P18  1  0.822605  0.822210  0.500000  1
  P  P19  1  0.177395  0.999605  0.500000  1
  Ir  Ir20  1  0.508792  0.867939  0.000000  1
  Ir  Ir21  1  0.132078  0.640972  0.000000  1
  Ir  Ir22  1  0.359180  0.491293  0.000000  1
  Ir  Ir23  1  0.491208  0.359145  0.000000  1
  Ir  Ir24  1  0.867922  0.508893  0.000000  1
  Ir  Ir25  1  0.640820  0.132112  0.000000  1
  Ir  Ir26  1  0.000000  0.287366  0.000000  1
  Ir  Ir27  1  0.712999  0.712769  0.000000  1
  Ir  Ir28  1  0.287001  0.999770  0.000000  1
  Ir  Ir29  1  0.623459  0.802548  0.500000  1
  Ir  Ir30  1  0.196453  0.820705  0.500000  1
  Ir  Ir31  1  0.179117  0.376551  0.500000  1
  Ir  Ir32  1  0.376541  0.179088  0.500000  1
  Ir  Ir33  1  0.803547  0.624252  0.500000  1
  Ir  Ir34  1  0.820883  0.197435  0.500000  1
  Ir  Ir35  1  0.000000  0.999379  0.500000  1
