# generated using pymatgen
data_Nb20Al5GaIr4
_symmetry_space_group_name_H-M   'P 1'
_cell_length_a   9.94146429
_cell_length_b   9.93465129
_cell_length_c   5.19492000
_cell_angle_alpha   90.00000000
_cell_angle_beta   90.00000000
_cell_angle_gamma   90.11818270
_symmetry_Int_Tables_number   1
_chemical_formula_structural   Nb20Al5GaIr4
_chemical_formula_sum   'Nb20 Al5 Ga1 Ir4'
_cell_volume   513.07508331
_cell_formula_units_Z   1
loop_
 _symmetry_equiv_pos_site_id
 _symmetry_equiv_pos_as_xyz
  1  'x, y, z'
loop_
 _atom_site_type_symbol
 _atom_site_label
 _atom_site_symmetry_multiplicity
 _atom_site_fract_x
 _atom_site_fract_y
 _atom_site_fract_z
 _atom_site_occupancy
  Nb  Nb0  1  0.398657  0.392066  0.000000  1
  Nb  Nb1  1  0.892533  0.102088  0.500000  1
  Nb  Nb2  1  0.107624  0.898133  0.500000  1
  Nb  Nb3  1  0.601651  0.607048  0.000000  1
  Nb  Nb4  1  0.129113  0.465017  0.000000  1
  Nb  Nb5  1  0.964611  0.370962  0.500000  1
  Nb  Nb6  1  0.034613  0.629500  0.500000  1
  Nb  Nb7  1  0.871337  0.534625  0.000000  1
  Nb  Nb8  1  0.373830  0.964595  0.500000  1
  Nb  Nb9  1  0.626107  0.035202  0.500000  1
  Nb  Nb10  1  0.464555  0.125940  0.000000  1
  Nb  Nb11  1  0.535447  0.873694  0.000000  1
  Nb  Nb12  1  0.182939  0.183482  0.249672  1
  Nb  Nb13  1  0.683429  0.317388  0.749243  1
  Nb  Nb14  1  0.316972  0.683032  0.749534  1
  Nb  Nb15  1  0.817134  0.816963  0.249401  1
  Nb  Nb16  1  0.316972  0.683032  0.250466  1
  Nb  Nb17  1  0.683429  0.317388  0.250757  1
  Nb  Nb18  1  0.182939  0.183482  0.750328  1
  Nb  Nb19  1  0.817134  0.816963  0.750599  1
  Al  Al20  1  0.000260  0.000136  0.000000  1
  Al  Al21  1  0.499685  0.499311  0.500000  1
  Al  Al22  1  0.757802  0.567311  0.500000  1
  Al  Al23  1  0.932946  0.257745  0.000000  1
  Al  Al24  1  0.067159  0.742241  0.000000  1
  Ga  Ga25  1  0.240583  0.434428  0.500000  1
  Ir  Ir26  1  0.258168  0.932693  0.000000  1
  Ir  Ir27  1  0.433674  0.240611  0.500000  1
  Ir  Ir28  1  0.566869  0.757750  0.500000  1
  Ir  Ir29  1  0.741830  0.067173  0.000000  1
