# generated using pymatgen
data_SmY5NiCl10
_symmetry_space_group_name_H-M   'P 1'
_cell_length_a   7.09783015
_cell_length_b   8.86069046
_cell_length_c   8.95980525
_cell_angle_alpha   108.22690181
_cell_angle_beta   96.23986820
_cell_angle_gamma   105.96193792
_symmetry_Int_Tables_number   1
_chemical_formula_structural   SmY5NiCl10
_chemical_formula_sum   'Sm1 Y5 Ni1 Cl10'
_cell_volume   502.75571627
_cell_formula_units_Z   1
loop_
 _symmetry_equiv_pos_site_id
 _symmetry_equiv_pos_as_xyz
  1  'x, y, z'
loop_
 _atom_site_type_symbol
 _atom_site_label
 _atom_site_symmetry_multiplicity
 _atom_site_fract_x
 _atom_site_fract_y
 _atom_site_fract_z
 _atom_site_occupancy
  Sm  Sm0  1  0.136701  0.054520  0.752072  1
  Y  Y1  1  0.864920  0.946626  0.244425  1
  Y  Y2  1  0.967341  0.302545  0.098779  1
  Y  Y3  1  0.032108  0.698257  0.904347  1
  Y  Y4  1  0.361216  0.139002  0.183540  1
  Y  Y5  1  0.638893  0.860867  0.815896  1
  Ni  Ni6  1  0.000084  0.000550  0.999291  1
  Cl  Cl7  1  0.552240  0.173639  0.922889  1
  Cl  Cl8  1  0.452849  0.827995  0.080467  1
  Cl  Cl9  1  0.345332  0.450603  0.269493  1
  Cl  Cl10  1  0.654661  0.549356  0.732068  1
  Cl  Cl11  1  0.240074  0.075666  0.443476  1
  Cl  Cl12  1  0.754429  0.921053  0.546559  1
  Cl  Cl13  1  0.779356  0.247926  0.340774  1
  Cl  Cl14  1  0.221677  0.746188  0.661017  1
  Cl  Cl15  1  0.083075  0.374314  0.836715  1
  Cl  Cl16  1  0.915044  0.630892  0.168191  1
