# generated using pymatgen
data_Lu4VOs7
_symmetry_space_group_name_H-M   'P 1'
_cell_length_a   5.19761562
_cell_length_b   5.38960846
_cell_length_c   8.80347900
_cell_angle_alpha   90.00000000
_cell_angle_beta   90.00000000
_cell_angle_gamma   121.23244102
_symmetry_Int_Tables_number   1
_chemical_formula_structural   Lu4VOs7
_chemical_formula_sum   'Lu4 V1 Os7'
_cell_volume   210.87145301
_cell_formula_units_Z   1
loop_
 _symmetry_equiv_pos_site_id
 _symmetry_equiv_pos_as_xyz
  1  'x, y, z'
loop_
 _atom_site_type_symbol
 _atom_site_label
 _atom_site_symmetry_multiplicity
 _atom_site_fract_x
 _atom_site_fract_y
 _atom_site_fract_z
 _atom_site_occupancy
  Lu  Lu0  1  0.337132  0.668467  0.063713  1
  Lu  Lu1  1  0.337132  0.668467  0.436288  1
  Lu  Lu2  1  0.663795  0.331816  0.565963  1
  Lu  Lu3  1  0.663795  0.331816  0.934037  1
  V  V4  1  0.336304  0.167827  0.250000  1
  Os  Os5  1  0.005870  0.003259  0.001876  1
  Os  Os6  1  0.823535  0.173286  0.250000  1
  Os  Os7  1  0.823835  0.650824  0.250000  1
  Os  Os8  1  0.005870  0.003259  0.498124  1
  Os  Os9  1  0.171281  0.345386  0.750000  1
  Os  Os10  1  0.171236  0.825703  0.750000  1
  Os  Os11  1  0.660219  0.829893  0.750000  1
