# generated using pymatgen
data_BaSr(PtCl6)2
_symmetry_space_group_name_H-M   'P 1'
_cell_length_a   6.66669631
_cell_length_b   6.66669782
_cell_length_c   10.74946230
_cell_angle_alpha   88.28025697
_cell_angle_beta   88.28025448
_cell_angle_gamma   71.34818475
_symmetry_Int_Tables_number   1
_chemical_formula_structural   BaSr(PtCl6)2
_chemical_formula_sum   'Ba1 Sr1 Pt2 Cl12'
_cell_volume   452.35716521
_cell_formula_units_Z   1
loop_
 _symmetry_equiv_pos_site_id
 _symmetry_equiv_pos_as_xyz
  1  'x, y, z'
loop_
 _atom_site_type_symbol
 _atom_site_label
 _atom_site_symmetry_multiplicity
 _atom_site_fract_x
 _atom_site_fract_y
 _atom_site_fract_z
 _atom_site_occupancy
  Ba  Ba0  1  0.994685  0.005315  0.250000  1
  Sr  Sr1  1  0.007056  0.992944  0.750000  1
  Pt  Pt2  1  0.506654  0.007988  0.508630  1
  Pt  Pt3  1  0.992012  0.493346  0.991370  1
  Cl  Cl4  1  0.406098  0.741737  0.615209  1
  Cl  Cl5  1  0.599056  0.280421  0.403581  1
  Cl  Cl6  1  0.258263  0.593902  0.884791  1
  Cl  Cl7  1  0.719579  0.400944  0.096419  1
  Cl  Cl8  1  0.534896  0.154928  0.700113  1
  Cl  Cl9  1  0.491436  0.856986  0.315194  1
  Cl  Cl10  1  0.845072  0.465104  0.799887  1
  Cl  Cl11  1  0.143014  0.508564  0.184806  1
  Cl  Cl12  1  0.792962  0.854792  0.997789  1
  Cl  Cl13  1  0.195816  0.131808  0.982658  1
  Cl  Cl14  1  0.145208  0.207038  0.502211  1
  Cl  Cl15  1  0.868192  0.804184  0.517342  1
