# generated using pymatgen
data_Tm3LuAlZn11
_symmetry_space_group_name_H-M   'P 1'
_cell_length_a   4.35663800
_cell_length_b   6.64441063
_cell_length_c   10.01163311
_cell_angle_alpha   90.07629012
_cell_angle_beta   90.00000000
_cell_angle_gamma   90.00000000
_symmetry_Int_Tables_number   1
_chemical_formula_structural   Tm3LuAlZn11
_chemical_formula_sum   'Tm3 Lu1 Al1 Zn11'
_cell_volume   289.80940849
_cell_formula_units_Z   1
loop_
 _symmetry_equiv_pos_site_id
 _symmetry_equiv_pos_as_xyz
  1  'x, y, z'
loop_
 _atom_site_type_symbol
 _atom_site_label
 _atom_site_symmetry_multiplicity
 _atom_site_fract_x
 _atom_site_fract_y
 _atom_site_fract_z
 _atom_site_occupancy
  Tm  Tm0  1  0.250000  0.279749  0.663295  1
  Tm  Tm1  1  0.750000  0.719358  0.335742  1
  Tm  Tm2  1  0.750000  0.218202  0.165321  1
  Lu  Lu3  1  0.250000  0.780247  0.833885  1
  Al  Al4  1  0.250000  0.537836  0.103741  1
  Zn  Zn5  1  0.250000  0.036293  0.396677  1
  Zn  Zn6  1  0.750000  0.463518  0.896409  1
  Zn  Zn7  1  0.750000  0.963750  0.603068  1
  Zn  Zn8  1  0.250000  0.923007  0.148861  1
  Zn  Zn9  1  0.250000  0.420046  0.352574  1
  Zn  Zn10  1  0.750000  0.079390  0.851238  1
  Zn  Zn11  1  0.750000  0.580334  0.649255  1
  Zn  Zn12  1  0.250000  0.214323  0.957138  1
  Zn  Zn13  1  0.250000  0.716268  0.542796  1
  Zn  Zn14  1  0.750000  0.784099  0.042169  1
  Zn  Zn15  1  0.750000  0.283583  0.457832  1
