# generated using pymatgen
data_Hf9Ga(ReW)2
_symmetry_space_group_name_H-M   'P 1'
_cell_length_a   8.67005006
_cell_length_b   8.68548987
_cell_length_c   8.66823600
_cell_angle_alpha   90.00000000
_cell_angle_beta   90.00000000
_cell_angle_gamma   120.05796098
_symmetry_Int_Tables_number   1
_chemical_formula_structural   Hf9Ga(ReW)2
_chemical_formula_sum   'Hf18 Ga2 Re4 W4'
_cell_volume   564.96732903
_cell_formula_units_Z   2
loop_
 _symmetry_equiv_pos_site_id
 _symmetry_equiv_pos_as_xyz
  1  'x, y, z'
loop_
 _atom_site_type_symbol
 _atom_site_label
 _atom_site_symmetry_multiplicity
 _atom_site_fract_x
 _atom_site_fract_y
 _atom_site_fract_z
 _atom_site_occupancy
  Hf  Hf0  1  0.195504  0.804305  0.454612  1
  Hf  Hf1  1  0.195512  0.391197  0.454619  1
  Hf  Hf2  1  0.609108  0.804548  0.454650  1
  Hf  Hf3  1  0.804831  0.194874  0.548723  1
  Hf  Hf4  1  0.804828  0.609961  0.548723  1
  Hf  Hf5  1  0.389406  0.194708  0.547878  1
  Hf  Hf6  1  0.804831  0.194874  0.951277  1
  Hf  Hf7  1  0.804828  0.609961  0.951277  1
  Hf  Hf8  1  0.389406  0.194708  0.952122  1
  Hf  Hf9  1  0.195504  0.804305  0.045388  1
  Hf  Hf10  1  0.195512  0.391197  0.045381  1
  Hf  Hf11  1  0.609108  0.804548  0.045350  1
  Hf  Hf12  1  0.538180  0.459910  0.250000  1
  Hf  Hf13  1  0.538188  0.078279  0.250000  1
  Hf  Hf14  1  0.922656  0.461320  0.250000  1
  Hf  Hf15  1  0.459473  0.540260  0.750000  1
  Hf  Hf16  1  0.459470  0.919200  0.750000  1
  Hf  Hf17  1  0.080863  0.540438  0.750000  1
  Ga  Ga18  1  0.332772  0.666388  0.250000  1
  Ga  Ga19  1  0.666037  0.333021  0.750000  1
  Re  Re20  1  0.221507  0.110751  0.250000  1
  Re  Re21  1  0.110738  0.889928  0.750000  1
  Re  Re22  1  0.110746  0.220816  0.750000  1
  Re  Re23  1  0.778527  0.889260  0.750000  1
  W  W24  1  0.890654  0.110604  0.250000  1
  W  W25  1  0.890654  0.780066  0.250000  1
  W  W26  1  0.000578  0.000287  0.501257  1
  W  W27  1  0.000578  0.000287  0.998743  1
