# generated using pymatgen
data_Tb10LuThCo4
_symmetry_space_group_name_H-M   'P 1'
_cell_length_a   6.27237811
_cell_length_b   6.93739752
_cell_length_c   9.56758029
_cell_angle_alpha   89.90439256
_cell_angle_beta   89.95088448
_cell_angle_gamma   91.34926929
_symmetry_Int_Tables_number   1
_chemical_formula_structural   Tb10LuThCo4
_chemical_formula_sum   'Tb10 Lu1 Th1 Co4'
_cell_volume   416.20732004
_cell_formula_units_Z   1
loop_
 _symmetry_equiv_pos_site_id
 _symmetry_equiv_pos_as_xyz
  1  'x, y, z'
loop_
 _atom_site_type_symbol
 _atom_site_label
 _atom_site_symmetry_multiplicity
 _atom_site_fract_x
 _atom_site_fract_y
 _atom_site_fract_z
 _atom_site_occupancy
  Tb  Tb0  1  0.172050  0.175272  0.430084  1
  Tb  Tb1  1  0.676473  0.325795  0.568782  1
  Tb  Tb2  1  0.823324  0.826666  0.931216  1
  Tb  Tb3  1  0.675408  0.326388  0.932054  1
  Tb  Tb4  1  0.823943  0.826974  0.570036  1
  Tb  Tb5  1  0.326338  0.674435  0.431005  1
  Tb  Tb6  1  0.173184  0.175415  0.069595  1
  Tb  Tb7  1  0.639302  0.043911  0.249317  1
  Tb  Tb8  1  0.145752  0.455373  0.751418  1
  Tb  Tb9  1  0.356592  0.954621  0.751159  1
  Lu  Lu10  1  0.327411  0.675069  0.069074  1
  Th  Th11  1  0.847668  0.555565  0.248626  1
  Co  Co12  1  0.046993  0.868103  0.248091  1
  Co  Co13  1  0.467988  0.391968  0.247499  1
  Co  Co14  1  0.950395  0.113048  0.749860  1
  Co  Co15  1  0.547178  0.611398  0.752184  1
