# generated using pymatgen
data_Ho7TmTi12Si15Sn
_symmetry_space_group_name_H-M   'P 1'
_cell_length_a   7.09422213
_cell_length_b   7.05641378
_cell_length_c   12.99276927
_cell_angle_alpha   89.98142922
_cell_angle_beta   89.75660663
_cell_angle_gamma   89.93276547
_symmetry_Int_Tables_number   1
_chemical_formula_structural   Ho7TmTi12Si15Sn
_chemical_formula_sum   'Ho7 Tm1 Ti12 Si15 Sn1'
_cell_volume   650.40865051
_cell_formula_units_Z   1
loop_
 _symmetry_equiv_pos_site_id
 _symmetry_equiv_pos_as_xyz
  1  'x, y, z'
loop_
 _atom_site_type_symbol
 _atom_site_label
 _atom_site_symmetry_multiplicity
 _atom_site_fract_x
 _atom_site_fract_y
 _atom_site_fract_z
 _atom_site_occupancy
  Ho  Ho0  1  0.505636  0.835151  0.717981  1
  Ho  Ho1  1  0.502254  0.159822  0.216792  1
  Ho  Ho2  1  0.840998  0.496928  0.282416  1
  Ho  Ho3  1  0.159405  0.510133  0.786057  1
  Ho  Ho4  1  0.661424  0.996531  0.968671  1
  Ho  Ho5  1  0.992679  0.348225  0.527434  1
  Ho  Ho6  1  0.999169  0.659216  0.034239  1
  Tm  Tm7  1  0.343396  0.998407  0.461323  1
  Ti  Ti8  1  0.326266  0.326525  0.001128  1
  Ti  Ti9  1  0.174311  0.826035  0.249938  1
  Ti  Ti10  1  0.816557  0.175066  0.751868  1
  Ti  Ti11  1  0.672404  0.673353  0.499431  1
  Ti  Ti12  1  0.152430  0.007919  0.883285  1
  Ti  Ti13  1  0.492088  0.650431  0.127202  1
  Ti  Ti14  1  0.514950  0.354169  0.626304  1
  Ti  Ti15  1  0.654108  0.493085  0.875417  1
  Ti  Ti16  1  0.347330  0.509573  0.372786  1
  Ti  Ti17  1  0.847393  0.992089  0.375863  1
  Ti  Ti18  1  0.010019  0.151318  0.123504  1
  Ti  Ti19  1  0.979059  0.835803  0.618540  1
  Si  Si20  1  0.371335  0.702839  0.936045  1
  Si  Si21  1  0.627102  0.296689  0.432659  1
  Si  Si22  1  0.703997  0.369596  0.066699  1
  Si  Si23  1  0.296647  0.631485  0.565444  1
  Si  Si24  1  0.797649  0.869764  0.184337  1
  Si  Si25  1  0.130641  0.202119  0.315434  1
  Si  Si26  1  0.870647  0.800238  0.815952  1
  Si  Si27  1  0.292906  0.951938  0.066891  1
  Si  Si28  1  0.549084  0.789880  0.313971  1
  Si  Si29  1  0.459259  0.210367  0.820018  1
  Si  Si30  1  0.793764  0.544789  0.686762  1
  Si  Si31  1  0.209294  0.452278  0.185238  1
  Si  Si32  1  0.705451  0.048360  0.564165  1
  Si  Si33  1  0.952564  0.291570  0.935366  1
  Si  Si34  1  0.048355  0.711252  0.432751  1
  Sn  Sn35  1  0.199429  0.127054  0.678089  1
