# generated using pymatgen
data_Tb12YTh3(MgIr)4
_symmetry_space_group_name_H-M   'P 1'
_cell_length_a   9.81900353
_cell_length_b   9.82706019
_cell_length_c   9.83558700
_cell_angle_alpha   59.97129638
_cell_angle_beta   59.94411875
_cell_angle_gamma   59.92023956
_symmetry_Int_Tables_number   1
_chemical_formula_structural   Tb12YTh3(MgIr)4
_chemical_formula_sum   'Tb12 Y1 Th3 Mg4 Ir4'
_cell_volume   670.24906067
_cell_formula_units_Z   1
loop_
 _symmetry_equiv_pos_site_id
 _symmetry_equiv_pos_as_xyz
  1  'x, y, z'
loop_
 _atom_site_type_symbol
 _atom_site_label
 _atom_site_symmetry_multiplicity
 _atom_site_fract_x
 _atom_site_fract_y
 _atom_site_fract_z
 _atom_site_occupancy
  Tb  Tb0  1  0.205517  0.598369  0.598058  1
  Tb  Tb1  1  0.062380  0.437694  0.438236  1
  Tb  Tb2  1  0.437050  0.062844  0.063171  1
  Tb  Tb3  1  0.437050  0.062844  0.436936  1
  Tb  Tb4  1  0.062380  0.437694  0.061691  1
  Tb  Tb5  1  0.437586  0.436992  0.062711  1
  Tb  Tb6  1  0.063001  0.061962  0.437519  1
  Tb  Tb7  1  0.186798  0.814050  0.814127  1
  Tb  Tb8  1  0.814890  0.185653  0.184508  1
  Tb  Tb9  1  0.814890  0.185653  0.814947  1
  Tb  Tb10  1  0.186798  0.814050  0.185026  1
  Tb  Tb11  1  0.815494  0.815467  0.184519  1
  Y  Y12  1  0.186541  0.185977  0.813741  1
  Th  Th13  1  0.595416  0.597862  0.597423  1
  Th  Th14  1  0.595416  0.597862  0.209300  1
  Th  Th15  1  0.596107  0.207788  0.598053  1
  Mg  Mg16  1  0.830078  0.829460  0.830116  1
  Mg  Mg17  1  0.830078  0.829460  0.510346  1
  Mg  Mg18  1  0.829970  0.510183  0.829924  1
  Mg  Mg19  1  0.508512  0.830096  0.830697  1
  Ir  Ir20  1  0.394964  0.391717  0.392226  1
  Ir  Ir21  1  0.394964  0.391717  0.821095  1
  Ir  Ir22  1  0.394788  0.821215  0.391999  1
  Ir  Ir23  1  0.819335  0.393394  0.393635  1
