# generated using pymatgen
data_Tb7Dy3B2I15
_symmetry_space_group_name_H-M   'P 1'
_cell_length_a   9.64673822
_cell_length_b   10.38698617
_cell_length_c   11.34014649
_cell_angle_alpha   91.75300841
_cell_angle_beta   114.41640109
_cell_angle_gamma   110.43359495
_symmetry_Int_Tables_number   1
_chemical_formula_structural   Tb7Dy3B2I15
_chemical_formula_sum   'Tb7 Dy3 B2 I15'
_cell_volume   948.97335913
_cell_formula_units_Z   1
loop_
 _symmetry_equiv_pos_site_id
 _symmetry_equiv_pos_as_xyz
  1  'x, y, z'
loop_
 _atom_site_type_symbol
 _atom_site_label
 _atom_site_symmetry_multiplicity
 _atom_site_fract_x
 _atom_site_fract_y
 _atom_site_fract_z
 _atom_site_occupancy
  Tb  Tb0  1  0.784870  0.393892  0.267998  1
  Tb  Tb1  1  0.215118  0.606145  0.731950  1
  Tb  Tb2  1  0.663545  0.752026  0.825379  1
  Tb  Tb3  1  0.336415  0.248018  0.174582  1
  Tb  Tb4  1  0.523205  0.712624  0.085987  1
  Tb  Tb5  1  0.476784  0.287441  0.913969  1
  Tb  Tb6  1  0.580631  0.043545  0.309323  1
  Dy  Dy7  1  0.419556  0.956248  0.691155  1
  Dy  Dy8  1  0.707373  0.069932  0.045544  1
  Dy  Dy9  1  0.292619  0.930069  0.954414  1
  B  B10  1  0.468518  0.823445  0.880027  1
  B  B11  1  0.531403  0.176775  0.119669  1
  I  I12  1  0.000001  0.999997  0.999994  1
  I  I13  1  0.638358  0.882559  0.583004  1
  I  I14  1  0.361386  0.117493  0.417201  1
  I  I15  1  0.884793  0.299227  0.531206  1
  I  I16  1  0.115525  0.701067  0.468990  1
  I  I17  1  0.284373  0.760116  0.177309  1
  I  I18  1  0.715236  0.239523  0.822432  1
  I  I19  1  0.054697  0.340016  0.225532  1
  I  I20  1  0.160184  0.055703  0.701958  1
  I  I21  1  0.840113  0.944145  0.297922  1
  I  I22  1  0.227993  0.409768  0.942005  1
  I  I23  1  0.772003  0.590230  0.057987  1
  I  I24  1  0.409731  0.459481  0.659787  1
  I  I25  1  0.590275  0.540531  0.340215  1
  I  I26  1  0.945294  0.659984  0.774460  1
