# generated using pymatgen
data_Dy3Cd3PtAu2
_symmetry_space_group_name_H-M   'P 1'
_cell_length_a   7.86074100
_cell_length_b   7.86074227
_cell_length_c   3.81559500
_cell_angle_alpha   90.00000000
_cell_angle_beta   90.00000000
_cell_angle_gamma   120.00000728
_symmetry_Int_Tables_number   1
_chemical_formula_structural   Dy3Cd3PtAu2
_chemical_formula_sum   'Dy3 Cd3 Pt1 Au2'
_cell_volume   204.18315744
_cell_formula_units_Z   1
loop_
 _symmetry_equiv_pos_site_id
 _symmetry_equiv_pos_as_xyz
  1  'x, y, z'
loop_
 _atom_site_type_symbol
 _atom_site_label
 _atom_site_symmetry_multiplicity
 _atom_site_fract_x
 _atom_site_fract_y
 _atom_site_fract_z
 _atom_site_occupancy
  Dy  Dy0  1  0.587029  0.982809  0.000000  1
  Dy  Dy1  1  0.017191  0.604220  0.000000  1
  Dy  Dy2  1  0.395780  0.412971  0.000000  1
  Cd  Cd3  1  0.267574  0.002458  0.500000  1
  Cd  Cd4  1  0.997542  0.265116  0.500000  1
  Cd  Cd5  1  0.734884  0.732426  0.500000  1
  Pt  Pt6  1  0.333333  0.666667  0.500000  1
  Au  Au7  1  0.666667  0.333333  0.500000  1
  Au  Au8  1  0.000000  0.000000  0.000000  1
