# generated using pymatgen
data_Rb2TbBr5
_symmetry_space_group_name_H-M   'P 1'
_cell_length_a   8.76495700
_cell_length_b   9.20912500
_cell_length_c   14.18157700
_cell_angle_alpha   90.00000000
_cell_angle_beta   90.00000000
_cell_angle_gamma   90.00000000
_symmetry_Int_Tables_number   1
_chemical_formula_structural   Rb2TbBr5
_chemical_formula_sum   'Rb8 Tb4 Br20'
_cell_volume   1144.70264172
_cell_formula_units_Z   4
loop_
 _symmetry_equiv_pos_site_id
 _symmetry_equiv_pos_as_xyz
  1  'x, y, z'
loop_
 _atom_site_type_symbol
 _atom_site_label
 _atom_site_symmetry_multiplicity
 _atom_site_fract_x
 _atom_site_fract_y
 _atom_site_fract_z
 _atom_site_occupancy
  Rb  Rb0  1  0.537655  0.500749  0.825774  1
  Rb  Rb1  1  0.462345  0.499251  0.174226  1
  Rb  Rb2  1  0.037655  0.499251  0.674226  1
  Rb  Rb3  1  0.462345  0.000749  0.174226  1
  Rb  Rb4  1  0.962345  0.500749  0.325774  1
  Rb  Rb5  1  0.537655  0.999251  0.825774  1
  Rb  Rb6  1  0.962345  0.999251  0.325774  1
  Rb  Rb7  1  0.037655  0.000749  0.674226  1
  Tb  Tb8  1  0.571647  0.750000  0.502463  1
  Tb  Tb9  1  0.428353  0.250000  0.497537  1
  Tb  Tb10  1  0.071647  0.250000  0.997537  1
  Tb  Tb11  1  0.928353  0.750000  0.002463  1
  Br  Br12  1  0.836176  0.750000  0.807305  1
  Br  Br13  1  0.163824  0.250000  0.192695  1
  Br  Br14  1  0.336176  0.250000  0.692695  1
  Br  Br15  1  0.663824  0.750000  0.307305  1
  Br  Br16  1  0.369239  0.750000  0.662387  1
  Br  Br17  1  0.630761  0.250000  0.337613  1
  Br  Br18  1  0.869239  0.250000  0.837613  1
  Br  Br19  1  0.130761  0.750000  0.162387  1
  Br  Br20  1  0.902842  0.750000  0.513718  1
  Br  Br21  1  0.097158  0.250000  0.486282  1
  Br  Br22  1  0.402842  0.250000  0.986282  1
  Br  Br23  1  0.597158  0.750000  0.013718  1
  Br  Br24  1  0.652001  0.040649  0.577360  1
  Br  Br25  1  0.347999  0.959351  0.422640  1
  Br  Br26  1  0.152001  0.959351  0.922640  1
  Br  Br27  1  0.347999  0.540649  0.422640  1
  Br  Br28  1  0.847999  0.040649  0.077360  1
  Br  Br29  1  0.652001  0.459351  0.577360  1
  Br  Br30  1  0.847999  0.459351  0.077360  1
  Br  Br31  1  0.152001  0.540649  0.922640  1
