# generated using pymatgen
data_Gd2Sn4Rh3
_symmetry_space_group_name_H-M   'P 1'
_cell_length_a   7.04323900
_cell_length_b   7.04323986
_cell_length_c   4.12960200
_cell_angle_alpha   90.00000000
_cell_angle_beta   90.00000000
_cell_angle_gamma   113.92380054
_symmetry_Int_Tables_number   1
_chemical_formula_structural   Gd2Sn4Rh3
_chemical_formula_sum   'Gd2 Sn4 Rh3'
_cell_volume   187.25781875
_cell_formula_units_Z   1
loop_
 _symmetry_equiv_pos_site_id
 _symmetry_equiv_pos_as_xyz
  1  'x, y, z'
loop_
 _atom_site_type_symbol
 _atom_site_label
 _atom_site_symmetry_multiplicity
 _atom_site_fract_x
 _atom_site_fract_y
 _atom_site_fract_z
 _atom_site_occupancy
  Gd  Gd0  1  0.011127  0.593662  0.000000  1
  Gd  Gd1  1  0.593662  0.011127  0.000000  1
  Sn  Sn2  1  0.389842  0.389842  0.000000  1
  Sn  Sn3  1  0.767816  0.767816  0.500000  1
  Sn  Sn4  1  0.980353  0.258780  0.500000  1
  Sn  Sn5  1  0.258780  0.980353  0.500000  1
  Rh  Rh6  1  0.018599  0.018599  0.000000  1
  Rh  Rh7  1  0.629485  0.350335  0.500000  1
  Rh  Rh8  1  0.350335  0.629485  0.500000  1
