# generated using pymatgen
data_CeNd2(InIr)3
_symmetry_space_group_name_H-M   'P 1'
_cell_length_a   7.59418984
_cell_length_b   7.78488100
_cell_length_c   4.01902800
_cell_angle_alpha   90.00000000
_cell_angle_beta   90.00000000
_cell_angle_gamma   120.83416573
_symmetry_Int_Tables_number   1
_chemical_formula_structural   CeNd2(InIr)3
_chemical_formula_sum   'Ce1 Nd2 In3 Ir3'
_cell_volume   204.02005702
_cell_formula_units_Z   1
loop_
 _symmetry_equiv_pos_site_id
 _symmetry_equiv_pos_as_xyz
  1  'x, y, z'
loop_
 _atom_site_type_symbol
 _atom_site_label
 _atom_site_symmetry_multiplicity
 _atom_site_fract_x
 _atom_site_fract_y
 _atom_site_fract_z
 _atom_site_occupancy
  Ce  Ce0  1  0.000000  0.583663  0.000000  1
  Nd  Nd1  1  0.409449  0.409269  0.000000  1
  Nd  Nd2  1  0.590551  0.999820  0.000000  1
  In  In3  1  0.000000  0.246467  0.500000  1
  In  In4  1  0.744115  0.746738  0.500000  1
  In  In5  1  0.255885  0.002623  0.500000  1
  Ir  Ir6  1  0.000000  0.994441  0.000000  1
  Ir  Ir7  1  0.310792  0.663885  0.500000  1
  Ir  Ir8  1  0.689208  0.353092  0.500000  1
