# generated using pymatgen
data_PrNd5Cd23Sn
_symmetry_space_group_name_H-M   'P 1'
_cell_length_a   10.15151399
_cell_length_b   10.14628623
_cell_length_c   10.14628635
_cell_angle_alpha   60.03409910
_cell_angle_beta   59.98295470
_cell_angle_gamma   59.98295009
_symmetry_Int_Tables_number   1
_chemical_formula_structural   PrNd5Cd23Sn
_chemical_formula_sum   'Pr1 Nd5 Cd23 Sn1'
_cell_volume   738.97513624
_cell_formula_units_Z   1
loop_
 _symmetry_equiv_pos_site_id
 _symmetry_equiv_pos_as_xyz
  1  'x, y, z'
loop_
 _atom_site_type_symbol
 _atom_site_label
 _atom_site_symmetry_multiplicity
 _atom_site_fract_x
 _atom_site_fract_y
 _atom_site_fract_z
 _atom_site_occupancy
  Pr  Pr0  1  0.222721  0.777279  0.777279  1
  Nd  Nd1  1  0.777733  0.777753  0.222267  1
  Nd  Nd2  1  0.222247  0.777753  0.222267  1
  Nd  Nd3  1  0.777265  0.222735  0.222735  1
  Nd  Nd4  1  0.222247  0.222267  0.777753  1
  Nd  Nd5  1  0.777733  0.222267  0.777753  1
  Cd  Cd6  1  0.841344  0.841510  0.475803  1
  Cd  Cd7  1  0.841344  0.475803  0.841510  1
  Cd  Cd8  1  0.476796  0.841270  0.841270  1
  Cd  Cd9  1  0.840665  0.841270  0.841270  1
  Cd  Cd10  1  0.158730  0.159335  0.523204  1
  Cd  Cd11  1  0.158730  0.523204  0.159335  1
  Cd  Cd12  1  0.524197  0.158656  0.158656  1
  Cd  Cd13  1  0.158490  0.158656  0.158656  1
  Cd  Cd14  1  0.625661  0.625619  0.123062  1
  Cd  Cd15  1  0.625661  0.123062  0.625619  1
  Cd  Cd16  1  0.122580  0.625399  0.625399  1
  Cd  Cd17  1  0.626623  0.625399  0.625399  1
  Cd  Cd18  1  0.374601  0.373377  0.877420  1
  Cd  Cd19  1  0.374601  0.877420  0.373377  1
  Cd  Cd20  1  0.876938  0.374339  0.374339  1
  Cd  Cd21  1  0.374381  0.374339  0.374339  1
  Cd  Cd22  1  0.999880  0.000120  0.499902  1
  Cd  Cd23  1  0.500098  0.000120  0.499902  1
  Cd  Cd24  1  0.999893  0.500107  0.500107  1
  Cd  Cd25  1  0.500098  0.499902  0.000120  1
  Cd  Cd26  1  0.999880  0.499902  0.000120  1
  Cd  Cd27  1  0.499893  0.000107  0.000107  1
  Cd  Cd28  1  0.499956  0.500044  0.500044  1
  Sn  Sn29  1  0.999015  0.000985  0.000985  1
