# generated using pymatgen
data_CeEu3TiGe3O14
_symmetry_space_group_name_H-M   'P 1'
_cell_length_a   7.19934107
_cell_length_b   7.19934011
_cell_length_c   7.24380430
_cell_angle_alpha   60.20283166
_cell_angle_beta   60.20284115
_cell_angle_gamma   59.99999551
_symmetry_Int_Tables_number   1
_chemical_formula_structural   CeEu3TiGe3O14
_chemical_formula_sum   'Ce1 Eu3 Ti1 Ge3 O14'
_cell_volume   266.29428443
_cell_formula_units_Z   1
loop_
 _symmetry_equiv_pos_site_id
 _symmetry_equiv_pos_as_xyz
  1  'x, y, z'
loop_
 _atom_site_type_symbol
 _atom_site_label
 _atom_site_symmetry_multiplicity
 _atom_site_fract_x
 _atom_site_fract_y
 _atom_site_fract_z
 _atom_site_occupancy
  Ce  Ce0  1  0.125000  0.125000  0.625000  1
  Eu  Eu1  1  0.125000  0.625000  0.125000  1
  Eu  Eu2  1  0.625000  0.125000  0.125000  1
  Eu  Eu3  1  0.125000  0.125000  0.125000  1
  Ti  Ti4  1  0.625000  0.625000  0.125000  1
  Ge  Ge5  1  0.125000  0.625000  0.625000  1
  Ge  Ge6  1  0.625000  0.625000  0.625000  1
  Ge  Ge7  1  0.625000  0.125000  0.625000  1
  O  O8  1  0.300090  0.705708  0.694113  1
  O  O9  1  0.550766  0.955095  0.943373  1
  O  O10  1  0.705708  0.300090  0.694113  1
  O  O11  1  0.699234  0.699234  0.306627  1
  O  O12  1  0.005714  0.005714  0.982856  1
  O  O13  1  0.300090  0.300090  0.694113  1
  O  O14  1  0.294905  0.699234  0.306627  1
  O  O15  1  0.955095  0.550766  0.943373  1
  O  O16  1  0.244286  0.244286  0.267144  1
  O  O17  1  0.949910  0.949910  0.555887  1
  O  O18  1  0.550766  0.550766  0.943373  1
  O  O19  1  0.544292  0.949910  0.555887  1
  O  O20  1  0.699234  0.294905  0.306627  1
  O  O21  1  0.949910  0.544292  0.555887  1
