# generated using pymatgen
data_Dy3Tm(Si5Os3)2
_symmetry_space_group_name_H-M   'P 1'
_cell_length_a   8.14257026
_cell_length_b   8.13984924
_cell_length_c   5.79029927
_cell_angle_alpha   70.57087463
_cell_angle_beta   70.56865832
_cell_angle_gamma   94.07045611
_symmetry_Int_Tables_number   1
_chemical_formula_structural   Dy3Tm(Si5Os3)2
_chemical_formula_sum   'Dy3 Tm1 Si10 Os6'
_cell_volume   334.11247210
_cell_formula_units_Z   1
loop_
 _symmetry_equiv_pos_site_id
 _symmetry_equiv_pos_as_xyz
  1  'x, y, z'
loop_
 _atom_site_type_symbol
 _atom_site_label
 _atom_site_symmetry_multiplicity
 _atom_site_fract_x
 _atom_site_fract_y
 _atom_site_fract_z
 _atom_site_occupancy
  Dy  Dy0  1  0.868972  0.601011  0.753335  1
  Dy  Dy1  1  0.399013  0.130897  0.746804  1
  Dy  Dy2  1  0.131036  0.399024  0.246623  1
  Tm  Tm3  1  0.601057  0.869085  0.253197  1
  Si  Si4  1  0.068428  0.261647  0.833439  1
  Si  Si5  1  0.738224  0.931460  0.666818  1
  Si  Si6  1  0.931094  0.738559  0.166646  1
  Si  Si7  1  0.261654  0.068304  0.333438  1
  Si  Si8  1  0.206196  0.793821  0.750079  1
  Si  Si9  1  0.793621  0.205816  0.249964  1
  Si  Si10  1  0.512438  0.487773  0.749868  1
  Si  Si11  1  0.487831  0.512849  0.249872  1
  Si  Si12  1  0.775143  0.224525  0.750402  1
  Si  Si13  1  0.225019  0.775267  0.249928  1
  Os  Os14  1  0.256222  0.544810  0.630349  1
  Os  Os15  1  0.456056  0.744522  0.868700  1
  Os  Os16  1  0.744082  0.455610  0.369391  1
  Os  Os17  1  0.544490  0.255081  0.130904  1
  Os  Os18  1  0.002092  0.997625  0.750129  1
  Os  Os19  1  0.997332  0.002313  0.250115  1
