# generated using pymatgen
data_Li2Ni12As2P5
_symmetry_space_group_name_H-M   'P 1'
_cell_length_a   9.10493549
_cell_length_b   9.15884043
_cell_length_c   3.55667400
_cell_angle_alpha   90.00000000
_cell_angle_beta   90.00000000
_cell_angle_gamma   120.15887714
_symmetry_Int_Tables_number   1
_chemical_formula_structural   Li2Ni12As2P5
_chemical_formula_sum   'Li2 Ni12 As2 P5'
_cell_volume   256.44518226
_cell_formula_units_Z   1
loop_
 _symmetry_equiv_pos_site_id
 _symmetry_equiv_pos_as_xyz
  1  'x, y, z'
loop_
 _atom_site_type_symbol
 _atom_site_label
 _atom_site_symmetry_multiplicity
 _atom_site_fract_x
 _atom_site_fract_y
 _atom_site_fract_z
 _atom_site_occupancy
  Li  Li0  1  0.999950  0.000538  0.000000  1
  Li  Li1  1  0.347406  0.668439  0.500000  1
  Ni  Ni2  1  0.102724  0.381693  0.000000  1
  Ni  Ni3  1  0.297807  0.907051  0.000000  1
  Ni  Ni4  1  0.602209  0.709843  0.000000  1
  Ni  Ni5  1  0.824932  0.620941  0.000000  1
  Ni  Ni6  1  0.788377  0.166127  0.000000  1
  Ni  Ni7  1  0.381133  0.213560  0.000000  1
  Ni  Ni8  1  0.047923  0.779555  0.500000  1
  Ni  Ni9  1  0.718074  0.947234  0.500000  1
  Ni  Ni10  1  0.229556  0.278924  0.500000  1
  Ni  Ni11  1  0.894822  0.424614  0.500000  1
  Ni  Ni12  1  0.531577  0.093665  0.500000  1
  Ni  Ni13  1  0.561083  0.475318  0.500000  1
  As  As14  1  0.668039  0.333409  0.000000  1
  As  As15  1  0.088727  0.625887  0.000000  1
  P  P16  1  0.543274  0.916679  0.000000  1
  P  P17  1  0.373581  0.456087  0.000000  1
  P  P18  1  0.784711  0.748538  0.500000  1
  P  P19  1  0.959596  0.209526  0.500000  1
  P  P20  1  0.254500  0.042369  0.500000  1
