# generated using pymatgen
data_Tm7Sn22HgOs6
_symmetry_space_group_name_H-M   'P 1'
_cell_length_a   9.81017500
_cell_length_b   9.81017545
_cell_length_c   10.12006300
_cell_angle_alpha   90.00000000
_cell_angle_beta   90.00000000
_cell_angle_gamma   120.00000184
_symmetry_Int_Tables_number   1
_chemical_formula_structural   Tm7Sn22HgOs6
_chemical_formula_sum   'Tm7 Sn22 Hg1 Os6'
_cell_volume   843.46558863
_cell_formula_units_Z   1
loop_
 _symmetry_equiv_pos_site_id
 _symmetry_equiv_pos_as_xyz
  1  'x, y, z'
loop_
 _atom_site_type_symbol
 _atom_site_label
 _atom_site_symmetry_multiplicity
 _atom_site_fract_x
 _atom_site_fract_y
 _atom_site_fract_z
 _atom_site_occupancy
  Tm  Tm0  1  0.485821  0.514179  0.304224  1
  Tm  Tm1  1  0.514179  0.485821  0.695776  1
  Tm  Tm2  1  0.485821  0.971644  0.304224  1
  Tm  Tm3  1  0.514179  0.028356  0.695776  1
  Tm  Tm4  1  0.028356  0.514179  0.304224  1
  Tm  Tm5  1  0.971644  0.485821  0.695776  1
  Tm  Tm6  1  0.000000  0.000000  0.000000  1
  Sn  Sn7  1  0.122976  0.877024  0.269251  1
  Sn  Sn8  1  0.877024  0.122976  0.730749  1
  Sn  Sn9  1  0.122976  0.245951  0.269251  1
  Sn  Sn10  1  0.877024  0.754049  0.730749  1
  Sn  Sn11  1  0.754049  0.877024  0.269251  1
  Sn  Sn12  1  0.245951  0.122976  0.730749  1
  Sn  Sn13  1  0.777926  0.222074  0.464111  1
  Sn  Sn14  1  0.222074  0.777926  0.535889  1
  Sn  Sn15  1  0.777926  0.555852  0.464111  1
  Sn  Sn16  1  0.222074  0.444148  0.535889  1
  Sn  Sn17  1  0.444148  0.222074  0.464111  1
  Sn  Sn18  1  0.555852  0.777926  0.535889  1
  Sn  Sn19  1  0.349471  0.000000  0.000000  1
  Sn  Sn20  1  0.650529  0.000000  0.000000  1
  Sn  Sn21  1  0.000000  0.349471  0.000000  1
  Sn  Sn22  1  0.000000  0.650529  0.000000  1
  Sn  Sn23  1  0.650529  0.650529  0.000000  1
  Sn  Sn24  1  0.349471  0.349471  0.000000  1
  Sn  Sn25  1  0.333333  0.666667  0.131567  1
  Sn  Sn26  1  0.666667  0.333333  0.868433  1
  Sn  Sn27  1  0.333333  0.666667  0.830512  1
  Sn  Sn28  1  0.666667  0.333333  0.169488  1
  Hg  Hg29  1  0.000000  0.000000  0.500000  1
  Os  Os30  1  0.830467  0.169533  0.205087  1
  Os  Os31  1  0.169533  0.830467  0.794913  1
  Os  Os32  1  0.830467  0.660934  0.205087  1
  Os  Os33  1  0.169533  0.339066  0.794913  1
  Os  Os34  1  0.339066  0.169533  0.205087  1
  Os  Os35  1  0.660934  0.830467  0.794913  1
