# generated using pymatgen
data_La2PrAlGaRh2
_symmetry_space_group_name_H-M   'P 1'
_cell_length_a   5.79420700
_cell_length_b   8.31186000
_cell_length_c   13.84440000
_cell_angle_alpha   90.00000000
_cell_angle_beta   90.00000000
_cell_angle_gamma   90.00000000
_symmetry_Int_Tables_number   1
_chemical_formula_structural   La2PrAlGaRh2
_chemical_formula_sum   'La8 Pr4 Al4 Ga4 Rh8'
_cell_volume   666.75512835
_cell_formula_units_Z   4
loop_
 _symmetry_equiv_pos_site_id
 _symmetry_equiv_pos_as_xyz
  1  'x, y, z'
loop_
 _atom_site_type_symbol
 _atom_site_label
 _atom_site_symmetry_multiplicity
 _atom_site_fract_x
 _atom_site_fract_y
 _atom_site_fract_z
 _atom_site_occupancy
  La  La0  1  0.148606  0.403775  0.097174  1
  La  La1  1  0.851394  0.596225  0.902826  1
  La  La2  1  0.851394  0.596225  0.597174  1
  La  La3  1  0.851394  0.903775  0.402826  1
  La  La4  1  0.148606  0.403775  0.402826  1
  La  La5  1  0.148606  0.096225  0.597174  1
  La  La6  1  0.148606  0.096225  0.902826  1
  La  La7  1  0.851394  0.903775  0.097174  1
  Pr  Pr8  1  0.635438  0.261376  0.250000  1
  Pr  Pr9  1  0.364562  0.738624  0.750000  1
  Pr  Pr10  1  0.364562  0.761376  0.250000  1
  Pr  Pr11  1  0.635438  0.238624  0.750000  1
  Al  Al12  1  0.618358  0.250000  0.000000  1
  Al  Al13  1  0.381642  0.750000  0.000000  1
  Al  Al14  1  0.381642  0.750000  0.500000  1
  Al  Al15  1  0.618358  0.250000  0.500000  1
  Ga  Ga16  1  0.142230  0.112467  0.250000  1
  Ga  Ga17  1  0.857770  0.887533  0.750000  1
  Ga  Ga18  1  0.857770  0.612467  0.250000  1
  Ga  Ga19  1  0.142230  0.387533  0.750000  1
  Rh  Rh20  1  0.355103  0.026705  0.089114  1
  Rh  Rh21  1  0.644897  0.973295  0.910886  1
  Rh  Rh22  1  0.644897  0.973295  0.589114  1
  Rh  Rh23  1  0.644897  0.526705  0.410886  1
  Rh  Rh24  1  0.355103  0.026705  0.410886  1
  Rh  Rh25  1  0.355103  0.473295  0.589114  1
  Rh  Rh26  1  0.355103  0.473295  0.910886  1
  Rh  Rh27  1  0.644897  0.526705  0.089114  1
