# generated using pymatgen
data_Ho2USiPt5
_symmetry_space_group_name_H-M   'P 1'
_cell_length_a   8.24105884
_cell_length_b   8.24105856
_cell_length_c   8.24105920
_cell_angle_alpha   128.85193280
_cell_angle_beta   125.57492623
_cell_angle_gamma   77.93173176
_symmetry_Int_Tables_number   1
_chemical_formula_structural   Ho2USiPt5
_chemical_formula_sum   'Ho4 U2 Si2 Pt10'
_cell_volume   343.61651982
_cell_formula_units_Z   2
loop_
 _symmetry_equiv_pos_site_id
 _symmetry_equiv_pos_as_xyz
  1  'x, y, z'
loop_
 _atom_site_type_symbol
 _atom_site_label
 _atom_site_symmetry_multiplicity
 _atom_site_fract_x
 _atom_site_fract_y
 _atom_site_fract_z
 _atom_site_occupancy
  Ho  Ho0  1  0.271940  0.552715  0.722602  1
  Ho  Ho1  1  0.728060  0.450662  0.280774  1
  Ho  Ho2  1  0.330112  0.052715  0.280774  1
  Ho  Ho3  1  0.669888  0.950662  0.722602  1
  U  U4  1  0.114462  0.750459  0.364922  1
  U  U5  1  0.885538  0.250459  0.635997  1
  Si  Si6  1  0.715942  0.747606  0.963547  1
  Si  Si7  1  0.284058  0.247606  0.031664  1
  Pt  Pt8  1  0.043547  0.892246  0.722228  1
  Pt  Pt9  1  0.956454  0.678683  0.848700  1
  Pt  Pt10  1  0.670018  0.392246  0.848700  1
  Pt  Pt11  1  0.329982  0.178683  0.722228  1
  Pt  Pt12  1  0.964955  0.103619  0.279972  1
  Pt  Pt13  1  0.035045  0.315016  0.138664  1
  Pt  Pt14  1  0.323647  0.603619  0.138664  1
  Pt  Pt15  1  0.676353  0.815016  0.279972  1
  Pt  Pt16  1  0.463485  0.544195  0.507680  1
  Pt  Pt17  1  0.536515  0.044195  0.080709  1
