# generated using pymatgen
data_Rb8Sm3NpI20
_symmetry_space_group_name_H-M   'P 1'
_cell_length_a   9.50172808
_cell_length_b   10.02247400
_cell_length_c   15.12719800
_cell_angle_alpha   90.00000000
_cell_angle_beta   90.61988189
_cell_angle_gamma   90.00000000
_symmetry_Int_Tables_number   1
_chemical_formula_structural   Rb8Sm3NpI20
_chemical_formula_sum   'Rb8 Sm3 Np1 I20'
_cell_volume   1440.49120136
_cell_formula_units_Z   1
loop_
 _symmetry_equiv_pos_site_id
 _symmetry_equiv_pos_as_xyz
  1  'x, y, z'
loop_
 _atom_site_type_symbol
 _atom_site_label
 _atom_site_symmetry_multiplicity
 _atom_site_fract_x
 _atom_site_fract_y
 _atom_site_fract_z
 _atom_site_occupancy
  Rb  Rb0  1  0.942159  0.003059  0.826636  1
  Rb  Rb1  1  0.057107  0.997277  0.173598  1
  Rb  Rb2  1  0.443201  0.996817  0.672673  1
  Rb  Rb3  1  0.057107  0.502723  0.173598  1
  Rb  Rb4  1  0.558136  0.003092  0.327215  1
  Rb  Rb5  1  0.942159  0.496941  0.826636  1
  Rb  Rb6  1  0.558136  0.496908  0.327215  1
  Rb  Rb7  1  0.443201  0.503183  0.672673  1
  Sm  Sm8  1  0.075264  0.250000  0.496372  1
  Sm  Sm9  1  0.423269  0.250000  0.995436  1
  Sm  Sm10  1  0.576690  0.750000  0.004499  1
  Np  Np11  1  0.925768  0.750000  0.504692  1
  I  I12  1  0.118922  0.750000  0.677027  1
  I  I13  1  0.880593  0.250000  0.325894  1
  I  I14  1  0.618347  0.250000  0.826740  1
  I  I15  1  0.381761  0.750000  0.173061  1
  I  I16  1  0.837963  0.045908  0.571624  1
  I  I17  1  0.162496  0.957060  0.427506  1
  I  I18  1  0.338172  0.956030  0.927463  1
  I  I19  1  0.162496  0.542940  0.427506  1
  I  I20  1  0.661933  0.044024  0.072043  1
  I  I21  1  0.837963  0.454092  0.571624  1
  I  I22  1  0.661933  0.455976  0.072043  1
  I  I23  1  0.338172  0.543970  0.927463  1
  I  I24  1  0.585486  0.750000  0.510131  1
  I  I25  1  0.412190  0.250000  0.489400  1
  I  I26  1  0.085639  0.250000  0.988690  1
  I  I27  1  0.914365  0.750000  0.011481  1
  I  I28  1  0.655187  0.750000  0.802811  1
  I  I29  1  0.345142  0.250000  0.197053  1
  I  I30  1  0.156941  0.250000  0.698294  1
  I  I31  1  0.842104  0.750000  0.300903  1
