# generated using pymatgen
data_TaV2Sn(SeO3)8
_symmetry_space_group_name_H-M   'P 1'
_cell_length_a   8.28969766
_cell_length_b   8.29402767
_cell_length_c   8.37066624
_cell_angle_alpha   89.75018879
_cell_angle_beta   89.54756077
_cell_angle_gamma   89.62565015
_symmetry_Int_Tables_number   1
_chemical_formula_structural   TaV2Sn(SeO3)8
_chemical_formula_sum   'Ta1 V2 Sn1 Se8 O24'
_cell_volume   575.48943560
_cell_formula_units_Z   1
loop_
 _symmetry_equiv_pos_site_id
 _symmetry_equiv_pos_as_xyz
  1  'x, y, z'
loop_
 _atom_site_type_symbol
 _atom_site_label
 _atom_site_symmetry_multiplicity
 _atom_site_fract_x
 _atom_site_fract_y
 _atom_site_fract_z
 _atom_site_occupancy
  Ta  Ta0  1  0.500000  0.000000  0.000000  1
  V  V1  1  0.000000  0.500000  0.000000  1
  V  V2  1  0.500000  0.500000  0.500000  1
  Sn  Sn3  1  0.000000  0.000000  0.500000  1
  Se  Se4  1  0.314047  0.659917  0.186875  1
  Se  Se5  1  0.824890  0.332868  0.320576  1
  Se  Se6  1  0.676653  0.808793  0.663236  1
  Se  Se7  1  0.163174  0.183752  0.826639  1
  Se  Se8  1  0.685953  0.340083  0.813125  1
  Se  Se9  1  0.175110  0.667132  0.679424  1
  Se  Se10  1  0.323347  0.191207  0.336764  1
  Se  Se11  1  0.836826  0.816248  0.173361  1
  O  O12  1  0.237939  0.536408  0.044631  1
  O  O13  1  0.723495  0.464110  0.452288  1
  O  O14  1  0.754409  0.961513  0.543735  1
  O  O15  1  0.271746  0.042860  0.942850  1
  O  O16  1  0.541446  0.924537  0.776162  1
  O  O17  1  0.454760  0.529081  0.268241  1
  O  O18  1  0.953924  0.469209  0.237456  1
  O  O19  1  0.029615  0.048546  0.741832  1
  O  O20  1  0.955818  0.244451  0.458215  1
  O  O21  1  0.542003  0.733166  0.527137  1
  O  O22  1  0.444006  0.777136  0.065302  1
  O  O23  1  0.041594  0.259779  0.972891  1
  O  O24  1  0.762061  0.463592  0.955369  1
  O  O25  1  0.276505  0.535890  0.547712  1
  O  O26  1  0.245591  0.038487  0.456265  1
  O  O27  1  0.728254  0.957140  0.057150  1
  O  O28  1  0.458554  0.075463  0.223838  1
  O  O29  1  0.545240  0.470919  0.731759  1
  O  O30  1  0.046076  0.530791  0.762544  1
  O  O31  1  0.970385  0.951454  0.258168  1
  O  O32  1  0.044182  0.755549  0.541785  1
  O  O33  1  0.457997  0.266834  0.472863  1
  O  O34  1  0.555994  0.222864  0.934698  1
  O  O35  1  0.958406  0.740221  0.027109  1
