# generated using pymatgen
data_YbTa6GaS12
_symmetry_space_group_name_H-M   'P 1'
_cell_length_a   5.79971300
_cell_length_b   5.79971430
_cell_length_c   14.46172200
_cell_angle_alpha   90.00000000
_cell_angle_beta   90.00000000
_cell_angle_gamma   119.99999831
_symmetry_Int_Tables_number   1
_chemical_formula_structural   YbTa6GaS12
_chemical_formula_sum   'Yb1 Ta6 Ga1 S12'
_cell_volume   421.27312153
_cell_formula_units_Z   1
loop_
 _symmetry_equiv_pos_site_id
 _symmetry_equiv_pos_as_xyz
  1  'x, y, z'
loop_
 _atom_site_type_symbol
 _atom_site_label
 _atom_site_symmetry_multiplicity
 _atom_site_fract_x
 _atom_site_fract_y
 _atom_site_fract_z
 _atom_site_occupancy
  Yb  Yb0  1  0.000000  0.000000  0.000000  1
  Ta  Ta1  1  0.000000  0.000000  0.247889  1
  Ta  Ta2  1  0.000000  0.000000  0.752111  1
  Ta  Ta3  1  0.333333  0.666667  0.249111  1
  Ta  Ta4  1  0.666667  0.333333  0.750889  1
  Ta  Ta5  1  0.666667  0.333333  0.249111  1
  Ta  Ta6  1  0.333333  0.666667  0.750889  1
  Ga  Ga7  1  0.000000  0.000000  0.500000  1
  S  S8  1  0.335370  0.000000  0.139915  1
  S  S9  1  0.000000  0.335370  0.139915  1
  S  S10  1  0.664630  0.664630  0.139915  1
  S  S11  1  0.332276  0.332276  0.644228  1
  S  S12  1  0.667724  0.667724  0.355772  1
  S  S13  1  0.667724  0.000000  0.644228  1
  S  S14  1  0.000000  0.667724  0.644228  1
  S  S15  1  0.000000  0.664630  0.860085  1
  S  S16  1  0.335370  0.335370  0.860085  1
  S  S17  1  0.000000  0.332276  0.355772  1
  S  S18  1  0.332276  0.000000  0.355772  1
  S  S19  1  0.664630  0.000000  0.860085  1
