# generated using pymatgen
data_Lu4Si5Ge3Rh16
_symmetry_space_group_name_H-M   'P 1'
_cell_length_a   4.12188900
_cell_length_b   9.14258246
_cell_length_c   11.28310175
_cell_angle_alpha   90.06426515
_cell_angle_beta   90.00000000
_cell_angle_gamma   90.00000000
_symmetry_Int_Tables_number   1
_chemical_formula_structural   Lu4Si5Ge3Rh16
_chemical_formula_sum   'Lu4 Si5 Ge3 Rh16'
_cell_volume   425.20015060
_cell_formula_units_Z   1
loop_
 _symmetry_equiv_pos_site_id
 _symmetry_equiv_pos_as_xyz
  1  'x, y, z'
loop_
 _atom_site_type_symbol
 _atom_site_label
 _atom_site_symmetry_multiplicity
 _atom_site_fract_x
 _atom_site_fract_y
 _atom_site_fract_z
 _atom_site_occupancy
  Lu  Lu0  1  0.250000  0.146034  0.825721  1
  Lu  Lu1  1  0.250000  0.353775  0.324637  1
  Lu  Lu2  1  0.750000  0.853034  0.174497  1
  Lu  Lu3  1  0.750000  0.646624  0.675501  1
  Si  Si4  1  0.250000  0.413872  0.637467  1
  Si  Si5  1  0.250000  0.087879  0.135970  1
  Si  Si6  1  0.750000  0.587444  0.361500  1
  Si  Si7  1  0.750000  0.910097  0.864011  1
  Si  Si8  1  0.250000  0.618594  0.059467  1
  Ge  Ge9  1  0.250000  0.879620  0.559305  1
  Ge  Ge10  1  0.750000  0.380750  0.940974  1
  Ge  Ge11  1  0.750000  0.119808  0.440424  1
  Rh  Rh12  1  0.250000  0.610447  0.499013  1
  Rh  Rh13  1  0.250000  0.883113  0.004426  1
  Rh  Rh14  1  0.750000  0.389447  0.498271  1
  Rh  Rh15  1  0.750000  0.109470  0.998677  1
  Rh  Rh16  1  0.250000  0.688134  0.268043  1
  Rh  Rh17  1  0.250000  0.812477  0.773766  1
  Rh  Rh18  1  0.750000  0.312280  0.727550  1
  Rh  Rh19  1  0.750000  0.189577  0.226878  1
  Rh  Rh20  1  0.250000  0.176220  0.564586  1
  Rh  Rh21  1  0.250000  0.326585  0.064103  1
  Rh  Rh22  1  0.750000  0.824337  0.435408  1
  Rh  Rh23  1  0.750000  0.674395  0.941194  1
  Rh  Rh24  1  0.250000  0.005837  0.338443  1
  Rh  Rh25  1  0.250000  0.496149  0.841144  1
  Rh  Rh26  1  0.750000  0.994711  0.661510  1
  Rh  Rh27  1  0.750000  0.509290  0.157516  1
