# generated using pymatgen
data_SrCaHf2(NiP)4
_symmetry_space_group_name_H-M   'P 1'
_cell_length_a   3.90101700
_cell_length_b   3.90101604
_cell_length_c   15.29297900
_cell_angle_alpha   90.00000000
_cell_angle_beta   90.00000000
_cell_angle_gamma   119.99999968
_symmetry_Int_Tables_number   1
_chemical_formula_structural   SrCaHf2(NiP)4
_chemical_formula_sum   'Sr1 Ca1 Hf2 Ni4 P4'
_cell_volume   201.54791229
_cell_formula_units_Z   1
loop_
 _symmetry_equiv_pos_site_id
 _symmetry_equiv_pos_as_xyz
  1  'x, y, z'
loop_
 _atom_site_type_symbol
 _atom_site_label
 _atom_site_symmetry_multiplicity
 _atom_site_fract_x
 _atom_site_fract_y
 _atom_site_fract_z
 _atom_site_occupancy
  Sr  Sr0  1  0.000000  0.000000  0.500000  1
  Ca  Ca1  1  0.000000  0.000000  0.000000  1
  Hf  Hf2  1  0.000000  0.000000  0.246041  1
  Hf  Hf3  1  0.000000  0.000000  0.753959  1
  Ni  Ni4  1  0.333333  0.666667  0.342257  1
  Ni  Ni5  1  0.666667  0.333333  0.657743  1
  Ni  Ni6  1  0.666667  0.333333  0.851937  1
  Ni  Ni7  1  0.333333  0.666667  0.148063  1
  P  P8  1  0.333333  0.666667  0.871293  1
  P  P9  1  0.666667  0.333333  0.128707  1
  P  P10  1  0.666667  0.333333  0.361535  1
  P  P11  1  0.333333  0.666667  0.638465  1
