# generated using pymatgen
data_Er3Co4P6Rh5
_symmetry_space_group_name_H-M   'P 1'
_cell_length_a   3.76632700
_cell_length_b   10.90860300
_cell_length_c   12.50670600
_cell_angle_alpha   90.00000000
_cell_angle_beta   90.00000000
_cell_angle_gamma   90.00000000
_symmetry_Int_Tables_number   1
_chemical_formula_structural   Er3Co4P6Rh5
_chemical_formula_sum   'Er6 Co8 P12 Rh10'
_cell_volume   513.84259360
_cell_formula_units_Z   2
loop_
 _symmetry_equiv_pos_site_id
 _symmetry_equiv_pos_as_xyz
  1  'x, y, z'
loop_
 _atom_site_type_symbol
 _atom_site_label
 _atom_site_symmetry_multiplicity
 _atom_site_fract_x
 _atom_site_fract_y
 _atom_site_fract_z
 _atom_site_occupancy
  Er  Er0  1  0.000000  0.500000  0.518062  1
  Er  Er1  1  0.500000  0.000000  0.475949  1
  Er  Er2  1  0.500000  0.815843  0.197728  1
  Er  Er3  1  0.500000  0.184157  0.197728  1
  Er  Er4  1  0.000000  0.680141  0.803934  1
  Er  Er5  1  0.000000  0.319859  0.803934  1
  Co  Co6  1  0.000000  0.500000  0.992018  1
  Co  Co7  1  0.500000  0.000000  0.011900  1
  Co  Co8  1  0.000000  0.620816  0.283874  1
  Co  Co9  1  0.000000  0.379184  0.283874  1
  Co  Co10  1  0.500000  0.334325  0.997157  1
  Co  Co11  1  0.500000  0.665675  0.997157  1
  Co  Co12  1  0.000000  0.168652  0.007402  1
  Co  Co13  1  0.000000  0.831348  0.007402  1
  P  P14  1  0.500000  0.317086  0.619501  1
  P  P15  1  0.500000  0.682914  0.619501  1
  P  P16  1  0.000000  0.192144  0.372108  1
  P  P17  1  0.000000  0.807856  0.372108  1
  P  P18  1  0.500000  0.500000  0.894279  1
  P  P19  1  0.000000  0.000000  0.107792  1
  P  P20  1  0.500000  0.840162  0.904659  1
  P  P21  1  0.500000  0.159838  0.904659  1
  P  P22  1  0.000000  0.656818  0.104388  1
  P  P23  1  0.000000  0.343182  0.104388  1
  P  P24  1  0.500000  0.500000  0.341704  1
  P  P25  1  0.000000  0.000000  0.652068  1
  Rh  Rh26  1  0.500000  0.301482  0.425975  1
  Rh  Rh27  1  0.500000  0.698518  0.425975  1
  Rh  Rh28  1  0.000000  0.204758  0.568465  1
  Rh  Rh29  1  0.000000  0.795242  0.568465  1
  Rh  Rh30  1  0.500000  0.872268  0.716635  1
  Rh  Rh31  1  0.500000  0.127732  0.716635  1
  Rh  Rh32  1  0.500000  0.500000  0.157353  1
  Rh  Rh33  1  0.000000  0.000000  0.843251  1
  Rh  Rh34  1  0.500000  0.500000  0.708640  1
  Rh  Rh35  1  0.000000  0.000000  0.293330  1
