# generated using pymatgen
data_Ca2PaAs3
_symmetry_space_group_name_H-M   'P 1'
_cell_length_a   7.28824121
_cell_length_b   7.28824111
_cell_length_c   7.28824112
_cell_angle_alpha   146.08961684
_cell_angle_beta   132.51405648
_cell_angle_gamma   59.62335453
_symmetry_Int_Tables_number   1
_chemical_formula_structural   Ca2PaAs3
_chemical_formula_sum   'Ca2 Pa1 As3'
_cell_volume   157.76606658
_cell_formula_units_Z   1
loop_
 _symmetry_equiv_pos_site_id
 _symmetry_equiv_pos_as_xyz
  1  'x, y, z'
loop_
 _atom_site_type_symbol
 _atom_site_label
 _atom_site_symmetry_multiplicity
 _atom_site_fract_x
 _atom_site_fract_y
 _atom_site_fract_z
 _atom_site_occupancy
  Ca  Ca0  1  0.668701  0.668701  0.000000  1
  Ca  Ca1  1  0.331299  0.331299  0.000000  1
  Pa  Pa2  1  0.000000  0.000000  0.000000  1
  As  As3  1  0.500000  0.000000  0.500000  1
  As  As4  1  0.150837  0.650837  0.500000  1
  As  As5  1  0.849163  0.349163  0.500000  1
