# generated using pymatgen
data_LaTbP7(Rh3W)3
_symmetry_space_group_name_H-M   'P 1'
_cell_length_a   3.96542526
_cell_length_b   9.57053202
_cell_length_c   9.57031707
_cell_angle_alpha   120.01018629
_cell_angle_beta   90.04676356
_cell_angle_gamma   89.92241748
_symmetry_Int_Tables_number   1
_chemical_formula_structural   LaTbP7(Rh3W)3
_chemical_formula_sum   'La1 Tb1 P7 Rh9 W3'
_cell_volume   314.51243160
_cell_formula_units_Z   1
loop_
 _symmetry_equiv_pos_site_id
 _symmetry_equiv_pos_as_xyz
  1  'x, y, z'
loop_
 _atom_site_type_symbol
 _atom_site_label
 _atom_site_symmetry_multiplicity
 _atom_site_fract_x
 _atom_site_fract_y
 _atom_site_fract_z
 _atom_site_occupancy
  La  La0  1  0.261879  0.666620  0.333312  1
  Tb  Tb1  1  0.761870  0.333324  0.666661  1
  P  P2  1  0.262037  0.000023  0.000002  1
  P  P3  1  0.761876  0.886442  0.597474  1
  P  P4  1  0.762033  0.402532  0.289002  1
  P  P5  1  0.761889  0.710977  0.113517  1
  P  P6  1  0.261915  0.116373  0.413643  1
  P  P7  1  0.261768  0.586369  0.702727  1
  P  P8  1  0.261912  0.297245  0.883580  1
  Rh  Rh9  1  0.261891  0.886433  0.158788  1
  Rh  Rh10  1  0.261858  0.841297  0.727681  1
  Rh  Rh11  1  0.261936  0.272334  0.113621  1
  Rh  Rh12  1  0.761946  0.611282  0.565292  1
  Rh  Rh13  1  0.762006  0.434694  0.045971  1
  Rh  Rh14  1  0.761755  0.953939  0.388664  1
  Rh  Rh15  1  0.261894  0.366401  0.436372  1
  Rh  Rh16  1  0.261921  0.563703  0.930063  1
  Rh  Rh17  1  0.261870  0.069974  0.633627  1
  W  W18  1  0.761985  0.090470  0.872757  1
  W  W19  1  0.761859  0.127236  0.217747  1
  W  W20  1  0.761898  0.782333  0.909499  1
