# generated using pymatgen
data_Y5Zr3(As3Rh4)4
_symmetry_space_group_name_H-M   'P 1'
_cell_length_a   13.34098500
_cell_length_b   13.34098532
_cell_length_c   4.01767400
_cell_angle_alpha   90.00000000
_cell_angle_beta   90.00000000
_cell_angle_gamma   120.00000169
_symmetry_Int_Tables_number   1
_chemical_formula_structural   Y5Zr3(As3Rh4)4
_chemical_formula_sum   'Y5 Zr3 As12 Rh16'
_cell_volume   619.27153918
_cell_formula_units_Z   1
loop_
 _symmetry_equiv_pos_site_id
 _symmetry_equiv_pos_as_xyz
  1  'x, y, z'
loop_
 _atom_site_type_symbol
 _atom_site_label
 _atom_site_symmetry_multiplicity
 _atom_site_fract_x
 _atom_site_fract_y
 _atom_site_fract_z
 _atom_site_occupancy
  Y  Y0  1  0.187573  0.187573  0.500000  1
  Y  Y1  1  0.812427  0.000000  0.500000  1
  Y  Y2  1  0.000000  0.812427  0.500000  1
  Y  Y3  1  0.333333  0.666667  0.000000  1
  Y  Y4  1  0.666667  0.333333  0.000000  1
  Zr  Zr5  1  0.556616  0.556616  0.000000  1
  Zr  Zr6  1  0.443384  0.000000  0.000000  1
  Zr  Zr7  1  0.000000  0.443384  0.000000  1
  As  As8  1  0.824688  0.824688  0.000000  1
  As  As9  1  0.175312  0.000000  0.000000  1
  As  As10  1  0.000000  0.175312  0.000000  1
  As  As11  1  0.170730  0.485585  0.500000  1
  As  As12  1  0.514415  0.685145  0.500000  1
  As  As13  1  0.314855  0.829270  0.500000  1
  As  As14  1  0.685145  0.514415  0.500000  1
  As  As15  1  0.829270  0.314855  0.500000  1
  As  As16  1  0.485585  0.170730  0.500000  1
  As  As17  1  0.354564  0.354564  0.000000  1
  As  As18  1  0.645436  0.000000  0.000000  1
  As  As19  1  0.000000  0.645436  0.000000  1
  Rh  Rh20  1  0.719339  0.719339  0.500000  1
  Rh  Rh21  1  0.280661  0.000000  0.500000  1
  Rh  Rh22  1  0.000000  0.280661  0.500000  1
  Rh  Rh23  1  0.176470  0.373908  0.000000  1
  Rh  Rh24  1  0.626092  0.802562  0.000000  1
  Rh  Rh25  1  0.197438  0.823530  0.000000  1
  Rh  Rh26  1  0.802562  0.626092  0.000000  1
  Rh  Rh27  1  0.823530  0.197438  0.000000  1
  Rh  Rh28  1  0.373908  0.176470  0.000000  1
  Rh  Rh29  1  0.354925  0.481986  0.500000  1
  Rh  Rh30  1  0.518014  0.872940  0.500000  1
  Rh  Rh31  1  0.127060  0.645075  0.500000  1
  Rh  Rh32  1  0.872940  0.518014  0.500000  1
  Rh  Rh33  1  0.645075  0.127060  0.500000  1
  Rh  Rh34  1  0.481986  0.354925  0.500000  1
  Rh  Rh35  1  0.000000  0.000000  0.000000  1
