# generated using pymatgen
data_Lu10Ga2Si3Sb
_symmetry_space_group_name_H-M   'P 1'
_cell_length_a   8.37606800
_cell_length_b   8.37296601
_cell_length_c   6.26441100
_cell_angle_alpha   90.00000000
_cell_angle_beta   90.00000000
_cell_angle_gamma   120.01226395
_symmetry_Int_Tables_number   1
_chemical_formula_structural   Lu10Ga2Si3Sb
_chemical_formula_sum   'Lu10 Ga2 Si3 Sb1'
_cell_volume   380.43171444
_cell_formula_units_Z   1
loop_
 _symmetry_equiv_pos_site_id
 _symmetry_equiv_pos_as_xyz
  1  'x, y, z'
loop_
 _atom_site_type_symbol
 _atom_site_label
 _atom_site_symmetry_multiplicity
 _atom_site_fract_x
 _atom_site_fract_y
 _atom_site_fract_z
 _atom_site_occupancy
  Lu  Lu0  1  0.675715  0.345118  0.003475  1
  Lu  Lu1  1  0.330596  0.654882  0.496525  1
  Lu  Lu2  1  0.330596  0.654882  0.003475  1
  Lu  Lu3  1  0.675715  0.345118  0.496525  1
  Lu  Lu4  1  0.765511  0.000000  0.750000  1
  Lu  Lu5  1  0.759474  0.758846  0.250000  1
  Lu  Lu6  1  0.000627  0.241154  0.250000  1
  Lu  Lu7  1  0.986925  0.751304  0.750000  1
  Lu  Lu8  1  0.235621  0.248696  0.750000  1
  Lu  Lu9  1  0.242490  0.000000  0.250000  1
  Ga  Ga10  1  0.997671  0.397835  0.750000  1
  Ga  Ga11  1  0.599836  0.602165  0.750000  1
  Si  Si12  1  0.395833  0.391738  0.250000  1
  Si  Si13  1  0.004096  0.608262  0.250000  1
  Si  Si14  1  0.605433  0.000000  0.250000  1
  Sb  Sb15  1  0.393861  0.000000  0.750000  1
