# generated using pymatgen
data_Y6Fe4Co19
_symmetry_space_group_name_H-M   'P 1'
_cell_length_a   8.34699054
_cell_length_b   8.37448595
_cell_length_c   8.34699028
_cell_angle_alpha   119.74949644
_cell_angle_beta   90.28860452
_cell_angle_gamma   119.74949062
_symmetry_Int_Tables_number   1
_chemical_formula_structural   Y6Fe4Co19
_chemical_formula_sum   'Y6 Fe4 Co19'
_cell_volume   414.65241632
_cell_formula_units_Z   1
loop_
 _symmetry_equiv_pos_site_id
 _symmetry_equiv_pos_as_xyz
  1  'x, y, z'
loop_
 _atom_site_type_symbol
 _atom_site_label
 _atom_site_symmetry_multiplicity
 _atom_site_fract_x
 _atom_site_fract_y
 _atom_site_fract_z
 _atom_site_occupancy
  Y  Y0  1  0.284988  0.998735  0.284988  1
  Y  Y1  1  0.712755  0.000000  0.287244  1
  Y  Y2  1  0.287922  0.577499  0.287922  1
  Y  Y3  1  0.287244  0.000000  0.712755  1
  Y  Y4  1  0.712077  0.422500  0.712077  1
  Y  Y5  1  0.715012  0.001265  0.715012  1
  Fe  Fe6  1  0.000000  0.000000  0.000000  1
  Fe  Fe7  1  0.500001  0.500001  0.000000  1
  Fe  Fe8  1  0.000000  0.500001  0.500001  1
  Fe  Fe9  1  0.500001  0.500001  0.500001  1
  Co  Co10  1  0.500001  0.000000  0.000000  1
  Co  Co11  1  0.000000  0.500001  0.000000  1
  Co  Co12  1  0.677549  0.353939  0.032661  1
  Co  Co13  1  0.875490  0.751165  0.123855  1
  Co  Co14  1  0.369897  0.246711  0.122881  1
  Co  Co15  1  0.876144  0.248834  0.124509  1
  Co  Co16  1  0.675703  0.352931  0.321582  1
  Co  Co17  1  0.678419  0.647070  0.324298  1
  Co  Co18  1  0.967340  0.646062  0.322452  1
  Co  Co19  1  0.122881  0.246711  0.369897  1
  Co  Co20  1  0.000000  0.000000  0.500001  1
  Co  Co21  1  0.877118  0.753288  0.630103  1
  Co  Co22  1  0.032661  0.353939  0.677549  1
  Co  Co23  1  0.321582  0.352931  0.675703  1
  Co  Co24  1  0.324298  0.647070  0.678419  1
  Co  Co25  1  0.124509  0.248834  0.876144  1
  Co  Co26  1  0.123855  0.751165  0.875490  1
  Co  Co27  1  0.630103  0.753288  0.877118  1
  Co  Co28  1  0.322452  0.646062  0.967340  1
