# generated using pymatgen
data_Tb4Pr(TcB3)2
_symmetry_space_group_name_H-M   'P 1'
_cell_length_a   8.68889335
_cell_length_b   8.68889255
_cell_length_c   8.68889400
_cell_angle_alpha   37.15132656
_cell_angle_beta   37.15133535
_cell_angle_gamma   37.15132881
_symmetry_Int_Tables_number   1
_chemical_formula_structural   Tb4Pr(TcB3)2
_chemical_formula_sum   'Tb4 Pr1 Tc2 B6'
_cell_volume   214.43180734
_cell_formula_units_Z   1
loop_
 _symmetry_equiv_pos_site_id
 _symmetry_equiv_pos_as_xyz
  1  'x, y, z'
loop_
 _atom_site_type_symbol
 _atom_site_label
 _atom_site_symmetry_multiplicity
 _atom_site_fract_x
 _atom_site_fract_y
 _atom_site_fract_z
 _atom_site_occupancy
  Tb  Tb0  1  0.580031  0.580031  0.580031  1
  Tb  Tb1  1  0.419969  0.419969  0.419969  1
  Tb  Tb2  1  0.753456  0.753456  0.753456  1
  Tb  Tb3  1  0.246544  0.246544  0.246544  1
  Pr  Pr4  1  0.000000  0.000000  0.000000  1
  Tc  Tc5  1  0.887432  0.887432  0.887432  1
  Tc  Tc6  1  0.112568  0.112568  0.112568  1
  B  B7  1  0.500000  0.829750  0.170250  1
  B  B8  1  0.170250  0.500000  0.829750  1
  B  B9  1  0.829750  0.170250  0.500000  1
  B  B10  1  0.500000  0.170250  0.829750  1
  B  B11  1  0.829750  0.500000  0.170250  1
  B  B12  1  0.170250  0.829750  0.500000  1
