# generated using pymatgen
data_Dy9Y11Cd3Hg3Ru2
_symmetry_space_group_name_H-M   'P 1'
_cell_length_a   9.62969080
_cell_length_b   9.62969018
_cell_length_c   9.81025607
_cell_angle_alpha   89.95368261
_cell_angle_beta   90.04631973
_cell_angle_gamma   119.99342636
_symmetry_Int_Tables_number   1
_chemical_formula_structural   Dy9Y11Cd3Hg3Ru2
_chemical_formula_sum   'Dy9 Y11 Cd3 Hg3 Ru2'
_cell_volume   787.88749441
_cell_formula_units_Z   1
loop_
 _symmetry_equiv_pos_site_id
 _symmetry_equiv_pos_as_xyz
  1  'x, y, z'
loop_
 _atom_site_type_symbol
 _atom_site_label
 _atom_site_symmetry_multiplicity
 _atom_site_fract_x
 _atom_site_fract_y
 _atom_site_fract_z
 _atom_site_occupancy
  Dy  Dy0  1  0.000005  0.999995  0.491197  1
  Dy  Dy1  1  0.999890  0.000110  0.008789  1
  Dy  Dy2  1  0.209529  0.790471  0.439085  1
  Dy  Dy3  1  0.209493  0.419054  0.439124  1
  Dy  Dy4  1  0.580946  0.790507  0.439124  1
  Dy  Dy5  1  0.790260  0.209740  0.560064  1
  Dy  Dy6  1  0.790209  0.580467  0.559971  1
  Dy  Dy7  1  0.419533  0.209791  0.559971  1
  Dy  Dy8  1  0.790208  0.209792  0.939724  1
  Y  Y9  1  0.790620  0.581111  0.940348  1
  Y  Y10  1  0.418889  0.209380  0.940348  1
  Y  Y11  1  0.209185  0.790815  0.060603  1
  Y  Y12  1  0.209075  0.418379  0.060545  1
  Y  Y13  1  0.581621  0.790925  0.060545  1
  Y  Y14  1  0.541276  0.458724  0.250379  1
  Y  Y15  1  0.541331  0.082617  0.250246  1
  Y  Y16  1  0.917383  0.458669  0.250246  1
  Y  Y17  1  0.458766  0.541234  0.749595  1
  Y  Y18  1  0.458897  0.917666  0.749688  1
  Y  Y19  1  0.082334  0.541103  0.749688  1
  Cd  Cd20  1  0.113219  0.886781  0.750136  1
  Cd  Cd21  1  0.113229  0.226449  0.750081  1
  Cd  Cd22  1  0.773551  0.886771  0.750081  1
  Hg  Hg23  1  0.879960  0.120040  0.249959  1
  Hg  Hg24  1  0.879965  0.759849  0.249932  1
  Hg  Hg25  1  0.240151  0.120035  0.249932  1
  Ru  Ru26  1  0.333346  0.666654  0.251837  1
  Ru  Ru27  1  0.667126  0.332874  0.748763  1
