# generated using pymatgen
data_Zn3NiTe2(MoO7)2
_symmetry_space_group_name_H-M   'P 1'
_cell_length_a   5.22132388
_cell_length_b   8.65785952
_cell_length_c   7.39359049
_cell_angle_alpha   90.07949580
_cell_angle_beta   100.72662308
_cell_angle_gamma   90.19826139
_symmetry_Int_Tables_number   1
_chemical_formula_structural   Zn3NiTe2(MoO7)2
_chemical_formula_sum   'Zn3 Ni1 Te2 Mo2 O14'
_cell_volume   328.38799248
_cell_formula_units_Z   1
loop_
 _symmetry_equiv_pos_site_id
 _symmetry_equiv_pos_as_xyz
  1  'x, y, z'
loop_
 _atom_site_type_symbol
 _atom_site_label
 _atom_site_symmetry_multiplicity
 _atom_site_fract_x
 _atom_site_fract_y
 _atom_site_fract_z
 _atom_site_occupancy
  Zn  Zn0  1  0.942392  0.535472  0.478579  1
  Zn  Zn1  1  0.056038  0.033117  0.520274  1
  Zn  Zn2  1  0.524885  0.364482  0.759684  1
  Ni  Ni3  1  0.474652  0.868623  0.244046  1
  Te  Te4  1  0.506422  0.243213  0.357894  1
  Te  Te5  1  0.494715  0.745156  0.639607  1
  Mo  Mo6  1  0.086017  0.532670  0.020044  1
  Mo  Mo7  1  0.916577  0.030231  0.980467  1
  O  O8  1  0.256220  0.711228  0.065114  1
  O  O9  1  0.705233  0.889077  0.050304  1
  O  O10  1  0.216156  0.050727  0.152130  1
  O  O11  1  0.003253  0.466371  0.232657  1
  O  O12  1  0.702143  0.054796  0.375505  1
  O  O13  1  0.254401  0.852537  0.453559  1
  O  O14  1  0.685779  0.705281  0.447059  1
  O  O15  1  0.308571  0.206184  0.547482  1
  O  O16  1  0.745195  0.351932  0.543772  1
  O  O17  1  0.292710  0.559468  0.628155  1
  O  O18  1  0.988384  0.964197  0.764218  1
  O  O19  1  0.792836  0.555159  0.843222  1
  O  O20  1  0.297094  0.389069  0.953417  1
  O  O21  1  0.750323  0.210286  0.942811  1
