# generated using pymatgen
data_Ac3In3Cu2Pd
_symmetry_space_group_name_H-M   'P 1'
_cell_length_a   7.93515700
_cell_length_b   7.93515578
_cell_length_c   4.13561700
_cell_angle_alpha   90.00000000
_cell_angle_beta   90.00000000
_cell_angle_gamma   119.99999259
_symmetry_Int_Tables_number   1
_chemical_formula_structural   Ac3In3Cu2Pd
_chemical_formula_sum   'Ac3 In3 Cu2 Pd1'
_cell_volume   225.51838711
_cell_formula_units_Z   1
loop_
 _symmetry_equiv_pos_site_id
 _symmetry_equiv_pos_as_xyz
  1  'x, y, z'
loop_
 _atom_site_type_symbol
 _atom_site_label
 _atom_site_symmetry_multiplicity
 _atom_site_fract_x
 _atom_site_fract_y
 _atom_site_fract_z
 _atom_site_occupancy
  Ac  Ac0  1  0.002504  0.584907  0.500000  1
  Ac  Ac1  1  0.415093  0.417597  0.500000  1
  Ac  Ac2  1  0.582403  0.997496  0.500000  1
  In  In3  1  0.763204  0.763014  0.000000  1
  In  In4  1  0.999810  0.236796  0.000000  1
  In  In5  1  0.236986  0.000190  0.000000  1
  Cu  Cu6  1  0.000000  0.000000  0.500000  1
  Cu  Cu7  1  0.666667  0.333333  0.000000  1
  Pd  Pd8  1  0.333333  0.666667  0.000000  1
