# generated using pymatgen
data_Y6GaNiOs
_symmetry_space_group_name_H-M   'P 1'
_cell_length_a   8.41529671
_cell_length_b   8.41529794
_cell_length_c   8.41529661
_cell_angle_alpha   112.89028528
_cell_angle_beta   110.03821402
_cell_angle_gamma   105.56820820
_symmetry_Int_Tables_number   1
_chemical_formula_structural   Y6GaNiOs
_chemical_formula_sum   'Y12 Ga2 Ni2 Os2'
_cell_volume   456.87354031
_cell_formula_units_Z   2
loop_
 _symmetry_equiv_pos_site_id
 _symmetry_equiv_pos_as_xyz
  1  'x, y, z'
loop_
 _atom_site_type_symbol
 _atom_site_label
 _atom_site_symmetry_multiplicity
 _atom_site_fract_x
 _atom_site_fract_y
 _atom_site_fract_z
 _atom_site_occupancy
  Y  Y0  1  0.434037  0.241919  0.192118  1
  Y  Y1  1  0.565963  0.758081  0.807882  1
  Y  Y2  1  0.049800  0.241919  0.807882  1
  Y  Y3  1  0.950200  0.758081  0.192118  1
  Y  Y4  1  0.179659  0.277419  0.457078  1
  Y  Y5  1  0.820341  0.722581  0.542922  1
  Y  Y6  1  0.179659  0.722581  0.902241  1
  Y  Y7  1  0.820341  0.277419  0.097759  1
  Y  Y8  1  0.330953  0.643775  0.312823  1
  Y  Y9  1  0.669047  0.356225  0.687177  1
  Y  Y10  1  0.330953  0.018129  0.687177  1
  Y  Y11  1  0.669047  0.981871  0.312823  1
  Ga  Ga12  1  0.500000  0.500000  0.000000  1
  Ga  Ga13  1  0.000000  0.000000  0.000000  1
  Ni  Ni14  1  0.116031  0.616031  0.500000  1
  Ni  Ni15  1  0.883969  0.383969  0.500000  1
  Os  Os16  1  0.329219  0.000000  0.329219  1
  Os  Os17  1  0.670781  0.000000  0.670781  1
