# generated using pymatgen
data_PaV13P9
_symmetry_space_group_name_H-M   'P 1'
_cell_length_a   10.41820200
_cell_length_b   10.41820149
_cell_length_c   3.28489300
_cell_angle_alpha   90.00000000
_cell_angle_beta   90.00000000
_cell_angle_gamma   120.00000163
_symmetry_Int_Tables_number   1
_chemical_formula_structural   PaV13P9
_chemical_formula_sum   'Pa1 V13 P9'
_cell_volume   308.77162142
_cell_formula_units_Z   1
loop_
 _symmetry_equiv_pos_site_id
 _symmetry_equiv_pos_as_xyz
  1  'x, y, z'
loop_
 _atom_site_type_symbol
 _atom_site_label
 _atom_site_symmetry_multiplicity
 _atom_site_fract_x
 _atom_site_fract_y
 _atom_site_fract_z
 _atom_site_occupancy
  Pa  Pa0  1  0.666667  0.333333  0.000000  1
  V  V1  1  0.238616  0.477230  0.500000  1
  V  V2  1  0.238616  0.761384  0.500000  1
  V  V3  1  0.524286  0.048572  0.500000  1
  V  V4  1  0.524286  0.475714  0.500000  1
  V  V5  1  0.951428  0.475714  0.500000  1
  V  V6  1  0.994233  0.288348  0.000000  1
  V  V7  1  0.711652  0.705885  0.000000  1
  V  V8  1  0.711652  0.005767  0.000000  1
  V  V9  1  0.994233  0.705885  0.000000  1
  V  V10  1  0.294115  0.288348  0.000000  1
  V  V11  1  0.000000  0.000000  0.000000  1
  V  V12  1  0.522770  0.761384  0.500000  1
  V  V13  1  0.294115  0.005767  0.000000  1
  P  P14  1  0.405917  0.202958  0.500000  1
  P  P15  1  0.135834  0.567918  0.000000  1
  P  P16  1  0.432082  0.567918  0.000000  1
  P  P17  1  0.432082  0.864166  0.000000  1
  P  P18  1  0.802858  0.901429  0.500000  1
  P  P19  1  0.098571  0.901429  0.500000  1
  P  P20  1  0.098571  0.197142  0.500000  1
  P  P21  1  0.797042  0.202958  0.500000  1
  P  P22  1  0.797042  0.594083  0.500000  1
