# generated using pymatgen
data_Pr8Ho11ErSi16
_symmetry_space_group_name_H-M   'P 1'
_cell_length_a   7.51887001
_cell_length_b   7.79751301
_cell_length_c   14.80930600
_cell_angle_alpha   90.00000000
_cell_angle_beta   90.00000000
_cell_angle_gamma   90.00425696
_symmetry_Int_Tables_number   1
_chemical_formula_structural   Pr8Ho11ErSi16
_chemical_formula_sum   'Pr8 Ho11 Er1 Si16'
_cell_volume   868.24719674
_cell_formula_units_Z   1
loop_
 _symmetry_equiv_pos_site_id
 _symmetry_equiv_pos_as_xyz
  1  'x, y, z'
loop_
 _atom_site_type_symbol
 _atom_site_label
 _atom_site_symmetry_multiplicity
 _atom_site_fract_x
 _atom_site_fract_y
 _atom_site_fract_z
 _atom_site_occupancy
  Pr  Pr0  1  0.975821  0.820914  0.097990  1
  Pr  Pr1  1  0.475911  0.679144  0.402018  1
  Pr  Pr2  1  0.524129  0.320861  0.902043  1
  Pr  Pr3  1  0.024136  0.179144  0.597957  1
  Pr  Pr4  1  0.024136  0.179144  0.902043  1
  Pr  Pr5  1  0.524129  0.320861  0.597957  1
  Pr  Pr6  1  0.475911  0.679144  0.097982  1
  Pr  Pr7  1  0.975821  0.820914  0.402010  1
  Ho  Ho8  1  0.149733  0.510239  0.250000  1
  Ho  Ho9  1  0.850265  0.489705  0.750000  1
  Ho  Ho10  1  0.350282  0.010285  0.750000  1
  Ho  Ho11  1  0.680894  0.821796  0.876749  1
  Ho  Ho12  1  0.180903  0.678210  0.623259  1
  Ho  Ho13  1  0.819050  0.321762  0.123263  1
  Ho  Ho14  1  0.319149  0.178176  0.376735  1
  Ho  Ho15  1  0.319149  0.178176  0.123265  1
  Ho  Ho16  1  0.819050  0.321762  0.376737  1
  Ho  Ho17  1  0.180903  0.678210  0.876741  1
  Ho  Ho18  1  0.680894  0.821796  0.623251  1
  Er  Er19  1  0.649761  0.989619  0.250000  1
  Si  Si20  1  0.768879  0.620715  0.250000  1
  Si  Si21  1  0.269160  0.879569  0.250000  1
  Si  Si22  1  0.731075  0.120452  0.750000  1
  Si  Si23  1  0.231111  0.379551  0.750000  1
  Si  Si24  1  0.023941  0.112345  0.250000  1
  Si  Si25  1  0.524191  0.387556  0.250000  1
  Si  Si26  1  0.475793  0.612381  0.750000  1
  Si  Si27  1  0.975800  0.887595  0.750000  1
  Si  Si28  1  0.856090  0.531122  0.959994  1
  Si  Si29  1  0.356082  0.968884  0.539996  1
  Si  Si30  1  0.643926  0.031086  0.040095  1
  Si  Si31  1  0.143912  0.468894  0.459984  1
  Si  Si32  1  0.143912  0.468894  0.040016  1
  Si  Si33  1  0.643926  0.031086  0.459905  1
  Si  Si34  1  0.356082  0.968884  0.960004  1
  Si  Si35  1  0.856090  0.531122  0.540006  1
