# generated using pymatgen
data_LiSm6ZnBr12
_symmetry_space_group_name_H-M   'P 1'
_cell_length_a   9.40486651
_cell_length_b   9.40486599
_cell_length_c   9.40486582
_cell_angle_alpha   107.80515712
_cell_angle_beta   107.80515101
_cell_angle_gamma   107.80514324
_symmetry_Int_Tables_number   1
_chemical_formula_structural   LiSm6ZnBr12
_chemical_formula_sum   'Li1 Sm6 Zn1 Br12'
_cell_volume   677.00072696
_cell_formula_units_Z   1
loop_
 _symmetry_equiv_pos_site_id
 _symmetry_equiv_pos_as_xyz
  1  'x, y, z'
loop_
 _atom_site_type_symbol
 _atom_site_label
 _atom_site_symmetry_multiplicity
 _atom_site_fract_x
 _atom_site_fract_y
 _atom_site_fract_z
 _atom_site_occupancy
  Li  Li0  1  0.500000  0.500000  0.500000  1
  Sm  Sm1  1  0.115897  0.331696  0.038000  1
  Sm  Sm2  1  0.331696  0.038001  0.115896  1
  Sm  Sm3  1  0.038001  0.115896  0.331697  1
  Sm  Sm4  1  0.962000  0.884104  0.668304  1
  Sm  Sm5  1  0.668304  0.962000  0.884104  1
  Sm  Sm6  1  0.884103  0.668304  0.962000  1
  Zn  Zn7  1  0.000000  0.000000  0.000000  1
  Br  Br8  1  0.223369  0.687806  0.073801  1
  Br  Br9  1  0.461497  0.384560  0.171314  1
  Br  Br10  1  0.687807  0.073801  0.223369  1
  Br  Br11  1  0.926200  0.776631  0.312194  1
  Br  Br12  1  0.171314  0.461497  0.384560  1
  Br  Br13  1  0.384560  0.171314  0.461497  1
  Br  Br14  1  0.615440  0.828686  0.538504  1
  Br  Br15  1  0.828687  0.538503  0.615440  1
  Br  Br16  1  0.073801  0.223369  0.687807  1
  Br  Br17  1  0.312194  0.926200  0.776631  1
  Br  Br18  1  0.538503  0.615440  0.828687  1
  Br  Br19  1  0.776631  0.312194  0.926199  1
