# generated using pymatgen
data_Ca12Ga5Ge3Rh8
_symmetry_space_group_name_H-M   'P 1'
_cell_length_a   5.77859105
_cell_length_b   7.86623577
_cell_length_c   13.73613700
_cell_angle_alpha   90.00000000
_cell_angle_beta   90.00000000
_cell_angle_gamma   90.09637170
_symmetry_Int_Tables_number   1
_chemical_formula_structural   Ca12Ga5Ge3Rh8
_chemical_formula_sum   'Ca12 Ga5 Ge3 Rh8'
_cell_volume   624.38565855
_cell_formula_units_Z   1
loop_
 _symmetry_equiv_pos_site_id
 _symmetry_equiv_pos_as_xyz
  1  'x, y, z'
loop_
 _atom_site_type_symbol
 _atom_site_label
 _atom_site_symmetry_multiplicity
 _atom_site_fract_x
 _atom_site_fract_y
 _atom_site_fract_z
 _atom_site_occupancy
  Ca  Ca0  1  0.632938  0.244725  0.250000  1
  Ca  Ca1  1  0.366494  0.756797  0.750000  1
  Ca  Ca2  1  0.369666  0.742558  0.250000  1
  Ca  Ca3  1  0.633684  0.256484  0.750000  1
  Ca  Ca4  1  0.142179  0.397450  0.097678  1
  Ca  Ca5  1  0.856991  0.603972  0.899661  1
  Ca  Ca6  1  0.856991  0.603972  0.600339  1
  Ca  Ca7  1  0.857213  0.893154  0.402250  1
  Ca  Ca8  1  0.142179  0.397450  0.402322  1
  Ca  Ca9  1  0.141048  0.105093  0.600014  1
  Ca  Ca10  1  0.141048  0.105093  0.899986  1
  Ca  Ca11  1  0.857213  0.893154  0.097750  1
  Ga  Ga12  1  0.154929  0.092395  0.250000  1
  Ga  Ga13  1  0.600618  0.250804  0.999475  1
  Ga  Ga14  1  0.396722  0.749140  0.999976  1
  Ga  Ga15  1  0.396722  0.749140  0.500024  1
  Ga  Ga16  1  0.600618  0.250804  0.500525  1
  Ge  Ge17  1  0.851721  0.905955  0.750000  1
  Ge  Ge18  1  0.854408  0.592934  0.250000  1
  Ge  Ge19  1  0.147391  0.405924  0.750000  1
  Rh  Rh20  1  0.360590  0.027589  0.091832  1
  Rh  Rh21  1  0.637326  0.973066  0.905904  1
  Rh  Rh22  1  0.637326  0.973066  0.594096  1
  Rh  Rh23  1  0.639398  0.527644  0.406672  1
  Rh  Rh24  1  0.360590  0.027589  0.408168  1
  Rh  Rh25  1  0.362299  0.473203  0.594308  1
  Rh  Rh26  1  0.362299  0.473203  0.905692  1
  Rh  Rh27  1  0.639398  0.527644  0.093328  1
