# generated using pymatgen
data_Nd2EuDy5(WO6)4
_symmetry_space_group_name_H-M   'P 1'
_cell_length_a   5.47046600
_cell_length_b   7.79309163
_cell_length_c   11.56331928
_cell_angle_alpha   75.71259782
_cell_angle_beta   90.00000000
_cell_angle_gamma   90.00000000
_symmetry_Int_Tables_number   1
_chemical_formula_structural   Nd2EuDy5(WO6)4
_chemical_formula_sum   'Nd2 Eu1 Dy5 W4 O24'
_cell_volume   477.71819170
_cell_formula_units_Z   1
loop_
 _symmetry_equiv_pos_site_id
 _symmetry_equiv_pos_as_xyz
  1  'x, y, z'
loop_
 _atom_site_type_symbol
 _atom_site_label
 _atom_site_symmetry_multiplicity
 _atom_site_fract_x
 _atom_site_fract_y
 _atom_site_fract_z
 _atom_site_occupancy
  Nd  Nd0  1  0.683494  0.500000  0.750000  1
  Nd  Nd1  1  0.315010  0.500000  0.250000  1
  Eu  Eu2  1  0.743191  0.000000  0.750000  1
  Dy  Dy3  1  0.258975  0.000000  0.250000  1
  Dy  Dy4  1  0.185826  0.796185  0.576462  1
  Dy  Dy5  1  0.815365  0.795183  0.077754  1
  Dy  Dy6  1  0.185826  0.203815  0.923538  1
  Dy  Dy7  1  0.815365  0.204817  0.422246  1
  W  W8  1  0.253994  0.725208  0.885635  1
  W  W9  1  0.745902  0.728226  0.383870  1
  W  W10  1  0.253994  0.274792  0.614365  1
  W  W11  1  0.745902  0.271774  0.116130  1
  O  O12  1  0.046484  0.938140  0.898905  1
  O  O13  1  0.530603  0.843190  0.932765  1
  O  O14  1  0.956185  0.941123  0.395176  1
  O  O15  1  0.453217  0.790045  0.728679  1
  O  O16  1  0.466676  0.846119  0.430074  1
  O  O17  1  0.987117  0.716724  0.770695  1
  O  O18  1  0.544795  0.794369  0.227235  1
  O  O19  1  0.851660  0.642266  0.545359  1
  O  O20  1  0.350146  0.491639  0.888126  1
  O  O21  1  0.014671  0.718227  0.269974  1
  O  O22  1  0.350146  0.508361  0.611874  1
  O  O23  1  0.851660  0.357734  0.954641  1
  O  O24  1  0.146118  0.637526  0.046619  1
  O  O25  1  0.650905  0.494529  0.386137  1
  O  O26  1  0.987117  0.283276  0.729305  1
  O  O27  1  0.650905  0.505471  0.113863  1
  O  O28  1  0.146118  0.362474  0.453381  1
  O  O29  1  0.453217  0.209955  0.771321  1
  O  O30  1  0.014671  0.281773  0.230026  1
  O  O31  1  0.530603  0.156810  0.567235  1
  O  O32  1  0.544795  0.205631  0.272765  1
  O  O33  1  0.046484  0.061860  0.601095  1
  O  O34  1  0.466676  0.153881  0.069926  1
  O  O35  1  0.956185  0.058877  0.104824  1
