# generated using pymatgen
data_Tb5Tm15(Cd3Re)2
_symmetry_space_group_name_H-M   'P 1'
_cell_length_a   9.44152300
_cell_length_b   9.44152326
_cell_length_c   9.90396700
_cell_angle_alpha   90.00000000
_cell_angle_beta   90.00000000
_cell_angle_gamma   119.99427079
_symmetry_Int_Tables_number   1
_chemical_formula_structural   Tb5Tm15(Cd3Re)2
_chemical_formula_sum   'Tb5 Tm15 Cd6 Re2'
_cell_volume   764.62590708
_cell_formula_units_Z   1
loop_
 _symmetry_equiv_pos_site_id
 _symmetry_equiv_pos_as_xyz
  1  'x, y, z'
loop_
 _atom_site_type_symbol
 _atom_site_label
 _atom_site_symmetry_multiplicity
 _atom_site_fract_x
 _atom_site_fract_y
 _atom_site_fract_z
 _atom_site_occupancy
  Tb  Tb0  1  0.537692  0.076261  0.250000  1
  Tb  Tb1  1  0.923739  0.462308  0.250000  1
  Tb  Tb2  1  0.462297  0.537703  0.750000  1
  Tb  Tb3  1  0.462789  0.926014  0.750000  1
  Tb  Tb4  1  0.073986  0.537211  0.750000  1
  Tm  Tm5  1  0.000209  0.999791  0.499898  1
  Tm  Tm6  1  0.000209  0.999791  0.000102  1
  Tm  Tm7  1  0.210170  0.789830  0.442862  1
  Tm  Tm8  1  0.210488  0.419320  0.442966  1
  Tm  Tm9  1  0.580680  0.789512  0.442966  1
  Tm  Tm10  1  0.790123  0.209877  0.556377  1
  Tm  Tm11  1  0.789083  0.579789  0.556293  1
  Tm  Tm12  1  0.420211  0.210917  0.556293  1
  Tm  Tm13  1  0.790123  0.209877  0.943623  1
  Tm  Tm14  1  0.789083  0.579789  0.943707  1
  Tm  Tm15  1  0.420211  0.210917  0.943707  1
  Tm  Tm16  1  0.210170  0.789830  0.057138  1
  Tm  Tm17  1  0.210488  0.419320  0.057034  1
  Tm  Tm18  1  0.580680  0.789512  0.057034  1
  Tm  Tm19  1  0.535959  0.464041  0.250000  1
  Cd  Cd20  1  0.886885  0.113115  0.250000  1
  Cd  Cd21  1  0.885766  0.772720  0.250000  1
  Cd  Cd22  1  0.227280  0.114234  0.250000  1
  Cd  Cd23  1  0.113063  0.886937  0.750000  1
  Cd  Cd24  1  0.113150  0.226002  0.750000  1
  Cd  Cd25  1  0.773998  0.886850  0.750000  1
  Re  Re26  1  0.334258  0.665742  0.250000  1
  Re  Re27  1  0.667210  0.332790  0.750000  1
