# generated using pymatgen
data_Ho3Er7NiBi5
_symmetry_space_group_name_H-M   'P 1'
_cell_length_a   8.03912600
_cell_length_b   9.34274600
_cell_length_c   12.04676700
_cell_angle_alpha   90.00000000
_cell_angle_beta   90.00000000
_cell_angle_gamma   90.00000000
_symmetry_Int_Tables_number   1
_chemical_formula_structural   Ho3Er7NiBi5
_chemical_formula_sum   'Ho6 Er14 Ni2 Bi10'
_cell_volume   904.80270039
_cell_formula_units_Z   2
loop_
 _symmetry_equiv_pos_site_id
 _symmetry_equiv_pos_as_xyz
  1  'x, y, z'
loop_
 _atom_site_type_symbol
 _atom_site_label
 _atom_site_symmetry_multiplicity
 _atom_site_fract_x
 _atom_site_fract_y
 _atom_site_fract_z
 _atom_site_occupancy
  Ho  Ho0  1  0.574648  0.500000  0.774141  1
  Ho  Ho1  1  0.425352  0.500000  0.274141  1
  Ho  Ho2  1  0.260714  0.500000  0.993807  1
  Ho  Ho3  1  0.739286  0.500000  0.493807  1
  Ho  Ho4  1  0.090146  0.500000  0.717051  1
  Ho  Ho5  1  0.909854  0.500000  0.217051  1
  Er  Er6  1  0.432490  0.178187  0.563078  1
  Er  Er7  1  0.567510  0.821813  0.063078  1
  Er  Er8  1  0.071151  0.724836  0.435968  1
  Er  Er9  1  0.928849  0.275164  0.935968  1
  Er  Er10  1  0.071151  0.275164  0.435968  1
  Er  Er11  1  0.928849  0.724836  0.935968  1
  Er  Er12  1  0.432490  0.821813  0.563078  1
  Er  Er13  1  0.567510  0.178187  0.063078  1
  Er  Er14  1  0.906688  0.000000  0.202065  1
  Er  Er15  1  0.093312  0.000000  0.702065  1
  Er  Er16  1  0.199727  0.000000  0.998642  1
  Er  Er17  1  0.800273  0.000000  0.498642  1
  Er  Er18  1  0.377182  0.000000  0.305249  1
  Er  Er19  1  0.622818  0.000000  0.805249  1
  Ni  Ni20  1  0.170525  0.000000  0.486321  1
  Ni  Ni21  1  0.829475  0.000000  0.986321  1
  Bi  Bi22  1  0.815293  0.742504  0.672732  1
  Bi  Bi23  1  0.184707  0.257496  0.172732  1
  Bi  Bi24  1  0.681002  0.240855  0.325161  1
  Bi  Bi25  1  0.318998  0.759145  0.825161  1
  Bi  Bi26  1  0.681002  0.759145  0.325161  1
  Bi  Bi27  1  0.318998  0.240855  0.825161  1
  Bi  Bi28  1  0.815293  0.257496  0.672732  1
  Bi  Bi29  1  0.184707  0.742504  0.172732  1
  Bi  Bi30  1  0.346824  0.500000  0.528848  1
  Bi  Bi31  1  0.653176  0.500000  0.028848  1
