# generated using pymatgen
data_ReSi7Tc3
_symmetry_space_group_name_H-M   'P 1'
_cell_length_a   3.14250031
_cell_length_b   8.34627187
_cell_length_c   11.70171170
_cell_angle_alpha   92.58961206
_cell_angle_beta   97.71671368
_cell_angle_gamma   89.99999950
_symmetry_Int_Tables_number   1
_chemical_formula_structural   ReSi7Tc3
_chemical_formula_sum   'Re2 Si14 Tc6'
_cell_volume   303.81870032
_cell_formula_units_Z   2
loop_
 _symmetry_equiv_pos_site_id
 _symmetry_equiv_pos_as_xyz
  1  'x, y, z'
loop_
 _atom_site_type_symbol
 _atom_site_label
 _atom_site_symmetry_multiplicity
 _atom_site_fract_x
 _atom_site_fract_y
 _atom_site_fract_z
 _atom_site_occupancy
  Re  Re0  1  0.976392  0.283728  0.952785  1
  Re  Re1  1  0.477112  0.775848  0.954222  1
  Si  Si2  1  0.004662  0.999191  0.009324  1
  Si  Si3  1  0.019507  0.577493  0.039012  1
  Si  Si4  1  0.558510  0.344108  0.117021  1
  Si  Si5  1  0.586559  0.918929  0.173118  1
  Si  Si6  1  0.144696  0.440048  0.289393  1
  Si  Si7  1  0.173186  0.765450  0.346372  1
  Si  Si8  1  0.683840  0.212195  0.367681  1
  Si  Si9  1  0.764971  0.817336  0.529942  1
  Si  Si10  1  0.269868  0.315778  0.539735  1
  Si  Si11  1  0.309233  0.605767  0.618467  1
  Si  Si12  1  0.817152  0.110143  0.634304  1
  Si  Si13  1  0.894696  0.706402  0.789394  1
  Si  Si14  1  0.421526  0.101434  0.843051  1
  Si  Si15  1  0.431746  0.476246  0.863492  1
  Tc  Tc16  1  0.601863  0.633468  0.203725  1
  Tc  Tc17  1  0.101912  0.149571  0.203824  1
  Tc  Tc18  1  0.725604  0.520716  0.451209  1
  Tc  Tc19  1  0.231444  0.030548  0.462887  1
  Tc  Tc20  1  0.347341  0.890402  0.694683  1
  Tc  Tc21  1  0.850309  0.411802  0.700619  1
