# generated using pymatgen
data_TbDy(GaFe2)2
_symmetry_space_group_name_H-M   'P 1'
_cell_length_a   4.98302300
_cell_length_b   3.94624500
_cell_length_c   6.88359100
_cell_angle_alpha   90.00000000
_cell_angle_beta   90.00000000
_cell_angle_gamma   90.00000000
_symmetry_Int_Tables_number   1
_chemical_formula_structural   TbDy(GaFe2)2
_chemical_formula_sum   'Tb1 Dy1 Ga2 Fe4'
_cell_volume   135.36051389
_cell_formula_units_Z   1
loop_
 _symmetry_equiv_pos_site_id
 _symmetry_equiv_pos_as_xyz
  1  'x, y, z'
loop_
 _atom_site_type_symbol
 _atom_site_label
 _atom_site_symmetry_multiplicity
 _atom_site_fract_x
 _atom_site_fract_y
 _atom_site_fract_z
 _atom_site_occupancy
  Tb  Tb0  1  0.750000  0.000000  0.815554  1
  Dy  Dy1  1  0.250000  0.000000  0.185549  1
  Ga  Ga2  1  0.750000  0.500001  0.170475  1
  Ga  Ga3  1  0.250000  0.500001  0.829782  1
  Fe  Fe4  1  0.750000  0.000000  0.406838  1
  Fe  Fe5  1  0.000220  0.500001  0.499692  1
  Fe  Fe6  1  0.499780  0.500001  0.499692  1
  Fe  Fe7  1  0.250000  0.000000  0.592418  1
