# generated using pymatgen
data_YbHo2Si6(Pd3Pt)5
_symmetry_space_group_name_H-M   'P 1'
_cell_length_a   8.71149580
_cell_length_b   8.72139301
_cell_length_c   8.73386700
_cell_angle_alpha   59.95274009
_cell_angle_beta   59.91507915
_cell_angle_gamma   59.81434958
_symmetry_Int_Tables_number   1
_chemical_formula_structural   YbHo2Si6(Pd3Pt)5
_chemical_formula_sum   'Yb1 Ho2 Si6 Pd15 Pt5'
_cell_volume   468.08387262
_cell_formula_units_Z   1
loop_
 _symmetry_equiv_pos_site_id
 _symmetry_equiv_pos_as_xyz
  1  'x, y, z'
loop_
 _atom_site_type_symbol
 _atom_site_label
 _atom_site_symmetry_multiplicity
 _atom_site_fract_x
 _atom_site_fract_y
 _atom_site_fract_z
 _atom_site_occupancy
  Yb  Yb0  1  0.999977  0.000033  0.999994  1
  Ho  Ho1  1  0.250701  0.250153  0.249573  1
  Ho  Ho2  1  0.749021  0.750029  0.750474  1
  Si  Si3  1  0.731348  0.268144  0.267348  1
  Si  Si4  1  0.269422  0.730851  0.731792  1
  Si  Si5  1  0.269422  0.730851  0.267935  1
  Si  Si6  1  0.731349  0.268143  0.733160  1
  Si  Si7  1  0.268327  0.267554  0.732060  1
  Si  Si8  1  0.730988  0.731780  0.268615  1
  Pd  Pd9  1  0.619751  0.147619  0.616316  1
  Pd  Pd10  1  0.852506  0.380408  0.383543  1
  Pd  Pd11  1  0.145978  0.618205  0.617909  1
  Pd  Pd12  1  0.344700  0.000200  0.999642  1
  Pd  Pd13  1  0.654760  0.000888  0.000377  1
  Pd  Pd14  1  0.999432  0.345714  0.655524  1
  Pd  Pd15  1  0.999817  0.656001  0.344450  1
  Pd  Pd16  1  0.999432  0.345713  0.999331  1
  Pd  Pd17  1  0.654760  0.000888  0.343975  1
  Pd  Pd18  1  0.999817  0.656001  0.999730  1
  Pd  Pd19  1  0.344700  0.000201  0.655458  1
  Pd  Pd20  1  0.000066  0.000839  0.344432  1
  Pd  Pd21  1  0.000066  0.000838  0.654664  1
  Pd  Pd22  1  0.655389  0.345436  0.999588  1
  Pd  Pd23  1  0.344852  0.656913  0.999118  1
  Pt  Pt24  1  0.382318  0.382596  0.385912  1
  Pt  Pt25  1  0.618990  0.615725  0.615201  1
  Pt  Pt26  1  0.382318  0.382596  0.849175  1
  Pt  Pt27  1  0.380801  0.849957  0.384621  1
  Pt  Pt28  1  0.618991  0.615725  0.150083  1
