# generated using pymatgen
data_ErPa3(GePt)4
_symmetry_space_group_name_H-M   'P 1'
_cell_length_a   4.40578500
_cell_length_b   7.03790133
_cell_length_c   7.65255838
_cell_angle_alpha   89.96442508
_cell_angle_beta   90.00000000
_cell_angle_gamma   90.00000000
_symmetry_Int_Tables_number   1
_chemical_formula_structural   ErPa3(GePt)4
_chemical_formula_sum   'Er1 Pa3 Ge4 Pt4'
_cell_volume   237.28650599
_cell_formula_units_Z   1
loop_
 _symmetry_equiv_pos_site_id
 _symmetry_equiv_pos_as_xyz
  1  'x, y, z'
loop_
 _atom_site_type_symbol
 _atom_site_label
 _atom_site_symmetry_multiplicity
 _atom_site_fract_x
 _atom_site_fract_y
 _atom_site_fract_z
 _atom_site_occupancy
  Er  Er0  1  0.250000  0.503915  0.203964  1
  Pa  Pa1  1  0.750000  0.495470  0.793562  1
  Pa  Pa2  1  0.250000  0.003522  0.295929  1
  Pa  Pa3  1  0.750000  0.993417  0.705641  1
  Ge  Ge4  1  0.250000  0.693790  0.587632  1
  Ge  Ge5  1  0.250000  0.193098  0.912164  1
  Ge  Ge6  1  0.750000  0.303620  0.409010  1
  Ge  Ge7  1  0.750000  0.807110  0.092101  1
  Pt  Pt8  1  0.250000  0.791565  0.916968  1
  Pt  Pt9  1  0.250000  0.288964  0.583253  1
  Pt  Pt10  1  0.750000  0.708603  0.417331  1
  Pt  Pt11  1  0.750000  0.216925  0.082445  1
