# generated using pymatgen
data_Mn7Nb12Fe(SiN)4
_symmetry_space_group_name_H-M   'P 1'
_cell_length_a   8.03353249
_cell_length_b   8.03428083
_cell_length_c   8.03395412
_cell_angle_alpha   59.94121500
_cell_angle_beta   59.92957065
_cell_angle_gamma   59.93652108
_symmetry_Int_Tables_number   1
_chemical_formula_structural   Mn7Nb12Fe(SiN)4
_chemical_formula_sum   'Mn7 Nb12 Fe1 Si4 N4'
_cell_volume   366.12950813
_cell_formula_units_Z   1
loop_
 _symmetry_equiv_pos_site_id
 _symmetry_equiv_pos_as_xyz
  1  'x, y, z'
loop_
 _atom_site_type_symbol
 _atom_site_label
 _atom_site_symmetry_multiplicity
 _atom_site_fract_x
 _atom_site_fract_y
 _atom_site_fract_z
 _atom_site_occupancy
  Mn  Mn0  1  0.736114  0.420992  0.421039  1
  Mn  Mn1  1  0.421027  0.735962  0.421020  1
  Mn  Mn2  1  0.421040  0.420979  0.736046  1
  Mn  Mn3  1  0.421345  0.421470  0.421403  1
  Mn  Mn4  1  0.514071  0.828474  0.828420  1
  Mn  Mn5  1  0.828520  0.513897  0.828577  1
  Mn  Mn6  1  0.828440  0.828562  0.513982  1
  Nb  Nb7  1  0.799396  0.799427  0.201747  1
  Nb  Nb8  1  0.199574  0.199619  0.800048  1
  Nb  Nb9  1  0.799421  0.201754  0.799427  1
  Nb  Nb10  1  0.199564  0.800092  0.199596  1
  Nb  Nb11  1  0.201754  0.799404  0.799377  1
  Nb  Nb12  1  0.800029  0.199606  0.199593  1
  Nb  Nb13  1  0.449855  0.449819  0.050578  1
  Nb  Nb14  1  0.049859  0.049873  0.449862  1
  Nb  Nb15  1  0.449811  0.050617  0.449805  1
  Nb  Nb16  1  0.049847  0.449822  0.049846  1
  Nb  Nb17  1  0.050541  0.449848  0.449879  1
  Nb  Nb18  1  0.449889  0.049873  0.049860  1
  Fe  Fe19  1  0.829608  0.829610  0.829610  1
  Si  Si20  1  0.123141  0.626017  0.626102  1
  Si  Si21  1  0.625984  0.123426  0.625903  1
  Si  Si22  1  0.626088  0.625912  0.123272  1
  Si  Si23  1  0.625132  0.625010  0.625077  1
  N  N24  1  0.624797  0.124774  0.124772  1
  N  N25  1  0.124775  0.624796  0.124764  1
  N  N26  1  0.124779  0.124767  0.624797  1
  N  N27  1  0.125602  0.125598  0.125596  1
