# generated using pymatgen
data_PmCuSe2
_symmetry_space_group_name_H-M   'P 1'
_cell_length_a   6.41148540
_cell_length_b   7.51841200
_cell_length_c   7.45788200
_cell_angle_alpha   89.99930651
_cell_angle_beta   94.52747226
_cell_angle_gamma   89.99911272
_symmetry_Int_Tables_number   1
_chemical_formula_structural   PmCuSe2
_chemical_formula_sum   'Pm4 Cu4 Se8'
_cell_volume   358.37936430
_cell_formula_units_Z   4
loop_
 _symmetry_equiv_pos_site_id
 _symmetry_equiv_pos_as_xyz
  1  'x, y, z'
loop_
 _atom_site_type_symbol
 _atom_site_label
 _atom_site_symmetry_multiplicity
 _atom_site_fract_x
 _atom_site_fract_y
 _atom_site_fract_z
 _atom_site_occupancy
  Pm  Pm0  1  0.318553  0.038495  0.212801  1
  Pm  Pm1  1  0.681504  0.538476  0.287188  1
  Pm  Pm2  1  0.318503  0.461502  0.712751  1
  Pm  Pm3  1  0.681462  0.961479  0.787134  1
  Cu  Cu4  1  0.049298  0.671559  0.035979  1
  Cu  Cu5  1  0.949680  0.170711  0.463284  1
  Cu  Cu6  1  0.050325  0.829338  0.536702  1
  Cu  Cu7  1  0.950619  0.328551  0.964358  1
  Se  Se8  1  0.890012  0.890260  0.229240  1
  Se  Se9  1  0.110020  0.390331  0.270819  1
  Se  Se10  1  0.890002  0.609646  0.729129  1
  Se  Se11  1  0.110004  0.109714  0.770742  1
  Se  Se12  1  0.580554  0.273595  0.998584  1
  Se  Se13  1  0.419427  0.773559  0.501301  1
  Se  Se14  1  0.580566  0.226408  0.498632  1
  Se  Se15  1  0.419476  0.726376  0.001356  1
