# generated using pymatgen
data_Sc4Al3CuOs4
_symmetry_space_group_name_H-M   'P 1'
_cell_length_a   5.26344700
_cell_length_b   5.21575886
_cell_length_c   8.31320300
_cell_angle_alpha   90.00000000
_cell_angle_beta   90.00000000
_cell_angle_gamma   119.88473364
_symmetry_Int_Tables_number   1
_chemical_formula_structural   Sc4Al3CuOs4
_chemical_formula_sum   'Sc4 Al3 Cu1 Os4'
_cell_volume   197.87459461
_cell_formula_units_Z   1
loop_
 _symmetry_equiv_pos_site_id
 _symmetry_equiv_pos_as_xyz
  1  'x, y, z'
loop_
 _atom_site_type_symbol
 _atom_site_label
 _atom_site_symmetry_multiplicity
 _atom_site_fract_x
 _atom_site_fract_y
 _atom_site_fract_z
 _atom_site_occupancy
  Sc  Sc0  1  0.339788  0.675222  0.432710  1
  Sc  Sc1  1  0.673436  0.339326  0.559207  1
  Sc  Sc2  1  0.673436  0.339326  0.940793  1
  Sc  Sc3  1  0.339788  0.675222  0.067290  1
  Al  Al4  1  0.174373  0.341761  0.750000  1
  Al  Al5  1  0.993542  0.990435  0.003716  1
  Al  Al6  1  0.993542  0.990435  0.496284  1
  Cu  Cu7  1  0.329696  0.165616  0.250000  1
  Os  Os8  1  0.175290  0.834731  0.750000  1
  Os  Os9  1  0.825169  0.645877  0.250000  1
  Os  Os10  1  0.658451  0.836086  0.750000  1
  Os  Os11  1  0.823490  0.165958  0.250000  1
