# generated using pymatgen
data_TmLu5Np3O18
_symmetry_space_group_name_H-M   'P 1'
_cell_length_a   9.37688902
_cell_length_b   9.37719741
_cell_length_c   5.02019501
_cell_angle_alpha   90.00000386
_cell_angle_beta   89.99355611
_cell_angle_gamma   120.00109579
_symmetry_Int_Tables_number   1
_chemical_formula_structural   TmLu5Np3O18
_chemical_formula_sum   'Tm1 Lu5 Np3 O18'
_cell_volume   382.27707545
_cell_formula_units_Z   1
loop_
 _symmetry_equiv_pos_site_id
 _symmetry_equiv_pos_as_xyz
  1  'x, y, z'
loop_
 _atom_site_type_symbol
 _atom_site_label
 _atom_site_symmetry_multiplicity
 _atom_site_fract_x
 _atom_site_fract_y
 _atom_site_fract_z
 _atom_site_occupancy
  Tm  Tm0  1  0.000000  0.631503  0.000000  1
  Lu  Lu1  1  0.000000  0.294628  0.500000  1
  Lu  Lu2  1  0.368022  0.368016  0.000301  1
  Lu  Lu3  1  0.294985  0.000040  0.499968  1
  Lu  Lu4  1  0.705015  0.705056  0.500032  1
  Lu  Lu5  1  0.631978  0.999993  0.999699  1
  Np  Np6  1  0.333903  0.666490  0.502258  1
  Np  Np7  1  0.000000  0.000849  0.000000  1
  Np  Np8  1  0.666097  0.332586  0.497742  1
  O  O9  1  0.091940  0.878759  0.779371  1
  O  O10  1  0.219333  0.767629  0.279834  1
  O  O11  1  0.120338  0.537949  0.724518  1
  O  O12  1  0.419083  0.879975  0.727066  1
  O  O13  1  0.232973  0.451355  0.277106  1
  O  O14  1  0.122805  0.215253  0.780232  1
  O  O15  1  0.214580  0.122882  0.220366  1
  O  O16  1  0.548866  0.781834  0.278197  1
  O  O17  1  0.461250  0.580368  0.726067  1
  O  O18  1  0.785420  0.908302  0.779634  1
  O  O19  1  0.451134  0.232968  0.721803  1
  O  O20  1  0.580917  0.460891  0.272934  1
  O  O21  1  0.538750  0.119119  0.273933  1
  O  O22  1  0.780667  0.548296  0.720166  1
  O  O23  1  0.908060  0.786818  0.220629  1
  O  O24  1  0.767027  0.218382  0.722894  1
  O  O25  1  0.879662  0.417610  0.275482  1
  O  O26  1  0.877195  0.092447  0.219768  1
