# generated using pymatgen
data_BSe23
_symmetry_space_group_name_H-M   'P 1'
_cell_length_a   5.34282201
_cell_length_b   9.94370398
_cell_length_c   16.41398200
_cell_angle_alpha   90.13933144
_cell_angle_beta   87.65978492
_cell_angle_gamma   90.47881092
_symmetry_Int_Tables_number   1
_chemical_formula_structural   BSe23
_chemical_formula_sum   'B1 Se23'
_cell_volume   871.27322925
_cell_formula_units_Z   1
loop_
 _symmetry_equiv_pos_site_id
 _symmetry_equiv_pos_as_xyz
  1  'x, y, z'
loop_
 _atom_site_type_symbol
 _atom_site_label
 _atom_site_symmetry_multiplicity
 _atom_site_fract_x
 _atom_site_fract_y
 _atom_site_fract_z
 _atom_site_occupancy
  B  B0  1  0.488527  0.270184  0.456395  1
  Se  Se1  1  0.542188  0.827717  0.381008  1
  Se  Se2  1  0.007382  0.322433  0.120543  1
  Se  Se3  1  0.828632  0.217659  0.456239  1
  Se  Se4  1  0.267562  0.796904  0.496536  1
  Se  Se5  1  0.237632  0.260133  0.000411  1
  Se  Se6  1  0.743885  0.717833  0.003108  1
  Se  Se7  1  0.272855  0.362809  0.382360  1
  Se  Se8  1  0.777692  0.626384  0.371196  1
  Se  Se9  1  0.754274  0.134911  0.159969  1
  Se  Se10  1  0.233691  0.859616  0.140605  1
  Se  Se11  1  0.719258  0.620535  0.626419  1
  Se  Se12  1  0.169820  0.377514  0.634664  1
  Se  Se13  1  0.237314  0.858726  0.853697  1
  Se  Se14  1  0.760699  0.135898  0.850185  1
  Se  Se15  1  0.988522  0.666187  0.115323  1
  Se  Se16  1  0.511739  0.827794  0.612216  1
  Se  Se17  1  0.373607  0.192609  0.564600  1
  Se  Se18  1  0.989251  0.666106  0.884209  1
  Se  Se19  1  0.013574  0.322192  0.885347  1
  Se  Se20  1  0.584745  0.469209  0.288320  1
  Se  Se21  1  0.008282  0.993946  0.236775  1
  Se  Se22  1  0.476150  0.477363  0.714626  1
  Se  Se23  1  0.012715  0.995336  0.765252  1
