# generated using pymatgen
data_Dy16In4Ru3Pt
_symmetry_space_group_name_H-M   'P 1'
_cell_length_a   9.65890306
_cell_length_b   9.66166726
_cell_length_c   9.66010708
_cell_angle_alpha   59.98209939
_cell_angle_beta   59.96413796
_cell_angle_gamma   59.97310892
_symmetry_Int_Tables_number   1
_chemical_formula_structural   Dy16In4Ru3Pt
_chemical_formula_sum   'Dy16 In4 Ru3 Pt1'
_cell_volume   637.06237985
_cell_formula_units_Z   1
loop_
 _symmetry_equiv_pos_site_id
 _symmetry_equiv_pos_as_xyz
  1  'x, y, z'
loop_
 _atom_site_type_symbol
 _atom_site_label
 _atom_site_symmetry_multiplicity
 _atom_site_fract_x
 _atom_site_fract_y
 _atom_site_fract_z
 _atom_site_occupancy
  Dy  Dy0  1  0.597133  0.597028  0.596959  1
  Dy  Dy1  1  0.602382  0.602468  0.200496  1
  Dy  Dy2  1  0.602459  0.200300  0.602424  1
  Dy  Dy3  1  0.200526  0.602422  0.602299  1
  Dy  Dy4  1  0.052867  0.441753  0.441640  1
  Dy  Dy5  1  0.439793  0.058120  0.058197  1
  Dy  Dy6  1  0.441653  0.052972  0.441809  1
  Dy  Dy7  1  0.058061  0.439958  0.058171  1
  Dy  Dy8  1  0.441616  0.441897  0.052927  1
  Dy  Dy9  1  0.058102  0.058132  0.439898  1
  Dy  Dy10  1  0.190692  0.810256  0.810308  1
  Dy  Dy11  1  0.811610  0.191386  0.191359  1
  Dy  Dy12  1  0.810255  0.190692  0.810197  1
  Dy  Dy13  1  0.191311  0.811640  0.191324  1
  Dy  Dy14  1  0.810386  0.810268  0.190653  1
  Dy  Dy15  1  0.191326  0.191368  0.811660  1
  In  In16  1  0.832815  0.832939  0.832944  1
  In  In17  1  0.832218  0.832269  0.501742  1
  In  In18  1  0.832415  0.501418  0.832383  1
  In  In19  1  0.501914  0.832262  0.832153  1
  Ru  Ru20  1  0.389402  0.389258  0.829983  1
  Ru  Ru21  1  0.389302  0.830133  0.389271  1
  Ru  Ru22  1  0.829818  0.389288  0.389405  1
  Pt  Pt23  1  0.391949  0.391775  0.391801  1
