# generated using pymatgen
data_DyY3CdSnAu4
_symmetry_space_group_name_H-M   'P 1'
_cell_length_a   8.02551448
_cell_length_b   8.02551448
_cell_length_c   7.38870700
_cell_angle_alpha   90.00000000
_cell_angle_beta   90.00000000
_cell_angle_gamma   89.86612563
_symmetry_Int_Tables_number   1
_chemical_formula_structural   DyY3CdSnAu4
_chemical_formula_sum   'Dy2 Y6 Cd2 Sn2 Au8'
_cell_volume   475.89706279
_cell_formula_units_Z   2
loop_
 _symmetry_equiv_pos_site_id
 _symmetry_equiv_pos_as_xyz
  1  'x, y, z'
loop_
 _atom_site_type_symbol
 _atom_site_label
 _atom_site_symmetry_multiplicity
 _atom_site_fract_x
 _atom_site_fract_y
 _atom_site_fract_z
 _atom_site_occupancy
  Dy  Dy0  1  0.182487  0.817513  0.000000  1
  Dy  Dy1  1  0.817513  0.182487  0.000000  1
  Y  Y2  1  0.840818  0.159182  0.500000  1
  Y  Y3  1  0.159182  0.840818  0.500000  1
  Y  Y4  1  0.340739  0.340739  0.000000  1
  Y  Y5  1  0.659261  0.659261  0.000000  1
  Y  Y6  1  0.682816  0.682816  0.500000  1
  Y  Y7  1  0.317184  0.317184  0.500000  1
  Cd  Cd8  1  0.500000  0.000000  0.249864  1
  Cd  Cd9  1  0.000000  0.500000  0.750136  1
  Sn  Sn10  1  0.500000  0.000000  0.750217  1
  Sn  Sn11  1  0.000000  0.500000  0.249783  1
  Au  Au12  1  0.624725  0.368642  0.273341  1
  Au  Au13  1  0.375275  0.631358  0.273341  1
  Au  Au14  1  0.124298  0.131052  0.774204  1
  Au  Au15  1  0.875702  0.868948  0.774204  1
  Au  Au16  1  0.368642  0.624725  0.726659  1
  Au  Au17  1  0.631358  0.375275  0.726659  1
  Au  Au18  1  0.868948  0.875702  0.225796  1
  Au  Au19  1  0.131052  0.124298  0.225796  1
