# generated using pymatgen
data_Ho4Tm4Os3WC8
_symmetry_space_group_name_H-M   'P 1'
_cell_length_a   5.06225900
_cell_length_b   6.51783884
_cell_length_c   9.74281684
_cell_angle_alpha   89.67045289
_cell_angle_beta   90.00000000
_cell_angle_gamma   90.00000000
_symmetry_Int_Tables_number   1
_chemical_formula_structural   Ho4Tm4Os3WC8
_chemical_formula_sum   'Ho4 Tm4 Os3 W1 C8'
_cell_volume   321.45881067
_cell_formula_units_Z   1
loop_
 _symmetry_equiv_pos_site_id
 _symmetry_equiv_pos_as_xyz
  1  'x, y, z'
loop_
 _atom_site_type_symbol
 _atom_site_label
 _atom_site_symmetry_multiplicity
 _atom_site_fract_x
 _atom_site_fract_y
 _atom_site_fract_z
 _atom_site_occupancy
  Ho  Ho0  1  0.250000  0.532111  0.213495  1
  Ho  Ho1  1  0.750000  0.466109  0.780962  1
  Ho  Ho2  1  0.750000  0.969757  0.715794  1
  Ho  Ho3  1  0.250000  0.030352  0.285790  1
  Tm  Tm4  1  0.250000  0.676891  0.555250  1
  Tm  Tm5  1  0.750000  0.324394  0.443702  1
  Tm  Tm6  1  0.750000  0.825766  0.056354  1
  Tm  Tm7  1  0.250000  0.178636  0.943138  1
  Os  Os8  1  0.750000  0.279510  0.134223  1
  Os  Os9  1  0.750000  0.778109  0.364965  1
  Os  Os10  1  0.250000  0.223209  0.631299  1
  W  W11  1  0.250000  0.720556  0.868871  1
  C  C12  1  0.250000  0.451862  0.760008  1
  C  C13  1  0.750000  0.544061  0.241803  1
  C  C14  1  0.750000  0.045239  0.259402  1
  C  C15  1  0.250000  0.956612  0.739606  1
  C  C16  1  0.250000  0.827796  0.058701  1
  C  C17  1  0.750000  0.171483  0.948806  1
  C  C18  1  0.750000  0.670448  0.552028  1
  C  C19  1  0.250000  0.327101  0.445802  1
