# generated using pymatgen
data_Pr2B10Os
_symmetry_space_group_name_H-M   'P 1'
_cell_length_a   4.24254300
_cell_length_b   5.78497900
_cell_length_c   11.51547000
_cell_angle_alpha   90.00000000
_cell_angle_beta   90.00000000
_cell_angle_gamma   90.00000000
_symmetry_Int_Tables_number   1
_chemical_formula_structural   Pr2B10Os
_chemical_formula_sum   'Pr4 B20 Os2'
_cell_volume   282.62443541
_cell_formula_units_Z   2
loop_
 _symmetry_equiv_pos_site_id
 _symmetry_equiv_pos_as_xyz
  1  'x, y, z'
loop_
 _atom_site_type_symbol
 _atom_site_label
 _atom_site_symmetry_multiplicity
 _atom_site_fract_x
 _atom_site_fract_y
 _atom_site_fract_z
 _atom_site_occupancy
  Pr  Pr0  1  0.500000  0.219448  0.368646  1
  Pr  Pr1  1  0.500000  0.780552  0.631354  1
  Pr  Pr2  1  0.500000  0.280552  0.868646  1
  Pr  Pr3  1  0.500000  0.719448  0.131354  1
  B  B4  1  0.000000  0.379471  0.042148  1
  B  B5  1  0.000000  0.620529  0.957852  1
  B  B6  1  0.000000  0.120529  0.542148  1
  B  B7  1  0.000000  0.879471  0.457852  1
  B  B8  1  0.000000  0.363648  0.197263  1
  B  B9  1  0.000000  0.636352  0.802737  1
  B  B10  1  0.000000  0.136352  0.697263  1
  B  B11  1  0.000000  0.863648  0.302737  1
  B  B12  1  0.000000  0.056743  0.192118  1
  B  B13  1  0.000000  0.943257  0.807882  1
  B  B14  1  0.000000  0.443257  0.692118  1
  B  B15  1  0.000000  0.556743  0.307882  1
  B  B16  1  0.299130  0.220645  0.118305  1
  B  B17  1  0.700870  0.779355  0.881695  1
  B  B18  1  0.299130  0.779355  0.881695  1
  B  B19  1  0.700870  0.279355  0.618305  1
  B  B20  1  0.700870  0.220645  0.118305  1
  B  B21  1  0.299130  0.720645  0.381695  1
  B  B22  1  0.700870  0.720645  0.381695  1
  B  B23  1  0.299130  0.279355  0.618305  1
  Os  Os24  1  0.000000  0.000000  0.000000  1
  Os  Os25  1  0.000000  0.500000  0.500000  1
