# generated using pymatgen
data_Mg11Al3(GaPd4)2
_symmetry_space_group_name_H-M   'P 1'
_cell_length_a   8.42955338
_cell_length_b   8.43821827
_cell_length_c   8.42955556
_cell_angle_alpha   59.90401308
_cell_angle_beta   59.35599697
_cell_angle_gamma   59.90406512
_symmetry_Int_Tables_number   1
_chemical_formula_structural   Mg11Al3(GaPd4)2
_chemical_formula_sum   'Mg11 Al3 Ga2 Pd8'
_cell_volume   421.27067101
_cell_formula_units_Z   1
loop_
 _symmetry_equiv_pos_site_id
 _symmetry_equiv_pos_as_xyz
  1  'x, y, z'
loop_
 _atom_site_type_symbol
 _atom_site_label
 _atom_site_symmetry_multiplicity
 _atom_site_fract_x
 _atom_site_fract_y
 _atom_site_fract_z
 _atom_site_occupancy
  Mg  Mg0  1  0.192898  0.194504  0.807538  1
  Mg  Mg1  1  0.193107  0.805099  0.807592  1
  Mg  Mg2  1  0.055091  0.444884  0.055091  1
  Mg  Mg3  1  0.807538  0.194504  0.192899  1
  Mg  Mg4  1  0.056575  0.447591  0.441565  1
  Mg  Mg5  1  0.444402  0.055452  0.444401  1
  Mg  Mg6  1  0.441565  0.447591  0.056575  1
  Mg  Mg7  1  0.807592  0.805099  0.193107  1
  Mg  Mg8  1  0.441589  0.054048  0.056583  1
  Mg  Mg9  1  0.804202  0.195878  0.804201  1
  Mg  Mg10  1  0.056584  0.054048  0.441589  1
  Al  Al11  1  0.126563  0.624591  0.624371  1
  Al  Al12  1  0.624371  0.624591  0.126563  1
  Al  Al13  1  0.623348  0.123231  0.623348  1
  Ga  Ga14  1  0.200256  0.799724  0.200257  1
  Ga  Ga15  1  0.622946  0.630788  0.622946  1
  Pd  Pd16  1  0.838913  0.482894  0.838913  1
  Pd  Pd17  1  0.837907  0.840572  0.837907  1
  Pd  Pd18  1  0.475886  0.839023  0.848498  1
  Pd  Pd19  1  0.410453  0.767875  0.410453  1
  Pd  Pd20  1  0.848497  0.839023  0.475887  1
  Pd  Pd21  1  0.768368  0.409716  0.409757  1
  Pd  Pd22  1  0.411593  0.409557  0.411593  1
  Pd  Pd23  1  0.409757  0.409715  0.768368  1
