# generated using pymatgen
data_TbZr2Fe8Os
_symmetry_space_group_name_H-M   'P 1'
_cell_length_a   8.62926920
_cell_length_b   8.62926907
_cell_length_c   8.62926979
_cell_angle_alpha   33.75220709
_cell_angle_beta   33.75220808
_cell_angle_gamma   33.75220636
_symmetry_Int_Tables_number   1
_chemical_formula_structural   TbZr2Fe8Os
_chemical_formula_sum   'Tb1 Zr2 Fe8 Os1'
_cell_volume   176.73907697
_cell_formula_units_Z   1
loop_
 _symmetry_equiv_pos_site_id
 _symmetry_equiv_pos_as_xyz
  1  'x, y, z'
loop_
 _atom_site_type_symbol
 _atom_site_label
 _atom_site_symmetry_multiplicity
 _atom_site_fract_x
 _atom_site_fract_y
 _atom_site_fract_z
 _atom_site_occupancy
  Tb  Tb0  1  0.000000  0.000000  0.000000  1
  Zr  Zr1  1  0.142595  0.142595  0.142595  1
  Zr  Zr2  1  0.857405  0.857405  0.857405  1
  Fe  Fe3  1  0.333282  0.333282  0.333282  1
  Fe  Fe4  1  0.666718  0.666718  0.666718  1
  Fe  Fe5  1  0.077873  0.585058  0.585058  1
  Fe  Fe6  1  0.585058  0.585058  0.077873  1
  Fe  Fe7  1  0.585058  0.077873  0.585058  1
  Fe  Fe8  1  0.414942  0.922127  0.414942  1
  Fe  Fe9  1  0.922127  0.414942  0.414942  1
  Fe  Fe10  1  0.414942  0.414942  0.922127  1
  Os  Os11  1  0.500000  0.500000  0.500000  1
