# generated using pymatgen
data_Zr4Si2B4Ir3Ru7
_symmetry_space_group_name_H-M   'P 1'
_cell_length_a   9.37024993
_cell_length_b   9.39175493
_cell_length_c   3.04340600
_cell_angle_alpha   90.00000000
_cell_angle_beta   90.00000000
_cell_angle_gamma   90.05108439
_symmetry_Int_Tables_number   1
_chemical_formula_structural   Zr4Si2B4Ir3Ru7
_chemical_formula_sum   'Zr4 Si2 B4 Ir3 Ru7'
_cell_volume   267.82902876
_cell_formula_units_Z   1
loop_
 _symmetry_equiv_pos_site_id
 _symmetry_equiv_pos_as_xyz
  1  'x, y, z'
loop_
 _atom_site_type_symbol
 _atom_site_label
 _atom_site_symmetry_multiplicity
 _atom_site_fract_x
 _atom_site_fract_y
 _atom_site_fract_z
 _atom_site_occupancy
  Zr  Zr0  1  0.674016  0.181013  0.000000  1
  Zr  Zr1  1  0.330001  0.819218  0.000000  1
  Zr  Zr2  1  0.176435  0.327749  0.000000  1
  Zr  Zr3  1  0.819016  0.668992  0.000000  1
  Si  Si4  1  0.998574  0.005482  0.000000  1
  Si  Si5  1  0.500644  0.499589  0.000000  1
  B  B6  1  0.125790  0.619547  0.000000  1
  B  B7  1  0.874783  0.376768  0.000000  1
  B  B8  1  0.619808  0.873419  0.000000  1
  B  B9  1  0.380916  0.126923  0.000000  1
  Ir  Ir10  1  0.212970  0.066118  0.500000  1
  Ir  Ir11  1  0.788401  0.931191  0.500000  1
  Ir  Ir12  1  0.067057  0.789800  0.500000  1
  Ru  Ru13  1  0.711792  0.430630  0.500000  1
  Ru  Ru14  1  0.932870  0.211637  0.500000  1
  Ru  Ru15  1  0.287474  0.570139  0.500000  1
  Ru  Ru16  1  0.569738  0.712589  0.500000  1
  Ru  Ru17  1  0.429171  0.287667  0.500000  1
  Ru  Ru18  1  0.501070  0.000511  0.500000  1
  Ru  Ru19  1  0.999473  0.501017  0.500000  1
