# generated using pymatgen
data_Lu5Hg2BiO
_symmetry_space_group_name_H-M   'P 1'
_cell_length_a   8.77621142
_cell_length_b   8.77621061
_cell_length_c   8.77621000
_cell_angle_alpha   125.55159236
_cell_angle_beta   125.55158057
_cell_angle_gamma   80.62639321
_symmetry_Int_Tables_number   1
_chemical_formula_structural   Lu5Hg2BiO
_chemical_formula_sum   'Lu10 Hg4 Bi2 O2'
_cell_volume   431.48345690
_cell_formula_units_Z   2
loop_
 _symmetry_equiv_pos_site_id
 _symmetry_equiv_pos_as_xyz
  1  'x, y, z'
loop_
 _atom_site_type_symbol
 _atom_site_label
 _atom_site_symmetry_multiplicity
 _atom_site_fract_x
 _atom_site_fract_y
 _atom_site_fract_z
 _atom_site_occupancy
  Lu  Lu0  1  0.499303  0.297832  0.500000  1
  Lu  Lu1  1  0.797832  0.999303  0.500000  1
  Lu  Lu2  1  0.999303  0.499303  0.201470  1
  Lu  Lu3  1  0.297832  0.797832  0.798530  1
  Lu  Lu4  1  0.503225  0.704655  0.500000  1
  Lu  Lu5  1  0.204655  0.003225  0.500000  1
  Lu  Lu6  1  0.003225  0.503225  0.798570  1
  Lu  Lu7  1  0.704655  0.204655  0.201430  1
  Lu  Lu8  1  0.501328  0.501328  0.000000  1
  Lu  Lu9  1  0.001328  0.001328  0.000000  1
  Hg  Hg10  1  0.144047  0.358438  0.500000  1
  Hg  Hg11  1  0.858438  0.644047  0.500000  1
  Hg  Hg12  1  0.644047  0.144047  0.785608  1
  Hg  Hg13  1  0.358438  0.858438  0.214392  1
  Bi  Bi14  1  0.751323  0.751323  0.000000  1
  Bi  Bi15  1  0.251323  0.251323  0.000000  1
  O  O16  1  0.751268  0.251268  0.500000  1
  O  O17  1  0.251268  0.751268  0.500000  1
