# generated using pymatgen
data_Ca4DyHo3Hg8
_symmetry_space_group_name_H-M   'P 1'
_cell_length_a   7.52566800
_cell_length_b   7.50887600
_cell_length_c   7.42940600
_cell_angle_alpha   90.00000000
_cell_angle_beta   90.00204800
_cell_angle_gamma   90.00000000
_symmetry_Int_Tables_number   1
_chemical_formula_structural   Ca4DyHo3Hg8
_chemical_formula_sum   'Ca4 Dy1 Ho3 Hg8'
_cell_volume   419.83059064
_cell_formula_units_Z   1
loop_
 _symmetry_equiv_pos_site_id
 _symmetry_equiv_pos_as_xyz
  1  'x, y, z'
loop_
 _atom_site_type_symbol
 _atom_site_label
 _atom_site_symmetry_multiplicity
 _atom_site_fract_x
 _atom_site_fract_y
 _atom_site_fract_z
 _atom_site_occupancy
  Ca  Ca0  1  0.749511  0.250000  0.000106  1
  Ca  Ca1  1  0.249507  0.750000  0.499884  1
  Ca  Ca2  1  0.750467  0.250000  0.500111  1
  Ca  Ca3  1  0.250490  0.750000  0.999883  1
  Dy  Dy4  1  0.249376  0.250000  0.500010  1
  Ho  Ho5  1  0.250584  0.250000  0.000000  1
  Ho  Ho6  1  0.749451  0.750000  0.000002  1
  Ho  Ho7  1  0.750597  0.750000  0.499987  1
  Hg  Hg8  1  0.999799  0.500510  0.248136  1
  Hg  Hg9  1  0.999799  0.999492  0.248136  1
  Hg  Hg10  1  0.500582  0.999701  0.250926  1
  Hg  Hg11  1  0.500582  0.500299  0.250926  1
  Hg  Hg12  1  0.500213  0.500531  0.749090  1
  Hg  Hg13  1  0.500213  0.999471  0.749090  1
  Hg  Hg14  1  0.999414  0.999704  0.751857  1
  Hg  Hg15  1  0.999414  0.500296  0.751857  1
