# generated using pymatgen
data_Tm2Sc4Pb5
_symmetry_space_group_name_H-M   'P 1'
_cell_length_a   11.25704744
_cell_length_b   11.25704799
_cell_length_c   11.25704650
_cell_angle_alpha   132.01252403
_cell_angle_beta   59.30131166
_cell_angle_gamma   147.27025233
_symmetry_Int_Tables_number   1
_chemical_formula_structural   Tm2Sc4Pb5
_chemical_formula_sum   'Tm4 Sc8 Pb10'
_cell_volume   568.14321974
_cell_formula_units_Z   2
loop_
 _symmetry_equiv_pos_site_id
 _symmetry_equiv_pos_as_xyz
  1  'x, y, z'
loop_
 _atom_site_type_symbol
 _atom_site_label
 _atom_site_symmetry_multiplicity
 _atom_site_fract_x
 _atom_site_fract_y
 _atom_site_fract_z
 _atom_site_occupancy
  Tm  Tm0  1  0.141759  0.112100  0.253859  1
  Tm  Tm1  1  0.858240  0.887902  0.746142  1
  Tm  Tm2  1  0.358240  0.612100  0.970339  1
  Tm  Tm3  1  0.641760  0.387901  0.029659  1
  Sc  Sc4  1  0.557056  0.250000  0.307055  1
  Sc  Sc5  1  0.942945  0.250000  0.692945  1
  Sc  Sc6  1  0.442945  0.750000  0.692945  1
  Sc  Sc7  1  0.057055  0.750000  0.307055  1
  Sc  Sc8  1  0.438143  0.238285  0.676429  1
  Sc  Sc9  1  0.561858  0.761715  0.323571  1
  Sc  Sc10  1  0.061857  0.738286  0.800144  1
  Sc  Sc11  1  0.938143  0.261716  0.199857  1
  Pb  Pb12  1  0.291201  0.299935  0.591137  1
  Pb  Pb13  1  0.708799  0.700065  0.408862  1
  Pb  Pb14  1  0.208800  0.799936  0.008734  1
  Pb  Pb15  1  0.791202  0.200064  0.991266  1
  Pb  Pb16  1  0.250000  0.250000  0.000000  1
  Pb  Pb17  1  0.749999  0.749999  0.000000  1
  Pb  Pb18  1  0.071760  0.404660  0.476419  1
  Pb  Pb19  1  0.928241  0.595340  0.523581  1
  Pb  Pb20  1  0.428241  0.904661  0.332900  1
  Pb  Pb21  1  0.571759  0.095339  0.667100  1
