# generated using pymatgen
data_Er6PaFe22
_symmetry_space_group_name_H-M   'P 1'
_cell_length_a   8.45540228
_cell_length_b   8.45774022
_cell_length_c   8.45529000
_cell_angle_alpha   60.00860509
_cell_angle_beta   59.99815451
_cell_angle_gamma   60.00931201
_symmetry_Int_Tables_number   1
_chemical_formula_structural   Er6PaFe22
_chemical_formula_sum   'Er6 Pa1 Fe22'
_cell_volume   427.61690029
_cell_formula_units_Z   1
loop_
 _symmetry_equiv_pos_site_id
 _symmetry_equiv_pos_as_xyz
  1  'x, y, z'
loop_
 _atom_site_type_symbol
 _atom_site_label
 _atom_site_symmetry_multiplicity
 _atom_site_fract_x
 _atom_site_fract_y
 _atom_site_fract_z
 _atom_site_occupancy
  Er  Er0  1  0.705641  0.705793  0.294298  1
  Er  Er1  1  0.294242  0.705821  0.294303  1
  Er  Er2  1  0.705731  0.294171  0.294394  1
  Er  Er3  1  0.294359  0.294207  0.705702  1
  Er  Er4  1  0.705758  0.294179  0.705697  1
  Er  Er5  1  0.294269  0.705829  0.705606  1
  Pa  Pa6  1  0.000000  0.000000  0.000000  1
  Fe  Fe7  1  0.000000  0.000000  0.500000  1
  Fe  Fe8  1  0.500000  0.000000  0.500000  1
  Fe  Fe9  1  0.000000  0.500000  0.500000  1
  Fe  Fe10  1  0.500000  0.500000  0.000000  1
  Fe  Fe11  1  0.000000  0.500000  0.000000  1
  Fe  Fe12  1  0.500000  0.000000  0.000000  1
  Fe  Fe13  1  0.875423  0.875469  0.373739  1
  Fe  Fe14  1  0.875435  0.373621  0.875450  1
  Fe  Fe15  1  0.373656  0.875489  0.875444  1
  Fe  Fe16  1  0.875429  0.875530  0.875386  1
  Fe  Fe17  1  0.124577  0.124531  0.626261  1
  Fe  Fe18  1  0.124565  0.626379  0.124550  1
  Fe  Fe19  1  0.626344  0.124511  0.124556  1
  Fe  Fe20  1  0.124571  0.124470  0.124614  1
  Fe  Fe21  1  0.674181  0.674316  0.977256  1
  Fe  Fe22  1  0.674260  0.977245  0.674291  1
  Fe  Fe23  1  0.977193  0.674351  0.674215  1
  Fe  Fe24  1  0.674253  0.674265  0.674286  1
  Fe  Fe25  1  0.325819  0.325684  0.022744  1
  Fe  Fe26  1  0.325740  0.022755  0.325709  1
  Fe  Fe27  1  0.022807  0.325649  0.325785  1
  Fe  Fe28  1  0.325747  0.325735  0.325714  1
