# generated using pymatgen
data_HoEr15In6CoPt
_symmetry_space_group_name_H-M   'P 1'
_cell_length_a   10.37136100
_cell_length_b   10.36695157
_cell_length_c   6.93995003
_cell_angle_alpha   90.00875782
_cell_angle_beta   90.00000000
_cell_angle_gamma   120.01406139
_symmetry_Int_Tables_number   1
_chemical_formula_structural   HoEr15In6CoPt
_chemical_formula_sum   'Ho1 Er15 In6 Co1 Pt1'
_cell_volume   646.11858853
_cell_formula_units_Z   1
loop_
 _symmetry_equiv_pos_site_id
 _symmetry_equiv_pos_as_xyz
  1  'x, y, z'
loop_
 _atom_site_type_symbol
 _atom_site_label
 _atom_site_symmetry_multiplicity
 _atom_site_fract_x
 _atom_site_fract_y
 _atom_site_fract_z
 _atom_site_occupancy
  Ho  Ho0  1  0.530894  0.061788  0.795125  1
  Er  Er1  1  0.937967  0.468958  0.795152  1
  Er  Er2  1  0.530990  0.468958  0.795152  1
  Er  Er3  1  0.464471  0.928944  0.292285  1
  Er  Er4  1  0.070947  0.535497  0.292254  1
  Er  Er5  1  0.464549  0.535497  0.292254  1
  Er  Er6  1  0.824575  0.649150  0.499506  1
  Er  Er7  1  0.350868  0.175518  0.499448  1
  Er  Er8  1  0.824650  0.175518  0.499448  1
  Er  Er9  1  0.178219  0.356437  0.000576  1
  Er  Er10  1  0.643620  0.821700  0.000731  1
  Er  Er11  1  0.178080  0.821700  0.000731  1
  Er  Er12  1  0.666711  0.333420  0.171115  1
  Er  Er13  1  0.333274  0.666550  0.682865  1
  Er  Er14  1  0.999993  0.999987  0.778350  1
  Er  Er15  1  0.000025  0.000050  0.277153  1
  In  In16  1  0.837631  0.675262  0.037486  1
  In  In17  1  0.324604  0.162396  0.037523  1
  In  In18  1  0.837791  0.162396  0.037523  1
  In  In19  1  0.162996  0.325993  0.538024  1
  In  In20  1  0.674010  0.836976  0.537978  1
  In  In21  1  0.162966  0.836976  0.537978  1
  Co  Co22  1  0.333359  0.666719  0.068320  1
  Pt  Pt23  1  0.666806  0.333612  0.568924  1
