# generated using pymatgen
data_Er6Tm10MgIn3Rh4
_symmetry_space_group_name_H-M   'P 1'
_cell_length_a   9.55157427
_cell_length_b   9.54977305
_cell_length_c   9.55239529
_cell_angle_alpha   60.00374823
_cell_angle_beta   59.98451233
_cell_angle_gamma   59.95709797
_symmetry_Int_Tables_number   1
_chemical_formula_structural   Er6Tm10MgIn3Rh4
_chemical_formula_sum   'Er6 Tm10 Mg1 In3 Rh4'
_cell_volume   615.86532074
_cell_formula_units_Z   1
loop_
 _symmetry_equiv_pos_site_id
 _symmetry_equiv_pos_as_xyz
  1  'x, y, z'
loop_
 _atom_site_type_symbol
 _atom_site_label
 _atom_site_symmetry_multiplicity
 _atom_site_fract_x
 _atom_site_fract_y
 _atom_site_fract_z
 _atom_site_occupancy
  Er  Er0  1  0.061473  0.061389  0.438282  1
  Er  Er1  1  0.435760  0.064263  0.435743  1
  Er  Er2  1  0.061421  0.438281  0.061386  1
  Er  Er3  1  0.048167  0.649774  0.649837  1
  Er  Er4  1  0.435811  0.435789  0.064185  1
  Er  Er5  1  0.649764  0.048140  0.649934  1
  Tm  Tm6  1  0.187441  0.812441  0.187276  1
  Tm  Tm7  1  0.187301  0.187298  0.812486  1
  Tm  Tm8  1  0.809889  0.809864  0.190404  1
  Tm  Tm9  1  0.438486  0.061180  0.061265  1
  Tm  Tm10  1  0.812531  0.187400  0.187229  1
  Tm  Tm11  1  0.063952  0.435987  0.436021  1
  Tm  Tm12  1  0.810003  0.190369  0.809975  1
  Tm  Tm13  1  0.190352  0.810040  0.810004  1
  Tm  Tm14  1  0.649833  0.649982  0.047859  1
  Tm  Tm15  1  0.651657  0.651606  0.651674  1
  Mg  Mg16  1  0.422617  0.422739  0.422472  1
  In  In17  1  0.748398  0.417691  0.417462  1
  In  In18  1  0.417698  0.748428  0.417329  1
  In  In19  1  0.417559  0.417438  0.748444  1
  Rh  Rh20  1  0.858615  0.858329  0.425632  1
  Rh  Rh21  1  0.857019  0.857240  0.857705  1
  Rh  Rh22  1  0.425975  0.858324  0.858823  1
  Rh  Rh23  1  0.858281  0.426009  0.858576  1
