# generated using pymatgen
data_ErThAl3Cu7
_symmetry_space_group_name_H-M   'P 1'
_cell_length_a   4.18811200
_cell_length_b   5.12937931
_cell_length_c   8.95737700
_cell_angle_alpha   89.25250286
_cell_angle_beta   90.00000000
_cell_angle_gamma   90.00000000
_symmetry_Int_Tables_number   1
_chemical_formula_structural   ErThAl3Cu7
_chemical_formula_sum   'Er1 Th1 Al3 Cu7'
_cell_volume   192.40971453
_cell_formula_units_Z   1
loop_
 _symmetry_equiv_pos_site_id
 _symmetry_equiv_pos_as_xyz
  1  'x, y, z'
loop_
 _atom_site_type_symbol
 _atom_site_label
 _atom_site_symmetry_multiplicity
 _atom_site_fract_x
 _atom_site_fract_y
 _atom_site_fract_z
 _atom_site_occupancy
  Er  Er0  1  0.000000  0.247959  0.749593  1
  Th  Th1  1  0.000000  0.752389  0.252752  1
  Al  Al2  1  0.500000  0.734617  0.743792  1
  Al  Al3  1  0.500000  0.258244  0.254314  1
  Al  Al4  1  0.500000  0.001451  0.998033  1
  Cu  Cu5  1  0.000000  0.255814  0.075103  1
  Cu  Cu6  1  0.000000  0.751146  0.588961  1
  Cu  Cu7  1  0.000000  0.747865  0.908962  1
  Cu  Cu8  1  0.000000  0.249894  0.426713  1
  Cu  Cu9  1  0.500000  0.497977  0.501011  1
  Cu  Cu10  1  0.500000  0.502076  0.999122  1
  Cu  Cu11  1  0.500000  0.000569  0.501644  1
