# generated using pymatgen
data_Y5P12PdRu17Pt
_symmetry_space_group_name_H-M   'P 1'
_cell_length_a   12.64610831
_cell_length_b   12.53729013
_cell_length_c   3.98272800
_cell_angle_alpha   90.00000000
_cell_angle_beta   90.00000000
_cell_angle_gamma   120.16419651
_symmetry_Int_Tables_number   1
_chemical_formula_structural   Y5P12PdRu17Pt
_chemical_formula_sum   'Y5 P12 Pd1 Ru17 Pt1'
_cell_volume   545.94753388
_cell_formula_units_Z   1
loop_
 _symmetry_equiv_pos_site_id
 _symmetry_equiv_pos_as_xyz
  1  'x, y, z'
loop_
 _atom_site_type_symbol
 _atom_site_label
 _atom_site_symmetry_multiplicity
 _atom_site_fract_x
 _atom_site_fract_y
 _atom_site_fract_z
 _atom_site_occupancy
  Y  Y0  1  0.001312  0.183016  0.500000  1
  Y  Y1  1  0.818776  0.817395  0.500000  1
  Y  Y2  1  0.183847  0.000399  0.500000  1
  Y  Y3  1  0.664296  0.327383  0.000000  1
  Y  Y4  1  0.336528  0.672821  0.000000  1
  P  P5  1  0.997685  0.811157  0.000000  1
  P  P6  1  0.185414  0.187379  0.000000  1
  P  P7  1  0.817948  0.999706  0.000000  1
  P  P8  1  0.692738  0.169620  0.500000  1
  P  P9  1  0.817682  0.516650  0.500000  1
  P  P10  1  0.477239  0.299313  0.500000  1
  P  P11  1  0.177920  0.700457  0.500000  1
  P  P12  1  0.523384  0.830530  0.500000  1
  P  P13  1  0.300672  0.483671  0.500000  1
  P  P14  1  0.000304  0.365584  0.000000  1
  P  P15  1  0.634502  0.634168  0.000000  1
  P  P16  1  0.373641  0.999865  0.000000  1
  Pd  Pd17  1  0.998127  0.551316  0.000000  1
  Ru  Ru18  1  0.555173  0.999750  0.000000  1
  Ru  Ru19  1  0.997496  0.710795  0.500000  1
  Ru  Ru20  1  0.288081  0.290570  0.500000  1
  Ru  Ru21  1  0.718433  0.999898  0.500000  1
  Ru  Ru22  1  0.808427  0.184401  0.000000  1
  Ru  Ru23  1  0.811996  0.617833  0.000000  1
  Ru  Ru24  1  0.376094  0.192594  0.000000  1
  Ru  Ru25  1  0.184103  0.807803  0.000000  1
  Ru  Ru26  1  0.624108  0.815172  0.000000  1
  Ru  Ru27  1  0.195254  0.381964  0.000000  1
  Ru  Ru28  1  0.871432  0.364965  0.500000  1
  Ru  Ru29  1  0.629073  0.506137  0.500000  1
  Ru  Ru30  1  0.491595  0.123909  0.500000  1
  Ru  Ru31  1  0.367985  0.876283  0.500000  1
  Ru  Ru32  1  0.505474  0.634939  0.500000  1
  Ru  Ru33  1  0.122288  0.493003  0.500000  1
  Ru  Ru34  1  0.002655  0.999609  0.000000  1
  Pt  Pt35  1  0.448319  0.449947  0.000000  1
