# generated using pymatgen
data_GdTh2Al3CoNi2
_symmetry_space_group_name_H-M   'P 1'
_cell_length_a   6.96094664
_cell_length_b   7.08207355
_cell_length_c   3.98992400
_cell_angle_alpha   90.00000000
_cell_angle_beta   90.00000000
_cell_angle_gamma   119.53442535
_symmetry_Int_Tables_number   1
_chemical_formula_structural   GdTh2Al3CoNi2
_chemical_formula_sum   'Gd1 Th2 Al3 Co1 Ni2'
_cell_volume   171.13640332
_cell_formula_units_Z   1
loop_
 _symmetry_equiv_pos_site_id
 _symmetry_equiv_pos_as_xyz
  1  'x, y, z'
loop_
 _atom_site_type_symbol
 _atom_site_label
 _atom_site_symmetry_multiplicity
 _atom_site_fract_x
 _atom_site_fract_y
 _atom_site_fract_z
 _atom_site_occupancy
  Gd  Gd0  1  0.582845  0.002720  0.000000  1
  Th  Th1  1  0.995775  0.574700  0.000000  1
  Th  Th2  1  0.425866  0.419003  0.000000  1
  Al  Al3  1  0.237263  0.001462  0.500000  1
  Al  Al4  1  0.991600  0.223184  0.500000  1
  Al  Al5  1  0.770003  0.774888  0.500000  1
  Co  Co6  1  0.669774  0.351126  0.500000  1
  Ni  Ni7  1  0.320553  0.652476  0.500000  1
  Ni  Ni8  1  0.006321  0.000440  0.000000  1
