# generated using pymatgen
data_Nd7Ho(Si4Mo3)4
_symmetry_space_group_name_H-M   'P 1'
_cell_length_a   6.91685245
_cell_length_b   7.07248171
_cell_length_c   13.07122708
_cell_angle_alpha   89.88099540
_cell_angle_beta   89.97911149
_cell_angle_gamma   89.87996313
_symmetry_Int_Tables_number   1
_chemical_formula_structural   Nd7Ho(Si4Mo3)4
_chemical_formula_sum   'Nd7 Ho1 Si16 Mo12'
_cell_volume   639.43261735
_cell_formula_units_Z   1
loop_
 _symmetry_equiv_pos_site_id
 _symmetry_equiv_pos_as_xyz
  1  'x, y, z'
loop_
 _atom_site_type_symbol
 _atom_site_label
 _atom_site_symmetry_multiplicity
 _atom_site_fract_x
 _atom_site_fract_y
 _atom_site_fract_z
 _atom_site_occupancy
  Nd  Nd0  1  0.497244  0.335592  0.094058  1
  Nd  Nd1  1  0.997498  0.164166  0.406058  1
  Nd  Nd2  1  0.502913  0.664209  0.594184  1
  Nd  Nd3  1  0.001786  0.834875  0.906626  1
  Nd  Nd4  1  0.502367  0.664907  0.906775  1
  Nd  Nd5  1  0.002411  0.835746  0.594195  1
  Nd  Nd6  1  0.497033  0.335487  0.404782  1
  Ho  Ho7  1  0.996389  0.166414  0.095371  1
  Si  Si8  1  0.653923  0.047467  0.549704  1
  Si  Si9  1  0.153854  0.451277  0.951919  1
  Si  Si10  1  0.341210  0.955950  0.049959  1
  Si  Si11  1  0.845531  0.546809  0.450130  1
  Si  Si12  1  0.346343  0.952455  0.449568  1
  Si  Si13  1  0.846962  0.542305  0.049880  1
  Si  Si14  1  0.655992  0.046981  0.952064  1
  Si  Si15  1  0.154435  0.453563  0.549625  1
  Si  Si16  1  0.536431  0.357889  0.750738  1
  Si  Si17  1  0.036912  0.141270  0.750323  1
  Si  Si18  1  0.464033  0.643129  0.249252  1
  Si  Si19  1  0.964208  0.861636  0.248250  1
  Si  Si20  1  0.806922  0.617773  0.750656  1
  Si  Si21  1  0.306508  0.880402  0.750429  1
  Si  Si22  1  0.191099  0.378187  0.248361  1
  Si  Si23  1  0.696432  0.120525  0.248387  1
  Mo  Mo24  1  0.832289  0.334239  0.627251  1
  Mo  Mo25  1  0.330457  0.164287  0.874249  1
  Mo  Mo26  1  0.167628  0.665634  0.126448  1
  Mo  Mo27  1  0.669801  0.835739  0.372332  1
  Mo  Mo28  1  0.167312  0.665492  0.371949  1
  Mo  Mo29  1  0.670224  0.836876  0.125667  1
  Mo  Mo30  1  0.833091  0.332820  0.874511  1
  Mo  Mo31  1  0.331454  0.164754  0.626901  1
  Mo  Mo32  1  0.664155  0.005096  0.750692  1
  Mo  Mo33  1  0.164465  0.494447  0.750525  1
  Mo  Mo34  1  0.334692  0.997118  0.248895  1
  Mo  Mo35  1  0.835996  0.504485  0.249291  1
