# generated using pymatgen
data_LaPa(Be12Ni)2
_symmetry_space_group_name_H-M   'P 1'
_cell_length_a   7.30644687
_cell_length_b   7.36510133
_cell_length_c   7.28582520
_cell_angle_alpha   59.82541736
_cell_angle_beta   59.89658275
_cell_angle_gamma   59.54843102
_symmetry_Int_Tables_number   1
_chemical_formula_structural   LaPa(Be12Ni)2
_chemical_formula_sum   'La1 Pa1 Be24 Ni2'
_cell_volume   275.69878070
_cell_formula_units_Z   1
loop_
 _symmetry_equiv_pos_site_id
 _symmetry_equiv_pos_as_xyz
  1  'x, y, z'
loop_
 _atom_site_type_symbol
 _atom_site_label
 _atom_site_symmetry_multiplicity
 _atom_site_fract_x
 _atom_site_fract_y
 _atom_site_fract_z
 _atom_site_occupancy
  La  La0  1  0.248799  0.251201  0.248799  1
  Pa  Pa1  1  0.753329  0.746671  0.753329  1
  Be  Be2  1  0.499626  0.500374  0.499626  1
  Be  Be3  1  0.000077  0.999923  0.000077  1
  Be  Be4  1  0.570518  0.785004  0.435782  1
  Be  Be5  1  0.435782  0.208697  0.570518  1
  Be  Be6  1  0.294142  0.934329  0.710962  1
  Be  Be7  1  0.710962  0.060566  0.294142  1
  Be  Be8  1  0.930347  0.284531  0.065184  1
  Be  Be9  1  0.065184  0.719937  0.930347  1
  Be  Be10  1  0.206367  0.793609  0.560693  1
  Be  Be11  1  0.788777  0.203157  0.441945  1
  Be  Be12  1  0.441945  0.566121  0.788777  1
  Be  Be13  1  0.560693  0.439331  0.206367  1
  Be  Be14  1  0.714519  0.286535  0.934392  1
  Be  Be15  1  0.291035  0.719085  0.059326  1
  Be  Be16  1  0.059326  0.930554  0.291035  1
  Be  Be17  1  0.934392  0.064553  0.714519  1
  Be  Be18  1  0.565208  0.205428  0.789529  1
  Be  Be19  1  0.439520  0.788677  0.205383  1
  Be  Be20  1  0.789529  0.439836  0.565208  1
  Be  Be21  1  0.205383  0.566419  0.439520  1
  Be  Be22  1  0.933275  0.714407  0.290975  1
  Be  Be23  1  0.059646  0.289843  0.715182  1
  Be  Be24  1  0.290975  0.061342  0.933275  1
  Be  Be25  1  0.715182  0.935330  0.059646  1
  Ni  Ni26  1  0.796657  0.559721  0.198804  1
  Ni  Ni27  1  0.198804  0.444818  0.796657  1
