# generated using pymatgen
data_Cr8In3CuS16
_symmetry_space_group_name_H-M   'P 1'
_cell_length_a   12.56941593
_cell_length_b   12.56941608
_cell_length_c   12.56941657
_cell_angle_alpha   33.56485064
_cell_angle_beta   33.56485060
_cell_angle_gamma   33.56485061
_symmetry_Int_Tables_number   1
_chemical_formula_structural   Cr8In3CuS16
_chemical_formula_sum   'Cr8 In3 Cu1 S16'
_cell_volume   540.69971071
_cell_formula_units_Z   1
loop_
 _symmetry_equiv_pos_site_id
 _symmetry_equiv_pos_as_xyz
  1  'x, y, z'
loop_
 _atom_site_type_symbol
 _atom_site_label
 _atom_site_symmetry_multiplicity
 _atom_site_fract_x
 _atom_site_fract_y
 _atom_site_fract_z
 _atom_site_occupancy
  Cr  Cr0  1  0.567497  0.060070  0.567497  1
  Cr  Cr1  1  0.063437  0.555217  0.063437  1
  Cr  Cr2  1  0.060070  0.567497  0.567497  1
  Cr  Cr3  1  0.555217  0.063437  0.063437  1
  Cr  Cr4  1  0.809633  0.809633  0.809633  1
  Cr  Cr5  1  0.312673  0.312673  0.312673  1
  Cr  Cr6  1  0.567497  0.567497  0.060070  1
  Cr  Cr7  1  0.063437  0.063437  0.555217  1
  In  In8  1  0.625252  0.625252  0.625252  1
  In  In9  1  0.000590  0.000590  0.000590  1
  In  In10  1  0.500410  0.500410  0.500410  1
  Cu  Cu11  1  0.124949  0.124949  0.124949  1
  S  S12  1  0.212733  0.647810  0.212733  1
  S  S13  1  0.710658  0.146028  0.710658  1
  S  S14  1  0.647810  0.212733  0.212733  1
  S  S15  1  0.146028  0.710658  0.710658  1
  S  S16  1  0.430501  0.430501  0.430501  1
  S  S17  1  0.928964  0.928964  0.928964  1
  S  S18  1  0.212733  0.212733  0.647810  1
  S  S19  1  0.710658  0.710658  0.146028  1
  S  S20  1  0.924105  0.460763  0.924105  1
  S  S21  1  0.411226  0.979602  0.411226  1
  S  S22  1  0.460763  0.924105  0.924105  1
  S  S23  1  0.979602  0.411226  0.411226  1
  S  S24  1  0.697230  0.697230  0.697230  1
  S  S25  1  0.190997  0.190997  0.190997  1
  S  S26  1  0.924105  0.924105  0.460763  1
  S  S27  1  0.411226  0.411226  0.979602  1
