# generated using pymatgen
data_ScTa5Al16Ir7
_symmetry_space_group_name_H-M   'P 1'
_cell_length_a   8.61472616
_cell_length_b   8.60857649
_cell_length_c   8.60854105
_cell_angle_alpha   60.04754563
_cell_angle_beta   59.97618027
_cell_angle_gamma   59.97602700
_symmetry_Int_Tables_number   1
_chemical_formula_structural   ScTa5Al16Ir7
_chemical_formula_sum   'Sc1 Ta5 Al16 Ir7'
_cell_volume   451.42552860
_cell_formula_units_Z   1
loop_
 _symmetry_equiv_pos_site_id
 _symmetry_equiv_pos_as_xyz
  1  'x, y, z'
loop_
 _atom_site_type_symbol
 _atom_site_label
 _atom_site_symmetry_multiplicity
 _atom_site_fract_x
 _atom_site_fract_y
 _atom_site_fract_z
 _atom_site_occupancy
  Sc  Sc0  1  0.313484  0.686524  0.686510  1
  Ta  Ta1  1  0.679511  0.675253  0.320492  1
  Ta  Ta2  1  0.324744  0.675255  0.320487  1
  Ta  Ta3  1  0.670875  0.329129  0.329124  1
  Ta  Ta4  1  0.324746  0.320490  0.675256  1
  Ta  Ta5  1  0.679514  0.320487  0.675255  1
  Al  Al6  1  0.880450  0.880282  0.358817  1
  Al  Al7  1  0.880449  0.358817  0.880283  1
  Al  Al8  1  0.359283  0.881195  0.881198  1
  Al  Al9  1  0.878323  0.881197  0.881197  1
  Al  Al10  1  0.118803  0.121677  0.640718  1
  Al  Al11  1  0.118804  0.640717  0.121677  1
  Al  Al12  1  0.641182  0.119551  0.119550  1
  Al  Al13  1  0.119717  0.119550  0.119551  1
  Al  Al14  1  0.663374  0.663264  0.009987  1
  Al  Al15  1  0.663373  0.009987  0.663267  1
  Al  Al16  1  0.017171  0.660666  0.660663  1
  Al  Al17  1  0.661497  0.660663  0.660667  1
  Al  Al18  1  0.339334  0.338505  0.982827  1
  Al  Al19  1  0.339332  0.982832  0.338501  1
  Al  Al20  1  0.990010  0.336627  0.336627  1
  Al  Al21  1  0.336736  0.336627  0.336627  1
  Ir  Ir22  1  0.999938  0.000059  0.000064  1
  Ir  Ir23  1  0.997190  0.002808  0.498418  1
  Ir  Ir24  1  0.501582  0.002810  0.498418  1
  Ir  Ir25  1  0.000900  0.499097  0.499102  1
  Ir  Ir26  1  0.501583  0.498418  0.002809  1
  Ir  Ir27  1  0.997192  0.498416  0.002810  1
  Ir  Ir28  1  0.500903  0.999097  0.999097  1
