# generated using pymatgen
data_YbGaPRh2
_symmetry_space_group_name_H-M   'P 1'
_cell_length_a   5.88759060
_cell_length_b   5.88759167
_cell_length_c   5.88759000
_cell_angle_alpha   139.72480657
_cell_angle_beta   139.72481896
_cell_angle_gamma   58.27137101
_symmetry_Int_Tables_number   1
_chemical_formula_structural   YbGaPRh2
_chemical_formula_sum   'Yb1 Ga1 P1 Rh2'
_cell_volume   84.51491814
_cell_formula_units_Z   1
loop_
 _symmetry_equiv_pos_site_id
 _symmetry_equiv_pos_as_xyz
  1  'x, y, z'
loop_
 _atom_site_type_symbol
 _atom_site_label
 _atom_site_symmetry_multiplicity
 _atom_site_fract_x
 _atom_site_fract_y
 _atom_site_fract_z
 _atom_site_occupancy
  Yb  Yb0  1  0.994374  0.994374  0.000000  1
  Ga  Ga1  1  0.616782  0.616782  0.000000  1
  P  P2  1  0.370495  0.370495  0.000000  1
  Rh  Rh3  1  0.759176  0.259176  0.500000  1
  Rh  Rh4  1  0.259176  0.759176  0.500000  1
