# generated using pymatgen
data_DyOs3Pb4O13
_symmetry_space_group_name_H-M   'P 1'
_cell_length_a   7.61043219
_cell_length_b   7.61043185
_cell_length_c   7.61042956
_cell_angle_alpha   58.58128935
_cell_angle_beta   58.58128646
_cell_angle_gamma   58.58129291
_symmetry_Int_Tables_number   1
_chemical_formula_structural   DyOs3Pb4O13
_chemical_formula_sum   'Dy1 Os3 Pb4 O13'
_cell_volume   301.57197745
_cell_formula_units_Z   1
loop_
 _symmetry_equiv_pos_site_id
 _symmetry_equiv_pos_as_xyz
  1  'x, y, z'
loop_
 _atom_site_type_symbol
 _atom_site_label
 _atom_site_symmetry_multiplicity
 _atom_site_fract_x
 _atom_site_fract_y
 _atom_site_fract_z
 _atom_site_occupancy
  Dy  Dy0  1  0.501926  0.501926  0.501926  1
  Os  Os1  1  0.000261  0.501302  0.501302  1
  Os  Os2  1  0.501302  0.501302  0.000261  1
  Os  Os3  1  0.501302  0.000261  0.501302  1
  Pb  Pb4  1  0.998070  0.998070  0.998070  1
  Pb  Pb5  1  0.502506  0.004206  0.004206  1
  Pb  Pb6  1  0.004206  0.004206  0.502506  1
  Pb  Pb7  1  0.004206  0.502506  0.004206  1
  O  O8  1  0.870657  0.406379  0.406379  1
  O  O9  1  0.422493  0.800948  0.800948  1
  O  O10  1  0.406379  0.406379  0.870657  1
  O  O11  1  0.800948  0.800948  0.422493  1
  O  O12  1  0.800948  0.422493  0.800948  1
  O  O13  1  0.406379  0.870657  0.406379  1
  O  O14  1  0.142470  0.584866  0.584866  1
  O  O15  1  0.587333  0.192599  0.192599  1
  O  O16  1  0.584866  0.584866  0.142470  1
  O  O17  1  0.192599  0.192599  0.587333  1
  O  O18  1  0.192599  0.587333  0.192599  1
  O  O19  1  0.584866  0.142470  0.584866  1
  O  O20  1  0.118681  0.118681  0.118681  1
