# generated using pymatgen
data_Ba3MnFe2O9
_symmetry_space_group_name_H-M   'P 1'
_cell_length_a   7.91107443
_cell_length_b   7.91107438
_cell_length_c   7.91107530
_cell_angle_alpha   42.96903276
_cell_angle_beta   42.96903150
_cell_angle_gamma   42.96902637
_symmetry_Int_Tables_number   1
_chemical_formula_structural   Ba3MnFe2O9
_chemical_formula_sum   'Ba3 Mn1 Fe2 O9'
_cell_volume   208.47910303
_cell_formula_units_Z   1
loop_
 _symmetry_equiv_pos_site_id
 _symmetry_equiv_pos_as_xyz
  1  'x, y, z'
loop_
 _atom_site_type_symbol
 _atom_site_label
 _atom_site_symmetry_multiplicity
 _atom_site_fract_x
 _atom_site_fract_y
 _atom_site_fract_z
 _atom_site_occupancy
  Ba  Ba0  1  0.001364  0.001364  0.001364  1
  Ba  Ba1  1  0.219577  0.219577  0.219577  1
  Ba  Ba2  1  0.784419  0.784419  0.784419  1
  Mn  Mn3  1  0.381799  0.381799  0.381799  1
  Fe  Fe4  1  0.623442  0.623442  0.623442  1
  Fe  Fe5  1  0.501486  0.501486  0.501486  1
  O  O6  1  0.702135  0.254277  0.702135  1
  O  O7  1  0.254277  0.702135  0.702135  1
  O  O8  1  0.702135  0.702135  0.254277  1
  O  O9  1  0.296705  0.735461  0.296705  1
  O  O10  1  0.735461  0.296705  0.296705  1
  O  O11  1  0.296705  0.296705  0.735461  1
  O  O12  1  0.009674  0.495411  0.495411  1
  O  O13  1  0.495411  0.495411  0.009674  1
  O  O14  1  0.495411  0.009674  0.495411  1
