# generated using pymatgen
data_HoEr7Tl3Co
_symmetry_space_group_name_H-M   'P 1'
_cell_length_a   10.19049100
_cell_length_b   10.19049118
_cell_length_c   7.02744500
_cell_angle_alpha   90.00000000
_cell_angle_beta   90.00000000
_cell_angle_gamma   120.00000267
_symmetry_Int_Tables_number   1
_chemical_formula_structural   HoEr7Tl3Co
_chemical_formula_sum   'Ho2 Er14 Tl6 Co2'
_cell_volume   632.00178144
_cell_formula_units_Z   2
loop_
 _symmetry_equiv_pos_site_id
 _symmetry_equiv_pos_as_xyz
  1  'x, y, z'
loop_
 _atom_site_type_symbol
 _atom_site_label
 _atom_site_symmetry_multiplicity
 _atom_site_fract_x
 _atom_site_fract_y
 _atom_site_fract_z
 _atom_site_occupancy
  Ho  Ho0  1  0.000000  0.000000  0.272083  1
  Ho  Ho1  1  0.000000  0.000000  0.772083  1
  Er  Er2  1  0.178181  0.821819  0.991729  1
  Er  Er3  1  0.821819  0.178181  0.491729  1
  Er  Er4  1  0.178181  0.356360  0.991729  1
  Er  Er5  1  0.643640  0.821819  0.991729  1
  Er  Er6  1  0.356360  0.178181  0.491729  1
  Er  Er7  1  0.821819  0.643640  0.491729  1
  Er  Er8  1  0.333333  0.666667  0.680602  1
  Er  Er9  1  0.666667  0.333333  0.180602  1
  Er  Er10  1  0.462853  0.537147  0.288259  1
  Er  Er11  1  0.537147  0.462853  0.788259  1
  Er  Er12  1  0.462853  0.925707  0.288259  1
  Er  Er13  1  0.074293  0.537147  0.288259  1
  Er  Er14  1  0.925707  0.462853  0.788259  1
  Er  Er15  1  0.537147  0.074293  0.788259  1
  Tl  Tl16  1  0.163835  0.836165  0.540199  1
  Tl  Tl17  1  0.836165  0.163835  0.040199  1
  Tl  Tl18  1  0.163835  0.327669  0.540199  1
  Tl  Tl19  1  0.672331  0.836165  0.540199  1
  Tl  Tl20  1  0.327669  0.163835  0.040199  1
  Tl  Tl21  1  0.836165  0.672331  0.040199  1
  Co  Co22  1  0.333333  0.666667  0.059815  1
  Co  Co23  1  0.666667  0.333333  0.559815  1
