# generated using pymatgen
data_FeTcO4F
_symmetry_space_group_name_H-M   'P 1'
_cell_length_a   5.94182856
_cell_length_b   5.91642718
_cell_length_c   8.26231920
_cell_angle_alpha   109.70311281
_cell_angle_beta   111.42997701
_cell_angle_gamma   98.87059917
_symmetry_Int_Tables_number   1
_chemical_formula_structural   FeTcO4F
_chemical_formula_sum   'Fe2 Tc2 O8 F2'
_cell_volume   241.45909126
_cell_formula_units_Z   2
loop_
 _symmetry_equiv_pos_site_id
 _symmetry_equiv_pos_as_xyz
  1  'x, y, z'
loop_
 _atom_site_type_symbol
 _atom_site_label
 _atom_site_symmetry_multiplicity
 _atom_site_fract_x
 _atom_site_fract_y
 _atom_site_fract_z
 _atom_site_occupancy
  Fe  Fe0  1  0.000000  0.000000  0.000000  1
  Fe  Fe1  1  0.500000  0.500000  0.500000  1
  Tc  Tc2  1  0.883710  0.574393  0.238515  1
  Tc  Tc3  1  0.116290  0.425607  0.761485  1
  O  O4  1  0.205038  0.747954  0.904226  1
  O  O5  1  0.147420  0.261615  0.904903  1
  O  O6  1  0.800500  0.330112  0.591085  1
  O  O7  1  0.309511  0.368164  0.646058  1
  O  O8  1  0.852580  0.738385  0.095097  1
  O  O9  1  0.199500  0.669888  0.408915  1
  O  O10  1  0.690489  0.631836  0.353942  1
  O  O11  1  0.794962  0.252046  0.095774  1
  F  F12  1  0.706076  0.814371  0.740095  1
  F  F13  1  0.293924  0.185629  0.259905  1
