# generated using pymatgen
data_Hf2Zr3Co16(CuP4)3
_symmetry_space_group_name_H-M   'P 1'
_cell_length_a   11.85308900
_cell_length_b   11.85308945
_cell_length_c   3.62004900
_cell_angle_alpha   90.00000000
_cell_angle_beta   90.00000000
_cell_angle_gamma   119.99999594
_symmetry_Int_Tables_number   1
_chemical_formula_structural   Hf2Zr3Co16(CuP4)3
_chemical_formula_sum   'Hf2 Zr3 Co16 Cu3 P12'
_cell_volume   440.46175598
_cell_formula_units_Z   1
loop_
 _symmetry_equiv_pos_site_id
 _symmetry_equiv_pos_as_xyz
  1  'x, y, z'
loop_
 _atom_site_type_symbol
 _atom_site_label
 _atom_site_symmetry_multiplicity
 _atom_site_fract_x
 _atom_site_fract_y
 _atom_site_fract_z
 _atom_site_occupancy
  Hf  Hf0  1  0.666667  0.333333  0.000000  1
  Hf  Hf1  1  0.333333  0.666667  0.000000  1
  Zr  Zr2  1  0.813173  0.813173  0.500000  1
  Zr  Zr3  1  0.186827  0.000000  0.500000  1
  Zr  Zr4  1  0.000000  0.186827  0.500000  1
  Co  Co5  1  0.197853  0.377181  0.000000  1
  Co  Co6  1  0.179328  0.802147  0.000000  1
  Co  Co7  1  0.820672  0.622819  0.000000  1
  Co  Co8  1  0.802147  0.179328  0.000000  1
  Co  Co9  1  0.377181  0.197853  0.000000  1
  Co  Co10  1  0.128744  0.485638  0.500000  1
  Co  Co11  1  0.356893  0.871256  0.500000  1
  Co  Co12  1  0.514362  0.643107  0.500000  1
  Co  Co13  1  0.643107  0.514362  0.500000  1
  Co  Co14  1  0.871256  0.356893  0.500000  1
  Co  Co15  1  0.485638  0.128744  0.500000  1
  Co  Co16  1  0.000000  0.000000  0.000000  1
  Co  Co17  1  0.713704  0.000000  0.500000  1
  Co  Co18  1  0.000000  0.713704  0.500000  1
  Co  Co19  1  0.622819  0.820672  0.000000  1
  Co  Co20  1  0.286296  0.286296  0.500000  1
  Cu  Cu21  1  0.449246  0.449246  0.000000  1
  Cu  Cu22  1  0.550754  0.000000  0.000000  1
  Cu  Cu23  1  0.000000  0.550754  0.000000  1
  P  P24  1  0.640154  0.640154  0.000000  1
  P  P25  1  0.359846  0.000000  0.000000  1
  P  P26  1  0.000000  0.359846  0.000000  1
  P  P27  1  0.484299  0.312511  0.500000  1
  P  P28  1  0.687489  0.171789  0.500000  1
  P  P29  1  0.828211  0.515701  0.500000  1
  P  P30  1  0.515701  0.828211  0.500000  1
  P  P31  1  0.171789  0.687489  0.500000  1
  P  P32  1  0.822262  0.000000  0.000000  1
  P  P33  1  0.000000  0.822262  0.000000  1
  P  P34  1  0.312511  0.484299  0.500000  1
  P  P35  1  0.177738  0.177738  0.000000  1
