# generated using pymatgen
data_TbEr4Np5O20
_symmetry_space_group_name_H-M   'P 1'
_cell_length_a   6.42155541
_cell_length_b   7.63228691
_cell_length_c   8.48556700
_cell_angle_alpha   103.23174448
_cell_angle_beta   96.63146222
_cell_angle_gamma   107.19992770
_symmetry_Int_Tables_number   1
_chemical_formula_structural   TbEr4Np5O20
_chemical_formula_sum   'Tb1 Er4 Np5 O20'
_cell_volume   379.16475904
_cell_formula_units_Z   1
loop_
 _symmetry_equiv_pos_site_id
 _symmetry_equiv_pos_as_xyz
  1  'x, y, z'
loop_
 _atom_site_type_symbol
 _atom_site_label
 _atom_site_symmetry_multiplicity
 _atom_site_fract_x
 _atom_site_fract_y
 _atom_site_fract_z
 _atom_site_occupancy
  Tb  Tb0  1  0.002862  0.002438  0.001968  1
  Er  Er1  1  0.798257  0.599479  0.598987  1
  Er  Er2  1  0.998340  0.498552  0.001406  1
  Er  Er3  1  0.605203  0.200912  0.200933  1
  Er  Er4  1  0.797828  0.099009  0.598322  1
  Np  Np5  1  0.600903  0.700971  0.199945  1
  Np  Np6  1  0.193462  0.395804  0.397389  1
  Np  Np7  1  0.399384  0.299383  0.801930  1
  Np  Np8  1  0.199791  0.900483  0.397148  1
  Np  Np9  1  0.399832  0.801631  0.801002  1
  O  O10  1  0.864353  0.330939  0.453514  1
  O  O11  1  0.641441  0.916951  0.055251  1
  O  O12  1  0.950060  0.773853  0.153840  1
  O  O13  1  0.852541  0.822240  0.445801  1
  O  O14  1  0.426700  0.518381  0.651198  1
  O  O15  1  0.643428  0.432721  0.059161  1
  O  O16  1  0.728432  0.370828  0.755009  1
  O  O17  1  0.250288  0.120847  0.256581  1
  O  O18  1  0.434795  0.021623  0.644403  1
  O  O19  1  0.963942  0.282142  0.153706  1
  O  O20  1  0.546893  0.967804  0.351459  1
  O  O21  1  0.069670  0.724639  0.842506  1
  O  O22  1  0.253654  0.632046  0.250560  1
  O  O23  1  0.727708  0.870413  0.751370  1
  O  O24  1  0.364217  0.578812  0.954609  1
  O  O25  1  0.068943  0.230500  0.842013  1
  O  O26  1  0.533755  0.477891  0.353931  1
  O  O27  1  0.155366  0.169010  0.541741  1
  O  O28  1  0.368929  0.078773  0.943244  1
  O  O29  1  0.159023  0.680924  0.541071  1
