# generated using pymatgen
data_AlTeI3Br4
_symmetry_space_group_name_H-M   'P 1'
_cell_length_a   7.16283600
_cell_length_b   7.34846248
_cell_length_c   16.17043500
_cell_angle_alpha   75.72594758
_cell_angle_beta   90.00000000
_cell_angle_gamma   90.00000000
_symmetry_Int_Tables_number   1
_chemical_formula_structural   AlTeI3Br4
_chemical_formula_sum   'Al2 Te2 I6 Br8'
_cell_volume   824.86733295
_cell_formula_units_Z   2
loop_
 _symmetry_equiv_pos_site_id
 _symmetry_equiv_pos_as_xyz
  1  'x, y, z'
loop_
 _atom_site_type_symbol
 _atom_site_label
 _atom_site_symmetry_multiplicity
 _atom_site_fract_x
 _atom_site_fract_y
 _atom_site_fract_z
 _atom_site_occupancy
  Al  Al0  1  0.494553  0.710921  0.808144  1
  Al  Al1  1  0.505447  0.710921  0.308144  1
  Te  Te2  1  0.094134  0.996991  0.654394  1
  Te  Te3  1  0.905866  0.996991  0.154394  1
  I  I4  1  0.339676  0.218235  0.542417  1
  I  I5  1  0.660324  0.218235  0.042417  1
  I  I6  1  0.878773  0.282361  0.684657  1
  I  I7  1  0.121227  0.282361  0.184657  1
  I  I8  1  0.882059  0.878681  0.536349  1
  I  I9  1  0.117941  0.878681  0.036349  1
  Br  Br10  1  0.816482  0.687609  0.816000  1
  Br  Br11  1  0.183518  0.687609  0.316000  1
  Br  Br12  1  0.355674  0.501660  0.923519  1
  Br  Br13  1  0.644326  0.501660  0.423519  1
  Br  Br14  1  0.385251  0.645722  0.681861  1
  Br  Br15  1  0.614749  0.645722  0.181861  1
  Br  Br16  1  0.386074  0.011518  0.808610  1
  Br  Br17  1  0.613926  0.011518  0.308610  1
