# generated using pymatgen
data_SmYEr2(Si3Rh)2
_symmetry_space_group_name_H-M   'P 1'
_cell_length_a   8.17558800
_cell_length_b   8.18044919
_cell_length_c   7.93279100
_cell_angle_alpha   90.00000000
_cell_angle_beta   90.00000000
_cell_angle_gamma   120.01966759
_symmetry_Int_Tables_number   1
_chemical_formula_structural   SmYEr2(Si3Rh)2
_chemical_formula_sum   'Sm2 Y2 Er4 Si12 Rh4'
_cell_volume   459.37429425
_cell_formula_units_Z   2
loop_
 _symmetry_equiv_pos_site_id
 _symmetry_equiv_pos_as_xyz
  1  'x, y, z'
loop_
 _atom_site_type_symbol
 _atom_site_label
 _atom_site_symmetry_multiplicity
 _atom_site_fract_x
 _atom_site_fract_y
 _atom_site_fract_z
 _atom_site_occupancy
  Sm  Sm0  1  0.000183  0.000092  0.250000  1
  Sm  Sm1  1  0.000125  0.000063  0.750000  1
  Y  Y2  1  0.491098  0.508761  0.250000  1
  Y  Y3  1  0.491098  0.982338  0.250000  1
  Er  Er4  1  0.015806  0.507902  0.250000  1
  Er  Er5  1  0.508976  0.490928  0.750000  1
  Er  Er6  1  0.981873  0.490936  0.750000  1
  Er  Er7  1  0.508976  0.018049  0.750000  1
  Si  Si8  1  0.832547  0.167638  0.501423  1
  Si  Si9  1  0.832547  0.664909  0.501423  1
  Si  Si10  1  0.335497  0.167749  0.501736  1
  Si  Si11  1  0.832547  0.167638  0.998577  1
  Si  Si12  1  0.832547  0.664909  0.998577  1
  Si  Si13  1  0.335497  0.167749  0.998264  1
  Si  Si14  1  0.167837  0.831826  0.999771  1
  Si  Si15  1  0.664069  0.832034  0.998673  1
  Si  Si16  1  0.167837  0.336010  0.999771  1
  Si  Si17  1  0.167837  0.831826  0.500229  1
  Si  Si18  1  0.664069  0.832034  0.501327  1
  Si  Si19  1  0.167837  0.336010  0.500229  1
  Rh  Rh20  1  0.667808  0.333904  0.469583  1
  Rh  Rh21  1  0.667808  0.333904  0.030417  1
  Rh  Rh22  1  0.332792  0.666397  0.962074  1
  Rh  Rh23  1  0.332792  0.666397  0.537926  1
