# generated using pymatgen
data_NdErNi7
_symmetry_space_group_name_H-M   'P 1'
_cell_length_a   4.99290615
_cell_length_b   4.99290497
_cell_length_c   12.35415373
_cell_angle_alpha   78.34172993
_cell_angle_beta   78.34173462
_cell_angle_gamma   60.00000078
_symmetry_Int_Tables_number   1
_chemical_formula_structural   NdErNi7
_chemical_formula_sum   'Nd2 Er2 Ni14'
_cell_volume   259.35444136
_cell_formula_units_Z   2
loop_
 _symmetry_equiv_pos_site_id
 _symmetry_equiv_pos_as_xyz
  1  'x, y, z'
loop_
 _atom_site_type_symbol
 _atom_site_label
 _atom_site_symmetry_multiplicity
 _atom_site_fract_x
 _atom_site_fract_y
 _atom_site_fract_z
 _atom_site_occupancy
  Nd  Nd0  1  0.948341  0.948341  0.154978  1
  Nd  Nd1  1  0.051659  0.051659  0.845022  1
  Er  Er2  1  0.851891  0.851891  0.444326  1
  Er  Er3  1  0.148109  0.148109  0.555674  1
  Ni  Ni4  1  0.500000  0.500000  0.500000  1
  Ni  Ni5  1  0.722137  0.722137  0.833591  1
  Ni  Ni6  1  0.277863  0.277863  0.166409  1
  Ni  Ni7  1  0.611257  0.611257  0.166228  1
  Ni  Ni8  1  0.388743  0.388743  0.833772  1
  Ni  Ni9  1  0.000000  0.500000  0.000000  1
  Ni  Ni10  1  0.500000  0.000000  0.000000  1
  Ni  Ni11  1  0.500000  0.500000  0.000000  1
  Ni  Ni12  1  0.388455  0.388455  0.332318  1
  Ni  Ni13  1  0.890771  0.388455  0.332318  1
  Ni  Ni14  1  0.388455  0.890771  0.332318  1
  Ni  Ni15  1  0.611545  0.611545  0.667682  1
  Ni  Ni16  1  0.109229  0.611545  0.667682  1
  Ni  Ni17  1  0.611545  0.109229  0.667682  1
