# generated using pymatgen
data_LaTb4Pr3(CdPd)2
_symmetry_space_group_name_H-M   'P 1'
_cell_length_a   9.94088981
_cell_length_b   9.94089037
_cell_length_c   9.91862800
_cell_angle_alpha   60.07404698
_cell_angle_beta   60.07404510
_cell_angle_gamma   60.07933342
_symmetry_Int_Tables_number   1
_chemical_formula_structural   LaTb4Pr3(CdPd)2
_chemical_formula_sum   'La2 Tb8 Pr6 Cd4 Pd4'
_cell_volume   694.27671550
_cell_formula_units_Z   2
loop_
 _symmetry_equiv_pos_site_id
 _symmetry_equiv_pos_as_xyz
  1  'x, y, z'
loop_
 _atom_site_type_symbol
 _atom_site_label
 _atom_site_symmetry_multiplicity
 _atom_site_fract_x
 _atom_site_fract_y
 _atom_site_fract_z
 _atom_site_occupancy
  La  La0  1  0.350807  0.350807  0.353440  1
  La  La1  1  0.350807  0.350807  0.944948  1
  Tb  Tb2  1  0.351847  0.941009  0.353572  1
  Tb  Tb3  1  0.941009  0.351847  0.353572  1
  Tb  Tb4  1  0.814397  0.187437  0.186916  1
  Tb  Tb5  1  0.187437  0.814397  0.811251  1
  Tb  Tb6  1  0.187437  0.814397  0.186916  1
  Tb  Tb7  1  0.814397  0.187437  0.811251  1
  Tb  Tb8  1  0.186808  0.186808  0.813192  1
  Tb  Tb9  1  0.811317  0.811317  0.188683  1
  Pr  Pr10  1  0.937161  0.563304  0.564058  1
  Pr  Pr11  1  0.563304  0.937161  0.935477  1
  Pr  Pr12  1  0.563304  0.937161  0.564058  1
  Pr  Pr13  1  0.937161  0.563304  0.935477  1
  Pr  Pr14  1  0.563229  0.563229  0.936771  1
  Pr  Pr15  1  0.937008  0.937008  0.562992  1
  Cd  Cd16  1  0.582118  0.582118  0.575870  1
  Cd  Cd17  1  0.582118  0.582118  0.259892  1
  Cd  Cd18  1  0.584248  0.260003  0.577874  1
  Cd  Cd19  1  0.260003  0.584248  0.577874  1
  Pd  Pd20  1  0.140741  0.140741  0.147828  1
  Pd  Pd21  1  0.140741  0.140741  0.570690  1
  Pd  Pd22  1  0.138038  0.574563  0.143699  1
  Pd  Pd23  1  0.574563  0.138038  0.143699  1
