# generated using pymatgen
data_Y3(GaRh)2
_symmetry_space_group_name_H-M   'P 1'
_cell_length_a   5.58801900
_cell_length_b   7.82514100
_cell_length_c   13.65926300
_cell_angle_alpha   90.00000000
_cell_angle_beta   90.00000000
_cell_angle_gamma   90.00000000
_symmetry_Int_Tables_number   1
_chemical_formula_structural   Y3(GaRh)2
_chemical_formula_sum   'Y12 Ga8 Rh8'
_cell_volume   597.27909293
_cell_formula_units_Z   4
loop_
 _symmetry_equiv_pos_site_id
 _symmetry_equiv_pos_as_xyz
  1  'x, y, z'
loop_
 _atom_site_type_symbol
 _atom_site_label
 _atom_site_symmetry_multiplicity
 _atom_site_fract_x
 _atom_site_fract_y
 _atom_site_fract_z
 _atom_site_occupancy
  Y  Y0  1  0.630487  0.261149  0.250000  1
  Y  Y1  1  0.369513  0.738851  0.750000  1
  Y  Y2  1  0.369513  0.761149  0.250000  1
  Y  Y3  1  0.630487  0.238851  0.750000  1
  Y  Y4  1  0.152628  0.399251  0.097542  1
  Y  Y5  1  0.847372  0.600749  0.902458  1
  Y  Y6  1  0.847372  0.600749  0.597542  1
  Y  Y7  1  0.847372  0.899251  0.402458  1
  Y  Y8  1  0.152628  0.399251  0.402458  1
  Y  Y9  1  0.152628  0.100749  0.597542  1
  Y  Y10  1  0.152628  0.100749  0.902458  1
  Y  Y11  1  0.847372  0.899251  0.097542  1
  Ga  Ga12  1  0.125448  0.107336  0.250000  1
  Ga  Ga13  1  0.874552  0.892664  0.750000  1
  Ga  Ga14  1  0.874552  0.607336  0.250000  1
  Ga  Ga15  1  0.125448  0.392664  0.750000  1
  Ga  Ga16  1  0.650051  0.250000  0.000000  1
  Ga  Ga17  1  0.349949  0.750000  0.000000  1
  Ga  Ga18  1  0.349949  0.750000  0.500000  1
  Ga  Ga19  1  0.650051  0.250000  0.500000  1
  Rh  Rh20  1  0.362590  0.038548  0.093801  1
  Rh  Rh21  1  0.637410  0.961452  0.906199  1
  Rh  Rh22  1  0.637410  0.961452  0.593801  1
  Rh  Rh23  1  0.637410  0.538548  0.406199  1
  Rh  Rh24  1  0.362590  0.038548  0.406199  1
  Rh  Rh25  1  0.362590  0.461452  0.593801  1
  Rh  Rh26  1  0.362590  0.461452  0.906199  1
  Rh  Rh27  1  0.637410  0.538548  0.093801  1
