# generated using pymatgen
data_Er7Tm5InCo4Pt
_symmetry_space_group_name_H-M   'P 1'
_cell_length_a   8.20523971
_cell_length_b   8.20542834
_cell_length_c   8.20511810
_cell_angle_alpha   111.07482087
_cell_angle_beta   110.71566889
_cell_angle_gamma   106.66244822
_symmetry_Int_Tables_number   1
_chemical_formula_structural   Er7Tm5InCo4Pt
_chemical_formula_sum   'Er7 Tm5 In1 Co4 Pt1'
_cell_volume   424.47825273
_cell_formula_units_Z   1
loop_
 _symmetry_equiv_pos_site_id
 _symmetry_equiv_pos_as_xyz
  1  'x, y, z'
loop_
 _atom_site_type_symbol
 _atom_site_label
 _atom_site_symmetry_multiplicity
 _atom_site_fract_x
 _atom_site_fract_y
 _atom_site_fract_z
 _atom_site_occupancy
  Er  Er0  1  0.417287  0.218674  0.198400  1
  Er  Er1  1  0.582959  0.781603  0.801636  1
  Er  Er2  1  0.020069  0.218679  0.801658  1
  Er  Er3  1  0.979738  0.781114  0.198415  1
  Er  Er4  1  0.185553  0.288505  0.474106  1
  Er  Er5  1  0.814285  0.711369  0.525665  1
  Er  Er6  1  0.185783  0.711481  0.897300  1
  Tm  Tm7  1  0.814427  0.288520  0.102933  1
  Tm  Tm8  1  0.315492  0.620888  0.305245  1
  Tm  Tm9  1  0.684405  0.379029  0.694840  1
  Tm  Tm10  1  0.315820  0.010449  0.694835  1
  Tm  Tm11  1  0.684363  0.989757  0.305253  1
  In  In12  1  0.500023  0.499969  0.999986  1
  Co  Co13  1  0.377643  0.000035  0.377675  1
  Co  Co14  1  0.622398  0.000071  0.622460  1
  Co  Co15  1  0.112231  0.612182  0.499753  1
  Co  Co16  1  0.887581  0.387527  0.499762  1
  Pt  Pt17  1  0.999941  0.000148  0.000078  1
