# generated using pymatgen
data_Tb8Ga(Pd5Pt3)3
_symmetry_space_group_name_H-M   'P 1'
_cell_length_a   8.36837402
_cell_length_b   8.36837402
_cell_length_c   8.36837402
_cell_angle_alpha   90.00624436
_cell_angle_beta   90.00624436
_cell_angle_gamma   89.99375564
_symmetry_Int_Tables_number   1
_chemical_formula_structural   Tb8Ga(Pd5Pt3)3
_chemical_formula_sum   'Tb8 Ga1 Pd15 Pt9'
_cell_volume   586.03457661
_cell_formula_units_Z   1
loop_
 _symmetry_equiv_pos_site_id
 _symmetry_equiv_pos_as_xyz
  1  'x, y, z'
loop_
 _atom_site_type_symbol
 _atom_site_label
 _atom_site_symmetry_multiplicity
 _atom_site_fract_x
 _atom_site_fract_y
 _atom_site_fract_z
 _atom_site_occupancy
  Tb  Tb0  1  0.252070  0.252070  0.747930  1
  Tb  Tb1  1  0.252235  0.748121  0.252465  1
  Tb  Tb2  1  0.747535  0.252235  0.251879  1
  Tb  Tb3  1  0.748121  0.747535  0.747765  1
  Tb  Tb4  1  0.747741  0.747741  0.252259  1
  Tb  Tb5  1  0.747914  0.252449  0.748141  1
  Tb  Tb6  1  0.251859  0.747914  0.747551  1
  Tb  Tb7  1  0.252449  0.251859  0.252086  1
  Ga  Ga8  1  0.000119  0.000119  0.999881  1
  Pd  Pd9  1  0.999884  0.999934  0.708093  1
  Pd  Pd10  1  0.999934  0.291907  0.000116  1
  Pd  Pd11  1  0.291907  0.999884  0.000066  1
  Pd  Pd12  1  0.999873  0.999951  0.291867  1
  Pd  Pd13  1  0.999951  0.708133  0.000127  1
  Pd  Pd14  1  0.708133  0.999873  0.000049  1
  Pd  Pd15  1  0.000126  0.260144  0.499884  1
  Pd  Pd16  1  0.500116  0.000126  0.739856  1
  Pd  Pd17  1  0.260144  0.500116  0.999874  1
  Pd  Pd18  1  0.999942  0.500061  0.260298  1
  Pd  Pd19  1  0.500061  0.739702  0.000058  1
  Pd  Pd20  1  0.000101  0.739949  0.499862  1
  Pd  Pd21  1  0.500138  0.000101  0.260051  1
  Pd  Pd22  1  0.739702  0.999942  0.499939  1
  Pd  Pd23  1  0.739949  0.500138  0.999899  1
  Pt  Pt24  1  0.500100  0.499912  0.747468  1
  Pt  Pt25  1  0.499912  0.252532  0.499900  1
  Pt  Pt26  1  0.252532  0.500100  0.500088  1
  Pt  Pt27  1  0.500095  0.499905  0.252688  1
  Pt  Pt28  1  0.499905  0.747312  0.499905  1
  Pt  Pt29  1  0.747312  0.500095  0.500095  1
  Pt  Pt30  1  0.999939  0.500076  0.739875  1
  Pt  Pt31  1  0.500076  0.260125  0.000061  1
  Pt  Pt32  1  0.260125  0.999939  0.499924  1
