# generated using pymatgen
data_Er6Hg7Ru
_symmetry_space_group_name_H-M   'P 1'
_cell_length_a   8.14977332
_cell_length_b   8.28446984
_cell_length_c   8.11269316
_cell_angle_alpha   113.92339803
_cell_angle_beta   111.88385278
_cell_angle_gamma   115.61409538
_symmetry_Int_Tables_number   1
_chemical_formula_structural   Er6Hg7Ru
_chemical_formula_sum   'Er6 Hg7 Ru1'
_cell_volume   337.23227172
_cell_formula_units_Z   1
loop_
 _symmetry_equiv_pos_site_id
 _symmetry_equiv_pos_as_xyz
  1  'x, y, z'
loop_
 _atom_site_type_symbol
 _atom_site_label
 _atom_site_symmetry_multiplicity
 _atom_site_fract_x
 _atom_site_fract_y
 _atom_site_fract_z
 _atom_site_occupancy
  Er  Er0  1  0.008158  0.290963  0.365949  1
  Er  Er1  1  0.244551  0.413046  0.037853  1
  Er  Er2  1  0.362145  0.948900  0.242075  1
  Er  Er3  1  0.029507  0.753360  0.602323  1
  Er  Er4  1  0.757499  0.611247  0.034594  1
  Er  Er5  1  0.582670  0.981890  0.718646  1
  Hg  Hg6  1  0.988880  0.972421  0.981651  1
  Hg  Hg7  1  0.510632  0.476494  0.499966  1
  Hg  Hg8  1  0.560626  0.249114  0.100311  1
  Hg  Hg9  1  0.254749  0.117581  0.565738  1
  Hg  Hg10  1  0.890810  0.421906  0.730817  1
  Hg  Hg11  1  0.448601  0.744542  0.915757  1
  Hg  Hg12  1  0.776165  0.930222  0.451593  1
  Ru  Ru13  1  0.085006  0.588312  0.252729  1
