# generated using pymatgen
data_La5Nd11MgCd3Ir4
_symmetry_space_group_name_H-M   'P 1'
_cell_length_a   10.00021398
_cell_length_b   10.02965917
_cell_length_c   10.02974838
_cell_angle_alpha   60.02733037
_cell_angle_beta   60.28158041
_cell_angle_gamma   60.28502109
_symmetry_Int_Tables_number   1
_chemical_formula_structural   La5Nd11MgCd3Ir4
_chemical_formula_sum   'La5 Nd11 Mg1 Cd3 Ir4'
_cell_volume   714.50844423
_cell_formula_units_Z   1
loop_
 _symmetry_equiv_pos_site_id
 _symmetry_equiv_pos_as_xyz
  1  'x, y, z'
loop_
 _atom_site_type_symbol
 _atom_site_label
 _atom_site_symmetry_multiplicity
 _atom_site_fract_x
 _atom_site_fract_y
 _atom_site_fract_z
 _atom_site_occupancy
  La  La0  1  0.346030  0.348972  0.349035  1
  La  La1  1  0.347285  0.346774  0.958486  1
  La  La2  1  0.347242  0.958490  0.346810  1
  La  La3  1  0.956161  0.348897  0.348860  1
  La  La4  1  0.812114  0.187925  0.187850  1
  Nd  Nd5  1  0.188000  0.811500  0.811538  1
  Nd  Nd6  1  0.192289  0.808473  0.189094  1
  Nd  Nd7  1  0.811441  0.187376  0.809422  1
  Nd  Nd8  1  0.192312  0.189071  0.808468  1
  Nd  Nd9  1  0.811440  0.809438  0.187376  1
  Nd  Nd10  1  0.938064  0.563654  0.563662  1
  Nd  Nd11  1  0.562743  0.936682  0.936677  1
  Nd  Nd12  1  0.562700  0.937923  0.563141  1
  Nd  Nd13  1  0.938936  0.562064  0.937225  1
  Nd  Nd14  1  0.562721  0.563142  0.937902  1
  Nd  Nd15  1  0.938930  0.937237  0.562090  1
  Mg  Mg16  1  0.575613  0.576190  0.576100  1
  Cd  Cd17  1  0.580080  0.583276  0.257088  1
  Cd  Cd18  1  0.580087  0.257084  0.583282  1
  Cd  Cd19  1  0.256881  0.581406  0.581420  1
  Ir  Ir20  1  0.137150  0.143312  0.143322  1
  Ir  Ir21  1  0.142551  0.142471  0.574762  1
  Ir  Ir22  1  0.142559  0.574735  0.142480  1
  Ir  Ir23  1  0.576670  0.143903  0.143908  1
