# generated using pymatgen
data_TbY7Tc2(B12Os)2
_symmetry_space_group_name_H-M   'P 1'
_cell_length_a   3.67691300
_cell_length_b   9.17744770
_cell_length_c   11.57064600
_cell_angle_alpha   89.92579916
_cell_angle_beta   90.00000000
_cell_angle_gamma   90.00000000
_symmetry_Int_Tables_number   1
_chemical_formula_structural   TbY7Tc2(B12Os)2
_chemical_formula_sum   'Tb1 Y7 Tc2 B24 Os2'
_cell_volume   390.44738179
_cell_formula_units_Z   1
loop_
 _symmetry_equiv_pos_site_id
 _symmetry_equiv_pos_as_xyz
  1  'x, y, z'
loop_
 _atom_site_type_symbol
 _atom_site_label
 _atom_site_symmetry_multiplicity
 _atom_site_fract_x
 _atom_site_fract_y
 _atom_site_fract_z
 _atom_site_occupancy
  Tb  Tb0  1  0.000000  0.325117  0.415161  1
  Y  Y1  1  0.000000  0.674930  0.584746  1
  Y  Y2  1  0.000000  0.821275  0.087400  1
  Y  Y3  1  0.000000  0.178717  0.912589  1
  Y  Y4  1  0.000000  0.941682  0.371136  1
  Y  Y5  1  0.000000  0.058276  0.628892  1
  Y  Y6  1  0.000000  0.443795  0.129709  1
  Y  Y7  1  0.000000  0.556230  0.870273  1
  Tc  Tc8  1  0.000000  0.638507  0.320421  1
  Tc  Tc9  1  0.000000  0.361567  0.679598  1
  B  B10  1  0.500000  0.553153  0.432762  1
  B  B11  1  0.500000  0.446859  0.567257  1
  B  B12  1  0.500000  0.053663  0.067180  1
  B  B13  1  0.500000  0.946333  0.932821  1
  B  B14  1  0.500000  0.747790  0.418819  1
  B  B15  1  0.500000  0.252226  0.581280  1
  B  B16  1  0.500000  0.248170  0.081376  1
  B  B17  1  0.500000  0.751825  0.918625  1
  B  B18  1  0.500000  0.791050  0.265677  1
  B  B19  1  0.500000  0.208971  0.734352  1
  B  B20  1  0.500000  0.290289  0.233948  1
  B  B21  1  0.500000  0.709644  0.766004  1
  B  B22  1  0.500000  0.631622  0.185676  1
  B  B23  1  0.500000  0.368402  0.814320  1
  B  B24  1  0.500000  0.131094  0.313538  1
  B  B25  1  0.500000  0.868867  0.686432  1
  B  B26  1  0.500000  0.983178  0.211968  1
  B  B27  1  0.500000  0.016819  0.788028  1
  B  B28  1  0.500000  0.483174  0.287636  1
  B  B29  1  0.500000  0.516963  0.712349  1
  B  B30  1  0.500000  0.604611  0.028846  1
  B  B31  1  0.500000  0.395397  0.971147  1
  B  B32  1  0.500000  0.104416  0.470765  1
  B  B33  1  0.500000  0.895407  0.529289  1
  Os  Os34  1  0.000000  0.137343  0.178026  1
  Os  Os35  1  0.000000  0.862638  0.821953  1
