# generated using pymatgen
data_Zr4Ni4HgAu
_symmetry_space_group_name_H-M   'P 1'
_cell_length_a   7.15886800
_cell_length_b   7.15886800
_cell_length_c   6.70986200
_cell_angle_alpha   90.00000000
_cell_angle_beta   90.00000000
_cell_angle_gamma   90.00000000
_symmetry_Int_Tables_number   1
_chemical_formula_structural   Zr4Ni4HgAu
_chemical_formula_sum   'Zr8 Ni8 Hg2 Au2'
_cell_volume   343.87634147
_cell_formula_units_Z   2
loop_
 _symmetry_equiv_pos_site_id
 _symmetry_equiv_pos_as_xyz
  1  'x, y, z'
loop_
 _atom_site_type_symbol
 _atom_site_label
 _atom_site_symmetry_multiplicity
 _atom_site_fract_x
 _atom_site_fract_y
 _atom_site_fract_z
 _atom_site_occupancy
  Zr  Zr0  1  0.188833  0.176399  0.000000  1
  Zr  Zr1  1  0.676399  0.311167  0.500000  1
  Zr  Zr2  1  0.323601  0.688833  0.500000  1
  Zr  Zr3  1  0.811167  0.823601  0.000000  1
  Zr  Zr4  1  0.655368  0.333522  0.000000  1
  Zr  Zr5  1  0.833522  0.844632  0.500000  1
  Zr  Zr6  1  0.166478  0.155368  0.500000  1
  Zr  Zr7  1  0.344632  0.666478  0.000000  1
  Ni  Ni8  1  0.377877  0.375730  0.277305  1
  Ni  Ni9  1  0.875730  0.122123  0.777305  1
  Ni  Ni10  1  0.124270  0.877877  0.777305  1
  Ni  Ni11  1  0.622123  0.624270  0.277305  1
  Ni  Ni12  1  0.124270  0.877877  0.222695  1
  Ni  Ni13  1  0.875730  0.122123  0.222695  1
  Ni  Ni14  1  0.377877  0.375730  0.722695  1
  Ni  Ni15  1  0.622123  0.624270  0.722695  1
  Hg  Hg16  1  0.000000  0.500000  0.250000  1
  Hg  Hg17  1  0.000000  0.500000  0.750000  1
  Au  Au18  1  0.500000  0.000000  0.250000  1
  Au  Au19  1  0.500000  0.000000  0.750000  1
