# generated using pymatgen
data_Sm2Dy3Zr3(Ni4As3)4
_symmetry_space_group_name_H-M   'P 1'
_cell_length_a   12.75417801
_cell_length_b   12.75417783
_cell_length_c   3.94256300
_cell_angle_alpha   90.00000000
_cell_angle_beta   90.00000000
_cell_angle_gamma   119.99464054
_symmetry_Int_Tables_number   1
_chemical_formula_structural   Sm2Dy3Zr3(Ni4As3)4
_chemical_formula_sum   'Sm2 Dy3 Zr3 Ni16 As12'
_cell_volume   555.44065874
_cell_formula_units_Z   1
loop_
 _symmetry_equiv_pos_site_id
 _symmetry_equiv_pos_as_xyz
  1  'x, y, z'
loop_
 _atom_site_type_symbol
 _atom_site_label
 _atom_site_symmetry_multiplicity
 _atom_site_fract_x
 _atom_site_fract_y
 _atom_site_fract_z
 _atom_site_occupancy
  Sm  Sm0  1  0.666606  0.333245  0.000000  1
  Sm  Sm1  1  0.333246  0.666607  0.000000  1
  Dy  Dy2  1  0.185688  0.000053  0.500001  1
  Dy  Dy3  1  0.000053  0.185688  0.500001  1
  Dy  Dy4  1  0.814417  0.814418  0.500001  1
  Zr  Zr5  1  0.565699  0.000034  0.000000  1
  Zr  Zr6  1  0.434251  0.434251  0.000000  1
  Zr  Zr7  1  0.000034  0.565699  0.000000  1
  Ni  Ni8  1  0.000024  0.000024  0.000000  1
  Ni  Ni9  1  0.808271  0.184595  0.000000  1
  Ni  Ni10  1  0.376360  0.191766  0.000000  1
  Ni  Ni11  1  0.191766  0.376360  0.000000  1
  Ni  Ni12  1  0.815462  0.623667  0.000000  1
  Ni  Ni13  1  0.184596  0.808271  0.000000  1
  Ni  Ni14  1  0.623667  0.815462  0.000000  1
  Ni  Ni15  1  0.725901  0.999941  0.500001  1
  Ni  Ni16  1  0.483810  0.119642  0.500001  1
  Ni  Ni17  1  0.274045  0.274045  0.500001  1
  Ni  Ni18  1  0.880329  0.364184  0.500001  1
  Ni  Ni19  1  0.119642  0.483810  0.500001  1
  Ni  Ni20  1  0.635839  0.516181  0.500001  1
  Ni  Ni21  1  0.516181  0.635840  0.500001  1
  Ni  Ni22  1  0.999941  0.725901  0.500001  1
  Ni  Ni23  1  0.364183  0.880329  0.500001  1
  As  As24  1  0.357860  0.000009  0.000000  1
  As  As25  1  0.822484  0.000023  0.000000  1
  As  As26  1  0.177548  0.177548  0.000000  1
  As  As27  1  0.000009  0.357860  0.000000  1
  As  As28  1  0.642148  0.642148  0.000000  1
  As  As29  1  0.000023  0.822484  0.000000  1
  As  As30  1  0.695565  0.171809  0.500001  1
  As  As31  1  0.476295  0.304472  0.500001  1
  As  As32  1  0.304471  0.476294  0.500001  1
  As  As33  1  0.828180  0.523736  0.500001  1
  As  As34  1  0.171809  0.695566  0.500001  1
  As  As35  1  0.523735  0.828180  0.500001  1
