# generated using pymatgen
data_Tb10CuBi6P
_symmetry_space_group_name_H-M   'P 1'
_cell_length_a   9.35262400
_cell_length_b   9.35262315
_cell_length_c   6.43811400
_cell_angle_alpha   90.00000000
_cell_angle_beta   90.00000000
_cell_angle_gamma   120.00000299
_symmetry_Int_Tables_number   1
_chemical_formula_structural   Tb10CuBi6P
_chemical_formula_sum   'Tb10 Cu1 Bi6 P1'
_cell_volume   487.70385866
_cell_formula_units_Z   1
loop_
 _symmetry_equiv_pos_site_id
 _symmetry_equiv_pos_as_xyz
  1  'x, y, z'
loop_
 _atom_site_type_symbol
 _atom_site_label
 _atom_site_symmetry_multiplicity
 _atom_site_fract_x
 _atom_site_fract_y
 _atom_site_fract_z
 _atom_site_occupancy
  Tb  Tb0  1  0.666667  0.333333  0.500000  1
  Tb  Tb1  1  0.333333  0.666667  0.500000  1
  Tb  Tb2  1  0.333333  0.666667  0.000000  1
  Tb  Tb3  1  0.666667  0.333333  0.000000  1
  Tb  Tb4  1  0.751939  0.751939  0.253691  1
  Tb  Tb5  1  0.248061  0.000000  0.253691  1
  Tb  Tb6  1  0.000000  0.248061  0.253691  1
  Tb  Tb7  1  0.248061  0.248061  0.746309  1
  Tb  Tb8  1  0.751939  0.000000  0.746309  1
  Tb  Tb9  1  0.000000  0.751939  0.746309  1
  Cu  Cu10  1  0.000000  0.000000  0.000000  1
  Bi  Bi11  1  0.390145  0.390145  0.248032  1
  Bi  Bi12  1  0.609855  0.000000  0.248032  1
  Bi  Bi13  1  0.000000  0.609855  0.248032  1
  Bi  Bi14  1  0.609855  0.609855  0.751968  1
  Bi  Bi15  1  0.390145  0.000000  0.751968  1
  Bi  Bi16  1  0.000000  0.390145  0.751968  1
  P  P17  1  0.000000  0.000000  0.500000  1
