# generated using pymatgen
data_Th4Mg2PdAu3
_symmetry_space_group_name_H-M   'P 1'
_cell_length_a   3.97049700
_cell_length_b   8.03547432
_cell_length_c   8.03547432
_cell_angle_alpha   89.24518949
_cell_angle_beta   90.00000000
_cell_angle_gamma   90.00000000
_symmetry_Int_Tables_number   1
_chemical_formula_structural   Th4Mg2PdAu3
_chemical_formula_sum   'Th4 Mg2 Pd1 Au3'
_cell_volume   256.34816904
_cell_formula_units_Z   1
loop_
 _symmetry_equiv_pos_site_id
 _symmetry_equiv_pos_as_xyz
  1  'x, y, z'
loop_
 _atom_site_type_symbol
 _atom_site_label
 _atom_site_symmetry_multiplicity
 _atom_site_fract_x
 _atom_site_fract_y
 _atom_site_fract_z
 _atom_site_occupancy
  Th  Th0  1  0.500000  0.174646  0.666225  1
  Th  Th1  1  0.500000  0.833775  0.325354  1
  Th  Th2  1  0.500000  0.318675  0.181325  1
  Th  Th3  1  0.500000  0.672350  0.827650  1
  Mg  Mg4  1  0.000000  0.000791  0.000561  1
  Mg  Mg5  1  0.000000  0.499439  0.499209  1
  Pd  Pd6  1  0.000000  0.131437  0.368563  1
  Au  Au7  1  0.000000  0.630338  0.131743  1
  Au  Au8  1  0.000000  0.368257  0.869662  1
  Au  Au9  1  0.000000  0.870292  0.629708  1
