# generated using pymatgen
data_La2Gd3Ir4
_symmetry_space_group_name_H-M   'P 1'
_cell_length_a   7.54479500
_cell_length_b   7.60256300
_cell_length_c   14.84303000
_cell_angle_alpha   90.00000000
_cell_angle_beta   90.00000000
_cell_angle_gamma   90.00000000
_symmetry_Int_Tables_number   1
_chemical_formula_structural   La2Gd3Ir4
_chemical_formula_sum   'La8 Gd12 Ir16'
_cell_volume   851.39292509
_cell_formula_units_Z   4
loop_
 _symmetry_equiv_pos_site_id
 _symmetry_equiv_pos_as_xyz
  1  'x, y, z'
loop_
 _atom_site_type_symbol
 _atom_site_label
 _atom_site_symmetry_multiplicity
 _atom_site_fract_x
 _atom_site_fract_y
 _atom_site_fract_z
 _atom_site_occupancy
  La  La0  1  0.007042  0.178944  0.093712  1
  La  La1  1  0.507042  0.321056  0.406288  1
  La  La2  1  0.492958  0.678944  0.906288  1
  La  La3  1  0.992958  0.821056  0.593712  1
  La  La4  1  0.992958  0.821056  0.906288  1
  La  La5  1  0.492958  0.678944  0.593712  1
  La  La6  1  0.507042  0.321056  0.093712  1
  La  La7  1  0.007042  0.178944  0.406288  1
  Gd  Gd8  1  0.860465  0.668813  0.122554  1
  Gd  Gd9  1  0.360465  0.831187  0.377446  1
  Gd  Gd10  1  0.639535  0.168813  0.877446  1
  Gd  Gd11  1  0.139535  0.331187  0.622554  1
  Gd  Gd12  1  0.139535  0.331187  0.877446  1
  Gd  Gd13  1  0.639535  0.168813  0.622554  1
  Gd  Gd14  1  0.360465  0.831187  0.122554  1
  Gd  Gd15  1  0.860465  0.668813  0.377446  1
  Gd  Gd16  1  0.695721  0.003434  0.250000  1
  Gd  Gd17  1  0.195721  0.496566  0.250000  1
  Gd  Gd18  1  0.804279  0.503434  0.750000  1
  Gd  Gd19  1  0.304279  0.996566  0.750000  1
  Ir  Ir20  1  0.068448  0.890183  0.250000  1
  Ir  Ir21  1  0.568448  0.609817  0.250000  1
  Ir  Ir22  1  0.431552  0.390183  0.750000  1
  Ir  Ir23  1  0.931552  0.109817  0.750000  1
  Ir  Ir24  1  0.824504  0.363636  0.250000  1
  Ir  Ir25  1  0.324504  0.136364  0.250000  1
  Ir  Ir26  1  0.675496  0.863636  0.750000  1
  Ir  Ir27  1  0.175496  0.636364  0.750000  1
  Ir  Ir28  1  0.811913  0.466532  0.958226  1
  Ir  Ir29  1  0.311913  0.033468  0.541774  1
  Ir  Ir30  1  0.688087  0.966532  0.041774  1
  Ir  Ir31  1  0.188087  0.533468  0.458226  1
  Ir  Ir32  1  0.188087  0.533468  0.041774  1
  Ir  Ir33  1  0.688087  0.966532  0.458226  1
  Ir  Ir34  1  0.311913  0.033468  0.958226  1
  Ir  Ir35  1  0.811913  0.466532  0.541774  1
