# generated using pymatgen
data_Tb2Ho18Sn13Sb3
_symmetry_space_group_name_H-M   'P 1'
_cell_length_a   8.12206333
_cell_length_b   8.16376339
_cell_length_c   15.42274800
_cell_angle_alpha   90.09415762
_cell_angle_beta   89.60570172
_cell_angle_gamma   90.04423763
_symmetry_Int_Tables_number   1
_chemical_formula_structural   Tb2Ho18Sn13Sb3
_chemical_formula_sum   'Tb2 Ho18 Sn13 Sb3'
_cell_volume   1022.60413981
_cell_formula_units_Z   1
loop_
 _symmetry_equiv_pos_site_id
 _symmetry_equiv_pos_as_xyz
  1  'x, y, z'
loop_
 _atom_site_type_symbol
 _atom_site_label
 _atom_site_symmetry_multiplicity
 _atom_site_fract_x
 _atom_site_fract_y
 _atom_site_fract_z
 _atom_site_occupancy
  Tb  Tb0  1  0.532818  0.325157  0.602237  1
  Tb  Tb1  1  0.029289  0.179300  0.899458  1
  Ho  Ho2  1  0.377317  0.836368  0.878949  1
  Ho  Ho3  1  0.881183  0.661848  0.620825  1
  Ho  Ho4  1  0.620300  0.160752  0.378145  1
  Ho  Ho5  1  0.123803  0.338286  0.122010  1
  Ho  Ho6  1  0.625729  0.160821  0.121455  1
  Ho  Ho7  1  0.122757  0.338192  0.378788  1
  Ho  Ho8  1  0.377803  0.838542  0.621052  1
  Ho  Ho9  1  0.875791  0.661998  0.877664  1
  Ho  Ho10  1  0.538112  0.330004  0.897227  1
  Ho  Ho11  1  0.047164  0.171693  0.606518  1
  Ho  Ho12  1  0.453227  0.671721  0.394066  1
  Ho  Ho13  1  0.960751  0.823199  0.102502  1
  Ho  Ho14  1  0.467741  0.672163  0.100676  1
  Ho  Ho15  1  0.966136  0.827529  0.396339  1
  Ho  Ho16  1  0.207336  0.501858  0.750577  1
  Ho  Ho17  1  0.707297  0.999084  0.752943  1
  Ho  Ho18  1  0.792269  0.498444  0.247868  1
  Ho  Ho19  1  0.292660  0.000952  0.251052  1
  Sn  Sn20  1  0.217087  0.531064  0.957672  1
  Sn  Sn21  1  0.716242  0.966311  0.957890  1
  Sn  Sn22  1  0.218240  0.530986  0.543038  1
  Sn  Sn23  1  0.281959  0.030623  0.457108  1
  Sn  Sn24  1  0.786515  0.466182  0.042142  1
  Sn  Sn25  1  0.574028  0.624551  0.747854  1
  Sn  Sn26  1  0.074406  0.876708  0.750620  1
  Sn  Sn27  1  0.426920  0.375566  0.249129  1
  Sn  Sn28  1  0.926481  0.123114  0.250830  1
  Sn  Sn29  1  0.344288  0.146592  0.752203  1
  Sn  Sn30  1  0.842577  0.353959  0.748597  1
  Sn  Sn31  1  0.655170  0.851479  0.249926  1
  Sn  Sn32  1  0.154876  0.646827  0.248915  1
  Sb  Sb33  1  0.280373  0.027764  0.044765  1
  Sb  Sb34  1  0.775585  0.475722  0.454351  1
  Sb  Sb35  1  0.725766  0.974639  0.544611  1
