# generated using pymatgen
data_Dy4Ho4In2OsRh
_symmetry_space_group_name_H-M   'P 1'
_cell_length_a   9.63788344
_cell_length_b   9.69481592
_cell_length_c   9.63889009
_cell_angle_alpha   59.80788385
_cell_angle_beta   59.59796875
_cell_angle_gamma   59.80439930
_symmetry_Int_Tables_number   1
_chemical_formula_structural   Dy4Ho4In2OsRh
_chemical_formula_sum   'Dy8 Ho8 In4 Os2 Rh2'
_cell_volume   633.03142914
_cell_formula_units_Z   2
loop_
 _symmetry_equiv_pos_site_id
 _symmetry_equiv_pos_as_xyz
  1  'x, y, z'
loop_
 _atom_site_type_symbol
 _atom_site_label
 _atom_site_symmetry_multiplicity
 _atom_site_fract_x
 _atom_site_fract_y
 _atom_site_fract_z
 _atom_site_occupancy
  Dy  Dy0  1  0.189616  0.192272  0.804671  1
  Dy  Dy1  1  0.598407  0.597418  0.206757  1
  Dy  Dy2  1  0.441052  0.058955  0.441039  1
  Dy  Dy3  1  0.438867  0.443988  0.059791  1
  Dy  Dy4  1  0.812758  0.187373  0.812496  1
  Dy  Dy5  1  0.192725  0.806781  0.193714  1
  Dy  Dy6  1  0.438867  0.057354  0.059791  1
  Dy  Dy7  1  0.189616  0.813441  0.804671  1
  Ho  Ho8  1  0.056800  0.442945  0.057309  1
  Ho  Ho9  1  0.804767  0.813469  0.190062  1
  Ho  Ho10  1  0.206823  0.597652  0.597873  1
  Ho  Ho11  1  0.059463  0.444137  0.439033  1
  Ho  Ho12  1  0.059463  0.057366  0.439033  1
  Ho  Ho13  1  0.804767  0.191702  0.190062  1
  Ho  Ho14  1  0.599532  0.202930  0.598987  1
  Ho  Ho15  1  0.599532  0.598551  0.598987  1
  In  In16  1  0.832095  0.832789  0.831898  1
  In  In17  1  0.832939  0.833084  0.500894  1
  In  In18  1  0.501755  0.832783  0.832680  1
  In  In19  1  0.832095  0.503219  0.831898  1
  Os  Os20  1  0.392531  0.828001  0.393041  1
  Os  Os21  1  0.392531  0.386428  0.393041  1
  Rh  Rh22  1  0.830338  0.388442  0.392778  1
  Rh  Rh23  1  0.392663  0.388921  0.829495  1
