# generated using pymatgen
data_Na2ZnPt3
_symmetry_space_group_name_H-M   'P 1'
_cell_length_a   5.25173826
_cell_length_b   5.25173969
_cell_length_c   5.25173979
_cell_angle_alpha   62.39775221
_cell_angle_beta   62.39774896
_cell_angle_gamma   62.39775163
_symmetry_Int_Tables_number   1
_chemical_formula_structural   Na2ZnPt3
_chemical_formula_sum   'Na2 Zn1 Pt3'
_cell_volume   107.89935403
_cell_formula_units_Z   1
loop_
 _symmetry_equiv_pos_site_id
 _symmetry_equiv_pos_as_xyz
  1  'x, y, z'
loop_
 _atom_site_type_symbol
 _atom_site_label
 _atom_site_symmetry_multiplicity
 _atom_site_fract_x
 _atom_site_fract_y
 _atom_site_fract_z
 _atom_site_occupancy
  Na  Na0  1  0.377246  0.377246  0.377246  1
  Na  Na1  1  0.622754  0.622754  0.622754  1
  Zn  Zn2  1  0.000000  0.000000  0.000000  1
  Pt  Pt3  1  0.500000  0.000000  0.000000  1
  Pt  Pt4  1  0.000000  0.500000  0.000000  1
  Pt  Pt5  1  0.000000  0.000000  0.500001  1
