# generated using pymatgen
data_Er7TmTc3OsC8
_symmetry_space_group_name_H-M   'P 1'
_cell_length_a   5.04481600
_cell_length_b   6.50914852
_cell_length_c   9.76675062
_cell_angle_alpha   89.84777739
_cell_angle_beta   90.00000000
_cell_angle_gamma   90.00000000
_symmetry_Int_Tables_number   1
_chemical_formula_structural   Er7TmTc3OsC8
_chemical_formula_sum   'Er7 Tm1 Tc3 Os1 C8'
_cell_volume   320.71411764
_cell_formula_units_Z   1
loop_
 _symmetry_equiv_pos_site_id
 _symmetry_equiv_pos_as_xyz
  1  'x, y, z'
loop_
 _atom_site_type_symbol
 _atom_site_label
 _atom_site_symmetry_multiplicity
 _atom_site_fract_x
 _atom_site_fract_y
 _atom_site_fract_z
 _atom_site_occupancy
  Er  Er0  1  0.750000  0.323230  0.442794  1
  Er  Er1  1  0.750000  0.824024  0.057526  1
  Er  Er2  1  0.250000  0.175427  0.942578  1
  Er  Er3  1  0.250000  0.532582  0.216243  1
  Er  Er4  1  0.750000  0.466087  0.784389  1
  Er  Er5  1  0.750000  0.967901  0.713343  1
  Er  Er6  1  0.250000  0.032078  0.284525  1
  Tm  Tm7  1  0.250000  0.674847  0.557652  1
  Tc  Tc8  1  0.250000  0.717898  0.866952  1
  Tc  Tc9  1  0.750000  0.282664  0.132262  1
  Tc  Tc10  1  0.750000  0.781701  0.367919  1
  Os  Os11  1  0.250000  0.218045  0.632990  1
  C  C12  1  0.250000  0.451084  0.758171  1
  C  C13  1  0.750000  0.549462  0.241333  1
  C  C14  1  0.750000  0.049586  0.259346  1
  C  C15  1  0.250000  0.951778  0.740986  1
  C  C16  1  0.250000  0.824208  0.051776  1
  C  C17  1  0.750000  0.176255  0.947323  1
  C  C18  1  0.750000  0.675740  0.553466  1
  C  C19  1  0.250000  0.325401  0.448427  1
