# generated using pymatgen
data_Cs4Ta3TiH20
_symmetry_space_group_name_H-M   'P 1'
_cell_length_a   11.67808514
_cell_length_b   7.62271537
_cell_length_c   5.20997240
_cell_angle_alpha   90.04313071
_cell_angle_beta   89.99548493
_cell_angle_gamma   89.94747045
_symmetry_Int_Tables_number   1
_chemical_formula_structural   Cs4Ta3TiH20
_chemical_formula_sum   'Cs4 Ta3 Ti1 H20'
_cell_volume   463.78474162
_cell_formula_units_Z   1
loop_
 _symmetry_equiv_pos_site_id
 _symmetry_equiv_pos_as_xyz
  1  'x, y, z'
loop_
 _atom_site_type_symbol
 _atom_site_label
 _atom_site_symmetry_multiplicity
 _atom_site_fract_x
 _atom_site_fract_y
 _atom_site_fract_z
 _atom_site_occupancy
  Cs  Cs0  1  0.669530  0.074506  0.331593  1
  Cs  Cs1  1  0.168527  0.428863  0.337943  1
  Cs  Cs2  1  0.830787  0.572046  0.836866  1
  Cs  Cs3  1  0.333425  0.931163  0.826369  1
  Ta  Ta4  1  0.517252  0.568993  0.308662  1
  Ta  Ta5  1  0.015899  0.939013  0.305833  1
  Ta  Ta6  1  0.984097  0.061123  0.806243  1
  Ti  Ti7  1  0.482169  0.428792  0.807357  1
  H  H8  1  0.343503  0.332585  0.788248  1
  H  H9  1  0.846531  0.174953  0.805945  1
  H  H10  1  0.969626  0.709513  0.317663  1
  H  H11  1  0.464914  0.797037  0.303757  1
  H  H12  1  0.583469  0.400305  0.088526  1
  H  H13  1  0.097244  0.089837  0.072050  1
  H  H14  1  0.395360  0.498600  0.094969  1
  H  H15  1  0.888785  0.968718  0.073782  1
  H  H16  1  0.962110  0.155307  0.456951  1
  H  H17  1  0.466450  0.356524  0.457089  1
  H  H18  1  0.153484  0.825503  0.305035  1
  H  H19  1  0.657602  0.674656  0.286496  1
  H  H20  1  0.535397  0.207335  0.802842  1
  H  H21  1  0.029889  0.290828  0.818265  1
  H  H22  1  0.903004  0.910033  0.572259  1
  H  H23  1  0.413559  0.595594  0.584293  1
  H  H24  1  0.111143  0.030612  0.574540  1
  H  H25  1  0.606135  0.489510  0.587641  1
  H  H26  1  0.532155  0.643254  0.960318  1
  H  H27  1  0.037956  0.844796  0.956463  1
