# generated using pymatgen
data_Nd4BeCo3I2
_symmetry_space_group_name_H-M   'P 1'
_cell_length_a   4.00417700
_cell_length_b   4.00417625
_cell_length_c   17.66730600
_cell_angle_alpha   90.00000000
_cell_angle_beta   90.00000000
_cell_angle_gamma   119.99998144
_symmetry_Int_Tables_number   1
_chemical_formula_structural   Nd4BeCo3I2
_chemical_formula_sum   'Nd4 Be1 Co3 I2'
_cell_volume   245.31691574
_cell_formula_units_Z   1
loop_
 _symmetry_equiv_pos_site_id
 _symmetry_equiv_pos_as_xyz
  1  'x, y, z'
loop_
 _atom_site_type_symbol
 _atom_site_label
 _atom_site_symmetry_multiplicity
 _atom_site_fract_x
 _atom_site_fract_y
 _atom_site_fract_z
 _atom_site_occupancy
  Nd  Nd0  1  0.000000  0.000000  0.105252  1
  Nd  Nd1  1  0.000000  0.000000  0.894788  1
  Nd  Nd2  1  0.000000  0.000000  0.604133  1
  Nd  Nd3  1  0.000000  0.000000  0.396280  1
  Be  Be4  1  0.333333  0.666667  0.499970  1
  Co  Co5  1  0.666667  0.333333  0.498775  1
  Co  Co6  1  0.666667  0.333333  0.002316  1
  Co  Co7  1  0.333333  0.666667  0.998369  1
  I  I8  1  0.333333  0.666667  0.250398  1
  I  I9  1  0.666667  0.333333  0.749719  1
