# generated using pymatgen
data_SrLa2(H6Ir)2
_symmetry_space_group_name_H-M   'P 1'
_cell_length_a   5.05452900
_cell_length_b   5.05452917
_cell_length_c   8.90791700
_cell_angle_alpha   90.00000000
_cell_angle_beta   90.00000000
_cell_angle_gamma   119.99999236
_symmetry_Int_Tables_number   1
_chemical_formula_structural   SrLa2(H6Ir)2
_chemical_formula_sum   'Sr1 La2 H12 Ir2'
_cell_volume   197.09165057
_cell_formula_units_Z   1
loop_
 _symmetry_equiv_pos_site_id
 _symmetry_equiv_pos_as_xyz
  1  'x, y, z'
loop_
 _atom_site_type_symbol
 _atom_site_label
 _atom_site_symmetry_multiplicity
 _atom_site_fract_x
 _atom_site_fract_y
 _atom_site_fract_z
 _atom_site_occupancy
  Sr  Sr0  1  0.000000  0.000000  0.000000  1
  La  La1  1  0.666667  0.333333  0.366213  1
  La  La2  1  0.333333  0.666667  0.633787  1
  H  H3  1  0.178055  0.821945  0.366477  1
  H  H4  1  0.643890  0.821945  0.366477  1
  H  H5  1  0.178055  0.356110  0.366477  1
  H  H6  1  0.821945  0.178055  0.633523  1
  H  H7  1  0.356110  0.178055  0.633523  1
  H  H8  1  0.821945  0.643890  0.633523  1
  H  H9  1  0.509444  0.018888  0.864144  1
  H  H10  1  0.509444  0.490556  0.864144  1
  H  H11  1  0.981112  0.490556  0.864144  1
  H  H12  1  0.490556  0.981112  0.135856  1
  H  H13  1  0.490556  0.509444  0.135856  1
  H  H14  1  0.018888  0.509444  0.135856  1
  Ir  Ir15  1  0.666667  0.333333  0.753766  1
  Ir  Ir16  1  0.333333  0.666667  0.246234  1
