# generated using pymatgen
data_Dy3Ho6Tm7(CdPt)4
_symmetry_space_group_name_H-M   'P 1'
_cell_length_a   9.61111405
_cell_length_b   9.60356485
_cell_length_c   9.60356500
_cell_angle_alpha   60.00000294
_cell_angle_beta   60.02598253
_cell_angle_gamma   60.02598359
_symmetry_Int_Tables_number   1
_chemical_formula_structural   Dy3Ho6Tm7(CdPt)4
_chemical_formula_sum   'Dy3 Ho6 Tm7 Cd4 Pt4'
_cell_volume   627.03841317
_cell_formula_units_Z   1
loop_
 _symmetry_equiv_pos_site_id
 _symmetry_equiv_pos_as_xyz
  1  'x, y, z'
loop_
 _atom_site_type_symbol
 _atom_site_label
 _atom_site_symmetry_multiplicity
 _atom_site_fract_x
 _atom_site_fract_y
 _atom_site_fract_z
 _atom_site_occupancy
  Dy  Dy0  1  0.602938  0.602994  0.602994  1
  Dy  Dy1  1  0.602938  0.602994  0.191075  1
  Dy  Dy2  1  0.602938  0.191075  0.602994  1
  Ho  Ho3  1  0.184703  0.815155  0.815155  1
  Ho  Ho4  1  0.815435  0.184552  0.184552  1
  Ho  Ho5  1  0.815435  0.184552  0.815460  1
  Ho  Ho6  1  0.184703  0.815155  0.184988  1
  Ho  Ho7  1  0.815435  0.815460  0.184552  1
  Ho  Ho8  1  0.184703  0.184988  0.815155  1
  Tm  Tm9  1  0.193071  0.602310  0.602310  1
  Tm  Tm10  1  0.062209  0.438015  0.438015  1
  Tm  Tm11  1  0.437545  0.062450  0.062450  1
  Tm  Tm12  1  0.437545  0.062450  0.437555  1
  Tm  Tm13  1  0.062209  0.438015  0.061761  1
  Tm  Tm14  1  0.437545  0.437555  0.062450  1
  Tm  Tm15  1  0.062209  0.061761  0.438015  1
  Cd  Cd16  1  0.832634  0.831900  0.831900  1
  Cd  Cd17  1  0.832634  0.831900  0.503566  1
  Cd  Cd18  1  0.832634  0.503566  0.831900  1
  Cd  Cd19  1  0.503531  0.832156  0.832156  1
  Pt  Pt20  1  0.391314  0.393434  0.393434  1
  Pt  Pt21  1  0.391314  0.393434  0.821817  1
  Pt  Pt22  1  0.391314  0.821817  0.393434  1
  Pt  Pt23  1  0.823063  0.392312  0.392312  1
