# generated using pymatgen
data_Ho3ErTmBi3
_symmetry_space_group_name_H-M   'P 1'
_cell_length_a   8.21776700
_cell_length_b   9.47130400
_cell_length_c   11.98776300
_cell_angle_alpha   90.00000000
_cell_angle_beta   90.00000000
_cell_angle_gamma   90.00000000
_symmetry_Int_Tables_number   1
_chemical_formula_structural   Ho3ErTmBi3
_chemical_formula_sum   'Ho12 Er4 Tm4 Bi12'
_cell_volume   933.04319145
_cell_formula_units_Z   4
loop_
 _symmetry_equiv_pos_site_id
 _symmetry_equiv_pos_as_xyz
  1  'x, y, z'
loop_
 _atom_site_type_symbol
 _atom_site_label
 _atom_site_symmetry_multiplicity
 _atom_site_fract_x
 _atom_site_fract_y
 _atom_site_fract_z
 _atom_site_occupancy
  Ho  Ho0  1  0.353446  0.749995  0.216469  1
  Ho  Ho1  1  0.853446  0.750005  0.283531  1
  Ho  Ho2  1  0.646554  0.249995  0.783531  1
  Ho  Ho3  1  0.146554  0.250005  0.716469  1
  Ho  Ho4  1  0.476765  0.249987  0.488937  1
  Ho  Ho5  1  0.976765  0.250013  0.011063  1
  Ho  Ho6  1  0.523235  0.749987  0.511063  1
  Ho  Ho7  1  0.023235  0.750013  0.988937  1
  Ho  Ho8  1  0.314325  0.250019  0.218044  1
  Ho  Ho9  1  0.814325  0.249981  0.281956  1
  Ho  Ho10  1  0.685675  0.750019  0.781956  1
  Ho  Ho11  1  0.185675  0.749981  0.718044  1
  Er  Er12  1  0.691878  0.564732  0.058997  1
  Er  Er13  1  0.191878  0.935268  0.441003  1
  Er  Er14  1  0.308122  0.064732  0.941003  1
  Er  Er15  1  0.808122  0.435268  0.558997  1
  Tm  Tm16  1  0.308100  0.435143  0.941012  1
  Tm  Tm17  1  0.808100  0.064857  0.558988  1
  Tm  Tm18  1  0.691900  0.935143  0.058988  1
  Tm  Tm19  1  0.191900  0.564857  0.441012  1
  Bi  Bi20  1  0.405442  0.749905  0.957483  1
  Bi  Bi21  1  0.905442  0.750095  0.542517  1
  Bi  Bi22  1  0.594558  0.249905  0.042517  1
  Bi  Bi23  1  0.094558  0.250095  0.457483  1
  Bi  Bi24  1  0.566201  0.996105  0.325668  1
  Bi  Bi25  1  0.066201  0.503895  0.174332  1
  Bi  Bi26  1  0.433799  0.496105  0.674332  1
  Bi  Bi27  1  0.933799  0.003895  0.825668  1
  Bi  Bi28  1  0.433826  0.003886  0.674334  1
  Bi  Bi29  1  0.933826  0.496114  0.825666  1
  Bi  Bi30  1  0.566174  0.503886  0.325666  1
  Bi  Bi31  1  0.066174  0.996114  0.174334  1
