# generated using pymatgen
data_Ta2Mn2SiOs
_symmetry_space_group_name_H-M   'P 1'
_cell_length_a   5.01673518
_cell_length_b   5.01673512
_cell_length_c   7.95283200
_cell_angle_alpha   90.00000000
_cell_angle_beta   90.00000000
_cell_angle_gamma   121.19422132
_symmetry_Int_Tables_number   1
_chemical_formula_structural   Ta2Mn2SiOs
_chemical_formula_sum   'Ta4 Mn4 Si2 Os2'
_cell_volume   171.21498803
_cell_formula_units_Z   2
loop_
 _symmetry_equiv_pos_site_id
 _symmetry_equiv_pos_as_xyz
  1  'x, y, z'
loop_
 _atom_site_type_symbol
 _atom_site_label
 _atom_site_symmetry_multiplicity
 _atom_site_fract_x
 _atom_site_fract_y
 _atom_site_fract_z
 _atom_site_occupancy
  Ta  Ta0  1  0.664663  0.335337  0.438275  1
  Ta  Ta1  1  0.335337  0.664663  0.561725  1
  Ta  Ta2  1  0.335337  0.664663  0.938275  1
  Ta  Ta3  1  0.664663  0.335337  0.061725  1
  Mn  Mn4  1  0.337211  0.172314  0.750000  1
  Mn  Mn5  1  0.662789  0.827686  0.250000  1
  Mn  Mn6  1  0.827686  0.662789  0.750000  1
  Mn  Mn7  1  0.172314  0.337211  0.250000  1
  Si  Si8  1  0.000000  0.000000  0.000000  1
  Si  Si9  1  0.000000  0.000000  0.500000  1
  Os  Os10  1  0.826746  0.173254  0.750000  1
  Os  Os11  1  0.173254  0.826746  0.250000  1
