# generated using pymatgen
data_DyPa(Al4Fe)2
_symmetry_space_group_name_H-M   'P 1'
_cell_length_a   7.54519400
_cell_length_b   4.08737700
_cell_length_c   6.66070500
_cell_angle_alpha   90.00000000
_cell_angle_beta   90.00000000
_cell_angle_gamma   90.00000000
_symmetry_Int_Tables_number   1
_chemical_formula_structural   DyPa(Al4Fe)2
_chemical_formula_sum   'Dy1 Pa1 Al8 Fe2'
_cell_volume   205.41649133
_cell_formula_units_Z   1
loop_
 _symmetry_equiv_pos_site_id
 _symmetry_equiv_pos_as_xyz
  1  'x, y, z'
loop_
 _atom_site_type_symbol
 _atom_site_label
 _atom_site_symmetry_multiplicity
 _atom_site_fract_x
 _atom_site_fract_y
 _atom_site_fract_z
 _atom_site_occupancy
  Dy  Dy0  1  0.750000  0.000000  0.620435  1
  Pa  Pa1  1  0.250000  0.000000  0.396753  1
  Al  Al2  1  0.006174  0.000000  0.001220  1
  Al  Al3  1  0.493826  0.000000  0.001220  1
  Al  Al4  1  0.250000  0.500000  0.046624  1
  Al  Al5  1  0.567035  0.500000  0.305764  1
  Al  Al6  1  0.932965  0.500000  0.305764  1
  Al  Al7  1  0.065109  0.500000  0.696254  1
  Al  Al8  1  0.434890  0.500000  0.696254  1
  Al  Al9  1  0.750000  0.500000  0.958142  1
  Fe  Fe10  1  0.750000  0.000000  0.196853  1
  Fe  Fe11  1  0.250000  0.000000  0.774723  1
