# generated using pymatgen
data_CeEr9(Al2Ru3)2
_symmetry_space_group_name_H-M   'P 1'
_cell_length_a   8.34831406
_cell_length_b   8.34831436
_cell_length_c   8.24294270
_cell_angle_alpha   110.11720138
_cell_angle_beta   109.24055881
_cell_angle_gamma   109.57399835
_symmetry_Int_Tables_number   1
_chemical_formula_structural   CeEr9(Al2Ru3)2
_chemical_formula_sum   'Ce1 Er9 Al4 Ru6'
_cell_volume   439.36988246
_cell_formula_units_Z   1
loop_
 _symmetry_equiv_pos_site_id
 _symmetry_equiv_pos_as_xyz
  1  'x, y, z'
loop_
 _atom_site_type_symbol
 _atom_site_label
 _atom_site_symmetry_multiplicity
 _atom_site_fract_x
 _atom_site_fract_y
 _atom_site_fract_z
 _atom_site_occupancy
  Ce  Ce0  1  0.193464  0.943464  0.250000  1
  Er  Er1  1  0.780767  0.786707  0.784477  1
  Er  Er2  1  0.318430  0.568430  0.750000  1
  Er  Er3  1  0.752840  0.320157  0.569577  1
  Er  Er4  1  0.570400  0.748447  0.318360  1
  Er  Er5  1  0.715063  0.499458  0.997969  1
  Er  Er6  1  0.001490  0.717094  0.502031  1
  Er  Er7  1  0.502230  0.996290  0.715523  1
  Er  Er8  1  0.250580  0.183263  0.930423  1
  Er  Er9  1  0.930086  0.252039  0.181640  1
  Al  Al10  1  0.412731  0.414770  0.408390  1
  Al  Al11  1  0.091581  0.496586  0.002784  1
  Al  Al12  1  0.993802  0.088798  0.497216  1
  Al  Al13  1  0.506379  0.004341  0.091610  1
  Ru  Ru14  1  0.874240  0.124240  0.750000  1
  Ru  Ru15  1  0.741860  0.870728  0.119111  1
  Ru  Ru16  1  0.128695  0.762142  0.903978  1
  Ru  Ru17  1  0.251617  0.622750  0.380889  1
  Ru  Ru18  1  0.358164  0.224717  0.596022  1
  Ru  Ru19  1  0.625579  0.375579  0.250000  1
