# generated using pymatgen
data_Lu8VB24IrRh2
_symmetry_space_group_name_H-M   'P 1'
_cell_length_a   3.57137100
_cell_length_b   9.05720214
_cell_length_c   11.42382464
_cell_angle_alpha   90.21945355
_cell_angle_beta   90.00000000
_cell_angle_gamma   90.00000000
_symmetry_Int_Tables_number   1
_chemical_formula_structural   Lu8VB24IrRh2
_chemical_formula_sum   'Lu8 V1 B24 Ir1 Rh2'
_cell_volume   369.51950775
_cell_formula_units_Z   1
loop_
 _symmetry_equiv_pos_site_id
 _symmetry_equiv_pos_as_xyz
  1  'x, y, z'
loop_
 _atom_site_type_symbol
 _atom_site_label
 _atom_site_symmetry_multiplicity
 _atom_site_fract_x
 _atom_site_fract_y
 _atom_site_fract_z
 _atom_site_occupancy
  Lu  Lu0  1  0.500000  0.321642  0.415564  1
  Lu  Lu1  1  0.500000  0.682061  0.589829  1
  Lu  Lu2  1  0.500000  0.175807  0.912384  1
  Lu  Lu3  1  0.500000  0.821045  0.081656  1
  Lu  Lu4  1  0.500000  0.444423  0.126654  1
  Lu  Lu5  1  0.500000  0.556787  0.874156  1
  Lu  Lu6  1  0.500000  0.053389  0.627254  1
  Lu  Lu7  1  0.500000  0.943484  0.372928  1
  V  V8  1  0.500000  0.861722  0.820934  1
  B  B9  1  0.000000  0.107314  0.470239  1
  B  B10  1  0.000000  0.892768  0.528111  1
  B  B11  1  0.000000  0.392586  0.971106  1
  B  B12  1  0.000000  0.605506  0.029987  1
  B  B13  1  0.000000  0.132715  0.317422  1
  B  B14  1  0.000000  0.867937  0.683830  1
  B  B15  1  0.000000  0.367693  0.816487  1
  B  B16  1  0.000000  0.632324  0.181909  1
  B  B17  1  0.000000  0.052839  0.065769  1
  B  B18  1  0.000000  0.947917  0.935177  1
  B  B19  1  0.000000  0.447203  0.565619  1
  B  B20  1  0.000000  0.553498  0.435224  1
  B  B21  1  0.000000  0.481674  0.287209  1
  B  B22  1  0.000000  0.518999  0.712610  1
  B  B23  1  0.000000  0.020032  0.787235  1
  B  B24  1  0.000000  0.981444  0.212766  1
  B  B25  1  0.000000  0.249720  0.078516  1
  B  B26  1  0.000000  0.750038  0.920897  1
  B  B27  1  0.000000  0.249588  0.579277  1
  B  B28  1  0.000000  0.749850  0.421454  1
  B  B29  1  0.000000  0.294330  0.236059  1
  B  B30  1  0.000000  0.705123  0.764228  1
  B  B31  1  0.000000  0.206168  0.735033  1
  B  B32  1  0.000000  0.792974  0.263360  1
  Ir  Ir33  1  0.500000  0.140032  0.180029  1
  Rh  Rh34  1  0.500000  0.360728  0.678820  1
  Rh  Rh35  1  0.500000  0.638642  0.320270  1
