# generated using pymatgen
data_Er6Sc4(InSb)3
_symmetry_space_group_name_H-M   'P 1'
_cell_length_a   8.76518500
_cell_length_b   8.74840578
_cell_length_c   6.24432600
_cell_angle_alpha   90.00000000
_cell_angle_beta   90.00000000
_cell_angle_gamma   120.06346260
_symmetry_Int_Tables_number   1
_chemical_formula_structural   Er6Sc4(InSb)3
_chemical_formula_sum   'Er6 Sc4 In3 Sb3'
_cell_volume   414.40799266
_cell_formula_units_Z   1
loop_
 _symmetry_equiv_pos_site_id
 _symmetry_equiv_pos_as_xyz
  1  'x, y, z'
loop_
 _atom_site_type_symbol
 _atom_site_label
 _atom_site_symmetry_multiplicity
 _atom_site_fract_x
 _atom_site_fract_y
 _atom_site_fract_z
 _atom_site_occupancy
  Er  Er0  1  0.002429  0.762385  0.750000  1
  Er  Er1  1  0.002883  0.241489  0.250000  1
  Er  Er2  1  0.761394  0.758511  0.250000  1
  Er  Er3  1  0.758634  0.000000  0.750000  1
  Er  Er4  1  0.240044  0.237615  0.750000  1
  Er  Er5  1  0.237912  0.000000  0.250000  1
  Sc  Sc6  1  0.332504  0.666056  0.498713  1
  Sc  Sc7  1  0.666449  0.333944  0.001287  1
  Sc  Sc8  1  0.666449  0.333944  0.498713  1
  Sc  Sc9  1  0.332504  0.666056  0.001287  1
  In  In10  1  0.400051  0.000000  0.750000  1
  In  In11  1  0.398610  0.400497  0.250000  1
  In  In12  1  0.998114  0.599503  0.250000  1
  Sb  Sb13  1  0.998354  0.397244  0.750000  1
  Sb  Sb14  1  0.601110  0.602756  0.750000  1
  Sb  Sb15  1  0.602557  0.000000  0.250000  1
