# generated using pymatgen
data_Lu10Tl7InRu3Pt
_symmetry_space_group_name_H-M   'P 1'
_cell_length_a   3.55761600
_cell_length_b   7.98983730
_cell_length_c   18.26149621
_cell_angle_alpha   89.73502850
_cell_angle_beta   90.00000000
_cell_angle_gamma   90.00000000
_symmetry_Int_Tables_number   1
_chemical_formula_structural   Lu10Tl7InRu3Pt
_chemical_formula_sum   'Lu10 Tl7 In1 Ru3 Pt1'
_cell_volume   519.07333397
_cell_formula_units_Z   1
loop_
 _symmetry_equiv_pos_site_id
 _symmetry_equiv_pos_as_xyz
  1  'x, y, z'
loop_
 _atom_site_type_symbol
 _atom_site_label
 _atom_site_symmetry_multiplicity
 _atom_site_fract_x
 _atom_site_fract_y
 _atom_site_fract_z
 _atom_site_occupancy
  Lu  Lu0  1  0.000000  0.117288  0.411633  1
  Lu  Lu1  1  0.000000  0.884172  0.590910  1
  Lu  Lu2  1  0.000000  0.380928  0.906308  1
  Lu  Lu3  1  0.000000  0.614419  0.089360  1
  Lu  Lu4  1  0.000000  0.239924  0.223658  1
  Lu  Lu5  1  0.000000  0.752395  0.779134  1
  Lu  Lu6  1  0.000000  0.251798  0.719990  1
  Lu  Lu7  1  0.000000  0.758857  0.279942  1
  Lu  Lu8  1  0.000000  0.997036  0.999245  1
  Lu  Lu9  1  0.000000  0.503801  0.499858  1
  Tl  Tl10  1  0.500000  0.429029  0.355185  1
  Tl  Tl11  1  0.500000  0.570011  0.647919  1
  Tl  Tl12  1  0.500000  0.066456  0.850523  1
  Tl  Tl13  1  0.500000  0.934612  0.148131  1
  Tl  Tl14  1  0.500000  0.292930  0.060058  1
  Tl  Tl15  1  0.500000  0.698089  0.936806  1
  Tl  Tl16  1  0.500000  0.203907  0.564600  1
  In  In17  1  0.500000  0.798841  0.433636  1
  Ru  Ru18  1  0.500000  0.024099  0.305549  1
  Ru  Ru19  1  0.500000  0.974912  0.697283  1
  Ru  Ru20  1  0.500000  0.478466  0.801556  1
  Pt  Pt21  1  0.500000  0.528030  0.198715  1
