# generated using pymatgen
data_YbHoGa9Ru5
_symmetry_space_group_name_H-M   'P 1'
_cell_length_a   8.01359095
_cell_length_b   8.01359059
_cell_length_c   8.01359108
_cell_angle_alpha   134.88744394
_cell_angle_beta   134.34138745
_cell_angle_gamma   66.13090624
_symmetry_Int_Tables_number   1
_chemical_formula_structural   YbHoGa9Ru5
_chemical_formula_sum   'Yb1 Ho1 Ga9 Ru5'
_cell_volume   256.74123760
_cell_formula_units_Z   1
loop_
 _symmetry_equiv_pos_site_id
 _symmetry_equiv_pos_as_xyz
  1  'x, y, z'
loop_
 _atom_site_type_symbol
 _atom_site_label
 _atom_site_symmetry_multiplicity
 _atom_site_fract_x
 _atom_site_fract_y
 _atom_site_fract_z
 _atom_site_occupancy
  Yb  Yb0  1  0.500000  0.000000  0.500000  1
  Ho  Ho1  1  0.000000  0.500000  0.500000  1
  Ga  Ga2  1  0.437245  0.859294  0.002714  1
  Ga  Ga3  1  0.143420  0.140706  0.577951  1
  Ga  Ga4  1  0.856580  0.434531  0.997286  1
  Ga  Ga5  1  0.856580  0.859294  0.422049  1
  Ga  Ga6  1  0.562755  0.140706  0.997286  1
  Ga  Ga7  1  0.143420  0.565469  0.002714  1
  Ga  Ga8  1  0.562755  0.565469  0.422049  1
  Ga  Ga9  1  0.000000  0.000000  0.000000  1
  Ga  Ga10  1  0.437245  0.434531  0.577951  1
  Ru  Ru11  1  0.181974  0.181974  0.000000  1
  Ru  Ru12  1  0.818026  0.818026  0.000000  1
  Ru  Ru13  1  0.249441  0.749441  0.500000  1
  Ru  Ru14  1  0.750559  0.250559  0.500000  1
  Ru  Ru15  1  0.500000  0.500000  0.000000  1
