# generated using pymatgen
data_KBa(AsIr)4
_symmetry_space_group_name_H-M   'P 1'
_cell_length_a   7.24318854
_cell_length_b   7.24318864
_cell_length_c   5.75381800
_cell_angle_alpha   90.00000000
_cell_angle_beta   90.00000000
_cell_angle_gamma   133.17080872
_symmetry_Int_Tables_number   1
_chemical_formula_structural   KBa(AsIr)4
_chemical_formula_sum   'K1 Ba1 As4 Ir4'
_cell_volume   220.15685936
_cell_formula_units_Z   1
loop_
 _symmetry_equiv_pos_site_id
 _symmetry_equiv_pos_as_xyz
  1  'x, y, z'
loop_
 _atom_site_type_symbol
 _atom_site_label
 _atom_site_symmetry_multiplicity
 _atom_site_fract_x
 _atom_site_fract_y
 _atom_site_fract_z
 _atom_site_occupancy
  K  K0  1  0.000000  0.000000  0.000000  1
  Ba  Ba1  1  0.500000  0.500000  0.500000  1
  As  As2  1  0.642636  0.357364  0.000000  1
  As  As3  1  0.144709  0.855291  0.500000  1
  As  As4  1  0.855291  0.144709  0.500000  1
  As  As5  1  0.357364  0.642636  0.000000  1
  Ir  Ir6  1  0.500000  0.000000  0.751129  1
  Ir  Ir7  1  0.000000  0.500000  0.248871  1
  Ir  Ir8  1  0.000000  0.500000  0.751129  1
  Ir  Ir9  1  0.500000  0.000000  0.248871  1
