# generated using pymatgen
data_LuPu2U(AlB4)4
_symmetry_space_group_name_H-M   'P 1'
_cell_length_a   3.56414200
_cell_length_b   5.93069209
_cell_length_c   11.49371329
_cell_angle_alpha   89.89076822
_cell_angle_beta   90.00000000
_cell_angle_gamma   90.00000000
_symmetry_Int_Tables_number   1
_chemical_formula_structural   LuPu2U(AlB4)4
_chemical_formula_sum   'Lu1 Pu2 U1 Al4 B16'
_cell_volume   242.95170178
_cell_formula_units_Z   1
loop_
 _symmetry_equiv_pos_site_id
 _symmetry_equiv_pos_as_xyz
  1  'x, y, z'
loop_
 _atom_site_type_symbol
 _atom_site_label
 _atom_site_symmetry_multiplicity
 _atom_site_fract_x
 _atom_site_fract_y
 _atom_site_fract_z
 _atom_site_occupancy
  Lu  Lu0  1  0.000000  0.128713  0.150226  1
  Pu  Pu1  1  0.000000  0.628447  0.349749  1
  Pu  Pu2  1  0.000000  0.868840  0.848939  1
  U  U3  1  0.000000  0.371259  0.651115  1
  Al  Al4  1  0.000000  0.360819  0.909901  1
  Al  Al5  1  0.000000  0.638952  0.090205  1
  Al  Al6  1  0.000000  0.863076  0.590657  1
  Al  Al7  1  0.000000  0.138307  0.409725  1
  B  B8  1  0.500000  0.028649  0.693355  1
  B  B9  1  0.500000  0.974688  0.306266  1
  B  B10  1  0.500000  0.527293  0.806608  1
  B  B11  1  0.500000  0.474081  0.192535  1
  B  B12  1  0.500000  0.114190  0.547156  1
  B  B13  1  0.500000  0.886572  0.452049  1
  B  B14  1  0.500000  0.614098  0.954493  1
  B  B15  1  0.500000  0.383858  0.047166  1
  B  B16  1  0.500000  0.289723  0.311253  1
  B  B17  1  0.500000  0.708321  0.688022  1
  B  B18  1  0.500000  0.790956  0.187656  1
  B  B19  1  0.500000  0.209430  0.811951  1
  B  B20  1  0.500000  0.367840  0.468309  1
  B  B21  1  0.500000  0.631650  0.530804  1
  B  B22  1  0.500000  0.868136  0.031844  1
  B  B23  1  0.500000  0.132101  0.970013  1
