# generated using pymatgen
data_Er5Tm7Tc3Pt
_symmetry_space_group_name_H-M   'P 1'
_cell_length_a   6.23115459
_cell_length_b   7.36418706
_cell_length_c   9.03958957
_cell_angle_alpha   89.98825154
_cell_angle_beta   90.03902947
_cell_angle_gamma   89.98074478
_symmetry_Int_Tables_number   1
_chemical_formula_structural   Er5Tm7Tc3Pt
_chemical_formula_sum   'Er5 Tm7 Tc3 Pt1'
_cell_volume   414.80302520
_cell_formula_units_Z   1
loop_
 _symmetry_equiv_pos_site_id
 _symmetry_equiv_pos_as_xyz
  1  'x, y, z'
loop_
 _atom_site_type_symbol
 _atom_site_label
 _atom_site_symmetry_multiplicity
 _atom_site_fract_x
 _atom_site_fract_y
 _atom_site_fract_z
 _atom_site_occupancy
  Er  Er0  1  0.331132  0.675997  0.066224  1
  Er  Er1  1  0.874587  0.541778  0.250145  1
  Er  Er2  1  0.620989  0.037329  0.250136  1
  Er  Er3  1  0.127211  0.456065  0.749837  1
  Er  Er4  1  0.373472  0.965461  0.749881  1
  Tm  Tm5  1  0.162981  0.177346  0.436615  1
  Tm  Tm6  1  0.665520  0.318388  0.558432  1
  Tm  Tm7  1  0.838957  0.827972  0.940588  1
  Tm  Tm8  1  0.665731  0.318243  0.941430  1
  Tm  Tm9  1  0.839039  0.827946  0.559298  1
  Tm  Tm10  1  0.331119  0.675890  0.433964  1
  Tm  Tm11  1  0.162881  0.177335  0.063405  1
  Tc  Tc12  1  0.038259  0.884982  0.250150  1
  Tc  Tc13  1  0.463950  0.385834  0.250131  1
  Tc  Tc14  1  0.957980  0.115314  0.750048  1
  Pt  Pt15  1  0.546189  0.614119  0.749717  1
