# generated using pymatgen
data_Np2Ti(BiO3)6
_symmetry_space_group_name_H-M   'P 1'
_cell_length_a   9.51546800
_cell_length_b   9.51547082
_cell_length_c   5.29087600
_cell_angle_alpha   90.00001204
_cell_angle_beta   90.00000000
_cell_angle_gamma   119.99996935
_symmetry_Int_Tables_number   1
_chemical_formula_structural   Np2Ti(BiO3)6
_chemical_formula_sum   'Np2 Ti1 Bi6 O18'
_cell_volume   414.87645046
_cell_formula_units_Z   1
loop_
 _symmetry_equiv_pos_site_id
 _symmetry_equiv_pos_as_xyz
  1  'x, y, z'
loop_
 _atom_site_type_symbol
 _atom_site_label
 _atom_site_symmetry_multiplicity
 _atom_site_fract_x
 _atom_site_fract_y
 _atom_site_fract_z
 _atom_site_occupancy
  Np  Np0  1  0.333333  0.666667  0.005435  1
  Np  Np1  1  0.666667  0.333333  0.994708  1
  Ti  Ti2  1  0.000000  0.000000  0.500013  1
  Bi  Bi3  1  0.999995  0.358355  0.499980  1
  Bi  Bi4  1  0.266049  0.266049  0.999965  1
  Bi  Bi5  1  0.000001  0.733951  0.999965  1
  Bi  Bi6  1  0.641645  0.641639  0.499980  1
  Bi  Bi7  1  0.358361  0.000005  0.499980  1
  Bi  Bi8  1  0.733950  0.000000  0.999965  1
  O  O9  1  0.064110  0.192737  0.718120  1
  O  O10  1  0.225482  0.459930  0.224199  1
  O  O11  1  0.134927  0.594710  0.791376  1
  O  O12  1  0.405290  0.540217  0.791375  1
  O  O13  1  0.234448  0.774518  0.224199  1
  O  O14  1  0.128625  0.935889  0.718120  1
  O  O15  1  0.540070  0.765552  0.224200  1
  O  O16  1  0.192742  0.064128  0.281878  1
  O  O17  1  0.459783  0.865073  0.791376  1
  O  O18  1  0.807264  0.871375  0.718120  1
  O  O19  1  0.460041  0.225573  0.775793  1
  O  O20  1  0.594720  0.134861  0.208638  1
  O  O21  1  0.540141  0.405280  0.208639  1
  O  O22  1  0.774427  0.234468  0.775793  1
  O  O23  1  0.935872  0.128615  0.281878  1
  O  O24  1  0.765532  0.539958  0.775793  1
  O  O25  1  0.865139  0.459859  0.208637  1
  O  O26  1  0.871385  0.807259  0.281878  1
