# generated using pymatgen
data_TaBe2NbB2
_symmetry_space_group_name_H-M   'P 1'
_cell_length_a   4.62011442
_cell_length_b   4.62011469
_cell_length_c   4.62011537
_cell_angle_alpha   138.51985680
_cell_angle_beta   104.27313931
_cell_angle_gamma   90.24464270
_symmetry_Int_Tables_number   1
_chemical_formula_structural   TaBe2NbB2
_chemical_formula_sum   'Ta1 Be2 Nb1 B2'
_cell_volume   60.49916305
_cell_formula_units_Z   1
loop_
 _symmetry_equiv_pos_site_id
 _symmetry_equiv_pos_as_xyz
  1  'x, y, z'
loop_
 _atom_site_type_symbol
 _atom_site_label
 _atom_site_symmetry_multiplicity
 _atom_site_fract_x
 _atom_site_fract_y
 _atom_site_fract_z
 _atom_site_occupancy
  Ta  Ta0  1  0.999632  0.000000  0.999632  1
  Be  Be1  1  0.583455  0.250252  0.333203  1
  Be  Be2  1  0.082950  0.749748  0.333203  1
  Nb  Nb3  1  0.500420  0.499999  0.000421  1
  B  B4  1  0.917511  0.250740  0.666771  1
  B  B5  1  0.416031  0.749260  0.666772  1
