# generated using pymatgen
data_ErCdCu3Pt
_symmetry_space_group_name_H-M   'P 1'
_cell_length_a   5.12442145
_cell_length_b   5.18323840
_cell_length_c   5.12442100
_cell_angle_alpha   60.37466519
_cell_angle_beta   59.99999647
_cell_angle_gamma   60.37466635
_symmetry_Int_Tables_number   1
_chemical_formula_structural   ErCdCu3Pt
_chemical_formula_sum   'Er1 Cd1 Cu3 Pt1'
_cell_volume   96.78592037
_cell_formula_units_Z   1
loop_
 _symmetry_equiv_pos_site_id
 _symmetry_equiv_pos_as_xyz
  1  'x, y, z'
loop_
 _atom_site_type_symbol
 _atom_site_label
 _atom_site_symmetry_multiplicity
 _atom_site_fract_x
 _atom_site_fract_y
 _atom_site_fract_z
 _atom_site_occupancy
  Er  Er0  1  0.747871  0.756386  0.747871  1
  Cd  Cd1  1  0.998582  0.004254  0.998582  1
  Cu  Cu2  1  0.375592  0.372031  0.375592  1
  Cu  Cu3  1  0.876785  0.372031  0.375592  1
  Cu  Cu4  1  0.375592  0.372031  0.876785  1
  Pt  Pt5  1  0.375577  0.873267  0.375577  1
