# generated using pymatgen
data_Dy4Ga3Re2Os3
_symmetry_space_group_name_H-M   'P 1'
_cell_length_a   5.40278372
_cell_length_b   5.29685804
_cell_length_c   8.96812700
_cell_angle_alpha   90.00000000
_cell_angle_beta   90.00000000
_cell_angle_gamma   119.35354959
_symmetry_Int_Tables_number   1
_chemical_formula_structural   Dy4Ga3Re2Os3
_chemical_formula_sum   'Dy4 Ga3 Re2 Os3'
_cell_volume   223.69723776
_cell_formula_units_Z   1
loop_
 _symmetry_equiv_pos_site_id
 _symmetry_equiv_pos_as_xyz
  1  'x, y, z'
loop_
 _atom_site_type_symbol
 _atom_site_label
 _atom_site_symmetry_multiplicity
 _atom_site_fract_x
 _atom_site_fract_y
 _atom_site_fract_z
 _atom_site_occupancy
  Dy  Dy0  1  0.334607  0.667305  0.443207  1
  Dy  Dy1  1  0.668120  0.334060  0.562044  1
  Dy  Dy2  1  0.668120  0.334060  0.937956  1
  Dy  Dy3  1  0.334607  0.667305  0.056793  1
  Ga  Ga4  1  0.835626  0.165154  0.250000  1
  Ga  Ga5  1  0.835626  0.670472  0.250000  1
  Ga  Ga6  1  0.329214  0.164606  0.250000  1
  Re  Re7  1  0.162778  0.828462  0.750000  1
  Re  Re8  1  0.162778  0.334317  0.750000  1
  Os  Os9  1  0.010896  0.005448  0.501291  1
  Os  Os10  1  0.010896  0.005448  0.998709  1
  Os  Os11  1  0.646731  0.823365  0.750000  1
