# generated using pymatgen
data_Tb3DyLu3CoI12
_symmetry_space_group_name_H-M   'P 1'
_cell_length_a   9.68609671
_cell_length_b   9.68609721
_cell_length_c   9.68609688
_cell_angle_alpha   106.79305929
_cell_angle_beta   106.79307103
_cell_angle_gamma   106.79306617
_symmetry_Int_Tables_number   1
_chemical_formula_structural   Tb3DyLu3CoI12
_chemical_formula_sum   'Tb3 Dy1 Lu3 Co1 I12'
_cell_volume   761.05098258
_cell_formula_units_Z   1
loop_
 _symmetry_equiv_pos_site_id
 _symmetry_equiv_pos_as_xyz
  1  'x, y, z'
loop_
 _atom_site_type_symbol
 _atom_site_label
 _atom_site_symmetry_multiplicity
 _atom_site_fract_x
 _atom_site_fract_y
 _atom_site_fract_z
 _atom_site_occupancy
  Tb  Tb0  1  0.980126  0.909487  0.710395  1
  Tb  Tb1  1  0.909487  0.710395  0.980126  1
  Tb  Tb2  1  0.710395  0.980126  0.909487  1
  Dy  Dy3  1  0.500812  0.500812  0.500812  1
  Lu  Lu4  1  0.022172  0.090582  0.280450  1
  Lu  Lu5  1  0.090582  0.280450  0.022172  1
  Lu  Lu6  1  0.280450  0.022172  0.090582  1
  Co  Co7  1  0.998873  0.998873  0.998873  1
  I  I8  1  0.159499  0.461319  0.384663  1
  I  I9  1  0.461319  0.384663  0.159499  1
  I  I10  1  0.384663  0.159499  0.461319  1
  I  I11  1  0.840960  0.535656  0.613417  1
  I  I12  1  0.535656  0.613417  0.840960  1
  I  I13  1  0.613417  0.840960  0.535656  1
  I  I14  1  0.677640  0.072236  0.227899  1
  I  I15  1  0.072236  0.227899  0.677640  1
  I  I16  1  0.227899  0.677640  0.072236  1
  I  I17  1  0.324764  0.929772  0.779279  1
  I  I18  1  0.929772  0.779279  0.324764  1
  I  I19  1  0.779279  0.324764  0.929772  1
