# generated using pymatgen
data_Dy3Sc2Tl3S
_symmetry_space_group_name_H-M   'P 1'
_cell_length_a   8.98145400
_cell_length_b   8.98145372
_cell_length_c   6.48976600
_cell_angle_alpha   90.00000000
_cell_angle_beta   90.00000000
_cell_angle_gamma   120.00000104
_symmetry_Int_Tables_number   1
_chemical_formula_structural   Dy3Sc2Tl3S
_chemical_formula_sum   'Dy6 Sc4 Tl6 S2'
_cell_volume   453.37017969
_cell_formula_units_Z   2
loop_
 _symmetry_equiv_pos_site_id
 _symmetry_equiv_pos_as_xyz
  1  'x, y, z'
loop_
 _atom_site_type_symbol
 _atom_site_label
 _atom_site_symmetry_multiplicity
 _atom_site_fract_x
 _atom_site_fract_y
 _atom_site_fract_z
 _atom_site_occupancy
  Dy  Dy0  1  0.754243  0.754243  0.750000  1
  Dy  Dy1  1  0.245757  0.000000  0.750000  1
  Dy  Dy2  1  0.000000  0.245757  0.750000  1
  Dy  Dy3  1  0.245757  0.245757  0.250000  1
  Dy  Dy4  1  0.754243  0.000000  0.250000  1
  Dy  Dy5  1  0.000000  0.754243  0.250000  1
  Sc  Sc6  1  0.666667  0.333333  0.000000  1
  Sc  Sc7  1  0.333333  0.666667  0.000000  1
  Sc  Sc8  1  0.333333  0.666667  0.500000  1
  Sc  Sc9  1  0.666667  0.333333  0.500000  1
  Tl  Tl10  1  0.404298  0.404298  0.750000  1
  Tl  Tl11  1  0.595702  0.000000  0.750000  1
  Tl  Tl12  1  0.000000  0.595702  0.750000  1
  Tl  Tl13  1  0.595702  0.595702  0.250000  1
  Tl  Tl14  1  0.404298  0.000000  0.250000  1
  Tl  Tl15  1  0.000000  0.404298  0.250000  1
  S  S16  1  0.000000  0.000000  0.000000  1
  S  S17  1  0.000000  0.000000  0.500000  1
