# generated using pymatgen
data_NdAg3(TeO4)4
_symmetry_space_group_name_H-M   'P 1'
_cell_length_a   5.05178563
_cell_length_b   5.20300887
_cell_length_c   13.01158800
_cell_angle_alpha   90.00000000
_cell_angle_beta   90.00000000
_cell_angle_gamma   88.34870749
_symmetry_Int_Tables_number   1
_chemical_formula_structural   NdAg3(TeO4)4
_chemical_formula_sum   'Nd1 Ag3 Te4 O16'
_cell_volume   341.86086782
_cell_formula_units_Z   1
loop_
 _symmetry_equiv_pos_site_id
 _symmetry_equiv_pos_as_xyz
  1  'x, y, z'
loop_
 _atom_site_type_symbol
 _atom_site_label
 _atom_site_symmetry_multiplicity
 _atom_site_fract_x
 _atom_site_fract_y
 _atom_site_fract_z
 _atom_site_occupancy
  Nd  Nd0  1  0.750000  0.000000  0.674267  1
  Ag  Ag1  1  0.250000  0.500000  0.835741  1
  Ag  Ag2  1  0.250000  0.000000  0.326470  1
  Ag  Ag3  1  0.750000  0.500000  0.166981  1
  Te  Te4  1  0.750000  0.500000  0.419328  1
  Te  Te5  1  0.250000  0.000000  0.076255  1
  Te  Te6  1  0.250000  0.500000  0.565877  1
  Te  Te7  1  0.750000  0.000000  0.935625  1
  O  O8  1  0.123615  0.270780  0.665412  1
  O  O9  1  0.605855  0.211761  0.828316  1
  O  O10  1  0.894145  0.788239  0.828316  1
  O  O11  1  0.376385  0.729220  0.665412  1
  O  O12  1  0.897948  0.718969  0.321526  1
  O  O13  1  0.405938  0.784294  0.180263  1
  O  O14  1  0.094062  0.215706  0.180263  1
  O  O15  1  0.602052  0.281031  0.321526  1
  O  O16  1  0.579579  0.294635  0.541602  1
  O  O17  1  0.062872  0.207757  0.962315  1
  O  O18  1  0.437128  0.792243  0.962315  1
  O  O19  1  0.920421  0.705365  0.541602  1
  O  O20  1  0.425875  0.710155  0.453858  1
  O  O21  1  0.937574  0.787162  0.046436  1
  O  O22  1  0.562426  0.212838  0.046436  1
  O  O23  1  0.074125  0.289845  0.453858  1
