# generated using pymatgen
data_Sm(BeB14)2
_symmetry_space_group_name_H-M   'P 1'
_cell_length_a   7.21339238
_cell_length_b   7.21339193
_cell_length_c   5.72671152
_cell_angle_alpha   66.74600433
_cell_angle_beta   66.74601909
_cell_angle_gamma   92.18755637
_symmetry_Int_Tables_number   1
_chemical_formula_structural   Sm(BeB14)2
_chemical_formula_sum   'Sm1 Be2 B28'
_cell_volume   244.79533164
_cell_formula_units_Z   1
loop_
 _symmetry_equiv_pos_site_id
 _symmetry_equiv_pos_as_xyz
  1  'x, y, z'
loop_
 _atom_site_type_symbol
 _atom_site_label
 _atom_site_symmetry_multiplicity
 _atom_site_fract_x
 _atom_site_fract_y
 _atom_site_fract_z
 _atom_site_occupancy
  Sm  Sm0  1  0.885591  0.885591  0.370310  1
  Be  Be1  1  0.529481  0.529481  0.446867  1
  Be  Be2  1  0.254446  0.254446  0.296691  1
  B  B3  1  0.416385  0.732581  0.182839  1
  B  B4  1  0.576868  0.253909  0.838698  1
  B  B5  1  0.253909  0.576868  0.838698  1
  B  B6  1  0.732581  0.416385  0.182839  1
  B  B7  1  0.692881  0.859433  0.980617  1
  B  B8  1  0.302082  0.128338  0.039909  1
  B  B9  1  0.128338  0.302082  0.039909  1
  B  B10  1  0.859433  0.692881  0.980617  1
  B  B11  1  0.527277  0.868342  0.310970  1
  B  B12  1  0.466786  0.117643  0.220530  1
  B  B13  1  0.117643  0.466786  0.220530  1
  B  B14  1  0.868342  0.527277  0.310970  1
  B  B15  1  0.460106  0.116034  0.717496  1
  B  B16  1  0.528147  0.866064  0.805613  1
  B  B17  1  0.866064  0.528147  0.805613  1
  B  B18  1  0.116034  0.460106  0.717496  1
  B  B19  1  0.717975  0.098306  0.008328  1
  B  B20  1  0.275892  0.888630  0.336849  1
  B  B21  1  0.888630  0.275892  0.336849  1
  B  B22  1  0.098306  0.717975  0.008328  1
  B  B23  1  0.275179  0.889117  0.013914  1
  B  B24  1  0.715597  0.097202  0.690716  1
  B  B25  1  0.097202  0.715597  0.690716  1
  B  B26  1  0.889117  0.275179  0.013914  1
  B  B27  1  0.283200  0.465948  0.390685  1
  B  B28  1  0.695810  0.514749  0.655903  1
  B  B29  1  0.514749  0.695810  0.655903  1
  B  B30  1  0.465948  0.283200  0.390685  1
