# generated using pymatgen
data_La2HgRhAu
_symmetry_space_group_name_H-M   'P 1'
_cell_length_a   8.04160529
_cell_length_b   8.04160496
_cell_length_c   3.93370100
_cell_angle_alpha   90.00000000
_cell_angle_beta   90.00000000
_cell_angle_gamma   89.11073127
_symmetry_Int_Tables_number   1
_chemical_formula_structural   La2HgRhAu
_chemical_formula_sum   'La4 Hg2 Rh2 Au2'
_cell_volume   254.35162871
_cell_formula_units_Z   2
loop_
 _symmetry_equiv_pos_site_id
 _symmetry_equiv_pos_as_xyz
  1  'x, y, z'
loop_
 _atom_site_type_symbol
 _atom_site_label
 _atom_site_symmetry_multiplicity
 _atom_site_fract_x
 _atom_site_fract_y
 _atom_site_fract_z
 _atom_site_occupancy
  La  La0  1  0.661600  0.161600  0.500000  1
  La  La1  1  0.338400  0.838400  0.500000  1
  La  La2  1  0.189565  0.310435  0.500000  1
  La  La3  1  0.810435  0.689565  0.500000  1
  Hg  Hg4  1  0.000000  0.000000  0.000000  1
  Hg  Hg5  1  0.500000  0.500000  0.000000  1
  Rh  Rh6  1  0.632594  0.867406  0.000000  1
  Rh  Rh7  1  0.367406  0.132594  0.000000  1
  Au  Au8  1  0.127489  0.627489  0.000000  1
  Au  Au9  1  0.872511  0.372511  0.000000  1
