# generated using pymatgen
data_La3RhBr3
_symmetry_space_group_name_H-M   'P 1'
_cell_length_a   10.65926144
_cell_length_b   10.65926140
_cell_length_c   10.65926066
_cell_angle_alpha   109.16157592
_cell_angle_beta   109.16157987
_cell_angle_gamma   110.09229342
_symmetry_Int_Tables_number   1
_chemical_formula_structural   La3RhBr3
_chemical_formula_sum   'La12 Rh4 Br12'
_cell_volume   932.22579399
_cell_formula_units_Z   4
loop_
 _symmetry_equiv_pos_site_id
 _symmetry_equiv_pos_as_xyz
  1  'x, y, z'
loop_
 _atom_site_type_symbol
 _atom_site_label
 _atom_site_symmetry_multiplicity
 _atom_site_fract_x
 _atom_site_fract_y
 _atom_site_fract_z
 _atom_site_occupancy
  La  La0  1  0.390842  0.609158  0.000000  1
  La  La1  1  0.609158  0.390842  0.000000  1
  La  La2  1  0.640842  0.140842  0.281685  1
  La  La3  1  0.859158  0.359158  0.718315  1
  La  La4  1  0.405267  0.393853  0.265830  1
  La  La5  1  0.128023  0.139438  0.734170  1
  La  La6  1  0.121977  0.356147  0.511414  1
  La  La7  1  0.844733  0.610562  0.488586  1
  La  La8  1  0.606147  0.594733  0.734170  1
  La  La9  1  0.860562  0.871977  0.265830  1
  La  La10  1  0.643853  0.878023  0.488586  1
  La  La11  1  0.389438  0.155267  0.511414  1
  Rh  Rh12  1  0.626113  0.626113  0.252225  1
  Rh  Rh13  1  0.373887  0.373887  0.747775  1
  Rh  Rh14  1  0.876113  0.123887  0.500000  1
  Rh  Rh15  1  0.623887  0.376113  0.500000  1
  Br  Br16  1  0.368312  0.631688  0.500000  1
  Br  Br17  1  0.131688  0.868312  0.500000  1
  Br  Br18  1  0.118312  0.118312  0.236624  1
  Br  Br19  1  0.881688  0.881688  0.763376  1
  Br  Br20  1  0.884428  0.631325  0.001441  1
  Br  Br21  1  0.629885  0.882986  0.998559  1
  Br  Br22  1  0.620115  0.118675  0.753102  1
  Br  Br23  1  0.365572  0.867014  0.246898  1
  Br  Br24  1  0.368675  0.115572  0.998559  1
  Br  Br25  1  0.117014  0.370115  0.001441  1
  Br  Br26  1  0.881325  0.379885  0.246898  1
  Br  Br27  1  0.132986  0.634428  0.753102  1
