# generated using pymatgen
data_Pr8Y11MgSn16
_symmetry_space_group_name_H-M   'P 1'
_cell_length_a   8.08681056
_cell_length_b   8.30557165
_cell_length_c   15.73444200
_cell_angle_alpha   90.00000000
_cell_angle_beta   90.00000000
_cell_angle_gamma   89.86600033
_symmetry_Int_Tables_number   1
_chemical_formula_structural   Pr8Y11MgSn16
_chemical_formula_sum   'Pr8 Y11 Mg1 Sn16'
_cell_volume   1056.81010351
_cell_formula_units_Z   1
loop_
 _symmetry_equiv_pos_site_id
 _symmetry_equiv_pos_as_xyz
  1  'x, y, z'
loop_
 _atom_site_type_symbol
 _atom_site_label
 _atom_site_symmetry_multiplicity
 _atom_site_fract_x
 _atom_site_fract_y
 _atom_site_fract_z
 _atom_site_occupancy
  Pr  Pr0  1  0.509159  0.323958  0.903250  1
  Pr  Pr1  1  0.014854  0.184072  0.597493  1
  Pr  Pr2  1  0.488241  0.678055  0.403356  1
  Pr  Pr3  1  0.986629  0.822313  0.096268  1
  Pr  Pr4  1  0.488241  0.678055  0.096644  1
  Pr  Pr5  1  0.986629  0.822313  0.403732  1
  Pr  Pr6  1  0.509159  0.323958  0.596750  1
  Pr  Pr7  1  0.014854  0.184072  0.902507  1
  Y  Y8  1  0.355789  0.831303  0.876872  1
  Y  Y9  1  0.863883  0.664175  0.624621  1
  Y  Y10  1  0.643233  0.164022  0.377836  1
  Y  Y11  1  0.142232  0.332371  0.123484  1
  Y  Y12  1  0.643233  0.164022  0.122164  1
  Y  Y13  1  0.142232  0.332371  0.376516  1
  Y  Y14  1  0.355789  0.831303  0.623128  1
  Y  Y15  1  0.863883  0.664175  0.875379  1
  Y  Y16  1  0.688864  0.997621  0.750000  1
  Y  Y17  1  0.807956  0.497660  0.250000  1
  Y  Y18  1  0.307448  0.000757  0.250000  1
  Mg  Mg19  1  0.192988  0.501121  0.750000  1
  Sn  Sn20  1  0.306234  0.038535  0.041165  1
  Sn  Sn21  1  0.806727  0.459455  0.459599  1
  Sn  Sn22  1  0.695163  0.961498  0.543558  1
  Sn  Sn23  1  0.194414  0.542360  0.961674  1
  Sn  Sn24  1  0.695163  0.961498  0.956442  1
  Sn  Sn25  1  0.194414  0.542360  0.538326  1
  Sn  Sn26  1  0.306234  0.038535  0.458835  1
  Sn  Sn27  1  0.806727  0.459455  0.040401  1
  Sn  Sn28  1  0.555450  0.619518  0.750000  1
  Sn  Sn29  1  0.058074  0.884194  0.750000  1
  Sn  Sn30  1  0.442867  0.376765  0.250000  1
  Sn  Sn31  1  0.942133  0.122678  0.250000  1
  Sn  Sn32  1  0.321523  0.139281  0.750000  1
  Sn  Sn33  1  0.812573  0.357720  0.750000  1
  Sn  Sn34  1  0.678383  0.858142  0.250000  1
  Sn  Sn35  1  0.178624  0.640312  0.250000  1
