# generated using pymatgen
data_EuZr(Zn4Rh)2
_symmetry_space_group_name_H-M   'P 1'
_cell_length_a   8.38662995
_cell_length_b   8.38717228
_cell_length_c   8.38662901
_cell_angle_alpha   100.18599516
_cell_angle_beta   100.18554443
_cell_angle_gamma   130.26068202
_symmetry_Int_Tables_number   1
_chemical_formula_structural   EuZr(Zn4Rh)2
_chemical_formula_sum   'Eu2 Zr2 Zn16 Rh4'
_cell_volume   408.43957578
_cell_formula_units_Z   2
loop_
 _symmetry_equiv_pos_site_id
 _symmetry_equiv_pos_as_xyz
  1  'x, y, z'
loop_
 _atom_site_type_symbol
 _atom_site_label
 _atom_site_symmetry_multiplicity
 _atom_site_fract_x
 _atom_site_fract_y
 _atom_site_fract_z
 _atom_site_occupancy
  Eu  Eu0  1  0.000020  0.000028  0.000008  1
  Eu  Eu1  1  0.249980  0.749972  0.499992  1
  Zr  Zr2  1  0.749997  0.249994  0.499998  1
  Zr  Zr3  1  0.500003  0.500006  0.000002  1
  Zn  Zn4  1  0.180947  0.513437  0.084472  1
  Zn  Zn5  1  0.180943  0.096475  0.667511  1
  Zn  Zn6  1  0.763439  0.930949  0.584473  1
  Zn  Zn7  1  0.763440  0.178965  0.832491  1
  Zn  Zn8  1  0.428965  0.513437  0.332489  1
  Zn  Zn9  1  0.428964  0.096475  0.915532  1
  Zn  Zn10  1  0.346476  0.930949  0.167510  1
  Zn  Zn11  1  0.346474  0.178965  0.415525  1
  Zn  Zn12  1  0.069053  0.236563  0.415528  1
  Zn  Zn13  1  0.069057  0.653525  0.832489  1
  Zn  Zn14  1  0.486561  0.819051  0.915527  1
  Zn  Zn15  1  0.486560  0.571035  0.667509  1
  Zn  Zn16  1  0.821035  0.236563  0.167511  1
  Zn  Zn17  1  0.821036  0.653525  0.584468  1
  Zn  Zn18  1  0.903524  0.819051  0.332490  1
  Zn  Zn19  1  0.903526  0.571035  0.084475  1
  Rh  Rh20  1  0.125000  0.375000  0.750000  1
  Rh  Rh21  1  0.625000  0.875000  0.250000  1
  Rh  Rh22  1  0.625000  0.375000  0.750000  1
  Rh  Rh23  1  0.625000  0.375000  0.250000  1
