# generated using pymatgen
data_Tb14Dy2ZnIn3Rh4
_symmetry_space_group_name_H-M   'P 1'
_cell_length_a   9.66080578
_cell_length_b   9.66074150
_cell_length_c   9.66114663
_cell_angle_alpha   60.00138549
_cell_angle_beta   60.01250485
_cell_angle_gamma   60.00021821
_symmetry_Int_Tables_number   1
_chemical_formula_structural   Tb14Dy2ZnIn3Rh4
_chemical_formula_sum   'Tb14 Dy2 Zn1 In3 Rh4'
_cell_volume   637.65207761
_cell_formula_units_Z   1
loop_
 _symmetry_equiv_pos_site_id
 _symmetry_equiv_pos_as_xyz
  1  'x, y, z'
loop_
 _atom_site_type_symbol
 _atom_site_label
 _atom_site_symmetry_multiplicity
 _atom_site_fract_x
 _atom_site_fract_y
 _atom_site_fract_z
 _atom_site_occupancy
  Tb  Tb0  1  0.689902  0.309013  0.312443  1
  Tb  Tb1  1  0.689902  0.688641  0.312443  1
  Tb  Tb2  1  0.310898  0.689344  0.310414  1
  Tb  Tb3  1  0.936531  0.937619  0.557181  1
  Tb  Tb4  1  0.148111  0.150701  0.550487  1
  Tb  Tb5  1  0.566783  0.938349  0.556518  1
  Tb  Tb6  1  0.149175  0.151260  0.150184  1
  Tb  Tb7  1  0.311536  0.308524  0.690993  1
  Tb  Tb8  1  0.936531  0.568667  0.557181  1
  Tb  Tb9  1  0.562846  0.562999  0.935408  1
  Tb  Tb10  1  0.562846  0.938746  0.935408  1
  Tb  Tb11  1  0.937379  0.564055  0.934509  1
  Tb  Tb12  1  0.149175  0.549379  0.150184  1
  Tb  Tb13  1  0.311536  0.688947  0.690993  1
  Dy  Dy14  1  0.689778  0.309892  0.690438  1
  Dy  Dy15  1  0.552281  0.149698  0.148320  1
  Zn  Zn16  1  0.916945  0.916329  0.250397  1
  In  In17  1  0.242485  0.917262  0.922990  1
  In  In18  1  0.917439  0.242831  0.922363  1
  In  In19  1  0.917439  0.917368  0.922363  1
  Rh  Rh20  1  0.357881  0.357293  0.356647  1
  Rh  Rh21  1  0.926497  0.357897  0.357711  1
  Rh  Rh22  1  0.358220  0.357001  0.927778  1
  Rh  Rh23  1  0.357881  0.928181  0.356647  1
