# generated using pymatgen
data_Dy4Tm3LuPt4
_symmetry_space_group_name_H-M   'P 1'
_cell_length_a   4.75080300
_cell_length_b   7.10661381
_cell_length_c   8.68046650
_cell_angle_alpha   90.02986938
_cell_angle_beta   90.00000000
_cell_angle_gamma   90.00000000
_symmetry_Int_Tables_number   1
_chemical_formula_structural   Dy4Tm3LuPt4
_chemical_formula_sum   'Dy4 Tm3 Lu1 Pt4'
_cell_volume   293.07093096
_cell_formula_units_Z   1
loop_
 _symmetry_equiv_pos_site_id
 _symmetry_equiv_pos_as_xyz
  1  'x, y, z'
loop_
 _atom_site_type_symbol
 _atom_site_label
 _atom_site_symmetry_multiplicity
 _atom_site_fract_x
 _atom_site_fract_y
 _atom_site_fract_z
 _atom_site_occupancy
  Dy  Dy0  1  0.250000  0.988715  0.329680  1
  Dy  Dy1  1  0.250000  0.486646  0.169585  1
  Dy  Dy2  1  0.750000  0.013140  0.670812  1
  Dy  Dy3  1  0.750000  0.511098  0.830202  1
  Tm  Tm4  1  0.250000  0.357104  0.577894  1
  Tm  Tm5  1  0.250000  0.855759  0.922492  1
  Tm  Tm6  1  0.750000  0.644643  0.421655  1
  Lu  Lu7  1  0.750000  0.143006  0.077857  1
  Pt  Pt8  1  0.250000  0.253441  0.906426  1
  Pt  Pt9  1  0.250000  0.755966  0.594031  1
  Pt  Pt10  1  0.750000  0.745397  0.093888  1
  Pt  Pt11  1  0.750000  0.245086  0.405482  1
