# generated using pymatgen
data_Er8B24MoRu3
_symmetry_space_group_name_H-M   'P 1'
_cell_length_a   3.63705500
_cell_length_b   9.12533048
_cell_length_c   11.50746214
_cell_angle_alpha   89.86356053
_cell_angle_beta   90.00000000
_cell_angle_gamma   90.00000000
_symmetry_Int_Tables_number   1
_chemical_formula_structural   Er8B24MoRu3
_chemical_formula_sum   'Er8 B24 Mo1 Ru3'
_cell_volume   381.92386237
_cell_formula_units_Z   1
loop_
 _symmetry_equiv_pos_site_id
 _symmetry_equiv_pos_as_xyz
  1  'x, y, z'
loop_
 _atom_site_type_symbol
 _atom_site_label
 _atom_site_symmetry_multiplicity
 _atom_site_fract_x
 _atom_site_fract_y
 _atom_site_fract_z
 _atom_site_occupancy
  Er  Er0  1  0.000000  0.322165  0.413496  1
  Er  Er1  1  0.000000  0.677439  0.584548  1
  Er  Er2  1  0.000000  0.820398  0.087236  1
  Er  Er3  1  0.000000  0.177220  0.914893  1
  Er  Er4  1  0.000000  0.945296  0.372348  1
  Er  Er5  1  0.000000  0.058178  0.629199  1
  Er  Er6  1  0.000000  0.442661  0.126824  1
  Er  Er7  1  0.000000  0.557171  0.870441  1
  B  B8  1  0.500000  0.551023  0.435772  1
  B  B9  1  0.500000  0.446200  0.567971  1
  B  B10  1  0.500000  0.053324  0.066893  1
  B  B11  1  0.500000  0.946169  0.933407  1
  B  B12  1  0.500000  0.750862  0.421739  1
  B  B13  1  0.500000  0.252170  0.581121  1
  B  B14  1  0.500000  0.248083  0.080107  1
  B  B15  1  0.500000  0.751354  0.919048  1
  B  B16  1  0.500000  0.794416  0.264259  1
  B  B17  1  0.500000  0.208842  0.734926  1
  B  B18  1  0.500000  0.290634  0.233208  1
  B  B19  1  0.500000  0.709460  0.765336  1
  B  B20  1  0.500000  0.631444  0.182863  1
  B  B21  1  0.500000  0.368335  0.815176  1
  B  B22  1  0.500000  0.131369  0.314121  1
  B  B23  1  0.500000  0.869663  0.685459  1
  B  B24  1  0.500000  0.983085  0.212428  1
  B  B25  1  0.500000  0.017513  0.788401  1
  B  B26  1  0.500000  0.477927  0.286785  1
  B  B27  1  0.500000  0.516858  0.712637  1
  B  B28  1  0.500000  0.605286  0.027543  1
  B  B29  1  0.500000  0.393783  0.969786  1
  B  B30  1  0.500000  0.106799  0.471258  1
  B  B31  1  0.500000  0.896448  0.530289  1
  Mo  Mo32  1  0.000000  0.637241  0.321072  1
  Ru  Ru33  1  0.000000  0.360986  0.680595  1
  Ru  Ru34  1  0.000000  0.137969  0.177810  1
  Ru  Ru35  1  0.000000  0.862228  0.821007  1
