# generated using pymatgen
data_Rb16TiSnBi8
_symmetry_space_group_name_H-M   'P 1'
_cell_length_a   12.26519213
_cell_length_b   12.26519145
_cell_length_c   12.26519200
_cell_angle_alpha   59.99999853
_cell_angle_beta   60.00000034
_cell_angle_gamma   60.00000309
_symmetry_Int_Tables_number   1
_chemical_formula_structural   Rb16TiSnBi8
_chemical_formula_sum   'Rb16 Ti1 Sn1 Bi8'
_cell_volume   1304.69214265
_cell_formula_units_Z   1
loop_
 _symmetry_equiv_pos_site_id
 _symmetry_equiv_pos_as_xyz
  1  'x, y, z'
loop_
 _atom_site_type_symbol
 _atom_site_label
 _atom_site_symmetry_multiplicity
 _atom_site_fract_x
 _atom_site_fract_y
 _atom_site_fract_z
 _atom_site_occupancy
  Rb  Rb0  1  0.624127  0.127617  0.624127  1
  Rb  Rb1  1  0.624127  0.624127  0.127617  1
  Rb  Rb2  1  0.127617  0.624127  0.624127  1
  Rb  Rb3  1  0.624127  0.624127  0.624127  1
  Rb  Rb4  1  0.022371  0.022371  0.477629  1
  Rb  Rb5  1  0.776741  0.223259  0.223259  1
  Rb  Rb6  1  0.223259  0.776741  0.776741  1
  Rb  Rb7  1  0.776741  0.776741  0.223259  1
  Rb  Rb8  1  0.776741  0.223259  0.776741  1
  Rb  Rb9  1  0.223259  0.776741  0.223259  1
  Rb  Rb10  1  0.477629  0.022371  0.477629  1
  Rb  Rb11  1  0.477629  0.022371  0.022371  1
  Rb  Rb12  1  0.022371  0.477629  0.477629  1
  Rb  Rb13  1  0.022371  0.477629  0.022371  1
  Rb  Rb14  1  0.223259  0.223259  0.776741  1
  Rb  Rb15  1  0.477629  0.477629  0.022371  1
  Ti  Ti16  1  0.750000  0.750000  0.750000  1
  Sn  Sn17  1  0.500000  0.500000  0.500000  1
  Bi  Bi18  1  0.398139  0.805583  0.398139  1
  Bi  Bi19  1  0.845731  0.845731  0.462807  1
  Bi  Bi20  1  0.462807  0.845731  0.845731  1
  Bi  Bi21  1  0.845731  0.845731  0.845731  1
  Bi  Bi22  1  0.805583  0.398139  0.398139  1
  Bi  Bi23  1  0.398139  0.398139  0.398139  1
  Bi  Bi24  1  0.398139  0.398139  0.805583  1
  Bi  Bi25  1  0.845731  0.462807  0.845731  1
