# generated using pymatgen
data_MgSc3(SiIr3)2
_symmetry_space_group_name_H-M   'P 1'
_cell_length_a   5.41665000
_cell_length_b   5.41664956
_cell_length_c   7.57202600
_cell_angle_alpha   90.00000000
_cell_angle_beta   90.00000000
_cell_angle_gamma   120.00000266
_symmetry_Int_Tables_number   1
_chemical_formula_structural   MgSc3(SiIr3)2
_chemical_formula_sum   'Mg1 Sc3 Si2 Ir6'
_cell_volume   192.39962898
_cell_formula_units_Z   1
loop_
 _symmetry_equiv_pos_site_id
 _symmetry_equiv_pos_as_xyz
  1  'x, y, z'
loop_
 _atom_site_type_symbol
 _atom_site_label
 _atom_site_symmetry_multiplicity
 _atom_site_fract_x
 _atom_site_fract_y
 _atom_site_fract_z
 _atom_site_occupancy
  Mg  Mg0  1  0.333333  0.666667  0.561104  1
  Sc  Sc1  1  0.666667  0.333333  0.438005  1
  Sc  Sc2  1  0.666667  0.333333  0.063629  1
  Sc  Sc3  1  0.333333  0.666667  0.931382  1
  Si  Si4  1  0.000000  0.000000  0.497802  1
  Si  Si5  1  0.000000  0.000000  0.005170  1
  Ir  Ir6  1  0.830750  0.169250  0.751325  1
  Ir  Ir7  1  0.657050  0.828524  0.249644  1
  Ir  Ir8  1  0.171476  0.828524  0.249644  1
  Ir  Ir9  1  0.830750  0.661503  0.751325  1
  Ir  Ir10  1  0.171476  0.342950  0.249644  1
  Ir  Ir11  1  0.338497  0.169250  0.751325  1
