# generated using pymatgen
data_Tm8Lu4Co4SnRu
_symmetry_space_group_name_H-M   'P 1'
_cell_length_a   8.13451365
_cell_length_b   8.13451526
_cell_length_c   8.13451352
_cell_angle_alpha   111.36261231
_cell_angle_beta   111.02502247
_cell_angle_gamma   106.07856932
_symmetry_Int_Tables_number   1
_chemical_formula_structural   Tm8Lu4Co4SnRu
_chemical_formula_sum   'Tm8 Lu4 Co4 Sn1 Ru1'
_cell_volume   413.27019623
_cell_formula_units_Z   1
loop_
 _symmetry_equiv_pos_site_id
 _symmetry_equiv_pos_as_xyz
  1  'x, y, z'
loop_
 _atom_site_type_symbol
 _atom_site_label
 _atom_site_symmetry_multiplicity
 _atom_site_fract_x
 _atom_site_fract_y
 _atom_site_fract_z
 _atom_site_occupancy
  Tm  Tm0  1  0.183846  0.282133  0.465979  1
  Tm  Tm1  1  0.816154  0.717867  0.534021  1
  Tm  Tm2  1  0.183846  0.717867  0.901713  1
  Tm  Tm3  1  0.816154  0.282133  0.098287  1
  Tm  Tm4  1  0.313572  0.620594  0.307020  1
  Tm  Tm5  1  0.686428  0.379406  0.692980  1
  Tm  Tm6  1  0.313572  0.006553  0.692980  1
  Tm  Tm7  1  0.686428  0.993447  0.307020  1
  Lu  Lu8  1  0.412828  0.218960  0.193867  1
  Lu  Lu9  1  0.587172  0.781040  0.806133  1
  Lu  Lu10  1  0.025093  0.218960  0.806133  1
  Lu  Lu11  1  0.974907  0.781040  0.193867  1
  Co  Co12  1  0.373765  0.000000  0.373765  1
  Co  Co13  1  0.626235  0.000000  0.626235  1
  Co  Co14  1  0.112191  0.612191  0.500000  1
  Co  Co15  1  0.887809  0.387809  0.500000  1
  Sn  Sn16  1  0.500000  0.500000  0.000000  1
  Ru  Ru17  1  0.000000  0.000000  0.000000  1
