# generated using pymatgen
data_Y3Lu5(CdNi)2
_symmetry_space_group_name_H-M   'P 1'
_cell_length_a   9.44370710
_cell_length_b   9.44370704
_cell_length_c   9.44370800
_cell_angle_alpha   59.99999663
_cell_angle_beta   59.99999686
_cell_angle_gamma   59.99999363
_symmetry_Int_Tables_number   1
_chemical_formula_structural   Y3Lu5(CdNi)2
_chemical_formula_sum   'Y6 Lu10 Cd4 Ni4'
_cell_volume   595.54217820
_cell_formula_units_Z   2
loop_
 _symmetry_equiv_pos_site_id
 _symmetry_equiv_pos_as_xyz
  1  'x, y, z'
loop_
 _atom_site_type_symbol
 _atom_site_label
 _atom_site_symmetry_multiplicity
 _atom_site_fract_x
 _atom_site_fract_y
 _atom_site_fract_z
 _atom_site_occupancy
  Y  Y0  1  0.188670  0.811330  0.811330  1
  Y  Y1  1  0.811330  0.188670  0.188670  1
  Y  Y2  1  0.811330  0.188670  0.811330  1
  Y  Y3  1  0.188670  0.811330  0.188670  1
  Y  Y4  1  0.811330  0.811330  0.188670  1
  Y  Y5  1  0.188670  0.188670  0.811330  1
  Lu  Lu6  1  0.597656  0.597656  0.597656  1
  Lu  Lu7  1  0.597656  0.597656  0.207033  1
  Lu  Lu8  1  0.597656  0.207033  0.597656  1
  Lu  Lu9  1  0.207033  0.597656  0.597656  1
  Lu  Lu10  1  0.063120  0.436880  0.436880  1
  Lu  Lu11  1  0.436880  0.063120  0.063120  1
  Lu  Lu12  1  0.436880  0.063120  0.436880  1
  Lu  Lu13  1  0.063120  0.436880  0.063120  1
  Lu  Lu14  1  0.436880  0.436880  0.063120  1
  Lu  Lu15  1  0.063120  0.063120  0.436880  1
  Cd  Cd16  1  0.830467  0.830467  0.830467  1
  Cd  Cd17  1  0.830467  0.830467  0.508597  1
  Cd  Cd18  1  0.830467  0.508597  0.830467  1
  Cd  Cd19  1  0.508597  0.830467  0.830467  1
  Ni  Ni20  1  0.392363  0.392363  0.392363  1
  Ni  Ni21  1  0.392363  0.392363  0.822911  1
  Ni  Ni22  1  0.392363  0.822911  0.392363  1
  Ni  Ni23  1  0.822911  0.392363  0.392363  1
