# generated using pymatgen
data_UMoCl28
_symmetry_space_group_name_H-M   'P 1'
_cell_length_a   15.26235528
_cell_length_b   15.71660186
_cell_length_c   9.77277993
_cell_angle_alpha   69.10138525
_cell_angle_beta   74.15790422
_cell_angle_gamma   36.73656646
_symmetry_Int_Tables_number   1
_chemical_formula_structural   UMoCl28
_chemical_formula_sum   'U1 Mo1 Cl28'
_cell_volume   1309.57176598
_cell_formula_units_Z   1
loop_
 _symmetry_equiv_pos_site_id
 _symmetry_equiv_pos_as_xyz
  1  'x, y, z'
loop_
 _atom_site_type_symbol
 _atom_site_label
 _atom_site_symmetry_multiplicity
 _atom_site_fract_x
 _atom_site_fract_y
 _atom_site_fract_z
 _atom_site_occupancy
  U  U0  1  0.127566  0.127566  0.372434  1
  Mo  Mo1  1  0.877688  0.877688  0.122312  1
  Cl  Cl2  1  0.616200  0.853280  0.570282  1
  Cl  Cl3  1  0.677023  0.287861  0.639018  1
  Cl  Cl4  1  0.853280  0.616200  0.960237  1
  Cl  Cl5  1  0.287861  0.677023  0.396099  1
  Cl  Cl6  1  0.064261  0.065169  0.255921  1
  Cl  Cl7  1  0.184657  0.196211  0.488239  1
  Cl  Cl8  1  0.196211  0.184657  0.130893  1
  Cl  Cl9  1  0.917239  0.838495  0.360841  1
  Cl  Cl10  1  0.151501  0.452400  0.812045  1
  Cl  Cl11  1  0.651786  0.985493  0.180778  1
  Cl  Cl12  1  0.305677  0.355687  0.941918  1
  Cl  Cl13  1  0.738630  0.650180  0.578846  1
  Cl  Cl14  1  0.851957  0.308287  0.895727  1
  Cl  Cl15  1  0.437448  0.665259  0.099108  1
  Cl  Cl16  1  0.355687  0.305677  0.396717  1
  Cl  Cl17  1  0.382333  0.871852  0.413809  1
  Cl  Cl18  1  0.665259  0.437448  0.798186  1
  Cl  Cl19  1  0.985493  0.651786  0.181943  1
  Cl  Cl20  1  0.671706  0.216549  0.511276  1
  Cl  Cl21  1  0.452400  0.151501  0.584052  1
  Cl  Cl22  1  0.102789  0.770721  0.056850  1
  Cl  Cl23  1  0.650180  0.738630  0.032345  1
  Cl  Cl24  1  0.770721  0.102789  0.069639  1
  Cl  Cl25  1  0.065169  0.064261  0.614650  1
  Cl  Cl26  1  0.308287  0.851957  0.944030  1
  Cl  Cl27  1  0.871852  0.382333  0.332007  1
  Cl  Cl28  1  0.216549  0.671706  0.600469  1
  Cl  Cl29  1  0.838495  0.917239  0.883425  1
