# generated using pymatgen
data_Ce3Sm(PaTc3)2
_symmetry_space_group_name_H-M   'P 1'
_cell_length_a   5.83790000
_cell_length_b   5.83790026
_cell_length_c   8.24485900
_cell_angle_alpha   90.00000000
_cell_angle_beta   90.00000000
_cell_angle_gamma   119.99999855
_symmetry_Int_Tables_number   1
_chemical_formula_structural   Ce3Sm(PaTc3)2
_chemical_formula_sum   'Ce3 Sm1 Pa2 Tc6'
_cell_volume   243.34767036
_cell_formula_units_Z   1
loop_
 _symmetry_equiv_pos_site_id
 _symmetry_equiv_pos_as_xyz
  1  'x, y, z'
loop_
 _atom_site_type_symbol
 _atom_site_label
 _atom_site_symmetry_multiplicity
 _atom_site_fract_x
 _atom_site_fract_y
 _atom_site_fract_z
 _atom_site_occupancy
  Ce  Ce0  1  0.333333  0.666667  0.445191  1
  Ce  Ce1  1  0.666667  0.333333  0.569144  1
  Ce  Ce2  1  0.666667  0.333333  0.927479  1
  Sm  Sm3  1  0.333333  0.666667  0.069507  1
  Pa  Pa4  1  0.000000  0.000000  0.496682  1
  Pa  Pa5  1  0.000000  0.000000  0.998220  1
  Tc  Tc6  1  0.831230  0.168770  0.251561  1
  Tc  Tc7  1  0.831230  0.662461  0.251561  1
  Tc  Tc8  1  0.337539  0.168770  0.251561  1
  Tc  Tc9  1  0.167342  0.832658  0.746365  1
  Tc  Tc10  1  0.167342  0.334682  0.746365  1
  Tc  Tc11  1  0.665318  0.832658  0.746365  1
