# generated using pymatgen
data_Sr4LiCdSi6
_symmetry_space_group_name_H-M   'P 1'
_cell_length_a   11.89911040
_cell_length_b   10.22257139
_cell_length_c   8.57202434
_cell_angle_alpha   78.01540205
_cell_angle_beta   57.18009316
_cell_angle_gamma   44.80450137
_symmetry_Int_Tables_number   1
_chemical_formula_structural   Sr4LiCdSi6
_chemical_formula_sum   'Sr8 Li2 Cd2 Si12'
_cell_volume   589.29571062
_cell_formula_units_Z   2
loop_
 _symmetry_equiv_pos_site_id
 _symmetry_equiv_pos_as_xyz
  1  'x, y, z'
loop_
 _atom_site_type_symbol
 _atom_site_label
 _atom_site_symmetry_multiplicity
 _atom_site_fract_x
 _atom_site_fract_y
 _atom_site_fract_z
 _atom_site_occupancy
  Sr  Sr0  1  0.126521  0.121277  0.874878  1
  Sr  Sr1  1  0.874879  0.877324  0.126520  1
  Sr  Sr2  1  0.128724  0.123480  0.372676  1
  Sr  Sr3  1  0.372677  0.375122  0.128723  1
  Sr  Sr4  1  0.622242  0.624512  0.376921  1
  Sr  Sr5  1  0.376921  0.376325  0.622242  1
  Sr  Sr6  1  0.625489  0.627758  0.873675  1
  Sr  Sr7  1  0.873676  0.873080  0.625488  1
  Li  Li8  1  0.167256  0.832744  0.167256  1
  Li  Li9  1  0.417256  0.082744  0.417256  1
  Cd  Cd10  1  0.082599  0.417401  0.082599  1
  Cd  Cd11  1  0.832599  0.167401  0.832599  1
  Si  Si12  1  0.910601  0.595893  0.432538  1
  Si  Si13  1  0.075088  0.419227  0.588337  1
  Si  Si14  1  0.432538  0.060968  0.910601  1
  Si  Si15  1  0.588337  0.917347  0.075088  1
  Si  Si16  1  0.332653  0.661663  0.830773  1
  Si  Si17  1  0.654107  0.339399  0.189032  1
  Si  Si18  1  0.830773  0.174912  0.332653  1
  Si  Si19  1  0.189032  0.817462  0.654107  1
  Si  Si20  1  0.907921  0.592080  0.907920  1
  Si  Si21  1  0.585097  0.914904  0.585096  1
  Si  Si22  1  0.335097  0.664904  0.335097  1
  Si  Si23  1  0.657920  0.342080  0.657920  1
