# generated using pymatgen
data_Hf5Th4Si8Mo
_symmetry_space_group_name_H-M   'P 1'
_cell_length_a   7.33732835
_cell_length_b   7.15177476
_cell_length_c   7.34366984
_cell_angle_alpha   71.03091272
_cell_angle_beta   90.08875146
_cell_angle_gamma   90.47269539
_symmetry_Int_Tables_number   1
_chemical_formula_structural   Hf5Th4Si8Mo
_chemical_formula_sum   'Hf5 Th4 Si8 Mo1'
_cell_volume   364.41857888
_cell_formula_units_Z   1
loop_
 _symmetry_equiv_pos_site_id
 _symmetry_equiv_pos_as_xyz
  1  'x, y, z'
loop_
 _atom_site_type_symbol
 _atom_site_label
 _atom_site_symmetry_multiplicity
 _atom_site_fract_x
 _atom_site_fract_y
 _atom_site_fract_z
 _atom_site_occupancy
  Hf  Hf0  1  0.500000  0.000000  0.500000  1
  Hf  Hf1  1  0.173020  0.255148  0.252667  1
  Hf  Hf2  1  0.677141  0.254257  0.745282  1
  Hf  Hf3  1  0.826980  0.744852  0.747333  1
  Hf  Hf4  1  0.322859  0.745743  0.254718  1
  Th  Th5  1  0.671475  0.433665  0.190376  1
  Th  Th6  1  0.168866  0.068511  0.808065  1
  Th  Th7  1  0.328525  0.566335  0.809624  1
  Th  Th8  1  0.831134  0.931489  0.191935  1
  Si  Si9  1  0.461982  0.128676  0.086698  1
  Si  Si10  1  0.962200  0.367568  0.913984  1
  Si  Si11  1  0.538018  0.871324  0.913302  1
  Si  Si12  1  0.037800  0.632432  0.086016  1
  Si  Si13  1  0.876232  0.132397  0.496327  1
  Si  Si14  1  0.374319  0.370104  0.503470  1
  Si  Si15  1  0.123768  0.867603  0.503673  1
  Si  Si16  1  0.625681  0.629896  0.496530  1
  Mo  Mo17  1  0.000000  0.500000  0.500000  1
