# generated using pymatgen
data_K2U(RhS2)3
_symmetry_space_group_name_H-M   'P 1'
_cell_length_a   11.19869119
_cell_length_b   9.29121586
_cell_length_c   9.01295200
_cell_angle_alpha   75.42399611
_cell_angle_beta   53.41433301
_cell_angle_gamma   51.16166430
_symmetry_Int_Tables_number   1
_chemical_formula_structural   K2U(RhS2)3
_chemical_formula_sum   'K4 U2 Rh6 S12'
_cell_volume   575.24964803
_cell_formula_units_Z   2
loop_
 _symmetry_equiv_pos_site_id
 _symmetry_equiv_pos_as_xyz
  1  'x, y, z'
loop_
 _atom_site_type_symbol
 _atom_site_label
 _atom_site_symmetry_multiplicity
 _atom_site_fract_x
 _atom_site_fract_y
 _atom_site_fract_z
 _atom_site_occupancy
  K  K0  1  0.250000  0.249999  0.250000  1
  K  K1  1  0.750000  0.750000  0.750000  1
  K  K2  1  0.320627  0.679373  0.320628  1
  K  K3  1  0.679373  0.320628  0.679373  1
  U  U4  1  0.172666  0.172667  0.827334  1
  U  U5  1  0.827333  0.827334  0.172667  1
  Rh  Rh6  1  0.848428  0.151572  0.151572  1
  Rh  Rh7  1  0.151573  0.848428  0.848427  1
  Rh  Rh8  1  0.837906  0.492596  0.162094  1
  Rh  Rh9  1  0.492596  0.837906  0.507404  1
  Rh  Rh10  1  0.507404  0.162094  0.492596  1
  Rh  Rh11  1  0.162095  0.507404  0.837905  1
  S  S12  1  0.024894  0.178380  0.190477  1
  S  S13  1  0.178381  0.024893  0.606248  1
  S  S14  1  0.606248  0.190477  0.178381  1
  S  S15  1  0.190477  0.606247  0.024893  1
  S  S16  1  0.975106  0.821619  0.809523  1
  S  S17  1  0.821619  0.975107  0.393752  1
  S  S18  1  0.393752  0.809523  0.821619  1
  S  S19  1  0.809523  0.393752  0.975107  1
  S  S20  1  0.407869  0.190708  0.809292  1
  S  S21  1  0.190708  0.407869  0.592131  1
  S  S22  1  0.592131  0.809293  0.190708  1
  S  S23  1  0.809292  0.592132  0.407869  1
