# generated using pymatgen
data_Lu4Hf2B4Ir7Ru3
_symmetry_space_group_name_H-M   'P 1'
_cell_length_a   9.75318104
_cell_length_b   9.74741404
_cell_length_c   3.11858900
_cell_angle_alpha   90.00000000
_cell_angle_beta   90.00000000
_cell_angle_gamma   90.00980168
_symmetry_Int_Tables_number   1
_chemical_formula_structural   Lu4Hf2B4Ir7Ru3
_chemical_formula_sum   'Lu4 Hf2 B4 Ir7 Ru3'
_cell_volume   296.47893070
_cell_formula_units_Z   1
loop_
 _symmetry_equiv_pos_site_id
 _symmetry_equiv_pos_as_xyz
  1  'x, y, z'
loop_
 _atom_site_type_symbol
 _atom_site_label
 _atom_site_symmetry_multiplicity
 _atom_site_fract_x
 _atom_site_fract_y
 _atom_site_fract_z
 _atom_site_occupancy
  Lu  Lu0  1  0.175085  0.677782  0.000000  1
  Lu  Lu1  1  0.324556  0.170540  0.000000  1
  Lu  Lu2  1  0.826238  0.325627  0.000000  1
  Lu  Lu3  1  0.673457  0.826043  0.000000  1
  Hf  Hf4  1  0.499217  0.500348  0.000000  1
  Hf  Hf5  1  0.004477  0.998512  0.000000  1
  B  B6  1  0.376067  0.884413  0.000000  1
  B  B7  1  0.117374  0.381953  0.000000  1
  B  B8  1  0.881889  0.618515  0.000000  1
  B  B9  1  0.618242  0.116334  0.000000  1
  Ir  Ir10  1  0.927022  0.777300  0.500000  1
  Ir  Ir11  1  0.430105  0.722720  0.500000  1
  Ir  Ir12  1  0.571649  0.277051  0.500000  1
  Ir  Ir13  1  0.722607  0.570489  0.500000  1
  Ir  Ir14  1  0.276890  0.428437  0.500000  1
  Ir  Ir15  1  0.071062  0.223416  0.500000  1
  Ir  Ir16  1  0.778803  0.071809  0.500000  1
  Ru  Ru17  1  0.223445  0.927964  0.500000  1
  Ru  Ru18  1  0.000336  0.500970  0.500000  1
  Ru  Ru19  1  0.501479  0.999777  0.500000  1
