# generated using pymatgen
data_Zr2PdPt5
_symmetry_space_group_name_H-M   'P 1'
_cell_length_a   5.73123336
_cell_length_b   5.72223039
_cell_length_c   9.39572800
_cell_angle_alpha   90.00000000
_cell_angle_beta   90.00000000
_cell_angle_gamma   119.94805273
_symmetry_Int_Tables_number   1
_chemical_formula_structural   Zr2PdPt5
_chemical_formula_sum   'Zr4 Pd2 Pt10'
_cell_volume   266.99405708
_cell_formula_units_Z   2
loop_
 _symmetry_equiv_pos_site_id
 _symmetry_equiv_pos_as_xyz
  1  'x, y, z'
loop_
 _atom_site_type_symbol
 _atom_site_label
 _atom_site_symmetry_multiplicity
 _atom_site_fract_x
 _atom_site_fract_y
 _atom_site_fract_z
 _atom_site_occupancy
  Zr  Zr0  1  0.000000  0.000000  0.500000  1
  Zr  Zr1  1  0.000000  0.000000  0.000000  1
  Zr  Zr2  1  0.333792  0.666897  0.250000  1
  Zr  Zr3  1  0.666208  0.333103  0.750000  1
  Pd  Pd4  1  0.000000  0.500000  0.500000  1
  Pd  Pd5  1  0.000000  0.500000  0.000000  1
  Pt  Pt6  1  0.500000  0.500000  0.500000  1
  Pt  Pt7  1  0.500000  0.000000  0.500000  1
  Pt  Pt8  1  0.500000  0.500000  0.000000  1
  Pt  Pt9  1  0.500000  0.000000  0.000000  1
  Pt  Pt10  1  0.831366  0.170186  0.250000  1
  Pt  Pt11  1  0.831366  0.661178  0.250000  1
  Pt  Pt12  1  0.340167  0.170083  0.250000  1
  Pt  Pt13  1  0.168634  0.829814  0.750000  1
  Pt  Pt14  1  0.168634  0.338822  0.750000  1
  Pt  Pt15  1  0.659833  0.829917  0.750000  1
