# generated using pymatgen
data_Dy3Tm2SiPb3
_symmetry_space_group_name_H-M   'P 1'
_cell_length_a   9.28396600
_cell_length_b   9.28396702
_cell_length_c   6.49843200
_cell_angle_alpha   90.00000000
_cell_angle_beta   90.00000000
_cell_angle_gamma   120.00000351
_symmetry_Int_Tables_number   1
_chemical_formula_structural   Dy3Tm2SiPb3
_chemical_formula_sum   'Dy6 Tm4 Si2 Pb6'
_cell_volume   485.07213281
_cell_formula_units_Z   2
loop_
 _symmetry_equiv_pos_site_id
 _symmetry_equiv_pos_as_xyz
  1  'x, y, z'
loop_
 _atom_site_type_symbol
 _atom_site_label
 _atom_site_symmetry_multiplicity
 _atom_site_fract_x
 _atom_site_fract_y
 _atom_site_fract_z
 _atom_site_occupancy
  Dy  Dy0  1  0.749970  0.749970  0.250000  1
  Dy  Dy1  1  0.250030  0.000000  0.250000  1
  Dy  Dy2  1  0.000000  0.250030  0.250000  1
  Dy  Dy3  1  0.250030  0.250030  0.750000  1
  Dy  Dy4  1  0.749970  0.000000  0.750000  1
  Dy  Dy5  1  0.000000  0.749970  0.750000  1
  Tm  Tm6  1  0.666667  0.333333  0.500000  1
  Tm  Tm7  1  0.333333  0.666667  0.500000  1
  Tm  Tm8  1  0.333333  0.666667  0.000000  1
  Tm  Tm9  1  0.666667  0.333333  0.000000  1
  Si  Si10  1  0.000000  0.000000  0.500000  1
  Si  Si11  1  0.000000  0.000000  0.000000  1
  Pb  Pb12  1  0.393530  0.393530  0.250000  1
  Pb  Pb13  1  0.606470  0.000000  0.250000  1
  Pb  Pb14  1  0.000000  0.606470  0.250000  1
  Pb  Pb15  1  0.606470  0.606470  0.750000  1
  Pb  Pb16  1  0.393530  0.000000  0.750000  1
  Pb  Pb17  1  0.000000  0.393530  0.750000  1
