# generated using pymatgen
data_Os6Pb4O18F
_symmetry_space_group_name_H-M   'P 1'
_cell_length_a   8.02480083
_cell_length_b   8.02480008
_cell_length_c   8.02480000
_cell_angle_alpha   109.47121790
_cell_angle_beta   109.47121600
_cell_angle_gamma   109.47122359
_symmetry_Int_Tables_number   1
_chemical_formula_structural   Os6Pb4O18F
_chemical_formula_sum   'Os6 Pb4 O18 F1'
_cell_volume   397.81470705
_cell_formula_units_Z   1
loop_
 _symmetry_equiv_pos_site_id
 _symmetry_equiv_pos_as_xyz
  1  'x, y, z'
loop_
 _atom_site_type_symbol
 _atom_site_label
 _atom_site_symmetry_multiplicity
 _atom_site_fract_x
 _atom_site_fract_y
 _atom_site_fract_z
 _atom_site_occupancy
  Os  Os0  1  0.500000  0.363561  0.863561  1
  Os  Os1  1  0.500000  0.636439  0.136439  1
  Os  Os2  1  0.363561  0.863561  0.500000  1
  Os  Os3  1  0.636439  0.136439  0.500000  1
  Os  Os4  1  0.863561  0.500000  0.363561  1
  Os  Os5  1  0.136439  0.500000  0.636439  1
  Pb  Pb6  1  0.000000  0.325704  0.000000  1
  Pb  Pb7  1  0.000000  0.000000  0.325704  1
  Pb  Pb8  1  0.674296  0.674296  0.674296  1
  Pb  Pb9  1  0.325704  0.000000  0.000000  1
  O  O10  1  0.705774  0.346899  0.065290  1
  O  O11  1  0.653101  0.358876  0.718391  1
  O  O12  1  0.281609  0.640484  0.934710  1
  O  O13  1  0.641124  0.294226  0.359516  1
  O  O14  1  0.358876  0.718391  0.653101  1
  O  O15  1  0.934710  0.281609  0.640484  1
  O  O16  1  0.065290  0.705774  0.346899  1
  O  O17  1  0.000000  0.669067  0.669067  1
  O  O18  1  0.669067  0.669067  0.000000  1
  O  O19  1  0.718391  0.653101  0.358876  1
  O  O20  1  0.346899  0.065290  0.705774  1
  O  O21  1  0.669067  0.000000  0.669067  1
  O  O22  1  0.000000  0.330933  0.330933  1
  O  O23  1  0.640484  0.934710  0.281609  1
  O  O24  1  0.359516  0.641124  0.294226  1
  O  O25  1  0.294226  0.359516  0.641124  1
  O  O26  1  0.330933  0.000000  0.330933  1
  O  O27  1  0.330933  0.330933  0.000000  1
  F  F28  1  0.000000  0.000000  0.000000  1
