# generated using pymatgen
data_Y6CrMoO12
_symmetry_space_group_name_H-M   'P 1'
_cell_length_a   6.57592824
_cell_length_b   6.57593008
_cell_length_c   6.57592900
_cell_angle_alpha   92.79133187
_cell_angle_beta   92.79133266
_cell_angle_gamma   92.79133927
_symmetry_Int_Tables_number   1
_chemical_formula_structural   Y6CrMoO12
_chemical_formula_sum   'Y6 Cr1 Mo1 O12'
_cell_volume   283.31553367
_cell_formula_units_Z   1
loop_
 _symmetry_equiv_pos_site_id
 _symmetry_equiv_pos_as_xyz
  1  'x, y, z'
loop_
 _atom_site_type_symbol
 _atom_site_label
 _atom_site_symmetry_multiplicity
 _atom_site_fract_x
 _atom_site_fract_y
 _atom_site_fract_z
 _atom_site_occupancy
  Y  Y0  1  0.741408  0.925631  0.435801  1
  Y  Y1  1  0.925631  0.435801  0.741408  1
  Y  Y2  1  0.435801  0.741408  0.925631  1
  Y  Y3  1  0.258592  0.074369  0.564199  1
  Y  Y4  1  0.074369  0.564199  0.258592  1
  Y  Y5  1  0.564199  0.258592  0.074369  1
  Cr  Cr6  1  0.500000  0.500000  0.500000  1
  Mo  Mo7  1  0.000000  0.000000  0.000000  1
  O  O8  1  0.586796  0.459618  0.797817  1
  O  O9  1  0.459618  0.797817  0.586796  1
  O  O10  1  0.797817  0.586796  0.459618  1
  O  O11  1  0.413204  0.540382  0.202183  1
  O  O12  1  0.540382  0.202183  0.413204  1
  O  O13  1  0.202183  0.413204  0.540382  1
  O  O14  1  0.068114  0.912300  0.311422  1
  O  O15  1  0.912300  0.311422  0.068114  1
  O  O16  1  0.688578  0.931886  0.087700  1
  O  O17  1  0.087700  0.688578  0.931886  1
  O  O18  1  0.931886  0.087700  0.688578  1
  O  O19  1  0.311422  0.068114  0.912300  1
