# generated using pymatgen
data_Lu8Re3Si16Tc9
_symmetry_space_group_name_H-M   'P 1'
_cell_length_a   6.74073927
_cell_length_b   6.74073927
_cell_length_c   12.54332490
_cell_angle_alpha   89.94498605
_cell_angle_beta   90.05501395
_cell_angle_gamma   90.04416176
_symmetry_Int_Tables_number   1
_chemical_formula_structural   Lu8Re3Si16Tc9
_chemical_formula_sum   'Lu8 Re3 Si16 Tc9'
_cell_volume   569.93745818
_cell_formula_units_Z   1
loop_
 _symmetry_equiv_pos_site_id
 _symmetry_equiv_pos_as_xyz
  1  'x, y, z'
loop_
 _atom_site_type_symbol
 _atom_site_label
 _atom_site_symmetry_multiplicity
 _atom_site_fract_x
 _atom_site_fract_y
 _atom_site_fract_z
 _atom_site_occupancy
  Lu  Lu0  1  0.004803  0.660872  0.030006  1
  Lu  Lu1  1  0.995301  0.338913  0.530444  1
  Lu  Lu2  1  0.338913  0.995301  0.469556  1
  Lu  Lu3  1  0.160397  0.494947  0.779896  1
  Lu  Lu4  1  0.839019  0.504314  0.279825  1
  Lu  Lu5  1  0.494947  0.160397  0.220104  1
  Lu  Lu6  1  0.504314  0.839019  0.720175  1
  Lu  Lu7  1  0.660872  0.004803  0.969994  1
  Re  Re8  1  0.167234  0.832881  0.249716  1
  Re  Re9  1  0.332606  0.332606  0.000000  1
  Re  Re10  1  0.832881  0.167234  0.750284  1
  Si  Si11  1  0.025296  0.720858  0.435368  1
  Si  Si12  1  0.617555  0.307249  0.435860  1
  Si  Si13  1  0.383475  0.692680  0.935460  1
  Si  Si14  1  0.193191  0.117328  0.685243  1
  Si  Si15  1  0.307249  0.617555  0.564140  1
  Si  Si16  1  0.692680  0.383475  0.064540  1
  Si  Si17  1  0.807140  0.883115  0.185640  1
  Si  Si18  1  0.117328  0.193191  0.314757  1
  Si  Si19  1  0.975257  0.276604  0.935852  1
  Si  Si20  1  0.720858  0.025296  0.564632  1
  Si  Si21  1  0.222405  0.474823  0.185725  1
  Si  Si22  1  0.777408  0.525557  0.685403  1
  Si  Si23  1  0.474823  0.222405  0.814275  1
  Si  Si24  1  0.525557  0.777408  0.314597  1
  Si  Si25  1  0.276604  0.975257  0.064148  1
  Si  Si26  1  0.883115  0.807140  0.814360  1
  Tc  Tc27  1  0.667066  0.667066  0.500000  1
  Tc  Tc28  1  0.021615  0.818610  0.627054  1
  Tc  Tc29  1  0.976750  0.183886  0.128812  1
  Tc  Tc30  1  0.818610  0.021615  0.372946  1
  Tc  Tc31  1  0.318057  0.477769  0.378381  1
  Tc  Tc32  1  0.683098  0.521922  0.877688  1
  Tc  Tc33  1  0.477769  0.318057  0.621619  1
  Tc  Tc34  1  0.521922  0.683098  0.122312  1
  Tc  Tc35  1  0.183886  0.976750  0.871188  1
