# generated using pymatgen
data_YbSmGa2Co3Ni3B2
_symmetry_space_group_name_H-M   'P 1'
_cell_length_a   5.19306700
_cell_length_b   5.19268071
_cell_length_c   6.66083500
_cell_angle_alpha   90.00000000
_cell_angle_beta   90.00000000
_cell_angle_gamma   119.99605862
_symmetry_Int_Tables_number   1
_chemical_formula_structural   YbSmGa2Co3Ni3B2
_chemical_formula_sum   'Yb1 Sm1 Ga2 Co3 Ni3 B2'
_cell_volume   155.55790996
_cell_formula_units_Z   1
loop_
 _symmetry_equiv_pos_site_id
 _symmetry_equiv_pos_as_xyz
  1  'x, y, z'
loop_
 _atom_site_type_symbol
 _atom_site_label
 _atom_site_symmetry_multiplicity
 _atom_site_fract_x
 _atom_site_fract_y
 _atom_site_fract_z
 _atom_site_occupancy
  Yb  Yb0  1  0.999983  0.000007  0.998769  1
  Sm  Sm1  1  0.999989  0.000004  0.501950  1
  Ga  Ga2  1  0.328270  0.661153  0.998901  1
  Ga  Ga3  1  0.671703  0.338864  0.998893  1
  Co  Co4  1  0.000003  0.500016  0.296987  1
  Co  Co5  1  0.499994  0.500004  0.702160  1
  Co  Co6  1  0.999986  0.500002  0.703233  1
  Ni  Ni7  1  0.499932  0.999788  0.294802  1
  Ni  Ni8  1  0.499943  0.500117  0.294853  1
  Ni  Ni9  1  0.500001  0.000026  0.705556  1
  B  B10  1  0.325276  0.658327  0.501938  1
  B  B11  1  0.674718  0.341694  0.501957  1
