# generated using pymatgen
data_LiHo3In4Co
_symmetry_space_group_name_H-M   'P 1'
_cell_length_a   8.05822500
_cell_length_b   8.05822477
_cell_length_c   3.59687600
_cell_angle_alpha   90.00000000
_cell_angle_beta   90.00000000
_cell_angle_gamma   120.00000507
_symmetry_Int_Tables_number   1
_chemical_formula_structural   LiHo3In4Co
_chemical_formula_sum   'Li1 Ho3 In4 Co1'
_cell_volume   202.27156838
_cell_formula_units_Z   1
loop_
 _symmetry_equiv_pos_site_id
 _symmetry_equiv_pos_as_xyz
  1  'x, y, z'
loop_
 _atom_site_type_symbol
 _atom_site_label
 _atom_site_symmetry_multiplicity
 _atom_site_fract_x
 _atom_site_fract_y
 _atom_site_fract_z
 _atom_site_occupancy
  Li  Li0  1  0.333333  0.666667  0.500000  1
  Ho  Ho1  1  0.285155  0.239909  0.500000  1
  Ho  Ho2  1  0.760091  0.045245  0.500000  1
  Ho  Ho3  1  0.954755  0.714845  0.500000  1
  In  In4  1  0.066930  0.402882  0.000000  1
  In  In5  1  0.597118  0.664047  0.000000  1
  In  In6  1  0.335953  0.933070  0.000000  1
  In  In7  1  0.666667  0.333333  0.000000  1
  Co  Co8  1  0.000000  0.000000  0.000000  1
