# generated using pymatgen
data_YbLu(Ga3Ir)3
_symmetry_space_group_name_H-M   'P 1'
_cell_length_a   7.54860361
_cell_length_b   7.54290661
_cell_length_c   9.56778800
_cell_angle_alpha   90.00000000
_cell_angle_beta   90.00000000
_cell_angle_gamma   119.74182594
_symmetry_Int_Tables_number   1
_chemical_formula_structural   YbLu(Ga3Ir)3
_chemical_formula_sum   'Yb2 Lu2 Ga18 Ir6'
_cell_volume   473.01127129
_cell_formula_units_Z   2
loop_
 _symmetry_equiv_pos_site_id
 _symmetry_equiv_pos_as_xyz
  1  'x, y, z'
loop_
 _atom_site_type_symbol
 _atom_site_label
 _atom_site_symmetry_multiplicity
 _atom_site_fract_x
 _atom_site_fract_y
 _atom_site_fract_z
 _atom_site_occupancy
  Yb  Yb0  1  0.668996  0.996507  0.250000  1
  Yb  Yb1  1  0.331004  0.003493  0.750000  1
  Lu  Lu2  1  0.997960  0.669437  0.250000  1
  Lu  Lu3  1  0.002040  0.330563  0.750000  1
  Ga  Ga4  1  0.128472  0.126358  0.250000  1
  Ga  Ga5  1  0.871528  0.873642  0.750000  1
  Ga  Ga6  1  0.998990  0.333866  0.078910  1
  Ga  Ga7  1  0.001010  0.666134  0.921090  1
  Ga  Ga8  1  0.001010  0.666134  0.578910  1
  Ga  Ga9  1  0.335016  0.000004  0.422066  1
  Ga  Ga10  1  0.998990  0.333866  0.421090  1
  Ga  Ga11  1  0.664984  0.999996  0.577934  1
  Ga  Ga12  1  0.664984  0.999996  0.922066  1
  Ga  Ga13  1  0.335016  0.000004  0.077934  1
  Ga  Ga14  1  0.332477  0.332326  0.564687  1
  Ga  Ga15  1  0.667523  0.667674  0.435313  1
  Ga  Ga16  1  0.667523  0.667674  0.064687  1
  Ga  Ga17  1  0.332477  0.332326  0.935313  1
  Ga  Ga18  1  0.335832  0.545966  0.250000  1
  Ga  Ga19  1  0.664168  0.454034  0.750000  1
  Ga  Ga20  1  0.547354  0.338971  0.250000  1
  Ga  Ga21  1  0.452646  0.661029  0.750000  1
  Ir  Ir22  1  0.672072  0.328710  0.999709  1
  Ir  Ir23  1  0.327928  0.671290  0.000291  1
  Ir  Ir24  1  0.327928  0.671290  0.499709  1
  Ir  Ir25  1  0.672072  0.328710  0.500291  1
  Ir  Ir26  1  0.000000  0.000000  0.000000  1
  Ir  Ir27  1  0.000000  0.000000  0.500000  1
