# generated using pymatgen
data_HoHg4Te2Br5
_symmetry_space_group_name_H-M   'P 1'
_cell_length_a   8.88245377
_cell_length_b   11.27631600
_cell_length_c   9.64153800
_cell_angle_alpha   90.00000000
_cell_angle_beta   113.61779081
_cell_angle_gamma   90.00000000
_symmetry_Int_Tables_number   1
_chemical_formula_structural   HoHg4Te2Br5
_chemical_formula_sum   'Ho2 Hg8 Te4 Br10'
_cell_volume   884.82011660
_cell_formula_units_Z   2
loop_
 _symmetry_equiv_pos_site_id
 _symmetry_equiv_pos_as_xyz
  1  'x, y, z'
loop_
 _atom_site_type_symbol
 _atom_site_label
 _atom_site_symmetry_multiplicity
 _atom_site_fract_x
 _atom_site_fract_y
 _atom_site_fract_z
 _atom_site_occupancy
  Ho  Ho0  1  0.503315  0.428366  0.499784  1
  Ho  Ho1  1  0.496685  0.928366  0.500216  1
  Hg  Hg2  1  0.932808  0.186418  0.334887  1
  Hg  Hg3  1  0.067192  0.686418  0.665113  1
  Hg  Hg4  1  0.966431  0.664203  0.366400  1
  Hg  Hg5  1  0.033569  0.164203  0.633600  1
  Hg  Hg6  1  0.490757  0.188087  0.993470  1
  Hg  Hg7  1  0.509243  0.688087  0.006530  1
  Hg  Hg8  1  0.799735  0.433411  0.991338  1
  Hg  Hg9  1  0.200265  0.933411  0.008662  1
  Te  Te10  1  0.807290  0.190585  0.017296  1
  Te  Te11  1  0.192710  0.690585  0.982704  1
  Te  Te12  1  0.169019  0.172927  0.951778  1
  Te  Te13  1  0.830981  0.672927  0.048222  1
  Br  Br14  1  0.830721  0.924740  0.674835  1
  Br  Br15  1  0.169279  0.424740  0.325165  1
  Br  Br16  1  0.842544  0.435030  0.689522  1
  Br  Br17  1  0.157456  0.935030  0.310478  1
  Br  Br18  1  0.432465  0.456869  0.758427  1
  Br  Br19  1  0.567535  0.956869  0.241573  1
  Br  Br20  1  0.590851  0.394789  0.258619  1
  Br  Br21  1  0.409149  0.894789  0.741381  1
  Br  Br22  1  0.496596  0.178177  0.548884  1
  Br  Br23  1  0.503404  0.678177  0.451116  1
