# generated using pymatgen
data_Er3Tm5B24IrRu3
_symmetry_space_group_name_H-M   'P 1'
_cell_length_a   3.62503100
_cell_length_b   9.08419801
_cell_length_c   11.43154201
_cell_angle_alpha   90.02531849
_cell_angle_beta   90.00000000
_cell_angle_gamma   90.00000000
_symmetry_Int_Tables_number   1
_chemical_formula_structural   Er3Tm5B24IrRu3
_chemical_formula_sum   'Er3 Tm5 B24 Ir1 Ru3'
_cell_volume   376.44635039
_cell_formula_units_Z   1
loop_
 _symmetry_equiv_pos_site_id
 _symmetry_equiv_pos_as_xyz
  1  'x, y, z'
loop_
 _atom_site_type_symbol
 _atom_site_label
 _atom_site_symmetry_multiplicity
 _atom_site_fract_x
 _atom_site_fract_y
 _atom_site_fract_z
 _atom_site_occupancy
  Er  Er0  1  0.000000  0.318445  0.414486  1
  Er  Er1  1  0.000000  0.679473  0.589105  1
  Er  Er2  1  0.000000  0.823083  0.084130  1
  Tm  Tm3  1  0.000000  0.179124  0.913203  1
  Tm  Tm4  1  0.000000  0.945776  0.373344  1
  Tm  Tm5  1  0.000000  0.055980  0.626882  1
  Tm  Tm6  1  0.000000  0.441776  0.125353  1
  Tm  Tm7  1  0.000000  0.555817  0.873435  1
  B  B8  1  0.500000  0.553768  0.434063  1
  B  B9  1  0.500000  0.445984  0.566700  1
  B  B10  1  0.500000  0.054277  0.066479  1
  B  B11  1  0.500000  0.946395  0.933029  1
  B  B12  1  0.500000  0.749970  0.421434  1
  B  B13  1  0.500000  0.250940  0.579894  1
  B  B14  1  0.500000  0.248338  0.079363  1
  B  B15  1  0.500000  0.751567  0.920212  1
  B  B16  1  0.500000  0.792729  0.265308  1
  B  B17  1  0.500000  0.208261  0.734126  1
  B  B18  1  0.500000  0.291946  0.234416  1
  B  B19  1  0.500000  0.708181  0.766033  1
  B  B20  1  0.500000  0.631633  0.183293  1
  B  B21  1  0.500000  0.368526  0.815244  1
  B  B22  1  0.500000  0.131516  0.315368  1
  B  B23  1  0.500000  0.868400  0.684967  1
  B  B24  1  0.500000  0.982496  0.213033  1
  B  B25  1  0.500000  0.017661  0.786850  1
  B  B26  1  0.500000  0.481326  0.286470  1
  B  B27  1  0.500000  0.517345  0.713409  1
  B  B28  1  0.500000  0.608361  0.030012  1
  B  B29  1  0.500000  0.391391  0.970127  1
  B  B30  1  0.500000  0.107699  0.470440  1
  B  B31  1  0.500000  0.891683  0.529466  1
  Ir  Ir32  1  0.000000  0.637567  0.321451  1
  Ru  Ru33  1  0.000000  0.362248  0.678713  1
  Ru  Ru34  1  0.000000  0.137987  0.179315  1
  Ru  Ru35  1  0.000000  0.862332  0.820849  1
