# generated using pymatgen
data_Y4Lu4B24Mo3Rh
_symmetry_space_group_name_H-M   'P 1'
_cell_length_a   3.62530200
_cell_length_b   9.17962051
_cell_length_c   11.57764300
_cell_angle_alpha   90.13349287
_cell_angle_beta   90.00000000
_cell_angle_gamma   90.00000000
_symmetry_Int_Tables_number   1
_chemical_formula_structural   Y4Lu4B24Mo3Rh
_chemical_formula_sum   'Y4 Lu4 B24 Mo3 Rh1'
_cell_volume   385.29013867
_cell_formula_units_Z   1
loop_
 _symmetry_equiv_pos_site_id
 _symmetry_equiv_pos_as_xyz
  1  'x, y, z'
loop_
 _atom_site_type_symbol
 _atom_site_label
 _atom_site_symmetry_multiplicity
 _atom_site_fract_x
 _atom_site_fract_y
 _atom_site_fract_z
 _atom_site_occupancy
  Y  Y0  1  0.500000  0.318204  0.414796  1
  Y  Y1  1  0.500000  0.679142  0.588292  1
  Y  Y2  1  0.500000  0.178897  0.913647  1
  Y  Y3  1  0.500000  0.824004  0.083142  1
  Lu  Lu4  1  0.500000  0.443377  0.129211  1
  Lu  Lu5  1  0.500000  0.556192  0.872574  1
  Lu  Lu6  1  0.500000  0.054969  0.627769  1
  Lu  Lu7  1  0.500000  0.942793  0.370667  1
  B  B8  1  0.000000  0.097096  0.472170  1
  B  B9  1  0.000000  0.897829  0.526365  1
  B  B10  1  0.000000  0.400905  0.973432  1
  B  B11  1  0.000000  0.600865  0.029400  1
  B  B12  1  0.000000  0.129990  0.317878  1
  B  B13  1  0.000000  0.868832  0.683046  1
  B  B14  1  0.000000  0.370447  0.815871  1
  B  B15  1  0.000000  0.630962  0.184107  1
  B  B16  1  0.000000  0.052951  0.066196  1
  B  B17  1  0.000000  0.948430  0.933781  1
  B  B18  1  0.000000  0.448217  0.564621  1
  B  B19  1  0.000000  0.555250  0.432669  1
  B  B20  1  0.000000  0.483780  0.287416  1
  B  B21  1  0.000000  0.520901  0.713108  1
  B  B22  1  0.000000  0.020379  0.785942  1
  B  B23  1  0.000000  0.979003  0.213195  1
  B  B24  1  0.000000  0.253180  0.080510  1
  B  B25  1  0.000000  0.748072  0.920568  1
  B  B26  1  0.000000  0.246029  0.579412  1
  B  B27  1  0.000000  0.750441  0.418980  1
  B  B28  1  0.000000  0.295829  0.237033  1
  B  B29  1  0.000000  0.704690  0.765344  1
  B  B30  1  0.000000  0.205334  0.734575  1
  B  B31  1  0.000000  0.791667  0.264962  1
  Mo  Mo32  1  0.500000  0.140279  0.181886  1
  Mo  Mo33  1  0.500000  0.860302  0.819337  1
  Mo  Mo34  1  0.500000  0.361410  0.678278  1
  Rh  Rh35  1  0.500000  0.639350  0.319816  1
