# generated using pymatgen
data_Rb8Li4ErIn3As8
_symmetry_space_group_name_H-M   'P 1'
_cell_length_a   10.57802189
_cell_length_b   10.57802283
_cell_length_c   6.62378972
_cell_angle_alpha   89.91604006
_cell_angle_beta   90.08396465
_cell_angle_gamma   102.50662166
_symmetry_Int_Tables_number   1
_chemical_formula_structural   Rb8Li4ErIn3As8
_chemical_formula_sum   'Rb8 Li4 Er1 In3 As8'
_cell_volume   723.57760084
_cell_formula_units_Z   1
loop_
 _symmetry_equiv_pos_site_id
 _symmetry_equiv_pos_as_xyz
  1  'x, y, z'
loop_
 _atom_site_type_symbol
 _atom_site_label
 _atom_site_symmetry_multiplicity
 _atom_site_fract_x
 _atom_site_fract_y
 _atom_site_fract_z
 _atom_site_occupancy
  Rb  Rb0  1  0.574896  0.925721  0.751341  1
  Rb  Rb1  1  0.925721  0.574896  0.248659  1
  Rb  Rb2  1  0.423175  0.067966  0.244137  1
  Rb  Rb3  1  0.067966  0.423175  0.755863  1
  Rb  Rb4  1  0.678926  0.327797  0.784179  1
  Rb  Rb5  1  0.828044  0.172023  0.276173  1
  Rb  Rb6  1  0.327797  0.678926  0.215821  1
  Rb  Rb7  1  0.172023  0.828044  0.723827  1
  Li  Li8  1  0.621781  0.621781  0.000000  1
  Li  Li9  1  0.879319  0.879319  0.500000  1
  Li  Li10  1  0.378865  0.378865  0.000000  1
  Li  Li11  1  0.117795  0.117795  0.500000  1
  Er  Er12  1  0.373518  0.373518  0.500000  1
  In  In13  1  0.866963  0.866963  0.000000  1
  In  In14  1  0.631153  0.631153  0.500000  1
  In  In15  1  0.130632  0.130632  0.000000  1
  As  As16  1  0.343371  0.156509  0.750922  1
  As  As17  1  0.156509  0.343371  0.249078  1
  As  As18  1  0.655224  0.844318  0.252163  1
  As  As19  1  0.844318  0.655224  0.747837  1
  As  As20  1  0.906871  0.090213  0.772199  1
  As  As21  1  0.596248  0.408674  0.267129  1
  As  As22  1  0.090213  0.906871  0.227801  1
  As  As23  1  0.408674  0.596248  0.732871  1
