# generated using pymatgen
data_Y17Ho3Si15Pt
_symmetry_space_group_name_H-M   'P 1'
_cell_length_a   7.40993302
_cell_length_b   7.73757463
_cell_length_c   14.66373118
_cell_angle_alpha   90.01557374
_cell_angle_beta   90.00899739
_cell_angle_gamma   90.09989119
_symmetry_Int_Tables_number   1
_chemical_formula_structural   Y17Ho3Si15Pt
_chemical_formula_sum   'Y17 Ho3 Si15 Pt1'
_cell_volume   840.74238456
_cell_formula_units_Z   1
loop_
 _symmetry_equiv_pos_site_id
 _symmetry_equiv_pos_as_xyz
  1  'x, y, z'
loop_
 _atom_site_type_symbol
 _atom_site_label
 _atom_site_symmetry_multiplicity
 _atom_site_fract_x
 _atom_site_fract_y
 _atom_site_fract_z
 _atom_site_occupancy
  Y  Y0  1  0.186485  0.323523  0.876818  1
  Y  Y1  1  0.317634  0.819896  0.123369  1
  Y  Y2  1  0.817685  0.677955  0.376414  1
  Y  Y3  1  0.317672  0.819976  0.376670  1
  Y  Y4  1  0.817695  0.677947  0.123644  1
  Y  Y5  1  0.680141  0.179059  0.877168  1
  Y  Y6  1  0.186600  0.323450  0.623127  1
  Y  Y7  1  0.525522  0.681648  0.594196  1
  Y  Y8  1  0.027028  0.817546  0.904177  1
  Y  Y9  1  0.472936  0.316173  0.097691  1
  Y  Y10  1  0.973130  0.183075  0.402391  1
  Y  Y11  1  0.473054  0.316198  0.402404  1
  Y  Y12  1  0.973184  0.183083  0.097662  1
  Y  Y13  1  0.525558  0.681714  0.905784  1
  Y  Y14  1  0.026896  0.817654  0.595784  1
  Y  Y15  1  0.356183  0.984488  0.749874  1
  Y  Y16  1  0.648765  0.012938  0.250018  1
  Ho  Ho17  1  0.679555  0.179611  0.623150  1
  Ho  Ho18  1  0.843132  0.508971  0.749884  1
  Ho  Ho19  1  0.148695  0.485675  0.250023  1
  Si  Si20  1  0.646582  0.972265  0.459324  1
  Si  Si21  1  0.146036  0.527682  0.040519  1
  Si  Si22  1  0.351913  0.026140  0.960410  1
  Si  Si23  1  0.852022  0.471920  0.540011  1
  Si  Si24  1  0.352426  0.026330  0.539745  1
  Si  Si25  1  0.852399  0.472650  0.960145  1
  Si  Si26  1  0.646371  0.971889  0.040990  1
  Si  Si27  1  0.146061  0.527649  0.459481  1
  Si  Si28  1  0.979434  0.102161  0.749757  1
  Si  Si29  1  0.521155  0.602873  0.249999  1
  Si  Si30  1  0.021736  0.895392  0.249998  1
  Si  Si31  1  0.741721  0.875605  0.749785  1
  Si  Si32  1  0.228950  0.630843  0.749999  1
  Si  Si33  1  0.266427  0.127657  0.250008  1
  Si  Si34  1  0.766710  0.373210  0.249988  1
  Pt  Pt35  1  0.482504  0.405155  0.749592  1
