# generated using pymatgen
data_Pr3DyLuP12Ru19
_symmetry_space_group_name_H-M   'P 1'
_cell_length_a   12.60535000
_cell_length_b   12.60534972
_cell_length_c   4.01103700
_cell_angle_alpha   90.00000000
_cell_angle_beta   90.00000000
_cell_angle_gamma   120.00000074
_symmetry_Int_Tables_number   1
_chemical_formula_structural   Pr3DyLuP12Ru19
_chemical_formula_sum   'Pr3 Dy1 Lu1 P12 Ru19'
_cell_volume   551.94665358
_cell_formula_units_Z   1
loop_
 _symmetry_equiv_pos_site_id
 _symmetry_equiv_pos_as_xyz
  1  'x, y, z'
loop_
 _atom_site_type_symbol
 _atom_site_label
 _atom_site_symmetry_multiplicity
 _atom_site_fract_x
 _atom_site_fract_y
 _atom_site_fract_z
 _atom_site_occupancy
  Pr  Pr0  1  0.815846  0.000048  0.500000  1
  Pr  Pr1  1  0.184202  0.184154  0.500000  1
  Pr  Pr2  1  0.999952  0.815798  0.500000  1
  Dy  Dy3  1  0.333333  0.666667  0.000000  1
  Lu  Lu4  1  0.666667  0.333333  0.000000  1
  P  P5  1  0.625331  0.999865  0.000000  1
  P  P6  1  0.374534  0.374669  0.000000  1
  P  P7  1  0.000135  0.625466  0.000000  1
  P  P8  1  0.695091  0.520548  0.500000  1
  P  P9  1  0.825459  0.304909  0.500000  1
  P  P10  1  0.304733  0.826091  0.500000  1
  P  P11  1  0.521355  0.695267  0.500000  1
  P  P12  1  0.188657  0.000157  0.000000  1
  P  P13  1  0.811500  0.811343  0.000000  1
  P  P14  1  0.999843  0.188500  0.000000  1
  P  P15  1  0.479452  0.174541  0.500000  1
  P  P16  1  0.173909  0.478645  0.500000  1
  Ru  Ru17  1  0.618707  0.804194  0.000000  1
  Ru  Ru18  1  0.185486  0.381293  0.000000  1
  Ru  Ru19  1  0.382323  0.186084  0.000000  1
  Ru  Ru20  1  0.195806  0.814514  0.000000  1
  Ru  Ru21  1  0.803762  0.617677  0.000000  1
  Ru  Ru22  1  0.872912  0.504965  0.500000  1
  Ru  Ru23  1  0.495035  0.367947  0.500000  1
  Ru  Ru24  1  0.632053  0.127088  0.500000  1
  Ru  Ru25  1  0.125518  0.631981  0.500000  1
  Ru  Ru26  1  0.368019  0.493538  0.500000  1
  Ru  Ru27  1  0.506462  0.874482  0.500000  1
  Ru  Ru28  1  0.000000  0.000000  0.000000  1
  Ru  Ru29  1  0.713014  0.712783  0.500000  1
  Ru  Ru30  1  0.999769  0.286986  0.500000  1
  Ru  Ru31  1  0.445806  0.999963  0.000000  1
  Ru  Ru32  1  0.554157  0.554194  0.000000  1
  Ru  Ru33  1  0.000037  0.445843  0.000000  1
  Ru  Ru34  1  0.813916  0.196238  0.000000  1
  Ru  Ru35  1  0.287217  0.000231  0.500000  1
