# generated using pymatgen
data_Lu16In3HgIr4
_symmetry_space_group_name_H-M   'P 1'
_cell_length_a   9.44460137
_cell_length_b   9.44460132
_cell_length_c   9.44460216
_cell_angle_alpha   60.00044722
_cell_angle_beta   60.00044778
_cell_angle_gamma   60.00044639
_symmetry_Int_Tables_number   1
_chemical_formula_structural   Lu16In3HgIr4
_chemical_formula_sum   'Lu16 In3 Hg1 Ir4'
_cell_volume   595.71746876
_cell_formula_units_Z   1
loop_
 _symmetry_equiv_pos_site_id
 _symmetry_equiv_pos_as_xyz
  1  'x, y, z'
loop_
 _atom_site_type_symbol
 _atom_site_label
 _atom_site_symmetry_multiplicity
 _atom_site_fract_x
 _atom_site_fract_y
 _atom_site_fract_z
 _atom_site_occupancy
  Lu  Lu0  1  0.598228  0.598228  0.598228  1
  Lu  Lu1  1  0.602006  0.602006  0.197399  1
  Lu  Lu2  1  0.602006  0.197399  0.602006  1
  Lu  Lu3  1  0.197399  0.602006  0.602006  1
  Lu  Lu4  1  0.058527  0.440569  0.440569  1
  Lu  Lu5  1  0.439054  0.059889  0.059889  1
  Lu  Lu6  1  0.440569  0.058527  0.440569  1
  Lu  Lu7  1  0.059889  0.439054  0.059889  1
  Lu  Lu8  1  0.440569  0.440569  0.058527  1
  Lu  Lu9  1  0.059889  0.059889  0.439054  1
  Lu  Lu10  1  0.186154  0.811949  0.811949  1
  Lu  Lu11  1  0.810777  0.189581  0.189581  1
  Lu  Lu12  1  0.811949  0.186154  0.811949  1
  Lu  Lu13  1  0.189581  0.810777  0.189581  1
  Lu  Lu14  1  0.811949  0.811949  0.186154  1
  Lu  Lu15  1  0.189581  0.189581  0.810777  1
  In  In16  1  0.833170  0.833170  0.500546  1
  In  In17  1  0.833170  0.500546  0.833170  1
  In  In18  1  0.500546  0.833170  0.833170  1
  Hg  Hg19  1  0.837224  0.837224  0.837224  1
  Ir  Ir20  1  0.392134  0.392134  0.392134  1
  Ir  Ir21  1  0.390251  0.390251  0.825126  1
  Ir  Ir22  1  0.390251  0.825126  0.390251  1
  Ir  Ir23  1  0.825126  0.390251  0.390251  1
