# generated using pymatgen
data_Tb8Lu12Si15As
_symmetry_space_group_name_H-M   'P 1'
_cell_length_a   7.37534610
_cell_length_b   7.57578717
_cell_length_c   14.37321060
_cell_angle_alpha   90.06564825
_cell_angle_beta   92.52704958
_cell_angle_gamma   90.11340635
_symmetry_Int_Tables_number   1
_chemical_formula_structural   Tb8Lu12Si15As
_chemical_formula_sum   'Tb8 Lu12 Si15 As1'
_cell_volume   802.30634786
_cell_formula_units_Z   1
loop_
 _symmetry_equiv_pos_site_id
 _symmetry_equiv_pos_as_xyz
  1  'x, y, z'
loop_
 _atom_site_type_symbol
 _atom_site_label
 _atom_site_symmetry_multiplicity
 _atom_site_fract_x
 _atom_site_fract_y
 _atom_site_fract_z
 _atom_site_occupancy
  Tb  Tb0  1  0.506097  0.678311  0.597437  1
  Tb  Tb1  1  0.021429  0.821067  0.900443  1
  Tb  Tb2  1  0.478727  0.320367  0.099793  1
  Tb  Tb3  1  0.999591  0.179972  0.401767  1
  Tb  Tb4  1  0.491890  0.320891  0.402983  1
  Tb  Tb5  1  0.979305  0.179396  0.099405  1
  Tb  Tb6  1  0.521838  0.680892  0.900644  1
  Tb  Tb7  1  0.005968  0.818518  0.598763  1
  Lu  Lu8  1  0.656042  0.169952  0.620539  1
  Lu  Lu9  1  0.175872  0.324050  0.876560  1
  Lu  Lu10  1  0.325069  0.823062  0.123705  1
  Lu  Lu11  1  0.843332  0.667527  0.376072  1
  Lu  Lu12  1  0.340550  0.830432  0.379400  1
  Lu  Lu13  1  0.823712  0.675686  0.123981  1
  Lu  Lu14  1  0.674418  0.177492  0.876834  1
  Lu  Lu15  1  0.157945  0.330198  0.623538  1
  Lu  Lu16  1  0.835935  0.505603  0.746755  1
  Lu  Lu17  1  0.336380  0.995116  0.745816  1
  Lu  Lu18  1  0.164410  0.494444  0.252741  1
  Lu  Lu19  1  0.663229  0.005099  0.251082  1
  Si  Si20  1  0.147843  0.530263  0.041605  1
  Si  Si21  1  0.350574  0.031101  0.959437  1
  Si  Si22  1  0.817125  0.462993  0.540720  1
  Si  Si23  1  0.303652  0.037041  0.542831  1
  Si  Si24  1  0.851939  0.470857  0.958400  1
  Si  Si25  1  0.648765  0.969871  0.041041  1
  Si  Si26  1  0.182530  0.536452  0.458635  1
  Si  Si27  1  0.464395  0.387976  0.751588  1
  Si  Si28  1  0.961647  0.112875  0.751637  1
  Si  Si29  1  0.535312  0.613293  0.249520  1
  Si  Si30  1  0.036663  0.887442  0.248937  1
  Si  Si31  1  0.716084  0.872440  0.750752  1
  Si  Si32  1  0.217208  0.629252  0.751637  1
  Si  Si33  1  0.285565  0.128757  0.249356  1
  Si  Si34  1  0.784413  0.368903  0.248984  1
  As  As35  1  0.694547  0.962407  0.456661  1
