# generated using pymatgen
data_Lu4Fe5Ru3
_symmetry_space_group_name_H-M   'P 1'
_cell_length_a   5.10430564
_cell_length_b   5.05168143
_cell_length_c   8.64460800
_cell_angle_alpha   90.00000000
_cell_angle_beta   90.00000000
_cell_angle_gamma   119.62782051
_symmetry_Int_Tables_number   1
_chemical_formula_structural   Lu4Fe5Ru3
_chemical_formula_sum   'Lu4 Fe5 Ru3'
_cell_volume   193.76044465
_cell_formula_units_Z   1
loop_
 _symmetry_equiv_pos_site_id
 _symmetry_equiv_pos_as_xyz
  1  'x, y, z'
loop_
 _atom_site_type_symbol
 _atom_site_label
 _atom_site_symmetry_multiplicity
 _atom_site_fract_x
 _atom_site_fract_y
 _atom_site_fract_z
 _atom_site_occupancy
  Lu  Lu0  1  0.332035  0.666058  0.064536  1
  Lu  Lu1  1  0.332035  0.666058  0.435464  1
  Lu  Lu2  1  0.666748  0.333352  0.563813  1
  Lu  Lu3  1  0.666748  0.333352  0.936187  1
  Fe  Fe4  1  0.344300  0.172151  0.250000  1
  Fe  Fe5  1  0.828695  0.170553  0.250000  1
  Fe  Fe6  1  0.828685  0.658137  0.250000  1
  Fe  Fe7  1  0.169638  0.336576  0.750000  1
  Fe  Fe8  1  0.169606  0.833092  0.750000  1
  Ru  Ru9  1  0.002330  0.001122  0.004757  1
  Ru  Ru10  1  0.002330  0.001122  0.495243  1
  Ru  Ru11  1  0.656848  0.828427  0.750000  1
