# generated using pymatgen
data_Li4La6Pd12Rh
_symmetry_space_group_name_H-M   'P 1'
_cell_length_a   8.42962975
_cell_length_b   8.42963020
_cell_length_c   8.42963000
_cell_angle_alpha   109.47122256
_cell_angle_beta   109.47122363
_cell_angle_gamma   109.47121996
_symmetry_Int_Tables_number   1
_chemical_formula_structural   Li4La6Pd12Rh
_chemical_formula_sum   'Li4 La6 Pd12 Rh1'
_cell_volume   461.10902419
_cell_formula_units_Z   1
loop_
 _symmetry_equiv_pos_site_id
 _symmetry_equiv_pos_as_xyz
  1  'x, y, z'
loop_
 _atom_site_type_symbol
 _atom_site_label
 _atom_site_symmetry_multiplicity
 _atom_site_fract_x
 _atom_site_fract_y
 _atom_site_fract_z
 _atom_site_occupancy
  Li  Li0  1  0.000000  0.000000  0.500000  1
  Li  Li1  1  0.000000  0.500000  0.000000  1
  Li  Li2  1  0.500000  0.000000  0.000000  1
  Li  Li3  1  0.500000  0.500000  0.500000  1
  La  La4  1  0.696149  0.696149  0.000000  1
  La  La5  1  0.303851  0.000000  0.303851  1
  La  La6  1  0.000000  0.303851  0.303851  1
  La  La7  1  0.303851  0.303851  0.000000  1
  La  La8  1  0.696149  0.000000  0.696149  1
  La  La9  1  0.000000  0.696149  0.696149  1
  Pd  Pd10  1  0.332142  0.332142  0.664284  1
  Pd  Pd11  1  0.667858  0.000000  0.332142  1
  Pd  Pd12  1  0.000000  0.667858  0.332142  1
  Pd  Pd13  1  0.667858  0.332142  0.000000  1
  Pd  Pd14  1  0.332142  0.664284  0.332142  1
  Pd  Pd15  1  0.000000  0.332142  0.667858  1
  Pd  Pd16  1  0.332142  0.667858  0.000000  1
  Pd  Pd17  1  0.332142  0.000000  0.667858  1
  Pd  Pd18  1  0.664284  0.332142  0.332142  1
  Pd  Pd19  1  0.667858  0.667858  0.335716  1
  Pd  Pd20  1  0.667858  0.335716  0.667858  1
  Pd  Pd21  1  0.335716  0.667858  0.667858  1
  Rh  Rh22  1  0.000000  0.000000  0.000000  1
