# generated using pymatgen
data_KPrPPt8
_symmetry_space_group_name_H-M   'P 1'
_cell_length_a   9.29723702
_cell_length_b   9.34157168
_cell_length_c   4.27977700
_cell_angle_alpha   90.00000000
_cell_angle_beta   90.00000000
_cell_angle_gamma   145.68374680
_symmetry_Int_Tables_number   1
_chemical_formula_structural   KPrPPt8
_chemical_formula_sum   'K1 Pr1 P1 Pt8'
_cell_volume   209.55090210
_cell_formula_units_Z   1
loop_
 _symmetry_equiv_pos_site_id
 _symmetry_equiv_pos_as_xyz
  1  'x, y, z'
loop_
 _atom_site_type_symbol
 _atom_site_label
 _atom_site_symmetry_multiplicity
 _atom_site_fract_x
 _atom_site_fract_y
 _atom_site_fract_z
 _atom_site_occupancy
  K  K0  1  0.613059  0.375915  0.500000  1
  Pr  Pr1  1  0.371710  0.622395  0.500000  1
  P  P2  1  0.220091  0.214797  0.000000  1
  Pt  Pt3  1  0.108537  0.886925  0.000000  1
  Pt  Pt4  1  0.894767  0.110978  0.000000  1
  Pt  Pt5  1  0.493748  0.982797  0.000000  1
  Pt  Pt6  1  0.996717  0.490656  0.000000  1
  Pt  Pt7  1  0.195033  0.790464  0.500000  1
  Pt  Pt8  1  0.793447  0.194193  0.500000  1
  Pt  Pt9  1  0.010541  0.012482  0.500000  1
  Pt  Pt10  1  0.615947  0.631995  0.000000  1
