# generated using pymatgen
data_Ca3Pr9(Nd2Ga3)4
_symmetry_space_group_name_H-M   'P 1'
_cell_length_a   7.91635559
_cell_length_b   7.91466157
_cell_length_c   14.60252340
_cell_angle_alpha   90.01820986
_cell_angle_beta   89.98016600
_cell_angle_gamma   90.09061213
_symmetry_Int_Tables_number   1
_chemical_formula_structural   Ca3Pr9(Nd2Ga3)4
_chemical_formula_sum   'Ca3 Pr9 Nd8 Ga12'
_cell_volume   914.92388064
_cell_formula_units_Z   1
loop_
 _symmetry_equiv_pos_site_id
 _symmetry_equiv_pos_as_xyz
  1  'x, y, z'
loop_
 _atom_site_type_symbol
 _atom_site_label
 _atom_site_symmetry_multiplicity
 _atom_site_fract_x
 _atom_site_fract_y
 _atom_site_fract_z
 _atom_site_occupancy
  Ca  Ca0  1  0.999846  0.500303  0.735609  1
  Ca  Ca1  1  0.000013  0.500467  0.240246  1
  Ca  Ca2  1  0.499864  0.999535  0.256690  1
  Pr  Pr3  1  0.667373  0.677049  0.100924  1
  Pr  Pr4  1  0.678567  0.338711  0.897987  1
  Pr  Pr5  1  0.839270  0.821658  0.898321  1
  Pr  Pr6  1  0.322479  0.332456  0.397913  1
  Pr  Pr7  1  0.181393  0.165977  0.601636  1
  Pr  Pr8  1  0.823530  0.167000  0.101088  1
  Pr  Pr9  1  0.321667  0.661330  0.898022  1
  Pr  Pr10  1  0.332357  0.323388  0.101004  1
  Pr  Pr11  1  0.161176  0.177685  0.898153  1
  Nd  Nd12  1  0.818464  0.834317  0.603130  1
  Nd  Nd13  1  0.176490  0.833057  0.102345  1
  Nd  Nd14  1  0.166761  0.822119  0.396330  1
  Nd  Nd15  1  0.832344  0.177136  0.396292  1
  Nd  Nd16  1  0.677710  0.667349  0.396599  1
  Nd  Nd17  1  0.666286  0.319147  0.603298  1
  Nd  Nd18  1  0.334778  0.681610  0.603326  1
  Nd  Nd19  1  0.500358  0.999883  0.782837  1
  Ga  Ga20  1  0.618183  0.383012  0.250102  1
  Ga  Ga21  1  0.120072  0.882498  0.747714  1
  Ga  Ga22  1  0.383580  0.380122  0.747517  1
  Ga  Ga23  1  0.382005  0.618197  0.249801  1
  Ga  Ga24  1  0.882898  0.881823  0.250052  1
  Ga  Ga25  1  0.617002  0.620541  0.747309  1
  Ga  Ga26  1  0.998363  0.501535  0.502929  1
  Ga  Ga27  1  0.878905  0.116537  0.747588  1
  Ga  Ga28  1  0.501453  0.998286  0.491935  1
  Ga  Ga29  1  0.499262  0.999525  0.999185  1
  Ga  Ga30  1  0.117203  0.117181  0.249833  1
  Ga  Ga31  1  0.000348  0.500568  0.004288  1
