# generated using pymatgen
data_ErMg3Ge5PIr7
_symmetry_space_group_name_H-M   'P 1'
_cell_length_a   7.12317031
_cell_length_b   7.12317131
_cell_length_c   7.10301170
_cell_angle_alpha   109.51478505
_cell_angle_beta   109.51478898
_cell_angle_gamma   110.59028538
_symmetry_Int_Tables_number   1
_chemical_formula_structural   ErMg3Ge5PIr7
_chemical_formula_sum   'Er1 Mg3 Ge5 P1 Ir7'
_cell_volume   273.20690568
_cell_formula_units_Z   1
loop_
 _symmetry_equiv_pos_site_id
 _symmetry_equiv_pos_as_xyz
  1  'x, y, z'
loop_
 _atom_site_type_symbol
 _atom_site_label
 _atom_site_symmetry_multiplicity
 _atom_site_fract_x
 _atom_site_fract_y
 _atom_site_fract_z
 _atom_site_occupancy
  Er  Er0  1  0.511878  0.511878  0.512287  1
  Mg  Mg1  1  0.000624  0.000624  0.487580  1
  Mg  Mg2  1  0.000331  0.510795  0.999701  1
  Mg  Mg3  1  0.510795  0.000331  0.999701  1
  Ge  Ge4  1  0.310641  0.996538  0.308793  1
  Ge  Ge5  1  0.996538  0.310641  0.308793  1
  Ge  Ge6  1  0.295497  0.295497  0.992743  1
  Ge  Ge7  1  0.694278  0.011011  0.693614  1
  Ge  Ge8  1  0.011011  0.694278  0.693614  1
  P  P9  1  0.675873  0.675873  0.003747  1
  Ir  Ir10  1  0.753235  0.247936  0.497430  1
  Ir  Ir11  1  0.751531  0.504765  0.245282  1
  Ir  Ir12  1  0.501683  0.252569  0.757506  1
  Ir  Ir13  1  0.252569  0.501683  0.757506  1
  Ir  Ir14  1  0.247936  0.753235  0.497430  1
  Ir  Ir15  1  0.504765  0.751531  0.245282  1
  Ir  Ir16  1  0.980817  0.980817  0.998989  1
