# generated using pymatgen
data_YbTmUTe5
_symmetry_space_group_name_H-M   'P 1'
_cell_length_a   12.55205630
_cell_length_b   12.55205578
_cell_length_c   4.17750500
_cell_angle_alpha   90.00000000
_cell_angle_beta   90.00000000
_cell_angle_gamma   158.84158851
_symmetry_Int_Tables_number   1
_chemical_formula_structural   YbTmUTe5
_chemical_formula_sum   'Yb1 Tm1 U1 Te5'
_cell_volume   237.56969845
_cell_formula_units_Z   1
loop_
 _symmetry_equiv_pos_site_id
 _symmetry_equiv_pos_as_xyz
  1  'x, y, z'
loop_
 _atom_site_type_symbol
 _atom_site_label
 _atom_site_symmetry_multiplicity
 _atom_site_fract_x
 _atom_site_fract_y
 _atom_site_fract_z
 _atom_site_occupancy
  Yb  Yb0  1  0.534619  0.465381  0.500000  1
  Tm  Tm1  1  0.175539  0.824461  0.500000  1
  U  U2  1  0.836669  0.163331  0.000000  1
  Te  Te3  1  0.432680  0.567320  0.000000  1
  Te  Te4  1  0.704350  0.295650  0.000000  1
  Te  Te5  1  0.300821  0.699179  0.500000  1
  Te  Te6  1  0.079798  0.920202  0.000000  1
  Te  Te7  1  0.935524  0.064476  0.500000  1
