# generated using pymatgen
data_Zr2NpUN4
_symmetry_space_group_name_H-M   'P 1'
_cell_length_a   5.81633400
_cell_length_b   5.81633365
_cell_length_c   5.81633387
_cell_angle_alpha   132.02519209
_cell_angle_beta   132.02518846
_cell_angle_gamma   70.18924420
_symmetry_Int_Tables_number   1
_chemical_formula_structural   Zr2NpUN4
_chemical_formula_sum   'Zr2 Np1 U1 N4'
_cell_volume   106.43072400
_cell_formula_units_Z   1
loop_
 _symmetry_equiv_pos_site_id
 _symmetry_equiv_pos_as_xyz
  1  'x, y, z'
loop_
 _atom_site_type_symbol
 _atom_site_label
 _atom_site_symmetry_multiplicity
 _atom_site_fract_x
 _atom_site_fract_y
 _atom_site_fract_z
 _atom_site_occupancy
  Zr  Zr0  1  0.000000  0.000000  0.000000  1
  Zr  Zr1  1  0.750000  0.250000  0.500000  1
  Np  Np2  1  0.500000  0.500000  0.000000  1
  U  U3  1  0.250000  0.750000  0.500000  1
  N  N4  1  0.754732  0.754732  0.000000  1
  N  N5  1  0.245268  0.245268  0.000000  1
  N  N6  1  0.999852  0.499852  0.500000  1
  N  N7  1  0.500148  0.000148  0.500000  1
