# generated using pymatgen
data_Sm2Si7Ni12
_symmetry_space_group_name_H-M   'P 1'
_cell_length_a   9.24299200
_cell_length_b   9.24299160
_cell_length_c   3.69776500
_cell_angle_alpha   90.00000000
_cell_angle_beta   90.00000000
_cell_angle_gamma   119.99999426
_symmetry_Int_Tables_number   1
_chemical_formula_structural   Sm2Si7Ni12
_chemical_formula_sum   'Sm2 Si7 Ni12'
_cell_volume   273.58677497
_cell_formula_units_Z   1
loop_
 _symmetry_equiv_pos_site_id
 _symmetry_equiv_pos_as_xyz
  1  'x, y, z'
loop_
 _atom_site_type_symbol
 _atom_site_label
 _atom_site_symmetry_multiplicity
 _atom_site_fract_x
 _atom_site_fract_y
 _atom_site_fract_z
 _atom_site_occupancy
  Sm  Sm0  1  0.666667  0.333333  0.000000  1
  Sm  Sm1  1  0.333333  0.666667  0.500000  1
  Si  Si2  1  0.279925  0.886416  0.000000  1
  Si  Si3  1  0.606492  0.720075  0.000000  1
  Si  Si4  1  0.113584  0.393508  0.000000  1
  Si  Si5  1  0.398997  0.297109  0.500000  1
  Si  Si6  1  0.898112  0.601003  0.500000  1
  Si  Si7  1  0.702891  0.101888  0.500000  1
  Si  Si8  1  0.000000  0.000000  0.000000  1
  Ni  Ni9  1  0.055671  0.613896  0.000000  1
  Ni  Ni10  1  0.558225  0.944329  0.000000  1
  Ni  Ni11  1  0.386104  0.441775  0.000000  1
  Ni  Ni12  1  0.276309  0.129438  0.000000  1
  Ni  Ni13  1  0.853130  0.723691  0.000000  1
  Ni  Ni14  1  0.870562  0.146870  0.000000  1
  Ni  Ni15  1  0.426431  0.051857  0.500000  1
  Ni  Ni16  1  0.625425  0.573569  0.500000  1
  Ni  Ni17  1  0.948143  0.374575  0.500000  1
  Ni  Ni18  1  0.095235  0.887136  0.500000  1
  Ni  Ni19  1  0.791902  0.904765  0.500000  1
  Ni  Ni20  1  0.112864  0.208098  0.500000  1
