# generated using pymatgen
data_LaYNi2(SnH)2
_symmetry_space_group_name_H-M   'P 1'
_cell_length_a   7.18296800
_cell_length_b   8.56145500
_cell_length_c   4.34697400
_cell_angle_alpha   90.00000000
_cell_angle_beta   89.99767552
_cell_angle_gamma   90.00000000
_symmetry_Int_Tables_number   1
_chemical_formula_structural   LaYNi2(SnH)2
_chemical_formula_sum   'La2 Y2 Ni4 Sn4 H4'
_cell_volume   267.32437025
_cell_formula_units_Z   2
loop_
 _symmetry_equiv_pos_site_id
 _symmetry_equiv_pos_as_xyz
  1  'x, y, z'
loop_
 _atom_site_type_symbol
 _atom_site_label
 _atom_site_symmetry_multiplicity
 _atom_site_fract_x
 _atom_site_fract_y
 _atom_site_fract_z
 _atom_site_occupancy
  La  La0  1  0.987263  0.690591  0.742838  1
  La  La1  1  0.487264  0.809408  0.742838  1
  Y  Y2  1  0.513607  0.182890  0.242815  1
  Y  Y3  1  0.013607  0.317111  0.242815  1
  Ni  Ni4  1  0.280259  0.590749  0.242736  1
  Ni  Ni5  1  0.780258  0.909251  0.242736  1
  Ni  Ni6  1  0.223180  0.110268  0.742620  1
  Ni  Ni7  1  0.723181  0.389733  0.742620  1
  Sn  Sn8  1  0.651937  0.555357  0.242652  1
  Sn  Sn9  1  0.151938  0.944644  0.242652  1
  Sn  Sn10  1  0.843476  0.081051  0.742665  1
  Sn  Sn11  1  0.343476  0.418948  0.742665  1
  H  H12  1  0.057961  0.573256  0.242935  1
  H  H13  1  0.557960  0.926744  0.242935  1
  H  H14  1  0.442318  0.084221  0.742937  1
  H  H15  1  0.942318  0.415778  0.742937  1
