# generated using pymatgen
data_TiNb5B4(Os2Ru3)2
_symmetry_space_group_name_H-M   'P 1'
_cell_length_a   9.40259402
_cell_length_b   9.48881102
_cell_length_c   3.02849800
_cell_angle_alpha   90.00000000
_cell_angle_beta   90.00000000
_cell_angle_gamma   90.00798271
_symmetry_Int_Tables_number   1
_chemical_formula_structural   TiNb5B4(Os2Ru3)2
_chemical_formula_sum   'Ti1 Nb5 B4 Os4 Ru6'
_cell_volume   270.20088634
_cell_formula_units_Z   1
loop_
 _symmetry_equiv_pos_site_id
 _symmetry_equiv_pos_as_xyz
  1  'x, y, z'
loop_
 _atom_site_type_symbol
 _atom_site_label
 _atom_site_symmetry_multiplicity
 _atom_site_fract_x
 _atom_site_fract_y
 _atom_site_fract_z
 _atom_site_occupancy
  Ti  Ti0  1  0.500000  0.500000  0.000000  1
  Nb  Nb1  1  0.821905  0.675389  0.000000  1
  Nb  Nb2  1  0.178095  0.324611  0.000000  1
  Nb  Nb3  1  0.325182  0.820737  0.000000  1
  Nb  Nb4  1  0.674818  0.179263  0.000000  1
  Nb  Nb5  1  0.000000  0.000000  0.000000  1
  B  B6  1  0.618805  0.874895  0.000000  1
  B  B7  1  0.381195  0.125105  0.000000  1
  B  B8  1  0.125400  0.618751  0.000000  1
  B  B9  1  0.874600  0.381249  0.000000  1
  Os  Os10  1  0.569987  0.716725  0.500000  1
  Os  Os11  1  0.430013  0.283275  0.500000  1
  Os  Os12  1  0.071783  0.779149  0.500000  1
  Os  Os13  1  0.928217  0.220851  0.500000  1
  Ru  Ru14  1  0.284858  0.568590  0.500000  1
  Ru  Ru15  1  0.715142  0.431410  0.500000  1
  Ru  Ru16  1  0.219164  0.070702  0.500000  1
  Ru  Ru17  1  0.780836  0.929298  0.500000  1
  Ru  Ru18  1  0.500000  0.000000  0.500000  1
  Ru  Ru19  1  0.000000  0.500000  0.500000  1
