# generated using pymatgen
data_Y4Tm9Lu7Bi12
_symmetry_space_group_name_H-M   'P 1'
_cell_length_a   8.16748325
_cell_length_b   9.41263233
_cell_length_c   11.91226200
_cell_angle_alpha   89.99587902
_cell_angle_beta   89.96826365
_cell_angle_gamma   89.98549821
_symmetry_Int_Tables_number   1
_chemical_formula_structural   Y4Tm9Lu7Bi12
_chemical_formula_sum   'Y4 Tm9 Lu7 Bi12'
_cell_volume   915.78495088
_cell_formula_units_Z   1
loop_
 _symmetry_equiv_pos_site_id
 _symmetry_equiv_pos_as_xyz
  1  'x, y, z'
loop_
 _atom_site_type_symbol
 _atom_site_label
 _atom_site_symmetry_multiplicity
 _atom_site_fract_x
 _atom_site_fract_y
 _atom_site_fract_z
 _atom_site_occupancy
  Y  Y0  1  0.313761  0.249931  0.218042  1
  Y  Y1  1  0.813674  0.249845  0.282086  1
  Y  Y2  1  0.686215  0.750111  0.782129  1
  Y  Y3  1  0.186213  0.749882  0.718024  1
  Tm  Tm4  1  0.352822  0.749829  0.217890  1
  Tm  Tm5  1  0.852854  0.749967  0.282069  1
  Tm  Tm6  1  0.647306  0.249787  0.782005  1
  Tm  Tm7  1  0.146823  0.249693  0.717800  1
  Tm  Tm8  1  0.692017  0.565979  0.059907  1
  Tm  Tm9  1  0.192267  0.934054  0.440096  1
  Tm  Tm10  1  0.307840  0.065886  0.940009  1
  Tm  Tm11  1  0.807813  0.434061  0.559864  1
  Tm  Tm12  1  0.308104  0.433984  0.940168  1
  Lu  Lu13  1  0.807826  0.067005  0.559840  1
  Lu  Lu14  1  0.692259  0.933040  0.059928  1
  Lu  Lu15  1  0.192154  0.567014  0.440111  1
  Lu  Lu16  1  0.477120  0.249931  0.489095  1
  Lu  Lu17  1  0.976808  0.249890  0.010898  1
  Lu  Lu18  1  0.522900  0.749800  0.510818  1
  Lu  Lu19  1  0.022684  0.750079  0.989166  1
  Bi  Bi20  1  0.403568  0.750258  0.959302  1
  Bi  Bi21  1  0.903268  0.750967  0.540893  1
  Bi  Bi22  1  0.596782  0.248786  0.040970  1
  Bi  Bi23  1  0.096736  0.251002  0.459062  1
  Bi  Bi24  1  0.565748  0.994607  0.327007  1
  Bi  Bi25  1  0.065863  0.505134  0.173013  1
  Bi  Bi26  1  0.434324  0.494603  0.672917  1
  Bi  Bi27  1  0.934257  0.005140  0.826937  1
  Bi  Bi28  1  0.434324  0.005077  0.672983  1
  Bi  Bi29  1  0.934199  0.494778  0.826889  1
  Bi  Bi30  1  0.565844  0.505111  0.326985  1
  Bi  Bi31  1  0.065627  0.994765  0.173100  1
