# generated using pymatgen
data_Yb12Dy8Si15Hg
_symmetry_space_group_name_H-M   'P 1'
_cell_length_a   7.46764147
_cell_length_b   7.79828205
_cell_length_c   15.20804119
_cell_angle_alpha   89.39938185
_cell_angle_beta   90.67781140
_cell_angle_gamma   90.23576438
_symmetry_Int_Tables_number   1
_chemical_formula_structural   Yb12Dy8Si15Hg
_chemical_formula_sum   'Yb12 Dy8 Si15 Hg1'
_cell_volume   885.51916665
_cell_formula_units_Z   1
loop_
 _symmetry_equiv_pos_site_id
 _symmetry_equiv_pos_as_xyz
  1  'x, y, z'
loop_
 _atom_site_type_symbol
 _atom_site_label
 _atom_site_symmetry_multiplicity
 _atom_site_fract_x
 _atom_site_fract_y
 _atom_site_fract_z
 _atom_site_occupancy
  Yb  Yb0  1  0.980881  0.818521  0.401505  1
  Yb  Yb1  1  0.470416  0.683747  0.096240  1
  Yb  Yb2  1  0.509646  0.317829  0.596482  1
  Yb  Yb3  1  0.028597  0.184410  0.904196  1
  Yb  Yb4  1  0.030274  0.177817  0.595810  1
  Yb  Yb5  1  0.529587  0.317825  0.903848  1
  Yb  Yb6  1  0.474261  0.678546  0.403519  1
  Yb  Yb7  1  0.971062  0.815665  0.096242  1
  Yb  Yb8  1  0.350980  0.021446  0.752771  1
  Yb  Yb9  1  0.851533  0.485211  0.751987  1
  Yb  Yb10  1  0.149161  0.518786  0.250027  1
  Yb  Yb11  1  0.646818  0.977738  0.249171  1
  Dy  Dy12  1  0.315490  0.175561  0.120075  1
  Dy  Dy13  1  0.821183  0.317331  0.373001  1
  Dy  Dy14  1  0.185474  0.678820  0.880175  1
  Dy  Dy15  1  0.676603  0.832755  0.628477  1
  Dy  Dy16  1  0.320338  0.176802  0.376523  1
  Dy  Dy17  1  0.815026  0.322549  0.119872  1
  Dy  Dy18  1  0.189439  0.677333  0.620846  1
  Dy  Dy19  1  0.686594  0.825390  0.880080  1
  Si  Si20  1  0.359574  0.967930  0.961749  1
  Si  Si21  1  0.648610  0.028674  0.464102  1
  Si  Si22  1  0.140606  0.467185  0.039186  1
  Si  Si23  1  0.152657  0.460897  0.459830  1
  Si  Si24  1  0.640993  0.033024  0.038681  1
  Si  Si25  1  0.359420  0.967365  0.536545  1
  Si  Si26  1  0.860244  0.532921  0.961413  1
  Si  Si27  1  0.977056  0.885539  0.751174  1
  Si  Si28  1  0.474087  0.618158  0.753926  1
  Si  Si29  1  0.525115  0.381697  0.246249  1
  Si  Si30  1  0.024585  0.112663  0.249228  1
  Si  Si31  1  0.245932  0.395971  0.751887  1
  Si  Si32  1  0.749894  0.110785  0.751180  1
  Si  Si33  1  0.252778  0.892783  0.248801  1
  Si  Si34  1  0.751712  0.603486  0.248206  1
  Hg  Hg35  1  0.833374  0.536841  0.536994  1
