# generated using pymatgen
data_TbErMnCo3O10
_symmetry_space_group_name_H-M   'P 1'
_cell_length_a   5.69284200
_cell_length_b   7.26006622
_cell_length_c   8.42895852
_cell_angle_alpha   90.17232761
_cell_angle_beta   90.00000000
_cell_angle_gamma   90.00000000
_symmetry_Int_Tables_number   1
_chemical_formula_structural   TbErMnCo3O10
_chemical_formula_sum   'Tb2 Er2 Mn2 Co6 O20'
_cell_volume   348.37073490
_cell_formula_units_Z   2
loop_
 _symmetry_equiv_pos_site_id
 _symmetry_equiv_pos_as_xyz
  1  'x, y, z'
loop_
 _atom_site_type_symbol
 _atom_site_label
 _atom_site_symmetry_multiplicity
 _atom_site_fract_x
 _atom_site_fract_y
 _atom_site_fract_z
 _atom_site_occupancy
  Tb  Tb0  1  0.999473  0.861855  0.827860  1
  Tb  Tb1  1  0.999473  0.138145  0.172140  1
  Er  Er2  1  0.000408  0.361913  0.671299  1
  Er  Er3  1  0.000408  0.638087  0.328701  1
  Mn  Mn4  1  0.743807  0.500000  0.000000  1
  Mn  Mn5  1  0.256748  0.000000  0.500000  1
  Co  Co6  1  0.498579  0.090450  0.849376  1
  Co  Co7  1  0.498579  0.909550  0.150624  1
  Co  Co8  1  0.501321  0.588932  0.649714  1
  Co  Co9  1  0.501321  0.411068  0.350286  1
  Co  Co10  1  0.255284  0.500000  0.000000  1
  Co  Co11  1  0.744545  0.000000  0.500000  1
  O  O12  1  0.242234  0.892583  0.290662  1
  O  O13  1  0.242234  0.107417  0.709338  1
  O  O14  1  0.758052  0.397438  0.210588  1
  O  O15  1  0.758052  0.602562  0.789412  1
  O  O16  1  0.755716  0.105330  0.706245  1
  O  O17  1  0.755716  0.894670  0.293755  1
  O  O18  1  0.243921  0.600654  0.792620  1
  O  O19  1  0.243921  0.399346  0.207380  1
  O  O20  1  0.497623  0.344904  0.931884  1
  O  O21  1  0.497623  0.655096  0.068116  1
  O  O22  1  0.502525  0.845255  0.569457  1
  O  O23  1  0.502525  0.154745  0.430543  1
  O  O24  1  0.275584  0.000000  0.000000  1
  O  O25  1  0.727989  0.500000  0.500000  1
  O  O26  1  0.724057  0.000000  0.000000  1
  O  O27  1  0.272294  0.500000  0.500000  1
  O  O28  1  0.999117  0.164709  0.446523  1
  O  O29  1  0.999117  0.835291  0.553477  1
  O  O30  1  0.000877  0.663905  0.056776  1
  O  O31  1  0.000877  0.336095  0.943224  1
