# generated using pymatgen
data_ErZr3(UIr2)4
_symmetry_space_group_name_H-M   'P 1'
_cell_length_a   10.33142880
_cell_length_b   5.57806364
_cell_length_c   5.58432675
_cell_angle_alpha   80.47541251
_cell_angle_beta   89.88990107
_cell_angle_gamma   89.95332201
_symmetry_Int_Tables_number   1
_chemical_formula_structural   ErZr3(UIr2)4
_chemical_formula_sum   'Er1 Zr3 U4 Ir8'
_cell_volume   317.38418345
_cell_formula_units_Z   1
loop_
 _symmetry_equiv_pos_site_id
 _symmetry_equiv_pos_as_xyz
  1  'x, y, z'
loop_
 _atom_site_type_symbol
 _atom_site_label
 _atom_site_symmetry_multiplicity
 _atom_site_fract_x
 _atom_site_fract_y
 _atom_site_fract_z
 _atom_site_occupancy
  Er  Er0  1  0.997613  0.338570  0.601055  1
  Zr  Zr1  1  0.498484  0.094122  0.846130  1
  Zr  Zr2  1  0.998398  0.901228  0.153330  1
  Zr  Zr3  1  0.497463  0.663842  0.400281  1
  U  U4  1  0.216347  0.388436  0.117755  1
  U  U5  1  0.715491  0.606558  0.878996  1
  U  U6  1  0.215781  0.853918  0.636160  1
  U  U7  1  0.714066  0.150248  0.364470  1
  Ir  Ir8  1  0.760887  0.106284  0.873269  1
  Ir  Ir9  1  0.263571  0.886863  0.132012  1
  Ir  Ir10  1  0.760692  0.651999  0.372740  1
  Ir  Ir11  1  0.272737  0.358716  0.624516  1
  Ir  Ir12  1  0.951592  0.409112  0.090770  1
  Ir  Ir13  1  0.456931  0.588815  0.913235  1
  Ir  Ir14  1  0.956414  0.825975  0.668253  1
  Ir  Ir15  1  0.459535  0.175313  0.327030  1
