# generated using pymatgen
data_Ho3Er(ZrRh)4
_symmetry_space_group_name_H-M   'P 1'
_cell_length_a   4.61516200
_cell_length_b   7.03790106
_cell_length_c   8.25865040
_cell_angle_alpha   89.93839225
_cell_angle_beta   90.00000000
_cell_angle_gamma   90.00000000
_symmetry_Int_Tables_number   1
_chemical_formula_structural   Ho3Er(ZrRh)4
_chemical_formula_sum   'Ho3 Er1 Zr4 Rh4'
_cell_volume   268.24951050
_cell_formula_units_Z   1
loop_
 _symmetry_equiv_pos_site_id
 _symmetry_equiv_pos_as_xyz
  1  'x, y, z'
loop_
 _atom_site_type_symbol
 _atom_site_label
 _atom_site_symmetry_multiplicity
 _atom_site_fract_x
 _atom_site_fract_y
 _atom_site_fract_z
 _atom_site_occupancy
  Ho  Ho0  1  0.250000  0.982942  0.322991  1
  Ho  Ho1  1  0.250000  0.483419  0.176727  1
  Ho  Ho2  1  0.750000  0.016503  0.677168  1
  Er  Er3  1  0.750000  0.517460  0.823181  1
  Zr  Zr4  1  0.250000  0.356741  0.577451  1
  Zr  Zr5  1  0.250000  0.856437  0.922997  1
  Zr  Zr6  1  0.750000  0.643119  0.423303  1
  Zr  Zr7  1  0.750000  0.143464  0.076620  1
  Rh  Rh8  1  0.250000  0.232636  0.910245  1
  Rh  Rh9  1  0.250000  0.731448  0.589796  1
  Rh  Rh10  1  0.750000  0.767870  0.089028  1
  Rh  Rh11  1  0.750000  0.267962  0.410495  1
