# generated using pymatgen
data_Sc2Ga10IrRu2
_symmetry_space_group_name_H-M   'P 1'
_cell_length_a   8.81696600
_cell_length_b   8.81696600
_cell_length_c   6.27800700
_cell_angle_alpha   90.00000000
_cell_angle_beta   90.00000000
_cell_angle_gamma   90.00000000
_symmetry_Int_Tables_number   1
_chemical_formula_structural   Sc2Ga10IrRu2
_chemical_formula_sum   'Sc4 Ga20 Ir2 Ru4'
_cell_volume   488.04529211
_cell_formula_units_Z   2
loop_
 _symmetry_equiv_pos_site_id
 _symmetry_equiv_pos_as_xyz
  1  'x, y, z'
loop_
 _atom_site_type_symbol
 _atom_site_label
 _atom_site_symmetry_multiplicity
 _atom_site_fract_x
 _atom_site_fract_y
 _atom_site_fract_z
 _atom_site_occupancy
  Sc  Sc0  1  0.182217  0.682217  0.000000  1
  Sc  Sc1  1  0.817783  0.317783  0.000000  1
  Sc  Sc2  1  0.682217  0.817783  0.000000  1
  Sc  Sc3  1  0.317783  0.182217  0.000000  1
  Ga  Ga4  1  0.063589  0.209946  0.711892  1
  Ga  Ga5  1  0.936411  0.790054  0.711892  1
  Ga  Ga6  1  0.563589  0.290054  0.711892  1
  Ga  Ga7  1  0.436411  0.709946  0.711892  1
  Ga  Ga8  1  0.790054  0.063589  0.711892  1
  Ga  Ga9  1  0.209946  0.936411  0.711892  1
  Ga  Ga10  1  0.709946  0.563589  0.711892  1
  Ga  Ga11  1  0.290054  0.436411  0.711892  1
  Ga  Ga12  1  0.936411  0.790054  0.288108  1
  Ga  Ga13  1  0.063589  0.209946  0.288108  1
  Ga  Ga14  1  0.436411  0.709946  0.288108  1
  Ga  Ga15  1  0.563589  0.290054  0.288108  1
  Ga  Ga16  1  0.209946  0.936411  0.288108  1
  Ga  Ga17  1  0.790054  0.063589  0.288108  1
  Ga  Ga18  1  0.290054  0.436411  0.288108  1
  Ga  Ga19  1  0.709946  0.563589  0.288108  1
  Ga  Ga20  1  0.000000  0.500000  0.728333  1
  Ga  Ga21  1  0.500000  0.000000  0.728333  1
  Ga  Ga22  1  0.000000  0.500000  0.271667  1
  Ga  Ga23  1  0.500000  0.000000  0.271667  1
  Ir  Ir24  1  0.000000  0.000000  0.000000  1
  Ir  Ir25  1  0.500000  0.500000  0.000000  1
  Ru  Ru26  1  0.176702  0.676702  0.500000  1
  Ru  Ru27  1  0.823298  0.323298  0.500000  1
  Ru  Ru28  1  0.676702  0.823298  0.500000  1
  Ru  Ru29  1  0.323298  0.176702  0.500000  1
