# generated using pymatgen
data_K2Zr7BeCl18
_symmetry_space_group_name_H-M   'P 1'
_cell_length_a   10.54812593
_cell_length_b   10.54812616
_cell_length_c   10.54812500
_cell_angle_alpha   55.86109747
_cell_angle_beta   55.86110316
_cell_angle_gamma   55.86109738
_symmetry_Int_Tables_number   1
_chemical_formula_structural   K2Zr7BeCl18
_chemical_formula_sum   'K2 Zr7 Be1 Cl18'
_cell_volume   750.24875732
_cell_formula_units_Z   1
loop_
 _symmetry_equiv_pos_site_id
 _symmetry_equiv_pos_as_xyz
  1  'x, y, z'
loop_
 _atom_site_type_symbol
 _atom_site_label
 _atom_site_symmetry_multiplicity
 _atom_site_fract_x
 _atom_site_fract_y
 _atom_site_fract_z
 _atom_site_occupancy
  K  K0  1  0.775756  0.775756  0.775756  1
  K  K1  1  0.224244  0.224244  0.224244  1
  Zr  Zr2  1  0.165493  0.895437  0.787539  1
  Zr  Zr3  1  0.834507  0.104563  0.212461  1
  Zr  Zr4  1  0.104563  0.212461  0.834507  1
  Zr  Zr5  1  0.212461  0.834507  0.104563  1
  Zr  Zr6  1  0.895437  0.787539  0.165493  1
  Zr  Zr7  1  0.787539  0.165493  0.895437  1
  Zr  Zr8  1  0.500000  0.500000  0.500000  1
  Be  Be9  1  0.000000  0.000000  0.000000  1
  Cl  Cl10  1  0.226973  0.469747  0.641311  1
  Cl  Cl11  1  0.773027  0.530253  0.358689  1
  Cl  Cl12  1  0.347559  0.053297  0.934962  1
  Cl  Cl13  1  0.652441  0.946703  0.065038  1
  Cl  Cl14  1  0.934962  0.347559  0.053297  1
  Cl  Cl15  1  0.711939  0.877047  0.416100  1
  Cl  Cl16  1  0.358689  0.773027  0.530253  1
  Cl  Cl17  1  0.583900  0.288061  0.122953  1
  Cl  Cl18  1  0.288061  0.122953  0.583900  1
  Cl  Cl19  1  0.122953  0.583900  0.288061  1
  Cl  Cl20  1  0.946703  0.065038  0.652441  1
  Cl  Cl21  1  0.416100  0.711939  0.877047  1
  Cl  Cl22  1  0.877047  0.416100  0.711939  1
  Cl  Cl23  1  0.065038  0.652441  0.946703  1
  Cl  Cl24  1  0.469747  0.641311  0.226973  1
  Cl  Cl25  1  0.641311  0.226973  0.469747  1
  Cl  Cl26  1  0.530253  0.358689  0.773027  1
  Cl  Cl27  1  0.053297  0.934962  0.347559  1
