# generated using pymatgen
data_Ho2Tm2Si4TcRh3
_symmetry_space_group_name_H-M   'P 1'
_cell_length_a   4.31040500
_cell_length_b   6.91389431
_cell_length_c   7.22943692
_cell_angle_alpha   90.01185438
_cell_angle_beta   90.00000000
_cell_angle_gamma   90.00000000
_symmetry_Int_Tables_number   1
_chemical_formula_structural   Ho2Tm2Si4TcRh3
_chemical_formula_sum   'Ho2 Tm2 Si4 Tc1 Rh3'
_cell_volume   215.44939440
_cell_formula_units_Z   1
loop_
 _symmetry_equiv_pos_site_id
 _symmetry_equiv_pos_as_xyz
  1  'x, y, z'
loop_
 _atom_site_type_symbol
 _atom_site_label
 _atom_site_symmetry_multiplicity
 _atom_site_fract_x
 _atom_site_fract_y
 _atom_site_fract_z
 _atom_site_occupancy
  Ho  Ho0  1  0.750000  0.513188  0.311202  1
  Ho  Ho1  1  0.750000  0.005663  0.185214  1
  Tm  Tm2  1  0.250000  0.491015  0.691412  1
  Tm  Tm3  1  0.250000  0.995078  0.812917  1
  Si  Si4  1  0.250000  0.297983  0.108975  1
  Si  Si5  1  0.750000  0.700964  0.884730  1
  Si  Si6  1  0.250000  0.797659  0.402044  1
  Si  Si7  1  0.750000  0.200135  0.604353  1
  Tc  Tc8  1  0.750000  0.845708  0.568387  1
  Rh  Rh9  1  0.250000  0.156315  0.433048  1
  Rh  Rh10  1  0.750000  0.343020  0.932206  1
  Rh  Rh11  1  0.250000  0.653270  0.065510  1
