# generated using pymatgen
data_Tb3Y3Sc2O12
_symmetry_space_group_name_H-M   'P 1'
_cell_length_a   6.62620596
_cell_length_b   6.62620647
_cell_length_c   6.62620613
_cell_angle_alpha   92.00371101
_cell_angle_beta   92.00370364
_cell_angle_gamma   92.00370502
_symmetry_Int_Tables_number   1
_chemical_formula_structural   Tb3Y3Sc2O12
_chemical_formula_sum   'Tb3 Y3 Sc2 O12'
_cell_volume   290.38779467
_cell_formula_units_Z   1
loop_
 _symmetry_equiv_pos_site_id
 _symmetry_equiv_pos_as_xyz
  1  'x, y, z'
loop_
 _atom_site_type_symbol
 _atom_site_label
 _atom_site_symmetry_multiplicity
 _atom_site_fract_x
 _atom_site_fract_y
 _atom_site_fract_z
 _atom_site_occupancy
  Tb  Tb0  1  0.747137  0.931902  0.439251  1
  Tb  Tb1  1  0.931902  0.439251  0.747137  1
  Tb  Tb2  1  0.439251  0.747137  0.931902  1
  Y  Y3  1  0.252971  0.068309  0.560640  1
  Y  Y4  1  0.068309  0.560640  0.252971  1
  Y  Y5  1  0.560640  0.252971  0.068309  1
  Sc  Sc6  1  0.499777  0.499777  0.499777  1
  Sc  Sc7  1  0.000104  0.000104  0.000104  1
  O  O8  1  0.592541  0.462685  0.805642  1
  O  O9  1  0.462685  0.805642  0.592541  1
  O  O10  1  0.805642  0.592541  0.462685  1
  O  O11  1  0.407121  0.536607  0.194425  1
  O  O12  1  0.536607  0.194425  0.407121  1
  O  O13  1  0.194425  0.407121  0.536607  1
  O  O14  1  0.069632  0.914303  0.305645  1
  O  O15  1  0.914303  0.305645  0.069632  1
  O  O16  1  0.694523  0.931295  0.085491  1
  O  O17  1  0.085491  0.694523  0.931295  1
  O  O18  1  0.931295  0.085491  0.694523  1
  O  O19  1  0.305645  0.069632  0.914303  1
