# generated using pymatgen
data_Ho4TaRe5Si8
_symmetry_space_group_name_H-M   'P 1'
_cell_length_a   6.81020142
_cell_length_b   6.89064688
_cell_length_c   6.74764131
_cell_angle_alpha   69.87109215
_cell_angle_beta   90.65108600
_cell_angle_gamma   89.16564249
_symmetry_Int_Tables_number   1
_chemical_formula_structural   Ho4TaRe5Si8
_chemical_formula_sum   'Ho4 Ta1 Re5 Si8'
_cell_volume   297.22734024
_cell_formula_units_Z   1
loop_
 _symmetry_equiv_pos_site_id
 _symmetry_equiv_pos_as_xyz
  1  'x, y, z'
loop_
 _atom_site_type_symbol
 _atom_site_label
 _atom_site_symmetry_multiplicity
 _atom_site_fract_x
 _atom_site_fract_y
 _atom_site_fract_z
 _atom_site_occupancy
  Ho  Ho0  1  0.672894  0.442750  0.189584  1
  Ho  Ho1  1  0.168401  0.064218  0.811879  1
  Ho  Ho2  1  0.327106  0.557250  0.810416  1
  Ho  Ho3  1  0.831599  0.935782  0.188121  1
  Ta  Ta4  1  0.500000  0.000000  0.500000  1
  Re  Re5  1  0.000000  0.500000  0.500000  1
  Re  Re6  1  0.149057  0.232594  0.232519  1
  Re  Re7  1  0.644189  0.233200  0.733056  1
  Re  Re8  1  0.850943  0.767406  0.767481  1
  Re  Re9  1  0.355811  0.766800  0.266944  1
  Si  Si10  1  0.459288  0.141709  0.082636  1
  Si  Si11  1  0.935189  0.380548  0.890132  1
  Si  Si12  1  0.540712  0.858291  0.917364  1
  Si  Si13  1  0.064811  0.619452  0.109868  1
  Si  Si14  1  0.872679  0.131536  0.497192  1
  Si  Si15  1  0.350062  0.385003  0.467879  1
  Si  Si16  1  0.127321  0.868464  0.502808  1
  Si  Si17  1  0.649938  0.614997  0.532121  1
