# generated using pymatgen
data_Yb4Ga15(SiIr2)3
_symmetry_space_group_name_H-M   'P 1'
_cell_length_a   7.53426055
_cell_length_b   7.45477329
_cell_length_c   9.60561902
_cell_angle_alpha   89.91526048
_cell_angle_beta   89.98821783
_cell_angle_gamma   119.74589719
_symmetry_Int_Tables_number   1
_chemical_formula_structural   Yb4Ga15(SiIr2)3
_chemical_formula_sum   'Yb4 Ga15 Si3 Ir6'
_cell_volume   468.42133205
_cell_formula_units_Z   1
loop_
 _symmetry_equiv_pos_site_id
 _symmetry_equiv_pos_as_xyz
  1  'x, y, z'
loop_
 _atom_site_type_symbol
 _atom_site_label
 _atom_site_symmetry_multiplicity
 _atom_site_fract_x
 _atom_site_fract_y
 _atom_site_fract_z
 _atom_site_occupancy
  Yb  Yb0  1  0.996618  0.666970  0.248448  1
  Yb  Yb1  1  0.004099  0.336466  0.749901  1
  Yb  Yb2  1  0.671620  0.002217  0.248186  1
  Yb  Yb3  1  0.326124  0.994722  0.750321  1
  Ga  Ga4  1  0.126982  0.126686  0.250195  1
  Ga  Ga5  1  0.872568  0.870181  0.751189  1
  Ga  Ga6  1  0.340107  0.004591  0.420545  1
  Ga  Ga7  1  0.999363  0.328062  0.422359  1
  Ga  Ga8  1  0.666415  0.001949  0.579324  1
  Ga  Ga9  1  0.662473  0.998517  0.919179  1
  Ga  Ga10  1  0.338727  0.003056  0.079853  1
  Ga  Ga11  1  0.332738  0.329493  0.567401  1
  Ga  Ga12  1  0.660624  0.669375  0.433163  1
  Ga  Ga13  1  0.661534  0.669344  0.068057  1
  Ga  Ga14  1  0.337034  0.329951  0.931878  1
  Ga  Ga15  1  0.335567  0.547097  0.250374  1
  Ga  Ga16  1  0.664270  0.455351  0.752380  1
  Ga  Ga17  1  0.549352  0.339605  0.250188  1
  Ga  Ga18  1  0.452072  0.662082  0.751329  1
  Si  Si19  1  0.002143  0.329255  0.069027  1
  Si  Si20  1  0.997825  0.670218  0.932162  1
  Si  Si21  1  0.999667  0.665739  0.566287  1
  Ir  Ir22  1  0.697023  0.343603  0.003257  1
  Ir  Ir23  1  0.303019  0.656343  0.997555  1
  Ir  Ir24  1  0.315331  0.668316  0.504182  1
  Ir  Ir25  1  0.685737  0.344520  0.501846  1
  Ir  Ir26  1  0.000160  0.999683  0.000046  1
  Ir  Ir27  1  0.000808  0.986607  0.501367  1
