# generated using pymatgen
data_BaEu3(NO3)8
_symmetry_space_group_name_H-M   'P 1'
_cell_length_a   8.02767458
_cell_length_b   8.02767414
_cell_length_c   8.02767406
_cell_angle_alpha   90.10203356
_cell_angle_beta   90.10204136
_cell_angle_gamma   90.10204087
_symmetry_Int_Tables_number   1
_chemical_formula_structural   BaEu3(NO3)8
_chemical_formula_sum   'Ba1 Eu3 N8 O24'
_cell_volume   517.32939599
_cell_formula_units_Z   1
loop_
 _symmetry_equiv_pos_site_id
 _symmetry_equiv_pos_as_xyz
  1  'x, y, z'
loop_
 _atom_site_type_symbol
 _atom_site_label
 _atom_site_symmetry_multiplicity
 _atom_site_fract_x
 _atom_site_fract_y
 _atom_site_fract_z
 _atom_site_occupancy
  Ba  Ba0  1  0.500000  0.500000  0.500000  1
  Eu  Eu1  1  0.500000  0.000000  0.000000  1
  Eu  Eu2  1  0.000000  0.000000  0.500000  1
  Eu  Eu3  1  0.000000  0.500000  0.000000  1
  N  N4  1  0.660910  0.859834  0.341083  1
  N  N5  1  0.339090  0.140166  0.658917  1
  N  N6  1  0.154829  0.154829  0.154829  1
  N  N7  1  0.859834  0.341083  0.660910  1
  N  N8  1  0.341083  0.660910  0.859834  1
  N  N9  1  0.845171  0.845171  0.845171  1
  N  N10  1  0.140166  0.658917  0.339090  1
  N  N11  1  0.658917  0.339090  0.140166  1
  O  O12  1  0.026597  0.207265  0.231286  1
  O  O13  1  0.792136  0.472456  0.717972  1
  O  O14  1  0.280375  0.734043  0.986073  1
  O  O15  1  0.973403  0.792735  0.768714  1
  O  O16  1  0.207864  0.527544  0.282028  1
  O  O17  1  0.719625  0.265957  0.013927  1
  O  O18  1  0.231286  0.026597  0.207265  1
  O  O19  1  0.801267  0.270002  0.531469  1
  O  O20  1  0.472456  0.717972  0.792136  1
  O  O21  1  0.768714  0.973403  0.792735  1
  O  O22  1  0.198733  0.729998  0.468531  1
  O  O23  1  0.527544  0.282028  0.207864  1
  O  O24  1  0.207265  0.231286  0.026597  1
  O  O25  1  0.986073  0.280375  0.734043  1
  O  O26  1  0.270002  0.531469  0.801267  1
  O  O27  1  0.792735  0.768714  0.973403  1
  O  O28  1  0.013927  0.719625  0.265957  1
  O  O29  1  0.729998  0.468531  0.198733  1
  O  O30  1  0.734043  0.986073  0.280375  1
  O  O31  1  0.717972  0.792136  0.472456  1
  O  O32  1  0.531469  0.801267  0.270002  1
  O  O33  1  0.265957  0.013927  0.719625  1
  O  O34  1  0.282028  0.207864  0.527544  1
  O  O35  1  0.468531  0.198733  0.729998  1
