# generated using pymatgen
data_DyHo15In4(OsRh)2
_symmetry_space_group_name_H-M   'P 1'
_cell_length_a   9.61900178
_cell_length_b   9.66145479
_cell_length_c   9.61605604
_cell_angle_alpha   59.86068871
_cell_angle_beta   59.65987768
_cell_angle_gamma   59.84393827
_symmetry_Int_Tables_number   1
_chemical_formula_structural   DyHo15In4(OsRh)2
_chemical_formula_sum   'Dy1 Ho15 In4 Os2 Rh2'
_cell_volume   628.86526372
_cell_formula_units_Z   1
loop_
 _symmetry_equiv_pos_site_id
 _symmetry_equiv_pos_as_xyz
  1  'x, y, z'
loop_
 _atom_site_type_symbol
 _atom_site_label
 _atom_site_symmetry_multiplicity
 _atom_site_fract_x
 _atom_site_fract_y
 _atom_site_fract_z
 _atom_site_occupancy
  Dy  Dy0  1  0.189171  0.191391  0.805337  1
  Ho  Ho1  1  0.598396  0.597814  0.206341  1
  Ho  Ho2  1  0.441103  0.058919  0.440860  1
  Ho  Ho3  1  0.439384  0.444298  0.059386  1
  Ho  Ho4  1  0.812050  0.187633  0.812449  1
  Ho  Ho5  1  0.193573  0.806064  0.193815  1
  Ho  Ho6  1  0.439358  0.056912  0.059521  1
  Ho  Ho7  1  0.189769  0.813132  0.804816  1
  Ho  Ho8  1  0.056921  0.443133  0.057019  1
  Ho  Ho9  1  0.804965  0.813736  0.189577  1
  Ho  Ho10  1  0.206445  0.597533  0.598298  1
  Ho  Ho11  1  0.059413  0.444423  0.439131  1
  Ho  Ho12  1  0.059353  0.056890  0.439390  1
  Ho  Ho13  1  0.804326  0.191978  0.190095  1
  Ho  Ho14  1  0.599195  0.202323  0.599459  1
  Ho  Ho15  1  0.599489  0.599053  0.599211  1
  In  In16  1  0.832338  0.832776  0.832103  1
  In  In17  1  0.832798  0.833275  0.500718  1
  In  In18  1  0.501302  0.832954  0.832503  1
  In  In19  1  0.832386  0.503346  0.832363  1
  Os  Os20  1  0.392435  0.827777  0.392595  1
  Os  Os21  1  0.392766  0.387335  0.392010  1
  Rh  Rh22  1  0.829851  0.388590  0.393082  1
  Rh  Rh23  1  0.393215  0.388713  0.829924  1
