# generated using pymatgen
data_Cs2Bi(WO4)3
_symmetry_space_group_name_H-M   'P 1'
_cell_length_a   7.51015239
_cell_length_b   7.51015485
_cell_length_c   7.65976012
_cell_angle_alpha   60.67412576
_cell_angle_beta   60.67413294
_cell_angle_gamma   59.97833375
_symmetry_Int_Tables_number   1
_chemical_formula_structural   Cs2Bi(WO4)3
_chemical_formula_sum   'Cs2 Bi1 W3 O12'
_cell_volume   308.51488184
_cell_formula_units_Z   1
loop_
 _symmetry_equiv_pos_site_id
 _symmetry_equiv_pos_as_xyz
  1  'x, y, z'
loop_
 _atom_site_type_symbol
 _atom_site_label
 _atom_site_symmetry_multiplicity
 _atom_site_fract_x
 _atom_site_fract_y
 _atom_site_fract_z
 _atom_site_occupancy
  Cs  Cs0  1  0.888083  0.863397  0.870016  1
  Cs  Cs1  1  0.136606  0.111917  0.129981  1
  Bi  Bi2  1  0.503729  0.496271  0.000000  1
  W  W3  1  0.504129  0.995822  0.499301  1
  W  W4  1  0.004178  0.495871  0.500700  1
  W  W5  1  0.503401  0.496599  0.500000  1
  O  O6  1  0.202177  0.196351  0.536190  1
  O  O7  1  0.577969  0.576849  0.199986  1
  O  O8  1  0.578287  0.142224  0.199418  1
  O  O9  1  0.201990  0.563306  0.535587  1
  O  O10  1  0.148688  0.573932  0.200653  1
  O  O11  1  0.568636  0.197209  0.533972  1
  O  O12  1  0.803649  0.797824  0.463810  1
  O  O13  1  0.423150  0.422030  0.800014  1
  O  O14  1  0.426068  0.851312  0.799347  1
  O  O15  1  0.802791  0.431363  0.466029  1
  O  O16  1  0.857776  0.421714  0.800582  1
  O  O17  1  0.436694  0.798010  0.464414  1
