# generated using pymatgen
data_Dy2Np(SnRh)3
_symmetry_space_group_name_H-M   'P 1'
_cell_length_a   7.48335844
_cell_length_b   7.48335859
_cell_length_c   3.90200600
_cell_angle_alpha   90.00000000
_cell_angle_beta   90.00000000
_cell_angle_gamma   119.09679780
_symmetry_Int_Tables_number   1
_chemical_formula_structural   Dy2Np(SnRh)3
_chemical_formula_sum   'Dy2 Np1 Sn3 Rh3'
_cell_volume   190.93818084
_cell_formula_units_Z   1
loop_
 _symmetry_equiv_pos_site_id
 _symmetry_equiv_pos_as_xyz
  1  'x, y, z'
loop_
 _atom_site_type_symbol
 _atom_site_label
 _atom_site_symmetry_multiplicity
 _atom_site_fract_x
 _atom_site_fract_y
 _atom_site_fract_z
 _atom_site_occupancy
  Dy  Dy0  1  0.592802  0.999637  0.500000  1
  Dy  Dy1  1  0.999637  0.592802  0.500000  1
  Np  Np2  1  0.417225  0.417225  0.500000  1
  Sn  Sn3  1  0.751148  0.751148  0.000000  1
  Sn  Sn4  1  0.257999  0.991304  0.000000  1
  Sn  Sn5  1  0.991304  0.257999  0.000000  1
  Rh  Rh6  1  0.646300  0.335999  0.000000  1
  Rh  Rh7  1  0.335999  0.646300  0.000000  1
  Rh  Rh8  1  0.007587  0.007587  0.500000  1
