# generated using pymatgen
data_Er6Sc4Si5P
_symmetry_space_group_name_H-M   'P 1'
_cell_length_a   8.19125500
_cell_length_b   8.20073789
_cell_length_c   5.96128100
_cell_angle_alpha   90.00000000
_cell_angle_beta   90.00000000
_cell_angle_gamma   119.96175170
_symmetry_Int_Tables_number   1
_chemical_formula_structural   Er6Sc4Si5P
_chemical_formula_sum   'Er6 Sc4 Si5 P1'
_cell_volume   346.92920254
_cell_formula_units_Z   1
loop_
 _symmetry_equiv_pos_site_id
 _symmetry_equiv_pos_as_xyz
  1  'x, y, z'
loop_
 _atom_site_type_symbol
 _atom_site_label
 _atom_site_symmetry_multiplicity
 _atom_site_fract_x
 _atom_site_fract_y
 _atom_site_fract_z
 _atom_site_occupancy
  Er  Er0  1  0.000839  0.754623  0.750000  1
  Er  Er1  1  0.000839  0.245939  0.250000  1
  Er  Er2  1  0.754900  0.754061  0.250000  1
  Er  Er3  1  0.751582  0.000000  0.750000  1
  Er  Er4  1  0.246215  0.245377  0.750000  1
  Er  Er5  1  0.246998  0.000000  0.250000  1
  Sc  Sc6  1  0.333485  0.667286  0.499461  1
  Sc  Sc7  1  0.666200  0.332714  0.000539  1
  Sc  Sc8  1  0.666200  0.332714  0.499461  1
  Sc  Sc9  1  0.333485  0.667286  0.000539  1
  Si  Si10  1  0.398228  0.397337  0.250000  1
  Si  Si11  1  0.000891  0.602663  0.250000  1
  Si  Si12  1  0.000195  0.397557  0.750000  1
  Si  Si13  1  0.602640  0.602443  0.750000  1
  Si  Si14  1  0.603946  0.000000  0.250000  1
  P  P15  1  0.393360  0.000000  0.750000  1
