# generated using pymatgen
data_DyLu5Np3O18
_symmetry_space_group_name_H-M   'P 1'
_cell_length_a   9.38550602
_cell_length_b   9.38891364
_cell_length_c   5.03505700
_cell_angle_alpha   90.00000000
_cell_angle_beta   89.99620898
_cell_angle_gamma   120.01201630
_symmetry_Int_Tables_number   1
_chemical_formula_structural   DyLu5Np3O18
_chemical_formula_sum   'Dy1 Lu5 Np3 O18'
_cell_volume   384.19831857
_cell_formula_units_Z   1
loop_
 _symmetry_equiv_pos_site_id
 _symmetry_equiv_pos_as_xyz
  1  'x, y, z'
loop_
 _atom_site_type_symbol
 _atom_site_label
 _atom_site_symmetry_multiplicity
 _atom_site_fract_x
 _atom_site_fract_y
 _atom_site_fract_z
 _atom_site_occupancy
  Dy  Dy0  1  0.000000  0.630023  0.000000  1
  Lu  Lu1  1  0.000000  0.293577  0.500000  1
  Lu  Lu2  1  0.368125  0.368290  0.000559  1
  Lu  Lu3  1  0.294859  0.000399  0.500101  1
  Lu  Lu4  1  0.705141  0.705540  0.499899  1
  Lu  Lu5  1  0.631875  0.000165  0.999441  1
  Np  Np6  1  0.334654  0.666792  0.503094  1
  Np  Np7  1  0.000000  0.001081  0.000000  1
  Np  Np8  1  0.665346  0.332137  0.496906  1
  O  O9  1  0.091917  0.880414  0.777988  1
  O  O10  1  0.220693  0.768587  0.283336  1
  O  O11  1  0.121670  0.535941  0.722403  1
  O  O12  1  0.418483  0.880155  0.728545  1
  O  O13  1  0.233612  0.451435  0.277880  1
  O  O14  1  0.123011  0.214974  0.780360  1
  O  O15  1  0.214663  0.123131  0.220037  1
  O  O16  1  0.549079  0.782634  0.279467  1
  O  O17  1  0.462015  0.581299  0.727109  1
  O  O18  1  0.785337  0.908468  0.779963  1
  O  O19  1  0.450921  0.233555  0.720533  1
  O  O20  1  0.581517  0.461672  0.271455  1
  O  O21  1  0.537985  0.119285  0.272891  1
  O  O22  1  0.779307  0.547894  0.716664  1
  O  O23  1  0.908083  0.788498  0.222012  1
  O  O24  1  0.766388  0.217823  0.722120  1
  O  O25  1  0.878330  0.414270  0.277597  1
  O  O26  1  0.876989  0.091962  0.219640  1
