# generated using pymatgen
data_HoTm3(ScSe3)4
_symmetry_space_group_name_H-M   'P 1'
_cell_length_a   12.98526868
_cell_length_b   12.37837129
_cell_length_c   6.92392539
_cell_angle_alpha   79.05435819
_cell_angle_beta   69.37740241
_cell_angle_gamma   31.50853767
_symmetry_Int_Tables_number   1
_chemical_formula_structural   HoTm3(ScSe3)4
_chemical_formula_sum   'Ho1 Tm3 Sc4 Se12'
_cell_volume   530.32489647
_cell_formula_units_Z   1
loop_
 _symmetry_equiv_pos_site_id
 _symmetry_equiv_pos_as_xyz
  1  'x, y, z'
loop_
 _atom_site_type_symbol
 _atom_site_label
 _atom_site_symmetry_multiplicity
 _atom_site_fract_x
 _atom_site_fract_y
 _atom_site_fract_z
 _atom_site_occupancy
  Ho  Ho0  1  0.996765  0.996765  0.503235  1
  Tm  Tm1  1  0.503115  0.503115  0.996885  1
  Tm  Tm2  1  0.253049  0.253049  0.746951  1
  Tm  Tm3  1  0.746906  0.746906  0.253094  1
  Sc  Sc4  1  0.333239  0.333239  0.166761  1
  Sc  Sc5  1  0.166740  0.166740  0.333260  1
  Sc  Sc6  1  0.916618  0.916618  0.083382  1
  Sc  Sc7  1  0.083340  0.083340  0.916660  1
  Se  Se8  1  0.013077  0.486925  0.487070  1
  Se  Se9  1  0.486925  0.013077  0.012927  1
  Se  Se10  1  0.237904  0.762139  0.764005  1
  Se  Se11  1  0.762139  0.237904  0.235952  1
  Se  Se12  1  0.663603  0.167671  0.850770  1
  Se  Se13  1  0.848720  0.320219  0.665798  1
  Se  Se14  1  0.320219  0.848720  0.165264  1
  Se  Se15  1  0.167671  0.663603  0.317956  1
  Se  Se16  1  0.585060  0.083069  0.400808  1
  Se  Se17  1  0.400700  0.931140  0.584992  1
  Se  Se18  1  0.931140  0.400700  0.083168  1
  Se  Se19  1  0.083069  0.585060  0.931064  1
