# generated using pymatgen
data_Y6Sb7AsRh16
_symmetry_space_group_name_H-M   'P 1'
_cell_length_a   9.17157480
_cell_length_b   9.17157434
_cell_length_c   9.17157500
_cell_angle_alpha   60.00000122
_cell_angle_beta   60.00000288
_cell_angle_gamma   59.99999818
_symmetry_Int_Tables_number   1
_chemical_formula_structural   Y6Sb7AsRh16
_chemical_formula_sum   'Y6 Sb7 As1 Rh16'
_cell_volume   545.52760811
_cell_formula_units_Z   1
loop_
 _symmetry_equiv_pos_site_id
 _symmetry_equiv_pos_as_xyz
  1  'x, y, z'
loop_
 _atom_site_type_symbol
 _atom_site_label
 _atom_site_symmetry_multiplicity
 _atom_site_fract_x
 _atom_site_fract_y
 _atom_site_fract_z
 _atom_site_occupancy
  Y  Y0  1  0.716741  0.283259  0.283259  1
  Y  Y1  1  0.283259  0.716741  0.716741  1
  Y  Y2  1  0.283259  0.716741  0.283259  1
  Y  Y3  1  0.716741  0.283259  0.716741  1
  Y  Y4  1  0.283259  0.283259  0.716741  1
  Y  Y5  1  0.716741  0.716741  0.283259  1
  Sb  Sb6  1  0.000000  0.000000  0.000000  1
  Sb  Sb7  1  0.500000  0.000000  0.000000  1
  Sb  Sb8  1  0.000000  0.500000  0.500000  1
  Sb  Sb9  1  0.000000  0.500000  0.000000  1
  Sb  Sb10  1  0.500000  0.000000  0.500000  1
  Sb  Sb11  1  0.000000  0.000000  0.500000  1
  Sb  Sb12  1  0.500000  0.500000  0.000000  1
  As  As13  1  0.500000  0.500000  0.500000  1
  Rh  Rh14  1  0.120070  0.120070  0.120070  1
  Rh  Rh15  1  0.879930  0.879930  0.879930  1
  Rh  Rh16  1  0.120070  0.120070  0.639789  1
  Rh  Rh17  1  0.120070  0.639789  0.120070  1
  Rh  Rh18  1  0.879930  0.879930  0.360211  1
  Rh  Rh19  1  0.879930  0.360211  0.879930  1
  Rh  Rh20  1  0.639789  0.120070  0.120070  1
  Rh  Rh21  1  0.360211  0.879930  0.879930  1
  Rh  Rh22  1  0.332950  0.332950  0.332950  1
  Rh  Rh23  1  0.667050  0.667050  0.667050  1
  Rh  Rh24  1  0.332950  0.332950  0.001151  1
  Rh  Rh25  1  0.332950  0.001151  0.332950  1
  Rh  Rh26  1  0.667050  0.667050  0.998849  1
  Rh  Rh27  1  0.667050  0.998849  0.667050  1
  Rh  Rh28  1  0.001151  0.332950  0.332950  1
  Rh  Rh29  1  0.998849  0.667050  0.667050  1
