# generated using pymatgen
data_Tb2Lu2TcB12Os
_symmetry_space_group_name_H-M   'P 1'
_cell_length_a   3.63932600
_cell_length_b   9.09775115
_cell_length_c   11.49838700
_cell_angle_alpha   89.92769789
_cell_angle_beta   90.00000000
_cell_angle_gamma   90.00000000
_symmetry_Int_Tables_number   1
_chemical_formula_structural   Tb2Lu2TcB12Os
_chemical_formula_sum   'Tb4 Lu4 Tc2 B24 Os2'
_cell_volume   380.70763728
_cell_formula_units_Z   2
loop_
 _symmetry_equiv_pos_site_id
 _symmetry_equiv_pos_as_xyz
  1  'x, y, z'
loop_
 _atom_site_type_symbol
 _atom_site_label
 _atom_site_symmetry_multiplicity
 _atom_site_fract_x
 _atom_site_fract_y
 _atom_site_fract_z
 _atom_site_occupancy
  Tb  Tb0  1  0.000000  0.323946  0.415123  1
  Tb  Tb1  1  0.000000  0.676054  0.584877  1
  Tb  Tb2  1  0.000000  0.820494  0.087289  1
  Tb  Tb3  1  0.000000  0.179506  0.912711  1
  Lu  Lu4  1  0.000000  0.942038  0.371266  1
  Lu  Lu5  1  0.000000  0.057962  0.628734  1
  Lu  Lu6  1  0.000000  0.444103  0.129647  1
  Lu  Lu7  1  0.000000  0.555897  0.870353  1
  Tc  Tc8  1  0.000000  0.639074  0.319340  1
  Tc  Tc9  1  0.000000  0.360926  0.680660  1
  B  B10  1  0.500000  0.553634  0.432429  1
  B  B11  1  0.500000  0.446366  0.567571  1
  B  B12  1  0.500000  0.054237  0.067493  1
  B  B13  1  0.500000  0.945763  0.932507  1
  B  B14  1  0.500000  0.750094  0.418405  1
  B  B15  1  0.500000  0.249906  0.581595  1
  B  B16  1  0.500000  0.250465  0.081802  1
  B  B17  1  0.500000  0.749535  0.918198  1
  B  B18  1  0.500000  0.792225  0.265446  1
  B  B19  1  0.500000  0.207775  0.734553  1
  B  B20  1  0.500000  0.291551  0.234292  1
  B  B21  1  0.500000  0.708449  0.765709  1
  B  B22  1  0.500000  0.630272  0.184624  1
  B  B23  1  0.500000  0.369728  0.815376  1
  B  B24  1  0.500000  0.129846  0.314720  1
  B  B25  1  0.500000  0.870154  0.685280  1
  B  B26  1  0.500000  0.982480  0.212854  1
  B  B27  1  0.500000  0.017520  0.787146  1
  B  B28  1  0.500000  0.482246  0.286681  1
  B  B29  1  0.500000  0.517754  0.713319  1
  B  B30  1  0.500000  0.600387  0.027397  1
  B  B31  1  0.500000  0.399613  0.972603  1
  B  B32  1  0.500000  0.100290  0.472083  1
  B  B33  1  0.500000  0.899710  0.527917  1
  Os  Os34  1  0.000000  0.138293  0.179349  1
  Os  Os35  1  0.000000  0.861707  0.820651  1
