# generated using pymatgen
data_HoErGa10OsRu2
_symmetry_space_group_name_H-M   'P 1'
_cell_length_a   8.90175936
_cell_length_b   8.90175936
_cell_length_c   6.40184600
_cell_angle_alpha   90.00000000
_cell_angle_beta   90.00000000
_cell_angle_gamma   90.03250410
_symmetry_Int_Tables_number   1
_chemical_formula_structural   HoErGa10OsRu2
_chemical_formula_sum   'Ho2 Er2 Ga20 Os2 Ru4'
_cell_volume   507.29064373
_cell_formula_units_Z   2
loop_
 _symmetry_equiv_pos_site_id
 _symmetry_equiv_pos_as_xyz
  1  'x, y, z'
loop_
 _atom_site_type_symbol
 _atom_site_label
 _atom_site_symmetry_multiplicity
 _atom_site_fract_x
 _atom_site_fract_y
 _atom_site_fract_z
 _atom_site_occupancy
  Ho  Ho0  1  0.683085  0.183085  0.000000  1
  Ho  Ho1  1  0.316915  0.816915  0.000000  1
  Er  Er2  1  0.816874  0.683126  0.000000  1
  Er  Er3  1  0.183126  0.316874  0.000000  1
  Ga  Ga4  1  0.938727  0.206951  0.293424  1
  Ga  Ga5  1  0.706951  0.438727  0.293424  1
  Ga  Ga6  1  0.500000  0.000000  0.285351  1
  Ga  Ga7  1  0.561454  0.706929  0.706623  1
  Ga  Ga8  1  0.293049  0.561273  0.706576  1
  Ga  Ga9  1  0.793071  0.938546  0.293377  1
  Ga  Ga10  1  0.938727  0.206951  0.706576  1
  Ga  Ga11  1  0.293049  0.561273  0.293424  1
  Ga  Ga12  1  0.061273  0.793049  0.293424  1
  Ga  Ga13  1  0.706951  0.438727  0.706576  1
  Ga  Ga14  1  0.438546  0.293071  0.706623  1
  Ga  Ga15  1  0.061273  0.793049  0.706576  1
  Ga  Ga16  1  0.206929  0.061454  0.706623  1
  Ga  Ga17  1  0.793071  0.938546  0.706623  1
  Ga  Ga18  1  0.206929  0.061454  0.293377  1
  Ga  Ga19  1  0.000000  0.500000  0.715000  1
  Ga  Ga20  1  0.000000  0.500000  0.285000  1
  Ga  Ga21  1  0.561454  0.706929  0.293377  1
  Ga  Ga22  1  0.438546  0.293071  0.293377  1
  Ga  Ga23  1  0.500000  0.000000  0.714649  1
  Os  Os24  1  0.000000  0.000000  0.000000  1
  Os  Os25  1  0.500000  0.500000  0.000000  1
  Ru  Ru26  1  0.678179  0.178179  0.500000  1
  Ru  Ru27  1  0.821846  0.678154  0.500000  1
  Ru  Ru28  1  0.178154  0.321846  0.500000  1
  Ru  Ru29  1  0.321821  0.821821  0.500000  1
