# generated using pymatgen
data_Y4Ga4Pd3Pt
_symmetry_space_group_name_H-M   'P 1'
_cell_length_a   4.47325200
_cell_length_b   6.97771800
_cell_length_c   7.67608615
_cell_angle_alpha   89.37334919
_cell_angle_beta   90.00000000
_cell_angle_gamma   90.00000000
_symmetry_Int_Tables_number   1
_chemical_formula_structural   Y4Ga4Pd3Pt
_chemical_formula_sum   'Y4 Ga4 Pd3 Pt1'
_cell_volume   239.58004531
_cell_formula_units_Z   1
loop_
 _symmetry_equiv_pos_site_id
 _symmetry_equiv_pos_as_xyz
  1  'x, y, z'
loop_
 _atom_site_type_symbol
 _atom_site_label
 _atom_site_symmetry_multiplicity
 _atom_site_fract_x
 _atom_site_fract_y
 _atom_site_fract_z
 _atom_site_occupancy
  Y  Y0  1  0.250000  0.982003  0.300450  1
  Y  Y1  1  0.250000  0.481362  0.197311  1
  Y  Y2  1  0.750000  0.018576  0.699908  1
  Y  Y3  1  0.750000  0.513104  0.802650  1
  Ga  Ga4  1  0.250000  0.322115  0.573035  1
  Ga  Ga5  1  0.250000  0.825514  0.924832  1
  Ga  Ga6  1  0.750000  0.675854  0.427197  1
  Ga  Ga7  1  0.750000  0.174701  0.075273  1
  Pd  Pd8  1  0.250000  0.718888  0.598106  1
  Pd  Pd9  1  0.750000  0.781610  0.098403  1
  Pd  Pd10  1  0.750000  0.282386  0.400955  1
  Pt  Pt11  1  0.250000  0.223887  0.901880  1
