# generated using pymatgen
data_Li4Ca2YbHoSi8
_symmetry_space_group_name_H-M   'P 1'
_cell_length_a   3.79726000
_cell_length_b   7.83755183
_cell_length_c   10.47895396
_cell_angle_alpha   89.81756909
_cell_angle_beta   90.00000000
_cell_angle_gamma   90.00000000
_symmetry_Int_Tables_number   1
_chemical_formula_structural   Li4Ca2YbHoSi8
_chemical_formula_sum   'Li4 Ca2 Yb1 Ho1 Si8'
_cell_volume   311.86489504
_cell_formula_units_Z   1
loop_
 _symmetry_equiv_pos_site_id
 _symmetry_equiv_pos_as_xyz
  1  'x, y, z'
loop_
 _atom_site_type_symbol
 _atom_site_label
 _atom_site_symmetry_multiplicity
 _atom_site_fract_x
 _atom_site_fract_y
 _atom_site_fract_z
 _atom_site_occupancy
  Li  Li0  1  0.250000  0.997711  0.388172  1
  Li  Li1  1  0.750000  0.000515  0.610523  1
  Li  Li2  1  0.250000  0.496979  0.109070  1
  Li  Li3  1  0.750000  0.509121  0.888896  1
  Ca  Ca4  1  0.250000  0.635718  0.637520  1
  Ca  Ca5  1  0.750000  0.363470  0.364583  1
  Yb  Yb6  1  0.750000  0.866452  0.134743  1
  Ho  Ho7  1  0.250000  0.128387  0.866124  1
  Si  Si8  1  0.750000  0.266374  0.060321  1
  Si  Si9  1  0.250000  0.740452  0.934365  1
  Si  Si10  1  0.750000  0.767398  0.431543  1
  Si  Si11  1  0.250000  0.226368  0.573872  1
  Si  Si12  1  0.750000  0.844088  0.824550  1
  Si  Si13  1  0.250000  0.161268  0.169260  1
  Si  Si14  1  0.750000  0.330618  0.683506  1
  Si  Si15  1  0.250000  0.665080  0.322952  1
