# generated using pymatgen
data_TmLuAlB2Ir5
_symmetry_space_group_name_H-M   'P 1'
_cell_length_a   9.53591130
_cell_length_b   9.53591130
_cell_length_c   3.12200700
_cell_angle_alpha   90.00000000
_cell_angle_beta   90.00000000
_cell_angle_gamma   89.85822524
_symmetry_Int_Tables_number   1
_chemical_formula_structural   TmLuAlB2Ir5
_chemical_formula_sum   'Tm2 Lu2 Al2 B4 Ir10'
_cell_volume   283.89448001
_cell_formula_units_Z   2
loop_
 _symmetry_equiv_pos_site_id
 _symmetry_equiv_pos_as_xyz
  1  'x, y, z'
loop_
 _atom_site_type_symbol
 _atom_site_label
 _atom_site_symmetry_multiplicity
 _atom_site_fract_x
 _atom_site_fract_y
 _atom_site_fract_z
 _atom_site_occupancy
  Tm  Tm0  1  0.676506  0.176506  0.000000  1
  Tm  Tm1  1  0.323494  0.823494  0.000000  1
  Lu  Lu2  1  0.176346  0.323654  0.000000  1
  Lu  Lu3  1  0.823654  0.676346  0.000000  1
  Al  Al4  1  0.000000  0.000000  0.000000  1
  Al  Al5  1  0.500000  0.500000  0.000000  1
  B  B6  1  0.122472  0.622472  0.000000  1
  B  B7  1  0.877528  0.377528  0.000000  1
  B  B8  1  0.622861  0.877139  0.000000  1
  B  B9  1  0.377139  0.122861  0.000000  1
  Ir  Ir10  1  0.217246  0.069553  0.500000  1
  Ir  Ir11  1  0.782754  0.930447  0.500000  1
  Ir  Ir12  1  0.068064  0.782115  0.500000  1
  Ir  Ir13  1  0.717885  0.431936  0.500000  1
  Ir  Ir14  1  0.931936  0.217885  0.500000  1
  Ir  Ir15  1  0.282115  0.568064  0.500000  1
  Ir  Ir16  1  0.569553  0.717246  0.500000  1
  Ir  Ir17  1  0.430447  0.282754  0.500000  1
  Ir  Ir18  1  0.500000  0.000000  0.500000  1
  Ir  Ir19  1  0.000000  0.500000  0.500000  1
