# generated using pymatgen
data_Nb8ReSi2B4W
_symmetry_space_group_name_H-M   'P 1'
_cell_length_a   7.28647349
_cell_length_b   7.28647380
_cell_length_c   7.28647563
_cell_angle_alpha   129.74688834
_cell_angle_beta   129.74689125
_cell_angle_gamma   73.81172914
_symmetry_Int_Tables_number   1
_chemical_formula_structural   Nb8ReSi2B4W
_chemical_formula_sum   'Nb8 Re1 Si2 B4 W1'
_cell_volume   223.09853031
_cell_formula_units_Z   1
loop_
 _symmetry_equiv_pos_site_id
 _symmetry_equiv_pos_as_xyz
  1  'x, y, z'
loop_
 _atom_site_type_symbol
 _atom_site_label
 _atom_site_symmetry_multiplicity
 _atom_site_fract_x
 _atom_site_fract_y
 _atom_site_fract_z
 _atom_site_occupancy
  Nb  Nb0  1  0.806820  0.306204  0.835851  1
  Nb  Nb1  1  0.193180  0.693796  0.164149  1
  Nb  Nb2  1  0.470353  0.970969  0.164149  1
  Nb  Nb3  1  0.306204  0.470353  0.499384  1
  Nb  Nb4  1  0.029031  0.193180  0.499384  1
  Nb  Nb5  1  0.529647  0.029031  0.835851  1
  Nb  Nb6  1  0.693796  0.529647  0.500616  1
  Nb  Nb7  1  0.970969  0.806820  0.500616  1
  Re  Re8  1  0.000000  0.000000  0.000000  1
  Si  Si9  1  0.250947  0.250947  0.000000  1
  Si  Si10  1  0.749053  0.749053  0.000000  1
  B  B11  1  0.119501  0.620779  0.740280  1
  B  B12  1  0.880499  0.379221  0.259720  1
  B  B13  1  0.620779  0.880499  0.501278  1
  B  B14  1  0.379221  0.119501  0.498722  1
  W  W15  1  0.500000  0.500000  0.000000  1
