# generated using pymatgen
data_Nd2Er2Si4Ag
_symmetry_space_group_name_H-M   'P 1'
_cell_length_a   7.09875500
_cell_length_b   14.81703100
_cell_length_c   7.75570800
_cell_angle_alpha   90.00000000
_cell_angle_beta   90.00000000
_cell_angle_gamma   90.00000000
_symmetry_Int_Tables_number   1
_chemical_formula_structural   Nd2Er2Si4Ag
_chemical_formula_sum   'Nd8 Er8 Si16 Ag4'
_cell_volume   815.76454650
_cell_formula_units_Z   4
loop_
 _symmetry_equiv_pos_site_id
 _symmetry_equiv_pos_as_xyz
  1  'x, y, z'
loop_
 _atom_site_type_symbol
 _atom_site_label
 _atom_site_symmetry_multiplicity
 _atom_site_fract_x
 _atom_site_fract_y
 _atom_site_fract_z
 _atom_site_occupancy
  Nd  Nd0  1  0.020729  0.101945  0.184377  1
  Nd  Nd1  1  0.020729  0.398055  0.184377  1
  Nd  Nd2  1  0.520729  0.101945  0.315623  1
  Nd  Nd3  1  0.520729  0.398055  0.315623  1
  Nd  Nd4  1  0.479270  0.601945  0.684377  1
  Nd  Nd5  1  0.479270  0.898055  0.684377  1
  Nd  Nd6  1  0.979271  0.601945  0.815623  1
  Nd  Nd7  1  0.979271  0.898055  0.815623  1
  Er  Er8  1  0.325066  0.627023  0.181429  1
  Er  Er9  1  0.325066  0.872976  0.181429  1
  Er  Er10  1  0.825065  0.627023  0.318571  1
  Er  Er11  1  0.825065  0.872976  0.318571  1
  Er  Er12  1  0.174934  0.127023  0.681429  1
  Er  Er13  1  0.174934  0.372976  0.681429  1
  Er  Er14  1  0.674934  0.127023  0.818571  1
  Er  Er15  1  0.674934  0.372976  0.818571  1
  Si  Si16  1  0.652901  0.532725  0.035825  1
  Si  Si17  1  0.652901  0.967275  0.035825  1
  Si  Si18  1  0.022533  0.750000  0.092118  1
  Si  Si19  1  0.726224  0.250000  0.114848  1
  Si  Si20  1  0.226223  0.250000  0.385152  1
  Si  Si21  1  0.522533  0.750000  0.407882  1
  Si  Si22  1  0.152901  0.532725  0.464176  1
  Si  Si23  1  0.152901  0.967275  0.464176  1
  Si  Si24  1  0.847100  0.032724  0.535823  1
  Si  Si25  1  0.847100  0.467275  0.535823  1
  Si  Si26  1  0.477468  0.250000  0.592117  1
  Si  Si27  1  0.773777  0.750000  0.614848  1
  Si  Si28  1  0.273777  0.750000  0.885152  1
  Si  Si29  1  0.977467  0.250000  0.907883  1
  Si  Si30  1  0.347099  0.032724  0.964176  1
  Si  Si31  1  0.347099  0.467275  0.964176  1
  Ag  Ag32  1  0.347873  0.250000  0.017668  1
  Ag  Ag33  1  0.847873  0.250000  0.482332  1
  Ag  Ag34  1  0.152127  0.750000  0.517669  1
  Ag  Ag35  1  0.652127  0.750000  0.982331  1
