# generated using pymatgen
data_Tb2Er8FeHg3
_symmetry_space_group_name_H-M   'P 1'
_cell_length_a   9.52544200
_cell_length_b   9.52298338
_cell_length_c   9.54763700
_cell_angle_alpha   90.00000000
_cell_angle_beta   90.00000000
_cell_angle_gamma   119.99207555
_symmetry_Int_Tables_number   1
_chemical_formula_structural   Tb2Er8FeHg3
_chemical_formula_sum   'Tb4 Er16 Fe2 Hg6'
_cell_volume   750.10034923
_cell_formula_units_Z   2
loop_
 _symmetry_equiv_pos_site_id
 _symmetry_equiv_pos_as_xyz
  1  'x, y, z'
loop_
 _atom_site_type_symbol
 _atom_site_label
 _atom_site_symmetry_multiplicity
 _atom_site_fract_x
 _atom_site_fract_y
 _atom_site_fract_z
 _atom_site_occupancy
  Tb  Tb0  1  0.916270  0.458137  0.250000  1
  Tb  Tb1  1  0.458780  0.541030  0.750000  1
  Tb  Tb2  1  0.458776  0.917748  0.750000  1
  Tb  Tb3  1  0.081737  0.540874  0.750000  1
  Er  Er4  1  0.000158  0.000078  0.499650  1
  Er  Er5  1  0.000158  0.000078  0.000350  1
  Er  Er6  1  0.541019  0.458561  0.250000  1
  Er  Er7  1  0.541023  0.082468  0.250000  1
  Er  Er8  1  0.212771  0.788508  0.435580  1
  Er  Er9  1  0.212777  0.424267  0.435583  1
  Er  Er10  1  0.576143  0.788068  0.435310  1
  Er  Er11  1  0.787302  0.211790  0.563655  1
  Er  Er12  1  0.787301  0.575511  0.563657  1
  Er  Er13  1  0.424756  0.212372  0.563239  1
  Er  Er14  1  0.787302  0.211790  0.936345  1
  Er  Er15  1  0.787301  0.575511  0.936343  1
  Er  Er16  1  0.424756  0.212372  0.936761  1
  Er  Er17  1  0.212771  0.788508  0.064420  1
  Er  Er18  1  0.212777  0.424267  0.064417  1
  Er  Er19  1  0.576143  0.788068  0.064690  1
  Fe  Fe20  1  0.333821  0.666912  0.250000  1
  Fe  Fe21  1  0.666974  0.333483  0.750000  1
  Hg  Hg22  1  0.881359  0.116407  0.250000  1
  Hg  Hg23  1  0.881357  0.764952  0.250000  1
  Hg  Hg24  1  0.236013  0.118000  0.250000  1
  Hg  Hg25  1  0.117283  0.883131  0.750000  1
  Hg  Hg26  1  0.117280  0.234155  0.750000  1
  Hg  Hg27  1  0.765888  0.882952  0.750000  1
