# generated using pymatgen
data_NdY11Fe2I17
_symmetry_space_group_name_H-M   'P 1'
_cell_length_a   9.79030135
_cell_length_b   11.83343682
_cell_length_c   11.73614568
_cell_angle_alpha   74.00591543
_cell_angle_beta   75.04612831
_cell_angle_gamma   65.31577386
_symmetry_Int_Tables_number   1
_chemical_formula_structural   NdY11Fe2I17
_chemical_formula_sum   'Nd1 Y11 Fe2 I17'
_cell_volume   1171.58368892
_cell_formula_units_Z   1
loop_
 _symmetry_equiv_pos_site_id
 _symmetry_equiv_pos_as_xyz
  1  'x, y, z'
loop_
 _atom_site_type_symbol
 _atom_site_label
 _atom_site_symmetry_multiplicity
 _atom_site_fract_x
 _atom_site_fract_y
 _atom_site_fract_z
 _atom_site_occupancy
  Nd  Nd0  1  0.141500  0.712506  0.154314  1
  Y  Y1  1  0.452051  0.493065  0.321538  1
  Y  Y2  1  0.546978  0.671430  0.012896  1
  Y  Y3  1  0.274519  0.980173  0.109808  1
  Y  Y4  1  0.856456  0.288435  0.845857  1
  Y  Y5  1  0.414881  0.241762  0.718641  1
  Y  Y6  1  0.723442  0.025687  0.887849  1
  Y  Y7  1  0.551514  0.500123  0.679549  1
  Y  Y8  1  0.457427  0.326466  0.981404  1
  Y  Y9  1  0.576758  0.757291  0.278376  1
  Y  Y10  1  0.816538  0.194377  0.589964  1
  Y  Y11  1  0.178800  0.808461  0.415678  1
  Fe  Fe12  1  0.360848  0.736962  0.213524  1
  Fe  Fe13  1  0.635549  0.262642  0.785460  1
  I  I14  1  0.056167  0.101288  0.328031  1
  I  I15  1  0.467184  0.947089  0.843779  1
  I  I16  1  0.429507  0.808784  0.536597  1
  I  I17  1  0.573067  0.189491  0.460492  1
  I  I18  1  0.831950  0.713903  0.045748  1
  I  I19  1  0.234818  0.410457  0.239028  1
  I  I20  1  0.689840  0.371280  0.102594  1
  I  I21  1  0.532669  0.049117  0.157428  1
  I  I22  1  0.743475  0.474090  0.413889  1
  I  I23  1  0.882782  0.787716  0.377716  1
  I  I24  1  0.950153  0.899423  0.673848  1
  I  I25  1  0.162466  0.287099  0.955617  1
  I  I26  1  0.314723  0.629878  0.894775  1
  I  I27  1  0.998705  0.003653  0.000737  1
  I  I28  1  0.115040  0.217450  0.631241  1
  I  I29  1  0.774089  0.582479  0.761738  1
  I  I30  1  0.256102  0.527421  0.581885  1
