# generated using pymatgen
data_Cs2CoMoS4
_symmetry_space_group_name_H-M   'P 1'
_cell_length_a   14.34121150
_cell_length_b   12.75710656
_cell_length_c   7.60510241
_cell_angle_alpha   85.59272440
_cell_angle_beta   62.48767280
_cell_angle_gamma   31.91962120
_symmetry_Int_Tables_number   1
_chemical_formula_structural   Cs2CoMoS4
_chemical_formula_sum   'Cs4 Co2 Mo2 S8'
_cell_volume   483.03217000
_cell_formula_units_Z   2
loop_
 _symmetry_equiv_pos_site_id
 _symmetry_equiv_pos_as_xyz
  1  'x, y, z'
loop_
 _atom_site_type_symbol
 _atom_site_label
 _atom_site_symmetry_multiplicity
 _atom_site_fract_x
 _atom_site_fract_y
 _atom_site_fract_z
 _atom_site_occupancy
  Cs  Cs0  1  0.573699  0.573699  0.926301  1
  Cs  Cs1  1  0.926301  0.926301  0.573699  1
  Cs  Cs2  1  0.323699  0.323699  0.676301  1
  Cs  Cs3  1  0.676301  0.676301  0.323699  1
  Co  Co4  1  0.000000  0.000000  0.000000  1
  Co  Co5  1  0.250000  0.250000  0.250000  1
  Mo  Mo6  1  0.750000  0.750000  0.750000  1
  Mo  Mo7  1  0.500000  0.500000  0.500000  1
  S  S8  1  0.206760  0.894077  0.615535  1
  S  S9  1  0.283628  0.615535  0.894077  1
  S  S10  1  0.615535  0.283628  0.206760  1
  S  S11  1  0.894077  0.206760  0.283628  1
  S  S12  1  0.355923  0.043240  0.966372  1
  S  S13  1  0.966372  0.634465  0.355923  1
  S  S14  1  0.634465  0.966372  0.043240  1
  S  S15  1  0.043240  0.355923  0.634465  1
