# generated using pymatgen
data_Tm4Mn4Co11Ni5P12
_symmetry_space_group_name_H-M   'P 1'
_cell_length_a   3.65618400
_cell_length_b   10.30668860
_cell_length_c   11.81674191
_cell_angle_alpha   89.80690599
_cell_angle_beta   90.00000000
_cell_angle_gamma   90.00000000
_symmetry_Int_Tables_number   1
_chemical_formula_structural   Tm4Mn4Co11Ni5P12
_chemical_formula_sum   'Tm4 Mn4 Co11 Ni5 P12'
_cell_volume   445.28952866
_cell_formula_units_Z   1
loop_
 _symmetry_equiv_pos_site_id
 _symmetry_equiv_pos_as_xyz
  1  'x, y, z'
loop_
 _atom_site_type_symbol
 _atom_site_label
 _atom_site_symmetry_multiplicity
 _atom_site_fract_x
 _atom_site_fract_y
 _atom_site_fract_z
 _atom_site_occupancy
  Tm  Tm0  1  0.250000  0.581905  0.705492  1
  Tm  Tm1  1  0.250000  0.917604  0.206281  1
  Tm  Tm2  1  0.750000  0.418961  0.294954  1
  Tm  Tm3  1  0.750000  0.081513  0.794146  1
  Mn  Mn4  1  0.250000  0.709418  0.986283  1
  Mn  Mn5  1  0.250000  0.789970  0.487055  1
  Mn  Mn6  1  0.750000  0.288535  0.012443  1
  Mn  Mn7  1  0.750000  0.210750  0.513058  1
  Co  Co8  1  0.250000  0.278347  0.676721  1
  Co  Co9  1  0.750000  0.778042  0.822917  1
  Co  Co10  1  0.750000  0.722298  0.322691  1
  Co  Co11  1  0.250000  0.883067  0.697917  1
  Co  Co12  1  0.250000  0.617637  0.197848  1
  Co  Co13  1  0.750000  0.117341  0.301733  1
  Co  Co14  1  0.750000  0.382933  0.801909  1
  Co  Co15  1  0.250000  0.465616  0.932228  1
  Co  Co16  1  0.250000  0.033438  0.432459  1
  Co  Co17  1  0.750000  0.533759  0.067501  1
  Co  Co18  1  0.750000  0.966410  0.567881  1
  Ni  Ni19  1  0.250000  0.409435  0.486424  1
  Ni  Ni20  1  0.250000  0.091478  0.986015  1
  Ni  Ni21  1  0.750000  0.592162  0.514156  1
  Ni  Ni22  1  0.750000  0.907101  0.013550  1
  Ni  Ni23  1  0.250000  0.222482  0.177874  1
  P  P24  1  0.250000  0.422206  0.113110  1
  P  P25  1  0.250000  0.080878  0.613151  1
  P  P26  1  0.750000  0.580716  0.886433  1
  P  P27  1  0.750000  0.919302  0.387243  1
  P  P28  1  0.250000  0.269727  0.865559  1
  P  P29  1  0.250000  0.230079  0.369510  1
  P  P30  1  0.750000  0.730019  0.133421  1
  P  P31  1  0.750000  0.770349  0.633648  1
  P  P32  1  0.250000  0.603977  0.387342  1
  P  P33  1  0.250000  0.896289  0.886786  1
  P  P34  1  0.750000  0.397115  0.612838  1
  P  P35  1  0.750000  0.099139  0.111420  1
