# generated using pymatgen
data_Sm(Ga3Ni)3
_symmetry_space_group_name_H-M   'P 1'
_cell_length_a   10.11104043
_cell_length_b   10.11104039
_cell_length_c   10.11103919
_cell_angle_alpha   42.33185343
_cell_angle_beta   42.33185532
_cell_angle_gamma   42.33185477
_symmetry_Int_Tables_number   1
_chemical_formula_structural   Sm(Ga3Ni)3
_chemical_formula_sum   'Sm2 Ga18 Ni6'
_cell_volume   424.32255499
_cell_formula_units_Z   2
loop_
 _symmetry_equiv_pos_site_id
 _symmetry_equiv_pos_as_xyz
  1  'x, y, z'
loop_
 _atom_site_type_symbol
 _atom_site_label
 _atom_site_symmetry_multiplicity
 _atom_site_fract_x
 _atom_site_fract_y
 _atom_site_fract_z
 _atom_site_occupancy
  Sm  Sm0  1  0.166942  0.166942  0.166942  1
  Sm  Sm1  1  0.833058  0.833058  0.833058  1
  Ga  Ga2  1  0.050755  0.050755  0.050755  1
  Ga  Ga3  1  0.706815  0.500000  0.293185  1
  Ga  Ga4  1  0.666026  0.333974  0.000000  1
  Ga  Ga5  1  0.103793  0.432663  0.761595  1
  Ga  Ga6  1  0.432663  0.761595  0.103793  1
  Ga  Ga7  1  0.385877  0.385877  0.385877  1
  Ga  Ga8  1  0.333974  0.000000  0.666026  1
  Ga  Ga9  1  0.614123  0.614123  0.614123  1
  Ga  Ga10  1  0.238405  0.567337  0.896207  1
  Ga  Ga11  1  0.567337  0.896207  0.238405  1
  Ga  Ga12  1  0.500000  0.293185  0.706815  1
  Ga  Ga13  1  0.761595  0.103793  0.432663  1
  Ga  Ga14  1  0.949245  0.949245  0.949245  1
  Ga  Ga15  1  0.293185  0.706815  0.500000  1
  Ga  Ga16  1  0.000000  0.666026  0.333974  1
  Ga  Ga17  1  0.716784  0.716784  0.716784  1
  Ga  Ga18  1  0.283216  0.283216  0.283216  1
  Ga  Ga19  1  0.896207  0.238405  0.567337  1
  Ni  Ni20  1  0.242655  0.921768  0.582313  1
  Ni  Ni21  1  0.921768  0.582313  0.242655  1
  Ni  Ni22  1  0.757345  0.417687  0.078232  1
  Ni  Ni23  1  0.078232  0.757345  0.417687  1
  Ni  Ni24  1  0.417687  0.078232  0.757345  1
  Ni  Ni25  1  0.582313  0.242655  0.921768  1
