# generated using pymatgen
data_MgZrCo4
_symmetry_space_group_name_H-M   'P 1'
_cell_length_a   4.82357879
_cell_length_b   4.82357804
_cell_length_c   4.82357800
_cell_angle_alpha   60.00000025
_cell_angle_beta   60.00000543
_cell_angle_gamma   60.00000240
_symmetry_Int_Tables_number   1
_chemical_formula_structural   MgZrCo4
_chemical_formula_sum   'Mg1 Zr1 Co4'
_cell_volume   79.35842145
_cell_formula_units_Z   1
loop_
 _symmetry_equiv_pos_site_id
 _symmetry_equiv_pos_as_xyz
  1  'x, y, z'
loop_
 _atom_site_type_symbol
 _atom_site_label
 _atom_site_symmetry_multiplicity
 _atom_site_fract_x
 _atom_site_fract_y
 _atom_site_fract_z
 _atom_site_occupancy
  Mg  Mg0  1  0.750000  0.750000  0.750000  1
  Zr  Zr1  1  0.000000  0.000000  0.000000  1
  Co  Co2  1  0.873419  0.375527  0.375527  1
  Co  Co3  1  0.375527  0.873419  0.375527  1
  Co  Co4  1  0.375527  0.375527  0.873419  1
  Co  Co5  1  0.375527  0.375527  0.375527  1
