# generated using pymatgen
data_YbCd3(Ir2O7)2
_symmetry_space_group_name_H-M   'P 1'
_cell_length_a   7.21140978
_cell_length_b   7.29097259
_cell_length_c   7.21141100
_cell_angle_alpha   60.36033015
_cell_angle_beta   59.99999898
_cell_angle_gamma   60.36032788
_symmetry_Int_Tables_number   1
_chemical_formula_structural   YbCd3(Ir2O7)2
_chemical_formula_sum   'Yb1 Cd3 Ir4 O14'
_cell_volume   269.55964063
_cell_formula_units_Z   1
loop_
 _symmetry_equiv_pos_site_id
 _symmetry_equiv_pos_as_xyz
  1  'x, y, z'
loop_
 _atom_site_type_symbol
 _atom_site_label
 _atom_site_symmetry_multiplicity
 _atom_site_fract_x
 _atom_site_fract_y
 _atom_site_fract_z
 _atom_site_occupancy
  Yb  Yb0  1  0.125000  0.625000  0.125000  1
  Cd  Cd1  1  0.125000  0.125000  0.625000  1
  Cd  Cd2  1  0.125000  0.125000  0.125000  1
  Cd  Cd3  1  0.625000  0.125000  0.125000  1
  Ir  Ir4  1  0.625000  0.625000  0.625000  1
  Ir  Ir5  1  0.125000  0.625000  0.625000  1
  Ir  Ir6  1  0.625000  0.125000  0.625000  1
  Ir  Ir7  1  0.625000  0.625000  0.125000  1
  O  O8  1  0.951687  0.550207  0.546420  1
  O  O9  1  0.302357  0.304362  0.696640  1
  O  O10  1  0.951687  0.550207  0.951687  1
  O  O11  1  0.696640  0.304362  0.302357  1
  O  O12  1  0.546420  0.550207  0.951687  1
  O  O13  1  0.553360  0.945638  0.553360  1
  O  O14  1  0.553360  0.945638  0.947643  1
  O  O15  1  0.254213  0.237360  0.254213  1
  O  O16  1  0.298313  0.699793  0.703580  1
  O  O17  1  0.696640  0.304362  0.696640  1
  O  O18  1  0.995787  0.012640  0.995787  1
  O  O19  1  0.947643  0.945638  0.553360  1
  O  O20  1  0.298313  0.699793  0.298313  1
  O  O21  1  0.703580  0.699793  0.298313  1
