# generated using pymatgen
data_Yb3GdPtRh3O14
_symmetry_space_group_name_H-M   'P 1'
_cell_length_a   7.21109141
_cell_length_b   7.21723975
_cell_length_c   7.21724100
_cell_angle_alpha   60.12324427
_cell_angle_beta   60.05220585
_cell_angle_gamma   60.05220258
_symmetry_Int_Tables_number   1
_chemical_formula_structural   Yb3GdPtRh3O14
_chemical_formula_sum   'Yb3 Gd1 Pt1 Rh3 O14'
_cell_volume   266.05663645
_cell_formula_units_Z   1
loop_
 _symmetry_equiv_pos_site_id
 _symmetry_equiv_pos_as_xyz
  1  'x, y, z'
loop_
 _atom_site_type_symbol
 _atom_site_label
 _atom_site_symmetry_multiplicity
 _atom_site_fract_x
 _atom_site_fract_y
 _atom_site_fract_z
 _atom_site_occupancy
  Yb  Yb0  1  0.125000  0.625000  0.125000  1
  Yb  Yb1  1  0.125000  0.125000  0.625000  1
  Yb  Yb2  1  0.625000  0.125000  0.125000  1
  Gd  Gd3  1  0.125000  0.125000  0.125000  1
  Pt  Pt4  1  0.125000  0.625000  0.625000  1
  Rh  Rh5  1  0.625000  0.625000  0.625000  1
  Rh  Rh6  1  0.625000  0.125000  0.625000  1
  Rh  Rh7  1  0.625000  0.625000  0.125000  1
  O  O8  1  0.292880  0.707550  0.707550  1
  O  O9  1  0.543905  0.954249  0.954249  1
  O  O10  1  0.700896  0.296384  0.704852  1
  O  O11  1  0.292828  0.291545  0.710519  1
  O  O12  1  0.700896  0.704852  0.296384  1
  O  O13  1  0.002229  0.003046  0.003046  1
  O  O14  1  0.292828  0.710519  0.291545  1
  O  O15  1  0.957172  0.539481  0.958455  1
  O  O16  1  0.957172  0.958455  0.539481  1
  O  O17  1  0.549104  0.545148  0.953616  1
  O  O18  1  0.247771  0.246954  0.246954  1
  O  O19  1  0.549104  0.953616  0.545148  1
  O  O20  1  0.706095  0.295751  0.295751  1
  O  O21  1  0.957120  0.542450  0.542450  1
