# generated using pymatgen
data_DyHf2Zr(Al3Rh)6
_symmetry_space_group_name_H-M   'P 1'
_cell_length_a   7.48364813
_cell_length_b   7.47552695
_cell_length_c   9.29704000
_cell_angle_alpha   90.00000000
_cell_angle_beta   90.00000000
_cell_angle_gamma   119.71650744
_symmetry_Int_Tables_number   1
_chemical_formula_structural   DyHf2Zr(Al3Rh)6
_chemical_formula_sum   'Dy1 Hf2 Zr1 Al18 Rh6'
_cell_volume   451.71452840
_cell_formula_units_Z   1
loop_
 _symmetry_equiv_pos_site_id
 _symmetry_equiv_pos_as_xyz
  1  'x, y, z'
loop_
 _atom_site_type_symbol
 _atom_site_label
 _atom_site_symmetry_multiplicity
 _atom_site_fract_x
 _atom_site_fract_y
 _atom_site_fract_z
 _atom_site_occupancy
  Dy  Dy0  1  0.329151  0.006376  0.250000  1
  Hf  Hf1  1  0.994030  0.671831  0.750000  1
  Hf  Hf2  1  0.671637  0.994111  0.750000  1
  Zr  Zr3  1  0.005826  0.329219  0.250000  1
  Al  Al4  1  0.121295  0.122647  0.750000  1
  Al  Al5  1  0.872151  0.875807  0.250000  1
  Al  Al6  1  0.996532  0.334711  0.578299  1
  Al  Al7  1  0.000116  0.662591  0.426765  1
  Al  Al8  1  0.000116  0.662591  0.073235  1
  Al  Al9  1  0.335015  0.997177  0.918143  1
  Al  Al10  1  0.996532  0.334711  0.921701  1
  Al  Al11  1  0.668087  0.002335  0.073344  1
  Al  Al12  1  0.668087  0.002335  0.426656  1
  Al  Al13  1  0.335015  0.997177  0.581857  1
  Al  Al14  1  0.331347  0.333909  0.053636  1
  Al  Al15  1  0.669132  0.669038  0.938618  1
  Al  Al16  1  0.669132  0.669038  0.561382  1
  Al  Al17  1  0.331347  0.333909  0.446364  1
  Al  Al18  1  0.337856  0.553839  0.750000  1
  Al  Al19  1  0.666629  0.451652  0.250000  1
  Al  Al20  1  0.555834  0.339190  0.750000  1
  Al  Al21  1  0.445735  0.656502  0.250000  1
  Rh  Rh22  1  0.672951  0.327743  0.501875  1
  Rh  Rh23  1  0.328101  0.673517  0.502385  1
  Rh  Rh24  1  0.328101  0.673517  0.997615  1
  Rh  Rh25  1  0.672951  0.327743  0.998125  1
  Rh  Rh26  1  0.998645  0.998392  0.502182  1
  Rh  Rh27  1  0.998645  0.998392  0.997818  1
