# generated using pymatgen
data_TbY3Al15(SiIr2)3
_symmetry_space_group_name_H-M   'P 1'
_cell_length_a   7.54829884
_cell_length_b   7.53103450
_cell_length_c   9.34490400
_cell_angle_alpha   89.99834444
_cell_angle_beta   89.91233490
_cell_angle_gamma   119.72076971
_symmetry_Int_Tables_number   1
_chemical_formula_structural   TbY3Al15(SiIr2)3
_chemical_formula_sum   'Tb1 Y3 Al15 Si3 Ir6'
_cell_volume   461.34267225
_cell_formula_units_Z   1
loop_
 _symmetry_equiv_pos_site_id
 _symmetry_equiv_pos_as_xyz
  1  'x, y, z'
loop_
 _atom_site_type_symbol
 _atom_site_label
 _atom_site_symmetry_multiplicity
 _atom_site_fract_x
 _atom_site_fract_y
 _atom_site_fract_z
 _atom_site_occupancy
  Tb  Tb0  1  0.993635  0.669271  0.248348  1
  Y  Y1  1  0.005166  0.325217  0.753041  1
  Y  Y2  1  0.679322  0.999854  0.248033  1
  Y  Y3  1  0.325478  0.005804  0.749608  1
  Al  Al4  1  0.998061  0.668375  0.922226  1
  Al  Al5  1  0.999033  0.663989  0.575051  1
  Al  Al6  1  0.336206  0.000242  0.424730  1
  Al  Al7  1  0.001645  0.336382  0.428773  1
  Al  Al8  1  0.663231  0.998917  0.575087  1
  Al  Al9  1  0.659004  0.993896  0.922598  1
  Al  Al10  1  0.335923  0.000346  0.075859  1
  Al  Al11  1  0.335840  0.335400  0.557179  1
  Al  Al12  1  0.664902  0.665517  0.442866  1
  Al  Al13  1  0.664342  0.665074  0.058414  1
  Al  Al14  1  0.338897  0.335462  0.942609  1
  Al  Al15  1  0.334670  0.546567  0.250394  1
  Al  Al16  1  0.665322  0.451237  0.750227  1
  Al  Al17  1  0.546273  0.335756  0.250331  1
  Al  Al18  1  0.450467  0.663149  0.749399  1
  Si  Si19  1  0.132381  0.128095  0.250899  1
  Si  Si20  1  0.870684  0.872116  0.749715  1
  Si  Si21  1  0.001264  0.338099  0.072646  1
  Ir  Ir22  1  0.679184  0.328672  0.001671  1
  Ir  Ir23  1  0.320178  0.663686  0.000213  1
  Ir  Ir24  1  0.328075  0.671102  0.499414  1
  Ir  Ir25  1  0.671890  0.328688  0.499270  1
  Ir  Ir26  1  0.999278  0.008490  0.001936  1
  Ir  Ir27  1  0.999650  0.000600  0.499464  1
