# generated using pymatgen
data_TiGeP4(PbO8)2
_symmetry_space_group_name_H-M   'P 1'
_cell_length_a   8.83486686
_cell_length_b   8.83438084
_cell_length_c   8.26335887
_cell_angle_alpha   65.37260345
_cell_angle_beta   65.25809869
_cell_angle_gamma   34.02538479
_symmetry_Int_Tables_number   1
_chemical_formula_structural   TiGeP4(PbO8)2
_chemical_formula_sum   'Ti1 Ge1 P4 Pb2 O16'
_cell_volume   324.65467514
_cell_formula_units_Z   1
loop_
 _symmetry_equiv_pos_site_id
 _symmetry_equiv_pos_as_xyz
  1  'x, y, z'
loop_
 _atom_site_type_symbol
 _atom_site_label
 _atom_site_symmetry_multiplicity
 _atom_site_fract_x
 _atom_site_fract_y
 _atom_site_fract_z
 _atom_site_occupancy
  Ti  Ti0  1  0.500000  0.000000  0.500000  1
  Ge  Ge1  1  0.000000  0.500000  0.000000  1
  P  P2  1  0.592611  0.115612  0.767095  1
  P  P3  1  0.885613  0.409693  0.748465  1
  P  P4  1  0.407389  0.884388  0.232905  1
  P  P5  1  0.114387  0.590307  0.251535  1
  Pb  Pb6  1  0.836507  0.163609  0.244269  1
  Pb  Pb7  1  0.163493  0.836391  0.755731  1
  O  O8  1  0.790198  0.869299  0.910956  1
  O  O9  1  0.126045  0.212386  0.603411  1
  O  O10  1  0.209802  0.130701  0.089044  1
  O  O11  1  0.873955  0.787614  0.396589  1
  O  O12  1  0.320151  0.378386  0.862503  1
  O  O13  1  0.623907  0.673694  0.655680  1
  O  O14  1  0.679849  0.621614  0.137497  1
  O  O15  1  0.376093  0.326306  0.344320  1
  O  O16  1  0.520973  0.056087  0.684438  1
  O  O17  1  0.953493  0.491402  0.807413  1
  O  O18  1  0.479027  0.943913  0.315562  1
  O  O19  1  0.046507  0.508598  0.192587  1
  O  O20  1  0.734099  0.164458  0.629083  1
  O  O21  1  0.848479  0.262299  0.897343  1
  O  O22  1  0.265901  0.835542  0.370917  1
  O  O23  1  0.151521  0.737701  0.102657  1
